MODEL 1
REMARK VINA RESULT:    -5.950      0.000      0.000
REMARK INTER + INTRA:          -8.290
REMARK INTER:                  -7.515
REMARK INTRA:                  -0.774
REMARK UNBOUND:                -0.774
REMARK SMILES Oc1ccc(CCc2cc(O)cc(O)c2)cc1
REMARK SMILES IDX 6 1 5 2 4 3 3 4 2 5 16 6 17 7 1 8 7 10 8 11 15 12 9 13 13 14
REMARK SMILES IDX 10 15 12 16 14 17 11 19
REMARK H PARENT 1 9 14 18 11 20
REMARK Flexibility Score: inf
ROOT
ATOM      1  C   UNL     1      40.760  23.810  50.875  1.00  0.00     0.040 C 
ENDROOT
BRANCH   1   2
ATOM      2  C   UNL     1      41.472  24.438  52.044  1.00  0.00    -0.047 A 
ATOM      3  C   UNL     1      42.847  24.222  52.234  1.00  0.00     0.007 A 
ATOM      4  C   UNL     1      43.513  24.833  53.302  1.00  0.00     0.046 A 
ATOM      5  C   UNL     1      42.819  25.670  54.180  1.00  0.00     0.115 A 
ATOM      6  C   UNL     1      40.780  25.290  52.920  1.00  0.00     0.007 A 
ATOM      7  C   UNL     1      41.449  25.898  53.986  1.00  0.00     0.046 A 
BRANCH   5   8
ATOM      8  O   UNL     1      43.496  26.271  55.238  1.00  0.00    -0.508 OA
ATOM      9  H   UNL     1      43.962  25.720  55.950  1.00  0.00     0.293 HD
ENDBRANCH   5   8
ENDBRANCH   1   2
BRANCH   1  10
ATOM     10  C   UNL     1      40.879  22.284  50.930  1.00  0.00     0.040 C 
BRANCH  10  11
ATOM     11  C   UNL     1      40.043  21.728  52.050  1.00  0.00    -0.040 A 
ATOM     12  C   UNL     1      40.658  21.209  53.202  1.00  0.00     0.050 A 
ATOM     13  C   UNL     1      38.641  21.776  51.980  1.00  0.00     0.050 A 
ATOM     14  C   UNL     1      39.882  20.721  54.259  1.00  0.00     0.119 A 
ATOM     15  C   UNL     1      37.862  21.288  53.038  1.00  0.00     0.119 A 
ATOM     16  C   UNL     1      38.483  20.760  54.174  1.00  0.00     0.092 A 
BRANCH  14  17
ATOM     17  O   UNL     1      40.510  20.204  55.389  1.00  0.00    -0.508 OA
ATOM     18  H   UNL     1      41.433  20.514  55.672  1.00  0.00     0.293 HD
ENDBRANCH  14  17
BRANCH  15  19
ATOM     19  O   UNL     1      36.471  21.327  52.971  1.00  0.00    -0.508 OA
ATOM     20  H   UNL     1      35.898  20.654  53.467  1.00  0.00     0.293 HD
ENDBRANCH  15  19
ENDBRANCH  10  11
ENDBRANCH   1  10
TORSDOF 6
ENDMDL
MODEL 2
REMARK VINA RESULT:    -5.921      0.106      1.178
REMARK INTER + INTRA:          -8.253
REMARK INTER:                  -7.449
REMARK INTRA:                  -0.804
REMARK UNBOUND:                -0.774
REMARK SMILES Oc1ccc(CCc2cc(O)cc(O)c2)cc1
REMARK SMILES IDX 6 1 5 2 4 3 3 4 2 5 16 6 17 7 1 8 7 10 8 11 15 12 9 13 13 14
REMARK SMILES IDX 10 15 12 16 14 17 11 19
REMARK H PARENT 1 9 14 18 11 20
REMARK Flexibility Score: inf
ROOT
ATOM      1  C   UNL     1      40.625  23.845  50.875  1.00  0.00     0.040 C 
ENDROOT
BRANCH   1   2
ATOM      2  C   UNL     1      41.370  24.520  51.997  1.00  0.00    -0.047 A 
ATOM      3  C   UNL     1      40.674  25.281  52.951  1.00  0.00     0.007 A 
ATOM      4  C   UNL     1      41.363  25.880  54.010  1.00  0.00     0.046 A 
ATOM      5  C   UNL     1      42.747  25.718  54.133  1.00  0.00     0.115 A 
ATOM      6  C   UNL     1      42.757  24.348  52.130  1.00  0.00     0.007 A 
ATOM      7  C   UNL     1      43.443  24.949  53.190  1.00  0.00     0.046 A 
BRANCH   5   8
ATOM      8  O   UNL     1      43.419  26.320  55.193  1.00  0.00    -0.508 OA
ATOM      9  H   UNL     1      44.337  26.005  55.486  1.00  0.00     0.293 HD
ENDBRANCH   5   8
ENDBRANCH   1   2
BRANCH   1  10
ATOM     10  C   UNL     1      40.799  22.325  50.951  1.00  0.00     0.040 C 
BRANCH  10  11
ATOM     11  C   UNL     1      39.988  21.756  52.083  1.00  0.00    -0.040 A 
ATOM     12  C   UNL     1      40.627  21.231  53.218  1.00  0.00     0.050 A 
ATOM     13  C   UNL     1      38.585  21.797  52.040  1.00  0.00     0.050 A 
ATOM     14  C   UNL     1      39.875  20.731  54.286  1.00  0.00     0.119 A 
ATOM     15  C   UNL     1      37.828  21.296  53.109  1.00  0.00     0.119 A 
ATOM     16  C   UNL     1      38.474  20.763  54.228  1.00  0.00     0.092 A 
BRANCH  14  17
ATOM     17  O   UNL     1      40.527  20.208  55.400  1.00  0.00    -0.508 OA
ATOM     18  H   UNL     1      41.511  19.967  55.374  1.00  0.00     0.293 HD
ENDBRANCH  14  17
BRANCH  15  19
ATOM     19  O   UNL     1      36.436  21.328  53.069  1.00  0.00    -0.508 OA
ATOM     20  H   UNL     1      35.918  20.882  52.322  1.00  0.00     0.293 HD
ENDBRANCH  15  19
ENDBRANCH  10  11
ENDBRANCH   1  10
TORSDOF 6
ENDMDL
MODEL 3
REMARK VINA RESULT:    -5.879      0.176      2.354
REMARK INTER + INTRA:          -8.200
REMARK INTER:                  -7.408
REMARK INTRA:                  -0.792
REMARK UNBOUND:                -0.774
REMARK SMILES Oc1ccc(CCc2cc(O)cc(O)c2)cc1
REMARK SMILES IDX 6 1 5 2 4 3 3 4 2 5 16 6 17 7 1 8 7 10 8 11 15 12 9 13 13 14
REMARK SMILES IDX 10 15 12 16 14 17 11 19
REMARK H PARENT 1 9 14 18 11 20
REMARK Flexibility Score: inf
ROOT
ATOM      1  C   UNL     1      40.719  24.000  50.875  1.00  0.00     0.040 C 
ENDROOT
BRANCH   1   2
ATOM      2  C   UNL     1      41.442  24.665  52.016  1.00  0.00    -0.047 A 
ATOM      3  C   UNL     1      40.722  25.368  52.996  1.00  0.00     0.007 A 
ATOM      4  C   UNL     1      41.391  25.958  54.073  1.00  0.00     0.046 A 
ATOM      5  C   UNL     1      42.780  25.843  54.188  1.00  0.00     0.115 A 
ATOM      6  C   UNL     1      42.835  24.540  52.142  1.00  0.00     0.007 A 
ATOM      7  C   UNL     1      43.501  25.131  53.219  1.00  0.00     0.046 A 
BRANCH   5   8
ATOM      8  O   UNL     1      43.433  26.435  55.267  1.00  0.00    -0.508 OA
ATOM      9  H   UNL     1      43.378  27.433  55.435  1.00  0.00     0.293 HD
ENDBRANCH   5   8
ENDBRANCH   1   2
BRANCH   1  10
ATOM     10  C   UNL     1      40.896  22.479  50.939  1.00  0.00     0.040 C 
BRANCH  10  11
ATOM     11  C   UNL     1      40.065  21.897  52.049  1.00  0.00    -0.040 A 
ATOM     12  C   UNL     1      38.664  21.879  51.950  1.00  0.00     0.050 A 
ATOM     13  C   UNL     1      40.684  21.315  53.167  1.00  0.00     0.050 A 
ATOM     14  C   UNL     1      37.890  21.309  52.966  1.00  0.00     0.119 A 
ATOM     15  C   UNL     1      39.910  20.743  54.187  1.00  0.00     0.119 A 
ATOM     16  C   UNL     1      38.515  20.743  54.085  1.00  0.00     0.092 A 
BRANCH  14  17
ATOM     17  O   UNL     1      36.501  21.307  52.852  1.00  0.00    -0.508 OA
ATOM     18  H   UNL     1      36.023  21.903  52.186  1.00  0.00     0.293 HD
ENDBRANCH  14  17
BRANCH  15  19
ATOM     19  O   UNL     1      40.517  20.170  55.302  1.00  0.00    -0.508 OA
ATOM     20  H   UNL     1      40.489  19.171  55.466  1.00  0.00     0.293 HD
ENDBRANCH  15  19
ENDBRANCH  10  11
ENDBRANCH   1  10
TORSDOF 6
ENDMDL
MODEL 4
REMARK VINA RESULT:    -5.546      1.389      2.051
REMARK INTER + INTRA:          -7.779
REMARK INTER:                  -7.295
REMARK INTRA:                  -0.484
REMARK UNBOUND:                -0.774
REMARK SMILES Oc1ccc(CCc2cc(O)cc(O)c2)cc1
REMARK SMILES IDX 6 1 5 2 4 3 3 4 2 5 16 6 17 7 1 8 7 10 8 11 15 12 9 13 13 14
REMARK SMILES IDX 10 15 12 16 14 17 11 19
REMARK H PARENT 1 9 14 18 11 20
REMARK Flexibility Score: inf
ROOT
ATOM      1  C   UNL     1      41.665  23.965  52.532  1.00  0.00     0.040 C 
ENDROOT
BRANCH   1   2
ATOM      2  C   UNL     1      41.339  25.177  53.363  1.00  0.00    -0.047 A 
ATOM      3  C   UNL     1      40.059  25.328  53.923  1.00  0.00     0.007 A 
ATOM      4  C   UNL     1      39.768  26.438  54.723  1.00  0.00     0.046 A 
ATOM      5  C   UNL     1      40.749  27.400  54.978  1.00  0.00     0.115 A 
ATOM      6  C   UNL     1      42.326  26.138  53.632  1.00  0.00     0.007 A 
ATOM      7  C   UNL     1      42.031  27.247  54.431  1.00  0.00     0.046 A 
BRANCH   5   8
ATOM      8  O   UNL     1      40.444  28.500  55.776  1.00  0.00    -0.508 OA
ATOM      9  H   UNL     1      39.724  29.163  55.511  1.00  0.00     0.293 HD
ENDBRANCH   5   8
ENDBRANCH   1   2
BRANCH   1  10
ATOM     10  C   UNL     1      40.453  23.545  51.694  1.00  0.00     0.040 C 
BRANCH  10  11
ATOM     11  C   UNL     1      39.780  22.345  52.302  1.00  0.00    -0.040 A 
ATOM     12  C   UNL     1      40.400  21.641  53.348  1.00  0.00     0.050 A 
ATOM     13  C   UNL     1      38.503  21.953  51.870  1.00  0.00     0.050 A 
ATOM     14  C   UNL     1      39.763  20.544  53.937  1.00  0.00     0.119 A 
ATOM     15  C   UNL     1      37.862  20.854  52.459  1.00  0.00     0.119 A 
ATOM     16  C   UNL     1      38.494  20.150  53.489  1.00  0.00     0.092 A 
BRANCH  14  17
ATOM     17  O   UNL     1      40.396  19.854  54.968  1.00  0.00    -0.508 OA
ATOM     18  H   UNL     1      39.871  19.312  55.644  1.00  0.00     0.293 HD
ENDBRANCH  14  17
BRANCH  15  19
ATOM     19  O   UNL     1      36.598  20.456  52.029  1.00  0.00    -0.508 OA
ATOM     20  H   UNL     1      35.755  20.824  52.453  1.00  0.00     0.293 HD
ENDBRANCH  15  19
ENDBRANCH  10  11
ENDBRANCH   1  10
TORSDOF 6
ENDMDL
MODEL 5
REMARK VINA RESULT:    -5.532      4.645      7.963
REMARK INTER + INTRA:          -7.762
REMARK INTER:                  -7.131
REMARK INTRA:                  -0.631
REMARK UNBOUND:                -0.774
REMARK SMILES Oc1ccc(CCc2cc(O)cc(O)c2)cc1
REMARK SMILES IDX 6 1 5 2 4 3 3 4 2 5 16 6 17 7 1 8 7 10 8 11 15 12 9 13 13 14
REMARK SMILES IDX 10 15 12 16 14 17 11 19
REMARK H PARENT 1 9 14 18 11 20
REMARK Flexibility Score: inf
ROOT
ATOM      1  C   UNL     1      37.000  16.272  51.998  1.00  0.00     0.040 C 
ENDROOT
BRANCH   1   2
ATOM      2  C   UNL     1      38.368  15.689  51.764  1.00  0.00    -0.047 A 
ATOM      3  C   UNL     1      39.361  16.447  51.122  1.00  0.00     0.007 A 
ATOM      4  C   UNL     1      40.641  15.916  50.935  1.00  0.00     0.046 A 
ATOM      5  C   UNL     1      40.945  14.630  51.394  1.00  0.00     0.115 A 
ATOM      6  C   UNL     1      38.680  14.404  52.236  1.00  0.00     0.007 A 
ATOM      7  C   UNL     1      39.961  13.875  52.047  1.00  0.00     0.046 A 
BRANCH   5   8
ATOM      8  O   UNL     1      42.224  14.115  51.201  1.00  0.00    -0.508 OA
ATOM      9  H   UNL     1      42.993  14.365  51.812  1.00  0.00     0.293 HD
ENDBRANCH   5   8
ENDBRANCH   1   2
BRANCH   1  10
ATOM     10  C   UNL     1      36.826  16.664  53.468  1.00  0.00     0.040 C 
BRANCH  10  11
ATOM     11  C   UNL     1      37.273  18.083  53.694  1.00  0.00    -0.040 A 
ATOM     12  C   UNL     1      36.374  19.146  53.507  1.00  0.00     0.050 A 
ATOM     13  C   UNL     1      38.574  18.353  54.148  1.00  0.00     0.050 A 
ATOM     14  C   UNL     1      36.777  20.464  53.746  1.00  0.00     0.119 A 
ATOM     15  C   UNL     1      38.980  19.673  54.389  1.00  0.00     0.119 A 
ATOM     16  C   UNL     1      38.082  20.725  54.186  1.00  0.00     0.092 A 
BRANCH  14  17
ATOM     17  O   UNL     1      35.873  21.505  53.549  1.00  0.00    -0.508 OA
ATOM     18  H   UNL     1      36.055  22.439  53.899  1.00  0.00     0.293 HD
ENDBRANCH  14  17
BRANCH  15  19
ATOM     19  O   UNL     1      40.272  19.948  54.833  1.00  0.00    -0.508 OA
ATOM     20  H   UNL     1      40.969  20.350  54.218  1.00  0.00     0.293 HD
ENDBRANCH  15  19
ENDBRANCH  10  11
ENDBRANCH   1  10
TORSDOF 6
ENDMDL
MODEL 6
REMARK VINA RESULT:    -5.505      1.391      2.880
REMARK INTER + INTRA:          -7.728
REMARK INTER:                  -7.281
REMARK INTRA:                  -0.447
REMARK UNBOUND:                -0.774
REMARK SMILES Oc1ccc(CCc2cc(O)cc(O)c2)cc1
REMARK SMILES IDX 6 1 5 2 4 3 3 4 2 5 16 6 17 7 1 8 7 10 8 11 15 12 9 13 13 14
REMARK SMILES IDX 10 15 12 16 14 17 11 19
REMARK H PARENT 1 9 14 18 11 20
REMARK Flexibility Score: inf
ROOT
ATOM      1  C   UNL     1      41.660  23.978  52.495  1.00  0.00     0.040 C 
ENDROOT
BRANCH   1   2
ATOM      2  C   UNL     1      41.329  25.187  53.329  1.00  0.00    -0.047 A 
ATOM      3  C   UNL     1      40.049  25.330  53.890  1.00  0.00     0.007 A 
ATOM      4  C   UNL     1      39.752  26.438  54.691  1.00  0.00     0.046 A 
ATOM      5  C   UNL     1      40.730  27.404  54.948  1.00  0.00     0.115 A 
ATOM      6  C   UNL     1      42.312  26.152  53.599  1.00  0.00     0.007 A 
ATOM      7  C   UNL     1      42.012  27.258  54.400  1.00  0.00     0.046 A 
BRANCH   5   8
ATOM      8  O   UNL     1      40.420  28.501  55.748  1.00  0.00    -0.508 OA
ATOM      9  H   UNL     1      40.749  28.568  56.705  1.00  0.00     0.293 HD
ENDBRANCH   5   8
ENDBRANCH   1   2
BRANCH   1  10
ATOM     10  C   UNL     1      40.443  23.540  51.674  1.00  0.00     0.040 C 
BRANCH  10  11
ATOM     11  C   UNL     1      39.757  22.371  52.328  1.00  0.00    -0.040 A 
ATOM     12  C   UNL     1      38.491  21.956  51.885  1.00  0.00     0.050 A 
ATOM     13  C   UNL     1      40.402  21.650  53.346  1.00  0.00     0.050 A 
ATOM     14  C   UNL     1      37.864  20.850  52.470  1.00  0.00     0.119 A 
ATOM     15  C   UNL     1      39.776  20.541  53.933  1.00  0.00     0.119 A 
ATOM     16  C   UNL     1      38.509  20.145  53.496  1.00  0.00     0.092 A 
BRANCH  14  17
ATOM     17  O   UNL     1      36.605  20.458  52.022  1.00  0.00    -0.508 OA
ATOM     18  H   UNL     1      36.082  19.725  52.488  1.00  0.00     0.293 HD
ENDBRANCH  14  17
BRANCH  15  19
ATOM     19  O   UNL     1      40.407  19.826  54.949  1.00  0.00    -0.508 OA
ATOM     20  H   UNL     1      41.314  19.397  54.810  1.00  0.00     0.293 HD
ENDBRANCH  15  19
ENDBRANCH  10  11
ENDBRANCH   1  10
TORSDOF 6
ENDMDL
MODEL 7
REMARK VINA RESULT:    -5.378      1.822      2.750
REMARK INTER + INTRA:          -7.567
REMARK INTER:                  -7.016
REMARK INTRA:                  -0.551
REMARK UNBOUND:                -0.774
REMARK SMILES Oc1ccc(CCc2cc(O)cc(O)c2)cc1
REMARK SMILES IDX 6 1 5 2 4 3 3 4 2 5 16 6 17 7 1 8 7 10 8 11 15 12 9 13 13 14
REMARK SMILES IDX 10 15 12 16 14 17 11 19
REMARK H PARENT 1 9 14 18 11 20
REMARK Flexibility Score: inf
ROOT
ATOM      1  C   UNL     1      40.554  21.599  52.135  1.00  0.00     0.040 C 
ENDROOT
BRANCH   1   2
ATOM      2  C   UNL     1      41.496  22.741  52.409  1.00  0.00    -0.047 A 
ATOM      3  C   UNL     1      40.993  24.029  52.654  1.00  0.00     0.007 A 
ATOM      4  C   UNL     1      41.868  25.083  52.941  1.00  0.00     0.046 A 
ATOM      5  C   UNL     1      43.247  24.859  52.996  1.00  0.00     0.115 A 
ATOM      6  C   UNL     1      42.880  22.517  52.478  1.00  0.00     0.007 A 
ATOM      7  C   UNL     1      43.752  23.572  52.765  1.00  0.00     0.046 A 
BRANCH   5   8
ATOM      8  O   UNL     1      44.105  25.917  53.283  1.00  0.00    -0.508 OA
ATOM      9  H   UNL     1      44.085  26.386  54.182  1.00  0.00     0.293 HD
ENDBRANCH   5   8
ENDBRANCH   1   2
BRANCH   1  10
ATOM     10  C   UNL     1      40.715  20.502  53.193  1.00  0.00     0.040 C 
BRANCH  10  11
ATOM     11  C   UNL     1      39.435  20.319  53.962  1.00  0.00    -0.040 A 
ATOM     12  C   UNL     1      38.881  21.393  54.679  1.00  0.00     0.050 A 
ATOM     13  C   UNL     1      38.755  19.091  53.924  1.00  0.00     0.050 A 
ATOM     14  C   UNL     1      37.674  21.234  55.369  1.00  0.00     0.119 A 
ATOM     15  C   UNL     1      37.545  18.930  54.615  1.00  0.00     0.119 A 
ATOM     16  C   UNL     1      37.009  20.001  55.337  1.00  0.00     0.092 A 
BRANCH  14  17
ATOM     17  O   UNL     1      37.143  22.308  56.079  1.00  0.00    -0.508 OA
ATOM     18  H   UNL     1      37.360  23.267  55.832  1.00  0.00     0.293 HD
ENDBRANCH  14  17
BRANCH  15  19
ATOM     19  O   UNL     1      36.869  17.713  54.587  1.00  0.00    -0.508 OA
ATOM     20  H   UNL     1      37.365  16.831  54.628  1.00  0.00     0.293 HD
ENDBRANCH  15  19
ENDBRANCH  10  11
ENDBRANCH   1  10
TORSDOF 6
ENDMDL
MODEL 8
REMARK VINA RESULT:    -5.338      1.321      2.573
REMARK INTER + INTRA:          -7.516
REMARK INTER:                  -6.891
REMARK INTRA:                  -0.625
REMARK UNBOUND:                -0.774
REMARK SMILES Oc1ccc(CCc2cc(O)cc(O)c2)cc1
REMARK SMILES IDX 6 1 5 2 4 3 3 4 2 5 16 6 17 7 1 8 7 10 8 11 15 12 9 13 13 14
REMARK SMILES IDX 10 15 12 16 14 17 11 19
REMARK H PARENT 1 9 14 18 11 20
REMARK Flexibility Score: inf
ROOT
ATOM      1  C   UNL     1      41.116  22.074  51.738  1.00  0.00     0.040 C 
ENDROOT
BRANCH   1   2
ATOM      2  C   UNL     1      41.717  23.320  52.332  1.00  0.00    -0.047 A 
ATOM      3  C   UNL     1      40.889  24.375  52.750  1.00  0.00     0.007 A 
ATOM      4  C   UNL     1      41.446  25.519  53.332  1.00  0.00     0.046 A 
ATOM      5  C   UNL     1      42.829  25.616  53.510  1.00  0.00     0.115 A 
ATOM      6  C   UNL     1      43.104  23.416  52.524  1.00  0.00     0.007 A 
ATOM      7  C   UNL     1      43.658  24.560  53.105  1.00  0.00     0.046 A 
BRANCH   5   8
ATOM      8  O   UNL     1      43.369  26.761  54.090  1.00  0.00    -0.508 OA
ATOM      9  H   UNL     1      42.779  27.473  54.506  1.00  0.00     0.293 HD
ENDBRANCH   5   8
ENDBRANCH   1   2
BRANCH   1  10
ATOM     10  C   UNL     1      40.986  20.980  52.802  1.00  0.00     0.040 C 
BRANCH  10  11
ATOM     11  C   UNL     1      39.562  20.868  53.274  1.00  0.00    -0.040 A 
ATOM     12  C   UNL     1      38.556  20.437  52.394  1.00  0.00     0.050 A 
ATOM     13  C   UNL     1      39.235  21.140  54.613  1.00  0.00     0.050 A 
ATOM     14  C   UNL     1      37.237  20.301  52.839  1.00  0.00     0.119 A 
ATOM     15  C   UNL     1      37.914  21.005  55.061  1.00  0.00     0.119 A 
ATOM     16  C   UNL     1      36.917  20.588  54.173  1.00  0.00     0.092 A 
BRANCH  14  17
ATOM     17  O   UNL     1      36.252  19.878  51.949  1.00  0.00    -0.508 OA
ATOM     18  H   UNL     1      36.487  19.495  51.041  1.00  0.00     0.293 HD
ENDBRANCH  14  17
BRANCH  15  19
ATOM     19  O   UNL     1      37.582  21.279  56.386  1.00  0.00    -0.508 OA
ATOM     20  H   UNL     1      38.261  21.663  57.033  1.00  0.00     0.293 HD
ENDBRANCH  15  19
ENDBRANCH  10  11
ENDBRANCH   1  10
TORSDOF 6
ENDMDL
MODEL 9
REMARK VINA RESULT:    -5.336      1.690      6.196
REMARK INTER + INTRA:          -7.514
REMARK INTER:                  -6.968
REMARK INTRA:                  -0.546
REMARK UNBOUND:                -0.774
REMARK SMILES Oc1ccc(CCc2cc(O)cc(O)c2)cc1
REMARK SMILES IDX 6 1 5 2 4 3 3 4 2 5 16 6 17 7 1 8 7 10 8 11 15 12 9 13 13 14
REMARK SMILES IDX 10 15 12 16 14 17 11 19
REMARK H PARENT 1 9 14 18 11 20
REMARK Flexibility Score: inf
ROOT
ATOM      1  C   UNL     1      41.261  21.802  52.510  1.00  0.00     0.040 C 
ENDROOT
BRANCH   1   2
ATOM      2  C   UNL     1      40.240  21.002  53.275  1.00  0.00    -0.047 A 
ATOM      3  C   UNL     1      39.243  21.654  54.018  1.00  0.00     0.007 A 
ATOM      4  C   UNL     1      38.275  20.910  54.702  1.00  0.00     0.046 A 
ATOM      5  C   UNL     1      38.289  19.513  54.642  1.00  0.00     0.115 A 
ATOM      6  C   UNL     1      40.243  19.600  53.206  1.00  0.00     0.007 A 
ATOM      7  C   UNL     1      39.275  18.859  53.891  1.00  0.00     0.046 A 
BRANCH   5   8
ATOM      8  O   UNL     1      37.319  18.786  55.327  1.00  0.00    -0.508 OA
ATOM      9  H   UNL     1      37.543  17.916  55.798  1.00  0.00     0.293 HD
ENDBRANCH   5   8
ENDBRANCH   1   2
BRANCH   1  10
ATOM     10  C   UNL     1      40.656  23.123  52.024  1.00  0.00     0.040 C 
BRANCH  10  11
ATOM     11  C   UNL     1      41.376  24.292  52.638  1.00  0.00    -0.040 A 
ATOM     12  C   UNL     1      40.658  25.284  53.326  1.00  0.00     0.050 A 
ATOM     13  C   UNL     1      42.777  24.373  52.577  1.00  0.00     0.050 A 
ATOM     14  C   UNL     1      41.328  26.355  53.926  1.00  0.00     0.119 A 
ATOM     15  C   UNL     1      43.451  25.446  53.178  1.00  0.00     0.119 A 
ATOM     16  C   UNL     1      42.726  26.435  53.848  1.00  0.00     0.092 A 
BRANCH  14  17
ATOM     17  O   UNL     1      40.598  27.332  54.598  1.00  0.00    -0.508 OA
ATOM     18  H   UNL     1      40.188  28.119  54.107  1.00  0.00     0.293 HD
ENDBRANCH  14  17
BRANCH  15  19
ATOM     19  O   UNL     1      44.840  25.535  53.116  1.00  0.00    -0.508 OA
ATOM     20  H   UNL     1      45.300  26.302  52.640  1.00  0.00     0.293 HD
ENDBRANCH  15  19
ENDBRANCH  10  11
ENDBRANCH   1  10
TORSDOF 6
ENDMDL
