MODEL 1
REMARK VINA RESULT:    -5.900      0.000      0.000
REMARK INTER + INTRA:          -5.900
REMARK INTER:                  -5.900
REMARK INTRA:                   0.000
REMARK UNBOUND:                 0.000
REMARK SMILES C[C@@H]1C(=O)CC[C@@H]2[C@]1(C)CC[C@@H]1[C@@]2(C)CC[C@]2(C)[C@H]3CC(C)(C)CC[C@]3(C)CC[C@@]12C
REMARK SMILES IDX 1 1 2 2 3 3 4 4 5 5 6 6 7 7 8 8 10 9 11 10 12 11 13 12 15 13
REMARK SMILES IDX 16 14 17 15 30 16 29 17 28 18 26 19 19 20 20 21 21 22 24 23
REMARK SMILES IDX 25 24 22 25 23 26 27 27 31 28 18 29 14 30 9 31
REMARK H PARENT
REMARK Flexibility Score: inf
ROOT
ATOM      1  C   UNL     1     233.980 232.220 231.875  1.00  0.00     0.016 C 
ATOM      2  C   UNL     1     235.460 232.559 232.158  1.00  0.00     0.059 C 
ATOM      3  C   UNL     1     236.025 231.503 233.084  1.00  0.00     0.136 C 
ATOM      4  O   UNL     1     236.624 230.543 232.626  1.00  0.00    -0.299 OA
ATOM      5  C   UNL     1     235.764 231.589 234.560  1.00  0.00     0.076 C 
ATOM      6  C   UNL     1     236.064 232.998 235.080  1.00  0.00     0.012 C 
ATOM      7  C   UNL     1     235.323 234.088 234.245  1.00  0.00     0.002 C 
ATOM      8  C   UNL     1     235.755 234.009 232.728  1.00  0.00    -0.020 C 
ATOM      9  C   UNL     1     234.966 235.066 231.923  1.00  0.00     0.008 C 
ATOM     10  C   UNL     1     235.088 236.472 232.502  1.00  0.00     0.005 C 
ATOM     11  C   UNL     1     234.625 236.626 233.986  1.00  0.00     0.002 C 
ATOM     12  C   UNL     1     235.248 235.526 234.954  1.00  0.00    -0.026 C 
ATOM     13  C   UNL     1     234.425 235.355 236.308  1.00  0.00     0.008 C 
ATOM     14  C   UNL     1     233.291 236.340 236.714  1.00  0.00     0.008 C 
ATOM     15  C   UNL     1     232.974 237.526 235.758  1.00  0.00    -0.024 C 
ATOM     16  C   UNL     1     233.098 236.998 234.254  1.00  0.00    -0.024 C 
ATOM     17  C   UNL     1     232.611 238.121 233.280  1.00  0.00     0.008 C 
ATOM     18  C   UNL     1     231.188 238.639 233.566  1.00  0.00     0.007 C 
ATOM     19  C   UNL     1     230.969 239.132 235.020  1.00  0.00    -0.029 C 
ATOM     20  C   UNL     1     231.496 238.054 236.036  1.00  0.00     0.002 C 
ATOM     21  C   UNL     1     231.177 238.452 237.512  1.00  0.00     0.011 C 
ATOM     22  C   UNL     1     229.663 238.729 237.765  1.00  0.00    -0.035 C 
ATOM     23  C   UNL     1     229.088 239.691 236.691  1.00  0.00     0.007 C 
ATOM     24  C   UNL     1     229.436 239.280 235.249  1.00  0.00     0.007 C 
ATOM     25  C   UNL     1     228.857 237.406 237.797  1.00  0.00     0.011 C 
ATOM     26  C   UNL     1     229.511 239.396 239.149  1.00  0.00     0.011 C 
ATOM     27  C   UNL     1     231.619 240.541 235.165  1.00  0.00     0.011 C 
ATOM     28  C   UNL     1     232.187 235.751 233.989  1.00  0.00     0.012 C 
ATOM     29  C   UNL     1     234.001 238.659 236.105  1.00  0.00     0.012 C 
ATOM     30  C   UNL     1     236.677 236.009 235.370  1.00  0.00     0.012 C 
ATOM     31  C   UNL     1     237.281 234.247 232.508  1.00  0.00     0.012 C 
ENDROOT
TORSDOF 0
ENDMDL
MODEL 2
REMARK VINA RESULT:    -5.892      4.159      5.982
REMARK INTER + INTRA:          -5.892
REMARK INTER:                  -5.892
REMARK INTRA:                   0.000
REMARK UNBOUND:                 0.000
REMARK SMILES C[C@@H]1C(=O)CC[C@@H]2[C@]1(C)CC[C@@H]1[C@@]2(C)CC[C@]2(C)[C@H]3CC(C)(C)CC[C@]3(C)CC[C@@]12C
REMARK SMILES IDX 1 1 2 2 3 3 4 4 5 5 6 6 7 7 8 8 10 9 11 10 12 11 13 12 15 13
REMARK SMILES IDX 16 14 17 15 30 16 29 17 28 18 26 19 19 20 20 21 21 22 24 23
REMARK SMILES IDX 25 24 22 25 23 26 27 27 31 28 18 29 14 30 9 31
REMARK H PARENT
REMARK Flexibility Score: inf
ROOT
ATOM      1  C   UNL     1     232.192 234.469 231.878  1.00  0.00     0.016 C 
ATOM      2  C   UNL     1     232.547 232.987 232.130  1.00  0.00     0.059 C 
ATOM      3  C   UNL     1     231.507 232.396 233.058  1.00  0.00     0.136 C 
ATOM      4  O   UNL     1     230.547 231.797 232.600  1.00  0.00    -0.299 OA
ATOM      5  C   UNL     1     231.607 232.632 234.538  1.00  0.00     0.076 C 
ATOM      6  C   UNL     1     233.025 232.335 235.035  1.00  0.00     0.012 C 
ATOM      7  C   UNL     1     234.099 233.101 234.202  1.00  0.00     0.002 C 
ATOM      8  C   UNL     1     234.006 232.695 232.678  1.00  0.00    -0.020 C 
ATOM      9  C   UNL     1     235.047 233.507 231.875  1.00  0.00     0.008 C 
ATOM     10  C   UNL     1     236.460 233.387 232.436  1.00  0.00     0.005 C 
ATOM     11  C   UNL     1     236.627 233.825 233.925  1.00  0.00     0.002 C 
ATOM     12  C   UNL     1     235.545 233.176 234.895  1.00  0.00    -0.026 C 
ATOM     13  C   UNL     1     235.382 233.973 236.265  1.00  0.00     0.008 C 
ATOM     14  C   UNL     1     236.362 235.108 236.680  1.00  0.00     0.008 C 
ATOM     15  C   UNL     1     237.534 235.453 235.716  1.00  0.00    -0.024 C 
ATOM     16  C   UNL     1     236.990 235.351 234.217  1.00  0.00    -0.024 C 
ATOM     17  C   UNL     1     238.096 235.865 233.238  1.00  0.00     0.008 C 
ATOM     18  C   UNL     1     238.606 237.288 233.544  1.00  0.00     0.007 C 
ATOM     19  C   UNL     1     239.113 237.485 234.995  1.00  0.00    -0.029 C 
ATOM     20  C   UNL     1     238.052 236.930 236.014  1.00  0.00     0.002 C 
ATOM     21  C   UNL     1     238.464 237.227 237.491  1.00  0.00     0.011 C 
ATOM     22  C   UNL     1     238.731 238.738 237.768  1.00  0.00    -0.035 C 
ATOM     23  C   UNL     1     239.676 239.341 236.693  1.00  0.00     0.007 C 
ATOM     24  C   UNL     1     239.250 239.015 235.250  1.00  0.00     0.007 C 
ATOM     25  C   UNL     1     237.402 239.531 237.830  1.00  0.00     0.011 C 
ATOM     26  C   UNL     1     239.413 238.872 239.147  1.00  0.00     0.011 C 
ATOM     27  C   UNL     1     240.530 236.845 235.112  1.00  0.00     0.011 C 
ATOM     28  C   UNL     1     235.732 236.256 233.983  1.00  0.00     0.012 C 
ATOM     29  C   UNL     1     238.680 234.430 236.032  1.00  0.00     0.012 C 
ATOM     30  C   UNL     1     236.045 231.744 235.280  1.00  0.00     0.012 C 
ATOM     31  C   UNL     1     234.255 231.175 232.428  1.00  0.00     0.012 C 
ENDROOT
TORSDOF 0
ENDMDL
MODEL 3
REMARK VINA RESULT:    -5.889      4.198      6.033
REMARK INTER + INTRA:          -5.889
REMARK INTER:                  -5.889
REMARK INTRA:                   0.000
REMARK UNBOUND:                 0.000
REMARK SMILES C[C@@H]1C(=O)CC[C@@H]2[C@]1(C)CC[C@@H]1[C@@]2(C)CC[C@]2(C)[C@H]3CC(C)(C)CC[C@]3(C)CC[C@@]12C
REMARK SMILES IDX 1 1 2 2 3 3 4 4 5 5 6 6 7 7 8 8 10 9 11 10 12 11 13 12 15 13
REMARK SMILES IDX 16 14 17 15 30 16 29 17 28 18 26 19 19 20 20 21 21 22 24 23
REMARK SMILES IDX 25 24 22 25 23 26 27 27 31 28 18 29 14 30 9 31
REMARK H PARENT
REMARK Flexibility Score: inf
ROOT
ATOM      1  C   UNL     1     236.136 234.008 231.875  1.00  0.00     0.016 C 
ATOM      2  C   UNL     1     235.789 235.483 232.171  1.00  0.00     0.059 C 
ATOM      3  C   UNL     1     236.846 236.048 233.096  1.00  0.00     0.136 C 
ATOM      4  O   UNL     1     237.799 236.656 232.636  1.00  0.00    -0.299 OA
ATOM      5  C   UNL     1     236.771 235.775 234.570  1.00  0.00     0.076 C 
ATOM      6  C   UNL     1     235.363 236.062 235.100  1.00  0.00     0.012 C 
ATOM      7  C   UNL     1     234.273 235.320 234.266  1.00  0.00     0.002 C 
ATOM      8  C   UNL     1     234.340 235.764 232.752  1.00  0.00    -0.020 C 
ATOM      9  C   UNL     1     233.284 234.975 231.947  1.00  0.00     0.008 C 
ATOM     10  C   UNL     1     231.880 235.083 232.535  1.00  0.00     0.005 C 
ATOM     11  C   UNL     1     231.738 234.608 234.015  1.00  0.00     0.002 C 
ATOM     12  C   UNL     1     232.839 235.230 234.982  1.00  0.00    -0.026 C 
ATOM     13  C   UNL     1     233.023 234.398 236.329  1.00  0.00     0.008 C 
ATOM     14  C   UNL     1     232.048 233.255 236.731  1.00  0.00     0.008 C 
ATOM     15  C   UNL     1     230.858 232.937 235.780  1.00  0.00    -0.024 C 
ATOM     16  C   UNL     1     231.377 233.077 234.274  1.00  0.00    -0.024 C 
ATOM     17  C   UNL     1     230.252 232.589 233.302  1.00  0.00     0.008 C 
ATOM     18  C   UNL     1     229.744 231.161 233.581  1.00  0.00     0.007 C 
ATOM     19  C   UNL     1     229.261 230.927 235.035  1.00  0.00    -0.029 C 
ATOM     20  C   UNL     1     230.342 231.454 236.049  1.00  0.00     0.002 C 
ATOM     21  C   UNL     1     229.954 231.121 237.525  1.00  0.00     0.011 C 
ATOM     22  C   UNL     1     229.688 229.603 237.768  1.00  0.00    -0.035 C 
ATOM     23  C   UNL     1     228.724 229.030 236.695  1.00  0.00     0.007 C 
ATOM     24  C   UNL     1     229.125 229.392 235.253  1.00  0.00     0.007 C 
ATOM     25  C   UNL     1     231.016 228.806 237.786  1.00  0.00     0.011 C 
ATOM     26  C   UNL     1     229.030 229.436 239.155  1.00  0.00     0.011 C 
ATOM     27  C   UNL     1     227.849 231.568 235.193  1.00  0.00     0.011 C 
ATOM     28  C   UNL     1     232.628 232.175 233.995  1.00  0.00     0.012 C 
ATOM     29  C   UNL     1     229.721 233.954 236.142  1.00  0.00     0.012 C 
ATOM     30  C   UNL     1     232.349 236.653 235.412  1.00  0.00     0.012 C 
ATOM     31  C   UNL     1     234.091 237.290 232.545  1.00  0.00     0.012 C 
ENDROOT
TORSDOF 0
ENDMDL
MODEL 4
REMARK VINA RESULT:    -5.882      3.224      8.470
REMARK INTER + INTRA:          -5.882
REMARK INTER:                  -5.882
REMARK INTRA:                   0.000
REMARK UNBOUND:                 0.000
REMARK SMILES C[C@@H]1C(=O)CC[C@@H]2[C@]1(C)CC[C@@H]1[C@@]2(C)CC[C@]2(C)[C@H]3CC(C)(C)CC[C@]3(C)CC[C@@]12C
REMARK SMILES IDX 1 1 2 2 3 3 4 4 5 5 6 6 7 7 8 8 10 9 11 10 12 11 13 12 15 13
REMARK SMILES IDX 16 14 17 15 30 16 29 17 28 18 26 19 19 20 20 21 21 22 24 23
REMARK SMILES IDX 25 24 22 25 23 26 27 27 31 28 18 29 14 30 9 31
REMARK H PARENT
REMARK Flexibility Score: inf
ROOT
ATOM      1  C   UNL     1     234.451 236.163 231.877  1.00  0.00     0.016 C 
ATOM      2  C   UNL     1     232.970 235.827 232.160  1.00  0.00     0.059 C 
ATOM      3  C   UNL     1     232.403 236.892 233.075  1.00  0.00     0.136 C 
ATOM      4  O   UNL     1     231.805 237.847 232.605  1.00  0.00    -0.299 OA
ATOM      5  C   UNL     1     232.662 236.822 234.552  1.00  0.00     0.076 C 
ATOM      6  C   UNL     1     232.361 235.418 235.085  1.00  0.00     0.012 C 
ATOM      7  C   UNL     1     233.104 234.320 234.264  1.00  0.00     0.002 C 
ATOM      8  C   UNL     1     232.675 234.383 232.745  1.00  0.00    -0.020 C 
ATOM      9  C   UNL     1     233.466 233.318 231.953  1.00  0.00     0.008 C 
ATOM     10  C   UNL     1     233.343 231.918 232.546  1.00  0.00     0.005 C 
ATOM     11  C   UNL     1     233.803 231.780 234.032  1.00  0.00     0.002 C 
ATOM     12  C   UNL     1     233.178 232.889 234.988  1.00  0.00    -0.026 C 
ATOM     13  C   UNL     1     233.999 233.075 236.341  1.00  0.00     0.008 C 
ATOM     14  C   UNL     1     235.132 232.094 236.759  1.00  0.00     0.008 C 
ATOM     15  C   UNL     1     235.452 230.898 235.817  1.00  0.00    -0.024 C 
ATOM     16  C   UNL     1     235.330 231.411 234.307  1.00  0.00    -0.024 C 
ATOM     17  C   UNL     1     235.819 230.278 233.345  1.00  0.00     0.008 C 
ATOM     18  C   UNL     1     237.242 229.763 233.640  1.00  0.00     0.007 C 
ATOM     19  C   UNL     1     237.459 229.286 235.099  1.00  0.00    -0.029 C 
ATOM     20  C   UNL     1     236.929 230.375 236.103  1.00  0.00     0.002 C 
ATOM     21  C   UNL     1     237.246 229.992 237.583  1.00  0.00     0.011 C 
ATOM     22  C   UNL     1     238.759 229.718 237.842  1.00  0.00    -0.035 C 
ATOM     23  C   UNL     1     239.336 228.745 236.779  1.00  0.00     0.007 C 
ATOM     24  C   UNL     1     238.991 229.141 235.332  1.00  0.00     0.007 C 
ATOM     25  C   UNL     1     239.564 231.041 237.862  1.00  0.00     0.011 C 
ATOM     26  C   UNL     1     238.909 229.065 239.233  1.00  0.00     0.011 C 
ATOM     27  C   UNL     1     236.808 227.878 235.257  1.00  0.00     0.011 C 
ATOM     28  C   UNL     1     236.242 232.655 234.031  1.00  0.00     0.012 C 
ATOM     29  C   UNL     1     234.424 229.769 236.174  1.00  0.00     0.012 C 
ATOM     30  C   UNL     1     231.749 232.410 235.407  1.00  0.00     0.012 C 
ATOM     31  C   UNL     1     231.150 234.142 232.525  1.00  0.00     0.012 C 
ENDROOT
TORSDOF 0
ENDMDL
MODEL 5
REMARK VINA RESULT:    -5.396      4.614      8.019
REMARK INTER + INTRA:          -5.396
REMARK INTER:                  -5.396
REMARK INTRA:                   0.000
REMARK UNBOUND:                 0.000
REMARK SMILES C[C@@H]1C(=O)CC[C@@H]2[C@]1(C)CC[C@@H]1[C@@]2(C)CC[C@]2(C)[C@H]3CC(C)(C)CC[C@]3(C)CC[C@@]12C
REMARK SMILES IDX 1 1 2 2 3 3 4 4 5 5 6 6 7 7 8 8 10 9 11 10 12 11 13 12 15 13
REMARK SMILES IDX 16 14 17 15 30 16 29 17 28 18 26 19 19 20 20 21 21 22 24 23
REMARK SMILES IDX 25 24 22 25 23 26 27 27 31 28 18 29 14 30 9 31
REMARK H PARENT
REMARK Flexibility Score: inf
ROOT
ATOM      1  C   UNL     1     243.457 237.213 236.813  1.00  0.00     0.016 C 
ATOM      2  C   UNL     1     242.790 238.346 237.624  1.00  0.00     0.059 C 
ATOM      3  C   UNL     1     242.906 238.013 239.096  1.00  0.00     0.136 C 
ATOM      4  O   UNL     1     243.828 238.466 239.755  1.00  0.00    -0.299 OA
ATOM      5  C   UNL     1     241.940 237.049 239.722  1.00  0.00     0.076 C 
ATOM      6  C   UNL     1     240.499 237.412 239.349  1.00  0.00     0.012 C 
ATOM      7  C   UNL     1     240.326 237.563 237.806  1.00  0.00     0.002 C 
ATOM      8  C   UNL     1     241.287 238.688 237.252  1.00  0.00    -0.020 C 
ATOM      9  C   UNL     1     241.127 238.778 235.718  1.00  0.00     0.008 C 
ATOM     10  C   UNL     1     239.679 238.965 235.277  1.00  0.00     0.005 C 
ATOM     11  C   UNL     1     238.688 237.854 235.750  1.00  0.00     0.002 C 
ATOM     12  C   UNL     1     238.801 237.533 237.305  1.00  0.00    -0.026 C 
ATOM     13  C   UNL     1     238.195 236.111 237.690  1.00  0.00     0.008 C 
ATOM     14  C   UNL     1     237.371 235.265 236.678  1.00  0.00     0.008 C 
ATOM     15  C   UNL     1     237.136 235.847 235.255  1.00  0.00    -0.024 C 
ATOM     16  C   UNL     1     238.475 236.592 234.798  1.00  0.00    -0.024 C 
ATOM     17  C   UNL     1     238.327 237.031 233.303  1.00  0.00     0.008 C 
ATOM     18  C   UNL     1     237.976 235.885 232.335  1.00  0.00     0.007 C 
ATOM     19  C   UNL     1     236.711 235.081 232.730  1.00  0.00    -0.029 C 
ATOM     20  C   UNL     1     236.793 234.664 234.245  1.00  0.00     0.002 C 
ATOM     21  C   UNL     1     235.600 233.741 234.651  1.00  0.00     0.011 C 
ATOM     22  C   UNL     1     235.466 232.472 233.754  1.00  0.00    -0.035 C 
ATOM     23  C   UNL     1     235.517 232.848 232.249  1.00  0.00     0.007 C 
ATOM     24  C   UNL     1     236.693 233.772 231.886  1.00  0.00     0.007 C 
ATOM     25  C   UNL     1     236.569 231.438 234.093  1.00  0.00     0.011 C 
ATOM     26  C   UNL     1     234.104 231.806 234.045  1.00  0.00     0.011 C 
ATOM     27  C   UNL     1     235.455 235.921 232.349  1.00  0.00     0.011 C 
ATOM     28  C   UNL     1     239.726 235.651 234.864  1.00  0.00     0.012 C 
ATOM     29  C   UNL     1     235.900 236.806 235.369  1.00  0.00     0.012 C 
ATOM     30  C   UNL     1     237.948 238.595 238.076  1.00  0.00     0.012 C 
ATOM     31  C   UNL     1     241.009 240.094 237.868  1.00  0.00     0.012 C 
ENDROOT
TORSDOF 0
ENDMDL
MODEL 6
REMARK VINA RESULT:    -5.389      4.363      7.939
REMARK INTER + INTRA:          -5.389
REMARK INTER:                  -5.389
REMARK INTRA:                   0.000
REMARK UNBOUND:                 0.000
REMARK SMILES C[C@@H]1C(=O)CC[C@@H]2[C@]1(C)CC[C@@H]1[C@@]2(C)CC[C@]2(C)[C@H]3CC(C)(C)CC[C@]3(C)CC[C@@]12C
REMARK SMILES IDX 1 1 2 2 3 3 4 4 5 5 6 6 7 7 8 8 10 9 11 10 12 11 13 12 15 13
REMARK SMILES IDX 16 14 17 15 30 16 29 17 28 18 26 19 19 20 20 21 21 22 24 23
REMARK SMILES IDX 25 24 22 25 23 26 27 27 31 28 18 29 14 30 9 31
REMARK H PARENT
REMARK Flexibility Score: inf
ROOT
ATOM      1  C   UNL     1     237.153 225.115 236.806  1.00  0.00     0.016 C 
ATOM      2  C   UNL     1     238.284 225.781 237.621  1.00  0.00     0.059 C 
ATOM      3  C   UNL     1     237.948 225.665 239.092  1.00  0.00     0.136 C 
ATOM      4  O   UNL     1     238.398 224.741 239.752  1.00  0.00    -0.299 OA
ATOM      5  C   UNL     1     236.982 226.630 239.716  1.00  0.00     0.076 C 
ATOM      6  C   UNL     1     237.346 228.071 239.345  1.00  0.00     0.012 C 
ATOM      7  C   UNL     1     237.501 228.245 237.802  1.00  0.00     0.002 C 
ATOM      8  C   UNL     1     238.628 227.284 237.251  1.00  0.00    -0.020 C 
ATOM      9  C   UNL     1     238.721 227.445 235.716  1.00  0.00     0.008 C 
ATOM     10  C   UNL     1     238.909 228.893 235.277  1.00  0.00     0.005 C 
ATOM     11  C   UNL     1     237.798 229.884 235.748  1.00  0.00     0.002 C 
ATOM     12  C   UNL     1     237.473 229.770 237.302  1.00  0.00    -0.026 C 
ATOM     13  C   UNL     1     236.049 230.377 237.684  1.00  0.00     0.008 C 
ATOM     14  C   UNL     1     235.206 231.202 236.671  1.00  0.00     0.008 C 
ATOM     15  C   UNL     1     235.792 231.437 235.248  1.00  0.00    -0.024 C 
ATOM     16  C   UNL     1     236.539 230.098 234.793  1.00  0.00    -0.024 C 
ATOM     17  C   UNL     1     236.981 230.247 233.300  1.00  0.00     0.008 C 
ATOM     18  C   UNL     1     235.837 230.599 232.328  1.00  0.00     0.007 C 
ATOM     19  C   UNL     1     235.032 231.864 232.722  1.00  0.00    -0.029 C 
ATOM     20  C   UNL     1     234.612 231.781 234.236  1.00  0.00     0.002 C 
ATOM     21  C   UNL     1     233.688 232.974 234.640  1.00  0.00     0.011 C 
ATOM     22  C   UNL     1     232.421 233.108 233.741  1.00  0.00    -0.035 C 
ATOM     23  C   UNL     1     232.801 233.059 232.236  1.00  0.00     0.007 C 
ATOM     24  C   UNL     1     233.726 231.882 231.875  1.00  0.00     0.007 C 
ATOM     25  C   UNL     1     231.386 232.006 234.076  1.00  0.00     0.011 C 
ATOM     26  C   UNL     1     231.755 234.471 234.031  1.00  0.00     0.011 C 
ATOM     27  C   UNL     1     235.874 233.120 232.344  1.00  0.00     0.011 C 
ATOM     28  C   UNL     1     235.597 228.847 234.856  1.00  0.00     0.012 C 
ATOM     29  C   UNL     1     236.751 232.673 235.366  1.00  0.00     0.012 C 
ATOM     30  C   UNL     1     238.532 230.622 238.076  1.00  0.00     0.012 C 
ATOM     31  C   UNL     1     240.032 227.561 237.870  1.00  0.00     0.012 C 
ENDROOT
TORSDOF 0
ENDMDL
MODEL 7
REMARK VINA RESULT:    -5.385      3.404      8.312
REMARK INTER + INTRA:          -5.385
REMARK INTER:                  -5.385
REMARK INTRA:                   0.000
REMARK UNBOUND:                 0.000
REMARK SMILES C[C@@H]1C(=O)CC[C@@H]2[C@]1(C)CC[C@@H]1[C@@]2(C)CC[C@]2(C)[C@H]3CC(C)(C)CC[C@]3(C)CC[C@@]12C
REMARK SMILES IDX 1 1 2 2 3 3 4 4 5 5 6 6 7 7 8 8 10 9 11 10 12 11 13 12 15 13
REMARK SMILES IDX 16 14 17 15 30 16 29 17 28 18 26 19 19 20 20 21 21 22 24 23
REMARK SMILES IDX 25 24 22 25 23 26 27 27 31 28 18 29 14 30 9 31
REMARK H PARENT
REMARK Flexibility Score: inf
ROOT
ATOM      1  C   UNL     1     231.263 243.434 236.885  1.00  0.00     0.016 C 
ATOM      2  C   UNL     1     230.125 242.752 237.675  1.00  0.00     0.059 C 
ATOM      3  C   UNL     1     230.444 242.844 239.152  1.00  0.00     0.136 C 
ATOM      4  O   UNL     1     229.985 243.755 239.822  1.00  0.00    -0.299 OA
ATOM      5  C   UNL     1     231.405 241.869 239.770  1.00  0.00     0.076 C 
ATOM      6  C   UNL     1     231.047 240.434 239.370  1.00  0.00     0.012 C 
ATOM      7  C   UNL     1     230.908 240.287 237.823  1.00  0.00     0.002 C 
ATOM      8  C   UNL     1     229.787 241.255 237.276  1.00  0.00    -0.020 C 
ATOM      9  C   UNL     1     229.711 241.121 235.738  1.00  0.00     0.008 C 
ATOM     10  C   UNL     1     229.529 239.680 235.272  1.00  0.00     0.005 C 
ATOM     11  C   UNL     1     230.637 238.682 235.738  1.00  0.00     0.002 C 
ATOM     12  C   UNL     1     230.944 238.770 237.297  1.00  0.00    -0.026 C 
ATOM     13  C   UNL     1     232.364 238.159 237.685  1.00  0.00     0.008 C 
ATOM     14  C   UNL     1     233.220 237.352 236.666  1.00  0.00     0.008 C 
ATOM     15  C   UNL     1     232.649 237.141 235.234  1.00  0.00    -0.024 C 
ATOM     16  C   UNL     1     231.906 238.486 234.793  1.00  0.00    -0.024 C 
ATOM     17  C   UNL     1     231.480 238.362 233.293  1.00  0.00     0.008 C 
ATOM     18  C   UNL     1     232.635 238.028 232.328  1.00  0.00     0.007 C 
ATOM     19  C   UNL     1     233.437 236.758 232.709  1.00  0.00    -0.029 C 
ATOM     20  C   UNL     1     233.841 236.815 234.229  1.00  0.00     0.002 C 
ATOM     21  C   UNL     1     234.762 235.617 234.623  1.00  0.00     0.011 C 
ATOM     22  C   UNL     1     236.039 235.499 233.735  1.00  0.00    -0.035 C 
ATOM     23  C   UNL     1     235.675 235.574 232.227  1.00  0.00     0.007 C 
ATOM     24  C   UNL     1     234.753 236.755 231.876  1.00  0.00     0.007 C 
ATOM     25  C   UNL     1     237.069 236.597 234.101  1.00  0.00     0.011 C 
ATOM     26  C   UNL     1     236.703 234.132 234.009  1.00  0.00     0.011 C 
ATOM     27  C   UNL     1     232.602 235.507 232.301  1.00  0.00     0.011 C 
ATOM     28  C   UNL     1     232.845 239.737 234.888  1.00  0.00     0.012 C 
ATOM     29  C   UNL     1     231.691 235.902 235.320  1.00  0.00     0.012 C 
ATOM     30  C   UNL     1     229.877 237.904 238.045  1.00  0.00     0.012 C 
ATOM     31  C   UNL     1     228.376 240.966 237.875  1.00  0.00     0.012 C 
ENDROOT
TORSDOF 0
ENDMDL
MODEL 8
REMARK VINA RESULT:    -5.377      5.206      7.338
REMARK INTER + INTRA:          -5.377
REMARK INTER:                  -5.377
REMARK INTRA:                   0.000
REMARK UNBOUND:                 0.000
REMARK SMILES C[C@@H]1C(=O)CC[C@@H]2[C@]1(C)CC[C@@H]1[C@@]2(C)CC[C@]2(C)[C@H]3CC(C)(C)CC[C@]3(C)CC[C@@]12C
REMARK SMILES IDX 1 1 2 2 3 3 4 4 5 5 6 6 7 7 8 8 10 9 11 10 12 11 13 12 15 13
REMARK SMILES IDX 16 14 17 15 30 16 29 17 28 18 26 19 19 20 20 21 21 22 24 23
REMARK SMILES IDX 25 24 22 25 23 26 27 27 31 28 18 29 14 30 9 31
REMARK H PARENT
REMARK Flexibility Score: inf
ROOT
ATOM      1  C   UNL     1     233.033 236.540 235.455  1.00  0.00     0.016 C 
ATOM      2  C   UNL     1     233.695 235.724 234.323  1.00  0.00     0.059 C 
ATOM      3  C   UNL     1     233.431 236.426 233.008  1.00  0.00     0.136 C 
ATOM      4  O   UNL     1     234.256 237.201 232.552  1.00  0.00    -0.299 OA
ATOM      5  C   UNL     1     232.112 236.242 232.316  1.00  0.00     0.076 C 
ATOM      6  C   UNL     1     231.751 234.755 232.232  1.00  0.00     0.012 C 
ATOM      7  C   UNL     1     231.831 234.065 233.628  1.00  0.00     0.002 C 
ATOM      8  C   UNL     1     233.287 234.195 234.225  1.00  0.00    -0.020 C 
ATOM      9  C   UNL     1     233.318 233.546 235.627  1.00  0.00     0.008 C 
ATOM     10  C   UNL     1     232.801 232.111 235.634  1.00  0.00     0.005 C 
ATOM     11  C   UNL     1     231.344 231.924 235.104  1.00  0.00     0.002 C 
ATOM     12  C   UNL     1     231.087 232.644 233.707  1.00  0.00    -0.026 C 
ATOM     13  C   UNL     1     229.540 232.892 233.413  1.00  0.00     0.008 C 
ATOM     14  C   UNL     1     228.423 232.266 234.295  1.00  0.00     0.008 C 
ATOM     15  C   UNL     1     228.850 231.368 235.492  1.00  0.00    -0.024 C 
ATOM     16  C   UNL     1     230.151 232.016 236.158  1.00  0.00    -0.024 C 
ATOM     17  C   UNL     1     230.494 231.233 237.468  1.00  0.00     0.008 C 
ATOM     18  C   UNL     1     229.336 231.152 238.484  1.00  0.00     0.007 C 
ATOM     19  C   UNL     1     228.020 230.574 237.905  1.00  0.00    -0.029 C 
ATOM     20  C   UNL     1     227.665 231.297 236.555  1.00  0.00     0.002 C 
ATOM     21  C   UNL     1     226.277 230.837 236.004  1.00  0.00     0.011 C 
ATOM     22  C   UNL     1     225.114 231.016 237.028  1.00  0.00    -0.035 C 
ATOM     23  C   UNL     1     225.497 230.423 238.411  1.00  0.00     0.007 C 
ATOM     24  C   UNL     1     226.877 230.884 238.916  1.00  0.00     0.007 C 
ATOM     25  C   UNL     1     224.724 232.508 237.165  1.00  0.00     0.011 C 
ATOM     26  C   UNL     1     223.875 230.261 236.501  1.00  0.00     0.011 C 
ATOM     27  C   UNL     1     228.167 229.026 237.799  1.00  0.00     0.011 C 
ATOM     28  C   UNL     1     229.918 233.508 236.578  1.00  0.00     0.012 C 
ATOM     29  C   UNL     1     229.101 229.937 234.901  1.00  0.00     0.012 C 
ATOM     30  C   UNL     1     231.599 231.692 232.576  1.00  0.00     0.012 C 
ATOM     31  C   UNL     1     234.380 233.523 233.337  1.00  0.00     0.012 C 
ENDROOT
TORSDOF 0
ENDMDL
MODEL 9
REMARK VINA RESULT:    -5.338      5.880      8.293
REMARK INTER + INTRA:          -5.338
REMARK INTER:                  -5.338
REMARK INTRA:                   0.000
REMARK UNBOUND:                 0.000
REMARK SMILES C[C@@H]1C(=O)CC[C@@H]2[C@]1(C)CC[C@@H]1[C@@]2(C)CC[C@]2(C)[C@H]3CC(C)(C)CC[C@]3(C)CC[C@@]12C
REMARK SMILES IDX 1 1 2 2 3 3 4 4 5 5 6 6 7 7 8 8 10 9 11 10 12 11 13 12 15 13
REMARK SMILES IDX 16 14 17 15 30 16 29 17 28 18 26 19 19 20 20 21 21 22 24 23
REMARK SMILES IDX 25 24 22 25 23 26 27 27 31 28 18 29 14 30 9 31
REMARK H PARENT
REMARK Flexibility Score: inf
ROOT
ATOM      1  C   UNL     1     224.979 231.099 236.757  1.00  0.00     0.016 C 
ATOM      2  C   UNL     1     225.634 229.914 237.500  1.00  0.00     0.059 C 
ATOM      3  C   UNL     1     225.474 230.133 238.989  1.00  0.00     0.136 C 
ATOM      4  O   UNL     1     224.537 229.626 239.585  1.00  0.00    -0.299 OA
ATOM      5  C   UNL     1     226.412 231.055 239.713  1.00  0.00     0.076 C 
ATOM      6  C   UNL     1     227.866 230.732 239.356  1.00  0.00     0.012 C 
ATOM      7  C   UNL     1     228.084 230.698 237.811  1.00  0.00     0.002 C 
ATOM      8  C   UNL     1     227.150 229.611 237.147  1.00  0.00    -0.020 C 
ATOM      9  C   UNL     1     227.354 229.639 235.615  1.00  0.00     0.008 C 
ATOM     10  C   UNL     1     228.816 229.496 235.204  1.00  0.00     0.005 C 
ATOM     11  C   UNL     1     229.782 230.575 235.787  1.00  0.00     0.002 C 
ATOM     12  C   UNL     1     229.622 230.778 237.358  1.00  0.00    -0.026 C 
ATOM     13  C   UNL     1     230.204 232.172 237.866  1.00  0.00     0.008 C 
ATOM     14  C   UNL     1     231.048 233.097 236.945  1.00  0.00     0.008 C 
ATOM     15  C   UNL     1     231.328 232.625 235.488  1.00  0.00    -0.024 C 
ATOM     16  C   UNL     1     230.010 231.907 234.939  1.00  0.00    -0.024 C 
ATOM     17  C   UNL     1     230.204 231.582 233.421  1.00  0.00     0.008 C 
ATOM     18  C   UNL     1     230.571 232.801 232.551  1.00  0.00     0.007 C 
ATOM     19  C   UNL     1     231.817 233.583 233.042  1.00  0.00    -0.029 C 
ATOM     20  C   UNL     1     231.688 233.883 234.580  1.00  0.00     0.002 C 
ATOM     21  C   UNL     1     232.860 234.782 235.089  1.00  0.00     0.011 C 
ATOM     22  C   UNL     1     233.007 236.117 234.294  1.00  0.00    -0.035 C 
ATOM     23  C   UNL     1     233.003 235.854 232.764  1.00  0.00     0.007 C 
ATOM     24  C   UNL     1     231.846 234.951 232.299  1.00  0.00     0.007 C 
ATOM     25  C   UNL     1     231.886 237.114 234.678  1.00  0.00     0.011 C 
ATOM     26  C   UNL     1     234.355 236.768 234.673  1.00  0.00     0.011 C 
ATOM     27  C   UNL     1     233.091 232.783 232.635  1.00  0.00     0.011 C 
ATOM     28  C   UNL     1     228.748 232.831 235.040  1.00  0.00     0.012 C 
ATOM     29  C   UNL     1     232.570 231.670 235.566  1.00  0.00     0.012 C 
ATOM     30  C   UNL     1     230.463 229.668 238.071  1.00  0.00     0.012 C 
ATOM     31  C   UNL     1     227.424 228.165 237.663  1.00  0.00     0.012 C 
ENDROOT
TORSDOF 0
ENDMDL
