MODEL 1
REMARK VINA RESULT:    -3.738      0.000      0.000
REMARK INTER + INTRA:          -7.162
REMARK INTER:                  -5.923
REMARK INTRA:                  -1.239
REMARK UNBOUND:                -1.239
REMARK SMILES C=CCCCCCCCCCCC
REMARK SMILES IDX 7 1 8 2 9 3 10 4 11 5 12 6 13 7 6 8 5 9 4 10 3 11 2 12 1 13
REMARK H PARENT
REMARK Flexibility Score: inf
ROOT
ATOM      1  C   UNL     1       0.831  15.616  17.680  1.00  0.00     0.000 C 
ENDROOT
BRANCH   1   2
ATOM      2  C   UNL     1       1.771  16.821  17.505  1.00  0.00     0.000 C 
BRANCH   2   3
ATOM      3  C   UNL     1       1.379  17.707  16.312  1.00  0.00    -0.000 C 
BRANCH   3   4
ATOM      4  C   UNL     1       0.114  17.210  15.590  1.00  0.00    -0.000 C 
BRANCH   4   5
ATOM      5  C   UNL     1       0.239  17.318  14.055  1.00  0.00    -0.000 C 
BRANCH   5   6
ATOM      6  C   UNL     1       1.481  18.098  13.593  1.00  0.00    -0.003 C 
ATOM      7  C   UNL     1       2.281  17.368  12.516  1.00  0.00     0.004 C 
ENDBRANCH   5   6
ENDBRANCH   4   5
ENDBRANCH   3   4
ENDBRANCH   2   3
ENDBRANCH   1   2
BRANCH   1   8
ATOM      8  C   UNL     1       1.576  14.269  17.654  1.00  0.00     0.000 C 
BRANCH   8   9
ATOM      9  C   UNL     1       0.934  13.177  16.773  1.00  0.00     0.000 C 
BRANCH   9  10
ATOM     10  C   UNL     1       1.651  12.911  15.434  1.00  0.00     0.004 C 
BRANCH  10  11
ATOM     11  C   UNL     1       2.683  13.981  15.048  1.00  0.00     0.027 C 
BRANCH  11  12
ATOM     12  C   UNL     1       3.062  13.886  13.593  1.00  0.00    -0.035 C 
ATOM     13  C   UNL     1       4.336  13.862  13.196  1.00  0.00     0.004 C 
ENDBRANCH  11  12
ENDBRANCH  10  11
ENDBRANCH   9  10
ENDBRANCH   8   9
ENDBRANCH   1   8
TORSDOF 10
ENDMDL
MODEL 2
REMARK VINA RESULT:    -3.677      1.487      4.355
REMARK INTER + INTRA:          -7.065
REMARK INTER:                  -5.908
REMARK INTRA:                  -1.157
REMARK UNBOUND:                -1.239
REMARK SMILES C=CCCCCCCCCCCC
REMARK SMILES IDX 7 1 8 2 9 3 10 4 11 5 12 6 13 7 6 8 5 9 4 10 3 11 2 12 1 13
REMARK H PARENT
REMARK Flexibility Score: inf
ROOT
ATOM      1  C   UNL     1       0.788  13.335  17.349  1.00  0.00     0.000 C 
ENDROOT
BRANCH   1   2
ATOM      2  C   UNL     1       0.362  12.648  16.040  1.00  0.00     0.000 C 
BRANCH   2   3
ATOM      3  C   UNL     1       1.522  12.513  15.039  1.00  0.00    -0.000 C 
BRANCH   3   4
ATOM      4  C   UNL     1       2.594  13.604  15.218  1.00  0.00    -0.000 C 
BRANCH   4   5
ATOM      5  C   UNL     1       2.805  14.428  13.930  1.00  0.00    -0.000 C 
BRANCH   5   6
ATOM      6  C   UNL     1       4.136  14.129  13.220  1.00  0.00    -0.003 C 
ATOM      7  C   UNL     1       4.029  13.002  12.195  1.00  0.00     0.004 C 
ENDBRANCH   5   6
ENDBRANCH   4   5
ENDBRANCH   3   4
ENDBRANCH   2   3
ENDBRANCH   1   2
BRANCH   1   8
ATOM      8  C   UNL     1      -0.331  14.195  17.963  1.00  0.00     0.000 C 
BRANCH   8   9
ATOM      9  C   UNL     1      -0.168  15.717  17.779  1.00  0.00     0.000 C 
BRANCH   9  10
ATOM     10  C   UNL     1      -0.129  16.200  16.315  1.00  0.00     0.004 C 
BRANCH  10  11
ATOM     11  C   UNL     1       1.125  17.009  15.952  1.00  0.00     0.027 C 
BRANCH  11  12
ATOM     12  C   UNL     1       1.878  17.447  17.179  1.00  0.00    -0.035 C 
ATOM     13  C   UNL     1       2.267  18.712  17.355  1.00  0.00     0.004 C 
ENDBRANCH  11  12
ENDBRANCH  10  11
ENDBRANCH   9  10
ENDBRANCH   8   9
ENDBRANCH   1   8
TORSDOF 10
ENDMDL
MODEL 3
REMARK VINA RESULT:    -3.665      1.566      5.504
REMARK INTER + INTRA:          -7.046
REMARK INTER:                  -5.677
REMARK INTRA:                  -1.369
REMARK UNBOUND:                -1.239
REMARK SMILES C=CCCCCCCCCCCC
REMARK SMILES IDX 7 1 8 2 9 3 10 4 11 5 12 6 13 7 6 8 5 9 4 10 3 11 2 12 1 13
REMARK H PARENT
REMARK Flexibility Score: inf
ROOT
ATOM      1  C   UNL     1       2.701  14.462  14.352  1.00  0.00     0.000 C 
ENDROOT
BRANCH   1   2
ATOM      2  C   UNL     1       2.383  13.537  15.540  1.00  0.00     0.000 C 
BRANCH   2   3
ATOM      3  C   UNL     1       1.007  12.864  15.413  1.00  0.00    -0.000 C 
BRANCH   3   4
ATOM      4  C   UNL     1       0.071  13.196  16.589  1.00  0.00    -0.000 C 
BRANCH   4   5
ATOM      5  C   UNL     1       0.686  12.807  17.950  1.00  0.00    -0.000 C 
BRANCH   5   6
ATOM      6  C   UNL     1      -0.279  12.032  18.863  1.00  0.00    -0.003 C 
ATOM      7  C   UNL     1      -1.088  12.940  19.787  1.00  0.00     0.004 C 
ENDBRANCH   5   6
ENDBRANCH   4   5
ENDBRANCH   3   4
ENDBRANCH   2   3
ENDBRANCH   1   2
BRANCH   1   8
ATOM      8  C   UNL     1       1.440  15.089  13.730  1.00  0.00     0.000 C 
BRANCH   8   9
ATOM      9  C   UNL     1       1.547  16.591  13.397  1.00  0.00     0.000 C 
BRANCH   9  10
ATOM     10  C   UNL     1       0.816  17.533  14.374  1.00  0.00     0.004 C 
BRANCH  10  11
ATOM     11  C   UNL     1       0.460  16.889  15.722  1.00  0.00     0.027 C 
BRANCH  11  12
ATOM     12  C   UNL     1       1.478  17.219  16.781  1.00  0.00    -0.035 C 
ATOM     13  C   UNL     1       1.762  16.373  17.775  1.00  0.00     0.004 C 
ENDBRANCH  11  12
ENDBRANCH  10  11
ENDBRANCH   9  10
ENDBRANCH   8   9
ENDBRANCH   1   8
TORSDOF 10
ENDMDL
MODEL 4
REMARK VINA RESULT:    -3.643      1.594      4.180
REMARK INTER + INTRA:          -7.011
REMARK INTER:                  -5.460
REMARK INTRA:                  -1.551
REMARK UNBOUND:                -1.239
REMARK SMILES C=CCCCCCCCCCCC
REMARK SMILES IDX 7 1 8 2 9 3 10 4 11 5 12 6 13 7 6 8 5 9 4 10 3 11 2 12 1 13
REMARK H PARENT
REMARK Flexibility Score: inf
ROOT
ATOM      1  C   UNL     1       2.868  14.243  14.591  1.00  0.00     0.000 C 
ENDROOT
BRANCH   1   2
ATOM      2  C   UNL     1       1.772  14.576  13.563  1.00  0.00     0.000 C 
BRANCH   2   3
ATOM      3  C   UNL     1       1.182  15.982  13.764  1.00  0.00    -0.000 C 
BRANCH   3   4
ATOM      4  C   UNL     1      -0.155  15.964  14.526  1.00  0.00    -0.000 C 
BRANCH   4   5
ATOM      5  C   UNL     1      -0.145  16.915  15.741  1.00  0.00    -0.000 C 
BRANCH   5   6
ATOM      6  C   UNL     1       1.269  17.309  16.203  1.00  0.00    -0.003 C 
ATOM      7  C   UNL     1       1.676  16.648  17.519  1.00  0.00     0.004 C 
ENDBRANCH   5   6
ENDBRANCH   4   5
ENDBRANCH   3   4
ENDBRANCH   2   3
ENDBRANCH   1   2
BRANCH   1   8
ATOM      8  C   UNL     1       2.326  13.483  15.815  1.00  0.00     0.000 C 
BRANCH   8   9
ATOM      9  C   UNL     1       1.144  12.533  15.532  1.00  0.00     0.000 C 
BRANCH   9  10
ATOM     10  C   UNL     1      -0.114  12.780  16.388  1.00  0.00     0.004 C 
BRANCH  10  11
ATOM     11  C   UNL     1       0.179  13.238  17.824  1.00  0.00     0.027 C 
BRANCH  11  12
ATOM     12  C   UNL     1      -0.383  12.278  18.839  1.00  0.00    -0.035 C 
ATOM     13  C   UNL     1      -0.911  12.699  19.991  1.00  0.00     0.004 C 
ENDBRANCH  11  12
ENDBRANCH  10  11
ENDBRANCH   9  10
ENDBRANCH   8   9
ENDBRANCH   1   8
TORSDOF 10
ENDMDL
MODEL 5
REMARK VINA RESULT:    -3.628      0.907      3.979
REMARK INTER + INTRA:          -6.987
REMARK INTER:                  -5.418
REMARK INTRA:                  -1.569
REMARK UNBOUND:                -1.239
REMARK SMILES C=CCCCCCCCCCCC
REMARK SMILES IDX 7 1 8 2 9 3 10 4 11 5 12 6 13 7 6 8 5 9 4 10 3 11 2 12 1 13
REMARK H PARENT
REMARK Flexibility Score: inf
ROOT
ATOM      1  C   UNL     1       0.323  14.419  17.866  1.00  0.00     0.000 C 
ENDROOT
BRANCH   1   2
ATOM      2  C   UNL     1       0.359  12.944  17.432  1.00  0.00     0.000 C 
BRANCH   2   3
ATOM      3  C   UNL     1       0.198  12.772  15.913  1.00  0.00    -0.000 C 
BRANCH   3   4
ATOM      4  C   UNL     1       1.518  12.404  15.211  1.00  0.00    -0.000 C 
BRANCH   4   5
ATOM      5  C   UNL     1       1.849  13.368  14.053  1.00  0.00    -0.000 C 
BRANCH   5   6
ATOM      6  C   UNL     1       3.118  14.205  14.293  1.00  0.00    -0.003 C 
ATOM      7  C   UNL     1       4.249  13.871  13.322  1.00  0.00     0.004 C 
ENDBRANCH   5   6
ENDBRANCH   4   5
ENDBRANCH   3   4
ENDBRANCH   2   3
ENDBRANCH   1   2
BRANCH   1   8
ATOM      8  C   UNL     1       1.646  15.156  17.589  1.00  0.00     0.000 C 
BRANCH   8   9
ATOM      9  C   UNL     1       1.509  16.496  16.838  1.00  0.00     0.000 C 
BRANCH   9  10
ATOM     10  C   UNL     1       0.153  16.720  16.139  1.00  0.00     0.004 C 
BRANCH  10  11
ATOM     11  C   UNL     1       0.204  16.596  14.609  1.00  0.00     0.027 C 
BRANCH  11  12
ATOM     12  C   UNL     1       0.913  17.766  13.981  1.00  0.00    -0.035 C 
ATOM     13  C   UNL     1       1.841  17.603  13.034  1.00  0.00     0.004 C 
ENDBRANCH  11  12
ENDBRANCH  10  11
ENDBRANCH   9  10
ENDBRANCH   8   9
ENDBRANCH   1   8
TORSDOF 10
ENDMDL
MODEL 6
REMARK VINA RESULT:    -3.597      0.975      1.669
REMARK INTER + INTRA:          -6.938
REMARK INTER:                  -5.780
REMARK INTRA:                  -1.158
REMARK UNBOUND:                -1.239
REMARK SMILES C=CCCCCCCCCCCC
REMARK SMILES IDX 7 1 8 2 9 3 10 4 11 5 12 6 13 7 6 8 5 9 4 10 3 11 2 12 1 13
REMARK H PARENT
REMARK Flexibility Score: inf
ROOT
ATOM      1  C   UNL     1       1.897  14.510  17.692  1.00  0.00     0.000 C 
ENDROOT
BRANCH   1   2
ATOM      2  C   UNL     1       1.184  15.869  17.588  1.00  0.00     0.000 C 
BRANCH   2   3
ATOM      3  C   UNL     1      -0.299  15.731  17.208  1.00  0.00    -0.000 C 
BRANCH   3   4
ATOM      4  C   UNL     1      -0.666  16.521  15.938  1.00  0.00    -0.000 C 
BRANCH   4   5
ATOM      5  C   UNL     1       0.394  17.587  15.590  1.00  0.00    -0.000 C 
BRANCH   5   6
ATOM      6  C   UNL     1       0.567  17.812  14.078  1.00  0.00    -0.003 C 
ATOM      7  C   UNL     1      -0.676  18.400  13.414  1.00  0.00     0.004 C 
ENDBRANCH   5   6
ENDBRANCH   4   5
ENDBRANCH   3   4
ENDBRANCH   2   3
ENDBRANCH   1   2
BRANCH   1   8
ATOM      8  C   UNL     1       1.127  13.377  16.990  1.00  0.00     0.000 C 
BRANCH   8   9
ATOM      9  C   UNL     1       1.612  13.034  15.567  1.00  0.00     0.000 C 
BRANCH   9  10
ATOM     10  C   UNL     1       2.890  13.770  15.115  1.00  0.00     0.004 C 
BRANCH  10  11
ATOM     11  C   UNL     1       2.677  14.742  13.946  1.00  0.00     0.027 C 
BRANCH  11  12
ATOM     12  C   UNL     1       3.729  14.571  12.883  1.00  0.00    -0.035 C 
ATOM     13  C   UNL     1       4.210  13.370  12.553  1.00  0.00     0.004 C 
ENDBRANCH  11  12
ENDBRANCH  10  11
ENDBRANCH   9  10
ENDBRANCH   8   9
ENDBRANCH   1   8
TORSDOF 10
ENDMDL
MODEL 7
REMARK VINA RESULT:    -3.578      1.339      3.422
REMARK INTER + INTRA:          -6.908
REMARK INTER:                  -5.787
REMARK INTRA:                  -1.122
REMARK UNBOUND:                -1.239
REMARK SMILES C=CCCCCCCCCCCC
REMARK SMILES IDX 7 1 8 2 9 3 10 4 11 5 12 6 13 7 6 8 5 9 4 10 3 11 2 12 1 13
REMARK H PARENT
REMARK Flexibility Score: inf
ROOT
ATOM      1  C   UNL     1       1.830  17.126  17.391  1.00  0.00     0.000 C 
ENDROOT
BRANCH   1   2
ATOM      2  C   UNL     1       1.387  18.012  16.214  1.00  0.00     0.000 C 
BRANCH   2   3
ATOM      3  C   UNL     1       0.028  17.590  15.634  1.00  0.00    -0.000 C 
BRANCH   3   4
ATOM      4  C   UNL     1       0.047  17.464  14.100  1.00  0.00    -0.000 C 
BRANCH   4   5
ATOM      5  C   UNL     1       1.417  17.848  13.502  1.00  0.00    -0.000 C 
BRANCH   5   6
ATOM      6  C   UNL     1       2.117  16.688  12.773  1.00  0.00    -0.003 C 
ATOM      7  C   UNL     1       2.141  15.396  13.587  1.00  0.00     0.004 C 
ENDBRANCH   5   6
ENDBRANCH   4   5
ENDBRANCH   3   4
ENDBRANCH   2   3
ENDBRANCH   1   2
BRANCH   1   8
ATOM      8  C   UNL     1       0.955  15.869  17.553  1.00  0.00     0.000 C 
BRANCH   8   9
ATOM      9  C   UNL     1       1.726  14.534  17.616  1.00  0.00     0.000 C 
BRANCH   9  10
ATOM     10  C   UNL     1       1.149  13.402  16.742  1.00  0.00     0.004 C 
BRANCH  10  11
ATOM     11  C   UNL     1      -0.074  12.699  17.348  1.00  0.00     0.027 C 
BRANCH  11  12
ATOM     12  C   UNL     1       0.132  12.385  18.807  1.00  0.00    -0.035 C 
ATOM     13  C   UNL     1      -0.765  12.724  19.735  1.00  0.00     0.004 C 
ENDBRANCH  11  12
ENDBRANCH  10  11
ENDBRANCH   9  10
ENDBRANCH   8   9
ENDBRANCH   1   8
TORSDOF 10
ENDMDL
MODEL 8
REMARK VINA RESULT:    -3.476      1.133      3.467
REMARK INTER + INTRA:          -6.746
REMARK INTER:                  -5.095
REMARK INTRA:                  -1.651
REMARK UNBOUND:                -1.239
REMARK SMILES C=CCCCCCCCCCCC
REMARK SMILES IDX 7 1 8 2 9 3 10 4 11 5 12 6 13 7 6 8 5 9 4 10 3 11 2 12 1 13
REMARK H PARENT
REMARK Flexibility Score: inf
ROOT
ATOM      1  C   UNL     1       2.637  13.762  15.395  1.00  0.00     0.000 C 
ENDROOT
BRANCH   1   2
ATOM      2  C   UNL     1       2.611  14.606  14.109  1.00  0.00     0.000 C 
BRANCH   2   3
ATOM      3  C   UNL     1       1.274  14.501  13.359  1.00  0.00    -0.000 C 
BRANCH   3   4
ATOM      4  C   UNL     1       0.479  15.820  13.370  1.00  0.00    -0.000 C 
BRANCH   4   5
ATOM      5  C   UNL     1       1.403  17.055  13.435  1.00  0.00    -0.000 C 
BRANCH   5   6
ATOM      6  C   UNL     1       0.702  18.320  13.959  1.00  0.00    -0.003 C 
ATOM      7  C   UNL     1      -0.819  18.261  13.828  1.00  0.00     0.004 C 
ENDBRANCH   5   6
ENDBRANCH   4   5
ENDBRANCH   3   4
ENDBRANCH   2   3
ENDBRANCH   1   2
BRANCH   1   8
ATOM      8  C   UNL     1       1.524  12.698  15.432  1.00  0.00     0.000 C 
BRANCH   8   9
ATOM      9  C   UNL     1       0.495  12.860  16.569  1.00  0.00     0.000 C 
BRANCH   9  10
ATOM     10  C   UNL     1       0.926  13.798  17.714  1.00  0.00     0.004 C 
BRANCH  10  11
ATOM     11  C   UNL     1       0.069  15.065  17.848  1.00  0.00     0.027 C 
BRANCH  11  12
ATOM     12  C   UNL     1       0.645  16.211  17.059  1.00  0.00    -0.035 C 
ATOM     13  C   UNL     1       1.779  16.817  17.419  1.00  0.00     0.004 C 
ENDBRANCH  11  12
ENDBRANCH  10  11
ENDBRANCH   9  10
ENDBRANCH   8   9
ENDBRANCH   1   8
TORSDOF 10
ENDMDL
MODEL 9
REMARK VINA RESULT:    -3.440      1.078      4.410
REMARK INTER + INTRA:          -6.689
REMARK INTER:                  -4.895
REMARK INTRA:                  -1.794
REMARK UNBOUND:                -1.239
REMARK SMILES C=CCCCCCCCCCCC
REMARK SMILES IDX 7 1 8 2 9 3 10 4 11 5 12 6 13 7 6 8 5 9 4 10 3 11 2 12 1 13
REMARK H PARENT
REMARK Flexibility Score: inf
ROOT
ATOM      1  C   UNL     1       2.973  13.868  15.079  1.00  0.00     0.000 C 
ENDROOT
BRANCH   1   2
ATOM      2  C   UNL     1       1.820  12.862  15.238  1.00  0.00     0.000 C 
BRANCH   2   3
ATOM      3  C   UNL     1       0.943  13.156  16.465  1.00  0.00    -0.000 C 
BRANCH   3   4
ATOM      4  C   UNL     1      -0.291  14.011  16.124  1.00  0.00    -0.000 C 
BRANCH   4   5
ATOM      5  C   UNL     1      -0.132  15.474  16.591  1.00  0.00    -0.000 C 
BRANCH   5   6
ATOM      6  C   UNL     1       0.942  15.660  17.677  1.00  0.00    -0.003 C 
ATOM      7  C   UNL     1       1.853  16.859  17.419  1.00  0.00     0.004 C 
ENDBRANCH   5   6
ENDBRANCH   4   5
ENDBRANCH   3   4
ENDBRANCH   2   3
ENDBRANCH   1   2
BRANCH   1   8
ATOM      8  C   UNL     1       2.954  14.588  13.718  1.00  0.00     0.000 C 
BRANCH   8   9
ATOM      9  C   UNL     1       1.638  14.461  12.924  1.00  0.00     0.000 C 
BRANCH   9  10
ATOM     10  C   UNL     1       0.760  15.729  12.904  1.00  0.00     0.004 C 
BRANCH  10  11
ATOM     11  C   UNL     1       1.552  17.044  12.955  1.00  0.00     0.027 C 
BRANCH  11  12
ATOM     12  C   UNL     1       0.948  18.017  13.933  1.00  0.00    -0.035 C 
ATOM     13  C   UNL     1      -0.352  18.319  13.917  1.00  0.00     0.004 C 
ENDBRANCH  11  12
ENDBRANCH  10  11
ENDBRANCH   9  10
ENDBRANCH   8   9
ENDBRANCH   1   8
TORSDOF 10
ENDMDL
