MODEL 1
REMARK VINA RESULT:    -2.169      0.000      0.000
REMARK INTER + INTRA:          -2.169
REMARK INTER:                  -2.169
REMARK INTRA:                   0.000
REMARK UNBOUND:                 0.000
REMARK SMILES CC1=CC[C@@]2(C)CCCC(C)(C)[C@]23C[C@H]13
REMARK SMILES IDX 1 1 2 2 3 3 4 4 5 5 7 6 8 7 9 8 10 9 13 10 15 11 14 12 11 13
REMARK SMILES IDX 12 14 6 15
REMARK H PARENT
REMARK Flexibility Score: inf
ROOT
ATOM      1  C   UNL     1     135.009 140.499 123.933  1.00  0.00     0.039 C 
ATOM      2  C   UNL     1     135.935 139.333 124.151  1.00  0.00    -0.074 C 
ATOM      3  C   UNL     1     135.780 138.585 125.251  1.00  0.00    -0.027 C 
ATOM      4  C   UNL     1     136.750 137.513 125.622  1.00  0.00     0.034 C 
ATOM      5  C   UNL     1     137.319 136.709 124.412  1.00  0.00    -0.022 C 
ATOM      6  C   UNL     1     136.262 135.653 123.991  1.00  0.00     0.008 C 
ATOM      7  C   UNL     1     136.644 134.875 122.725  1.00  0.00     0.001 C 
ATOM      8  C   UNL     1     136.877 135.806 121.530  1.00  0.00     0.007 C 
ATOM      9  C   UNL     1     137.947 136.907 121.767  1.00  0.00    -0.029 C 
ATOM     10  C   UNL     1     137.655 137.619 123.160  1.00  0.00    -0.012 C 
ATOM     11  C   UNL     1     136.935 138.984 123.072  1.00  0.00     0.022 C 
ATOM     12  C   UNL     1     138.405 138.921 123.488  1.00  0.00     0.017 C 
ATOM     13  C   UNL     1     139.371 136.293 121.756  1.00  0.00     0.012 C 
ATOM     14  C   UNL     1     137.874 137.850 120.529  1.00  0.00     0.012 C 
ATOM     15  C   UNL     1     138.593 136.002 124.951  1.00  0.00     0.012 C 
ENDROOT
TORSDOF 0
ENDMDL
MODEL 2
REMARK VINA RESULT:    -1.870     12.450     15.641
REMARK INTER + INTRA:          -1.870
REMARK INTER:                  -1.870
REMARK INTRA:                   0.000
REMARK UNBOUND:                 0.000
REMARK SMILES CC1=CC[C@@]2(C)CCCC(C)(C)[C@]23C[C@H]13
REMARK SMILES IDX 1 1 2 2 3 3 4 4 5 5 7 6 8 7 9 8 10 9 13 10 15 11 14 12 11 13
REMARK SMILES IDX 12 14 6 15
REMARK H PARENT
REMARK Flexibility Score: inf
ROOT
ATOM      1  C   UNL     1     137.227 149.035 124.957  1.00  0.00     0.039 C 
ATOM      2  C   UNL     1     136.645 150.420 124.872  1.00  0.00    -0.074 C 
ATOM      3  C   UNL     1     136.330 151.056 126.007  1.00  0.00    -0.027 C 
ATOM      4  C   UNL     1     135.606 152.361 126.008  1.00  0.00     0.034 C 
ATOM      5  C   UNL     1     136.021 153.332 124.859  1.00  0.00    -0.022 C 
ATOM      6  C   UNL     1     137.346 154.029 125.269  1.00  0.00     0.008 C 
ATOM      7  C   UNL     1     137.936 154.920 124.167  1.00  0.00     0.001 C 
ATOM      8  C   UNL     1     138.199 154.136 122.877  1.00  0.00     0.007 C 
ATOM      9  C   UNL     1     136.956 153.404 122.300  1.00  0.00    -0.029 C 
ATOM     10  C   UNL     1     136.240 152.600 123.472  1.00  0.00    -0.012 C 
ATOM     11  C   UNL     1     136.537 151.084 123.518  1.00  0.00     0.022 C 
ATOM     12  C   UNL     1     135.153 151.578 123.100  1.00  0.00     0.017 C 
ATOM     13  C   UNL     1     135.976 154.420 121.657  1.00  0.00     0.012 C 
ATOM     14  C   UNL     1     137.483 152.517 121.133  1.00  0.00     0.012 C 
ATOM     15  C   UNL     1     134.875 154.377 124.769  1.00  0.00     0.012 C 
ENDROOT
TORSDOF 0
ENDMDL
MODEL 3
REMARK VINA RESULT:    -1.862      1.465      3.529
REMARK INTER + INTRA:          -1.862
REMARK INTER:                  -1.862
REMARK INTRA:                   0.000
REMARK UNBOUND:                 0.000
REMARK SMILES CC1=CC[C@@]2(C)CCCC(C)(C)[C@]23C[C@H]13
REMARK SMILES IDX 1 1 2 2 3 3 4 4 5 5 7 6 8 7 9 8 10 9 13 10 15 11 14 12 11 13
REMARK SMILES IDX 12 14 6 15
REMARK H PARENT
REMARK Flexibility Score: inf
ROOT
ATOM      1  C   UNL     1     141.741 137.126 124.921  1.00  0.00     0.039 C 
ATOM      2  C   UNL     1     140.344 136.571 124.836  1.00  0.00    -0.074 C 
ATOM      3  C   UNL     1     139.709 136.252 125.971  1.00  0.00    -0.027 C 
ATOM      4  C   UNL     1     138.391 135.552 125.971  1.00  0.00     0.034 C 
ATOM      5  C   UNL     1     137.422 136.001 124.833  1.00  0.00    -0.022 C 
ATOM      6  C   UNL     1     136.751 137.332 125.264  1.00  0.00     0.008 C 
ATOM      7  C   UNL     1     135.865 137.953 124.175  1.00  0.00     0.001 C 
ATOM      8  C   UNL     1     136.647 138.219 122.884  1.00  0.00     0.007 C 
ATOM      9  C   UNL     1     137.352 136.970 122.286  1.00  0.00    -0.029 C 
ATOM     10  C   UNL     1     138.149 136.224 123.444  1.00  0.00    -0.012 C 
ATOM     11  C   UNL     1     139.671 136.493 123.485  1.00  0.00     0.022 C 
ATOM     12  C   UNL     1     139.149 135.123 123.052  1.00  0.00     0.017 C 
ATOM     13  C   UNL     1     136.314 136.018 121.637  1.00  0.00     0.012 C 
ATOM     14  C   UNL     1     138.242 137.496 121.121  1.00  0.00     0.012 C 
ATOM     15  C   UNL     1     136.356 134.875 124.734  1.00  0.00     0.012 C 
ENDROOT
TORSDOF 0
ENDMDL
MODEL 4
REMARK VINA RESULT:    -1.853      1.153      2.752
REMARK INTER + INTRA:          -1.853
REMARK INTER:                  -1.853
REMARK INTRA:                   0.000
REMARK UNBOUND:                 0.000
REMARK SMILES CC1=CC[C@@]2(C)CCCC(C)(C)[C@]23C[C@H]13
REMARK SMILES IDX 1 1 2 2 3 3 4 4 5 5 7 6 8 7 9 8 10 9 13 10 15 11 14 12 11 13
REMARK SMILES IDX 12 14 6 15
REMARK H PARENT
REMARK Flexibility Score: inf
ROOT
ATOM      1  C   UNL     1     135.999 140.360 124.903  1.00  0.00     0.039 C 
ATOM      2  C   UNL     1     136.133 138.948 124.401  1.00  0.00    -0.074 C 
ATOM      3  C   UNL     1     135.296 138.522 123.446  1.00  0.00    -0.027 C 
ATOM      4  C   UNL     1     135.257 137.097 123.005  1.00  0.00     0.034 C 
ATOM      5  C   UNL     1     136.652 136.399 122.952  1.00  0.00    -0.022 C 
ATOM      6  C   UNL     1     137.355 136.821 121.634  1.00  0.00     0.008 C 
ATOM      7  C   UNL     1     138.795 136.303 121.515  1.00  0.00     0.001 C 
ATOM      8  C   UNL     1     139.670 136.771 122.683  1.00  0.00     0.007 C 
ATOM      9  C   UNL     1     139.129 136.390 124.089  1.00  0.00    -0.029 C 
ATOM     10  C   UNL     1     137.588 136.778 124.171  1.00  0.00    -0.012 C 
ATOM     11  C   UNL     1     137.272 138.097 124.914  1.00  0.00     0.022 C 
ATOM     12  C   UNL     1     136.900 136.756 125.547  1.00  0.00     0.017 C 
ATOM     13  C   UNL     1     139.326 134.875 124.355  1.00  0.00     0.012 C 
ATOM     14  C   UNL     1     140.040 137.130 125.114  1.00  0.00     0.012 C 
ATOM     15  C   UNL     1     136.348 134.875 122.929  1.00  0.00     0.012 C 
ENDROOT
TORSDOF 0
ENDMDL
MODEL 5
REMARK VINA RESULT:    -1.650     14.429     16.262
REMARK INTER + INTRA:          -1.650
REMARK INTER:                  -1.650
REMARK INTRA:                   0.000
REMARK UNBOUND:                 0.000
REMARK SMILES CC1=CC[C@@]2(C)CCCC(C)(C)[C@]23C[C@H]13
REMARK SMILES IDX 1 1 2 2 3 3 4 4 5 5 7 6 8 7 9 8 10 9 13 10 15 11 14 12 11 13
REMARK SMILES IDX 12 14 6 15
REMARK H PARENT
REMARK Flexibility Score: inf
ROOT
ATOM      1  C   UNL     1     140.510 155.121 124.499  1.00  0.00     0.039 C 
ATOM      2  C   UNL     1     139.218 154.349 124.536  1.00  0.00    -0.074 C 
ATOM      3  C   UNL     1     138.389 154.533 125.571  1.00  0.00    -0.027 C 
ATOM      4  C   UNL     1     137.169 153.696 125.766  1.00  0.00     0.034 C 
ATOM      5  C   UNL     1     136.426 153.319 124.447  1.00  0.00    -0.022 C 
ATOM      6  C   UNL     1     135.563 154.534 124.012  1.00  0.00     0.008 C 
ATOM      7  C   UNL     1     134.875 154.342 122.654  1.00  0.00     0.001 C 
ATOM      8  C   UNL     1     135.885 154.062 121.536  1.00  0.00     0.007 C 
ATOM      9  C   UNL     1     136.810 152.840 121.791  1.00  0.00    -0.029 C 
ATOM     10  C   UNL     1     137.407 152.944 123.262  1.00  0.00    -0.012 C 
ATOM     11  C   UNL     1     138.856 153.476 123.356  1.00  0.00     0.022 C 
ATOM     12  C   UNL     1     138.563 152.005 123.651  1.00  0.00     0.017 C 
ATOM     13  C   UNL     1     136.023 151.516 121.614  1.00  0.00     0.012 C 
ATOM     14  C   UNL     1     137.876 152.863 120.655  1.00  0.00     0.012 C 
ATOM     15  C   UNL     1     135.510 152.121 124.819  1.00  0.00     0.012 C 
ENDROOT
TORSDOF 0
ENDMDL
MODEL 6
REMARK VINA RESULT:    -1.544      1.238      4.039
REMARK INTER + INTRA:          -1.544
REMARK INTER:                  -1.544
REMARK INTRA:                   0.000
REMARK UNBOUND:                 0.000
REMARK SMILES CC1=CC[C@@]2(C)CCCC(C)(C)[C@]23C[C@H]13
REMARK SMILES IDX 1 1 2 2 3 3 4 4 5 5 7 6 8 7 9 8 10 9 13 10 15 11 14 12 11 13
REMARK SMILES IDX 12 14 6 15
REMARK H PARENT
REMARK Flexibility Score: inf
ROOT
ATOM      1  C   UNL     1     140.124 134.964 126.022  1.00  0.00     0.039 C 
ATOM      2  C   UNL     1     139.598 135.532 124.731  1.00  0.00    -0.074 C 
ATOM      3  C   UNL     1     139.846 134.875 123.591  1.00  0.00    -0.027 C 
ATOM      4  C   UNL     1     139.499 135.447 122.256  1.00  0.00     0.034 C 
ATOM      5  C   UNL     1     138.159 136.245 122.224  1.00  0.00    -0.022 C 
ATOM      6  C   UNL     1     136.991 135.228 122.127  1.00  0.00     0.008 C 
ATOM      7  C   UNL     1     135.603 135.877 122.215  1.00  0.00     0.001 C 
ATOM      8  C   UNL     1     135.425 136.672 123.513  1.00  0.00     0.007 C 
ATOM      9  C   UNL     1     136.496 137.774 123.749  1.00  0.00    -0.029 C 
ATOM     10  C   UNL     1     137.939 137.150 123.504  1.00  0.00    -0.012 C 
ATOM     11  C   UNL     1     138.723 136.764 124.780  1.00  0.00     0.022 C 
ATOM     12  C   UNL     1     139.170 137.962 123.943  1.00  0.00     0.017 C 
ATOM     13  C   UNL     1     136.253 138.979 122.804  1.00  0.00     0.012 C 
ATOM     14  C   UNL     1     136.255 138.304 125.194  1.00  0.00     0.012 C 
ATOM     15  C   UNL     1     138.224 137.105 120.932  1.00  0.00     0.012 C 
ENDROOT
TORSDOF 0
ENDMDL
MODEL 7
REMARK VINA RESULT:    -0.744     12.452     15.681
REMARK INTER + INTRA:          -0.744
REMARK INTER:                  -0.744
REMARK INTRA:                   0.000
REMARK UNBOUND:                 0.000
REMARK SMILES CC1=CC[C@@]2(C)CCCC(C)(C)[C@]23C[C@H]13
REMARK SMILES IDX 1 1 2 2 3 3 4 4 5 5 7 6 8 7 9 8 10 9 13 10 15 11 14 12 11 13
REMARK SMILES IDX 12 14 6 15
REMARK H PARENT
REMARK Flexibility Score: inf
ROOT
ATOM      1  C   UNL     1     137.518 149.165 125.166  1.00  0.00     0.039 C 
ATOM      2  C   UNL     1     137.031 150.269 124.265  1.00  0.00    -0.074 C 
ATOM      3  C   UNL     1     135.798 150.184 123.752  1.00  0.00    -0.027 C 
ATOM      4  C   UNL     1     135.297 151.149 122.730  1.00  0.00     0.034 C 
ATOM      5  C   UNL     1     135.770 152.621 122.945  1.00  0.00    -0.022 C 
ATOM      6  C   UNL     1     134.875 153.264 124.037  1.00  0.00     0.008 C 
ATOM      7  C   UNL     1     135.317 154.677 124.438  1.00  0.00     0.001 C 
ATOM      8  C   UNL     1     136.763 154.703 124.944  1.00  0.00     0.007 C 
ATOM      9  C   UNL     1     137.807 154.130 123.946  1.00  0.00    -0.029 C 
ATOM     10  C   UNL     1     137.283 152.731 123.399  1.00  0.00    -0.012 C 
ATOM     11  C   UNL     1     137.911 151.481 124.058  1.00  0.00     0.022 C 
ATOM     12  C   UNL     1     138.262 151.840 122.614  1.00  0.00     0.017 C 
ATOM     13  C   UNL     1     138.043 155.121 122.777  1.00  0.00     0.012 C 
ATOM     14  C   UNL     1     139.153 154.058 124.728  1.00  0.00     0.012 C 
ATOM     15  C   UNL     1     135.540 153.330 121.582  1.00  0.00     0.012 C 
ENDROOT
TORSDOF 0
ENDMDL
MODEL 8
REMARK VINA RESULT:     0.084      1.340      3.047
REMARK INTER + INTRA:           0.084
REMARK INTER:                   0.084
REMARK INTRA:                   0.000
REMARK UNBOUND:                 0.000
REMARK SMILES CC1=CC[C@@]2(C)CCCC(C)(C)[C@]23C[C@H]13
REMARK SMILES IDX 1 1 2 2 3 3 4 4 5 5 7 6 8 7 9 8 10 9 13 10 15 11 14 12 11 13
REMARK SMILES IDX 12 14 6 15
REMARK H PARENT
REMARK Flexibility Score: inf
ROOT
ATOM      1  C   UNL     1     137.850 138.291 119.602  1.00  0.00     0.039 C 
ATOM      2  C   UNL     1     137.505 138.242 121.067  1.00  0.00    -0.074 C 
ATOM      3  C   UNL     1     136.272 138.595 121.450  1.00  0.00    -0.027 C 
ATOM      4  C   UNL     1     135.897 138.727 122.889  1.00  0.00     0.034 C 
ATOM      5  C   UNL     1     136.547 137.661 123.825  1.00  0.00    -0.022 C 
ATOM      6  C   UNL     1     135.735 136.345 123.700  1.00  0.00     0.008 C 
ATOM      7  C   UNL     1     136.345 135.171 124.477  1.00  0.00     0.001 C 
ATOM      8  C   UNL     1     137.782 134.878 124.033  1.00  0.00     0.007 C 
ATOM      9  C   UNL     1     138.751 136.088 124.136  1.00  0.00    -0.029 C 
ATOM     10  C   UNL     1     138.061 137.359 123.472  1.00  0.00    -0.012 C 
ATOM     11  C   UNL     1     138.528 137.697 122.038  1.00  0.00     0.022 C 
ATOM     12  C   UNL     1     138.924 138.603 123.203  1.00  0.00     0.017 C 
ATOM     13  C   UNL     1     139.110 136.373 125.618  1.00  0.00     0.012 C 
ATOM     14  C   UNL     1     140.076 135.638 123.451  1.00  0.00     0.012 C 
ATOM     15  C   UNL     1     136.409 138.238 125.261  1.00  0.00     0.012 C 
ENDROOT
TORSDOF 0
ENDMDL
