MODEL 1
REMARK VINA RESULT:    -3.881      0.000      0.000
REMARK INTER + INTRA:          -4.932
REMARK INTER:                  -4.788
REMARK INTRA:                  -0.144
REMARK UNBOUND:                -0.144
REMARK SMILES CCCCCC(=O)[O-]
REMARK SMILES IDX 4 1 5 2 6 3 7 4 8 5 3 6 2 7 1 8
REMARK H PARENT
REMARK Flexibility Score: inf
ROOT
ATOM      1  C   UNL     1      19.802  77.932  16.290  1.00  0.00     0.006 C 
ENDROOT
BRANCH   1   2
ATOM      2  C   UNL     1      21.053  77.144  15.883  1.00  0.00     0.053 C 
BRANCH   2   3
ATOM      3  C   UNL     1      21.359  76.088  16.897  1.00  0.00     0.041 C 
ATOM      4  O   UNL     1      21.722  76.412  18.059  1.00  0.00    -0.550 OA
ATOM      5  O   UNL     1      21.290  74.746  16.546  1.00  0.00    -0.550 OA
ENDBRANCH   2   3
ENDBRANCH   1   2
BRANCH   1   6
ATOM      6  C   UNL     1      20.105  79.401  16.636  1.00  0.00     0.000 C 
BRANCH   6   7
ATOM      7  C   UNL     1      20.101  79.725  18.140  1.00  0.00    -0.003 C 
ATOM      8  C   UNL     1      20.972  80.930  18.494  1.00  0.00     0.004 C 
ENDBRANCH   6   7
ENDBRANCH   1   6
TORSDOF 4
ENDMDL
MODEL 2
REMARK VINA RESULT:    -3.854      2.320      2.492
REMARK INTER + INTRA:          -4.899
REMARK INTER:                  -4.803
REMARK INTRA:                  -0.097
REMARK UNBOUND:                -0.144
REMARK SMILES CCCCCC(=O)[O-]
REMARK SMILES IDX 4 1 5 2 6 3 7 4 8 5 3 6 2 7 1 8
REMARK H PARENT
REMARK Flexibility Score: inf
ROOT
ATOM      1  C   UNL     1      20.361  77.634  18.448  1.00  0.00     0.006 C 
ENDROOT
BRANCH   1   2
ATOM      2  C   UNL     1      19.400  76.779  19.283  1.00  0.00     0.053 C 
BRANCH   2   3
ATOM      3  C   UNL     1      20.073  75.519  19.726  1.00  0.00     0.041 C 
ATOM      4  O   UNL     1      20.634  75.464  20.853  1.00  0.00    -0.550 OA
ATOM      5  O   UNL     1      20.125  74.423  18.876  1.00  0.00    -0.550 OA
ENDBRANCH   2   3
ENDBRANCH   1   2
BRANCH   1   6
ATOM      6  C   UNL     1      19.668  78.330  17.263  1.00  0.00     0.000 C 
BRANCH   6   7
ATOM      7  C   UNL     1      20.144  79.768  16.989  1.00  0.00    -0.003 C 
ATOM      8  C   UNL     1      20.643  80.482  18.245  1.00  0.00     0.004 C 
ENDBRANCH   6   7
ENDBRANCH   1   6
TORSDOF 4
ENDMDL
MODEL 3
REMARK VINA RESULT:    -3.770     19.930     20.872
REMARK INTER + INTRA:          -4.795
REMARK INTER:                  -4.645
REMARK INTRA:                  -0.150
REMARK UNBOUND:                -0.144
REMARK SMILES CCCCCC(=O)[O-]
REMARK SMILES IDX 4 1 5 2 6 3 7 4 8 5 3 6 2 7 1 8
REMARK H PARENT
REMARK Flexibility Score: inf
ROOT
ATOM      1  C   UNL     1      17.372  67.250  35.363  1.00  0.00     0.006 C 
ENDROOT
BRANCH   1   2
ATOM      2  C   UNL     1      17.013  68.122  34.154  1.00  0.00     0.053 C 
BRANCH   2   3
ATOM      3  C   UNL     1      17.474  69.529  34.369  1.00  0.00     0.041 C 
ATOM      4  O   UNL     1      18.036  69.853  35.449  1.00  0.00    -0.550 OA
ATOM      5  O   UNL     1      17.240  70.494  33.399  1.00  0.00    -0.550 OA
ENDBRANCH   2   3
ENDBRANCH   1   2
BRANCH   1   6
ATOM      6  C   UNL     1      17.976  65.892  34.964  1.00  0.00     0.000 C 
BRANCH   6   7
ATOM      7  C   UNL     1      19.296  65.539  35.672  1.00  0.00    -0.003 C 
ATOM      8  C   UNL     1      20.330  66.663  35.603  1.00  0.00     0.004 C 
ENDBRANCH   6   7
ENDBRANCH   1   6
TORSDOF 4
ENDMDL
MODEL 4
REMARK VINA RESULT:    -3.725     16.764     17.773
REMARK INTER + INTRA:          -4.740
REMARK INTER:                  -4.561
REMARK INTRA:                  -0.179
REMARK UNBOUND:                -0.144
REMARK SMILES CCCCCC(=O)[O-]
REMARK SMILES IDX 4 1 5 2 6 3 7 4 8 5 3 6 2 7 1 8
REMARK H PARENT
REMARK Flexibility Score: inf
ROOT
ATOM      1  C   UNL     1      11.224  77.620  31.318  1.00  0.00     0.006 C 
ENDROOT
BRANCH   1   2
ATOM      2  C   UNL     1      10.140  77.351  32.369  1.00  0.00     0.053 C 
BRANCH   2   3
ATOM      3  C   UNL     1       8.887  76.861  31.714  1.00  0.00     0.041 C 
ATOM      4  O   UNL     1       8.796  75.662  31.341  1.00  0.00    -0.550 OA
ATOM      5  O   UNL     1       7.841  77.740  31.470  1.00  0.00    -0.550 OA
ENDBRANCH   2   3
ENDBRANCH   1   2
BRANCH   1   6
ATOM      6  C   UNL     1      10.924  78.856  30.450  1.00  0.00     0.000 C 
BRANCH   6   7
ATOM      7  C   UNL     1      10.905  78.592  28.934  1.00  0.00    -0.003 C 
ATOM      8  C   UNL     1      10.462  77.172  28.580  1.00  0.00     0.004 C 
ENDBRANCH   6   7
ENDBRANCH   1   6
TORSDOF 4
ENDMDL
MODEL 5
REMARK VINA RESULT:    -3.698     18.793     19.792
REMARK INTER + INTRA:          -4.707
REMARK INTER:                  -4.444
REMARK INTRA:                  -0.262
REMARK UNBOUND:                -0.144
REMARK SMILES CCCCCC(=O)[O-]
REMARK SMILES IDX 4 1 5 2 6 3 7 4 8 5 3 6 2 7 1 8
REMARK H PARENT
REMARK Flexibility Score: inf
ROOT
ATOM      1  C   UNL     1      19.708  68.184  34.045  1.00  0.00     0.006 C 
ENDROOT
BRANCH   1   2
ATOM      2  C   UNL     1      19.364  69.662  33.820  1.00  0.00     0.053 C 
BRANCH   2   3
ATOM      3  C   UNL     1      17.889  69.879  33.949  1.00  0.00     0.041 C 
ATOM      4  O   UNL     1      17.254  70.468  33.035  1.00  0.00    -0.550 OA
ATOM      5  O   UNL     1      17.226  69.477  35.100  1.00  0.00    -0.550 OA
ENDBRANCH   2   3
ENDBRANCH   1   2
BRANCH   1   6
ATOM      6  C   UNL     1      19.206  67.272  32.912  1.00  0.00     0.000 C 
BRANCH   6   7
ATOM      7  C   UNL     1      18.399  66.048  33.377  1.00  0.00    -0.003 C 
ATOM      8  C   UNL     1      18.140  66.039  34.883  1.00  0.00     0.004 C 
ENDBRANCH   6   7
ENDBRANCH   1   6
TORSDOF 4
ENDMDL
MODEL 6
REMARK VINA RESULT:    -3.647      3.017      4.416
REMARK INTER + INTRA:          -4.643
REMARK INTER:                  -4.547
REMARK INTRA:                  -0.096
REMARK UNBOUND:                -0.144
REMARK SMILES CCCCCC(=O)[O-]
REMARK SMILES IDX 4 1 5 2 6 3 7 4 8 5 3 6 2 7 1 8
REMARK H PARENT
REMARK Flexibility Score: inf
ROOT
ATOM      1  C   UNL     1      20.764  77.397  17.717  1.00  0.00     0.006 C 
ENDROOT
BRANCH   1   2
ATOM      2  C   UNL     1      19.952  78.542  18.336  1.00  0.00     0.053 C 
BRANCH   2   3
ATOM      3  C   UNL     1      20.312  79.844  17.694  1.00  0.00     0.041 C 
ATOM      4  O   UNL     1      20.234  79.977  16.444  1.00  0.00    -0.550 OA
ATOM      5  O   UNL     1      20.781  80.895  18.470  1.00  0.00    -0.550 OA
ENDBRANCH   2   3
ENDBRANCH   1   2
BRANCH   1   6
ATOM      6  C   UNL     1      20.440  76.027  18.339  1.00  0.00     0.000 C 
BRANCH   6   7
ATOM      7  C   UNL     1      19.848  76.086  19.758  1.00  0.00    -0.003 C 
ATOM      8  C   UNL     1      20.594  75.197  20.754  1.00  0.00     0.004 C 
ENDBRANCH   6   7
ENDBRANCH   1   6
TORSDOF 4
ENDMDL
MODEL 7
REMARK VINA RESULT:    -3.638     18.799     19.825
REMARK INTER + INTRA:          -4.633
REMARK INTER:                  -4.483
REMARK INTRA:                  -0.150
REMARK UNBOUND:                -0.144
REMARK SMILES CCCCCC(=O)[O-]
REMARK SMILES IDX 4 1 5 2 6 3 7 4 8 5 3 6 2 7 1 8
REMARK H PARENT
REMARK Flexibility Score: inf
ROOT
ATOM      1  C   UNL     1      19.493  67.349  32.929  1.00  0.00     0.006 C 
ENDROOT
BRANCH   1   2
ATOM      2  C   UNL     1      19.572  68.430  34.014  1.00  0.00     0.053 C 
BRANCH   2   3
ATOM      3  C   UNL     1      19.285  69.778  33.431  1.00  0.00     0.041 C 
ATOM      4  O   UNL     1      20.231  70.523  33.062  1.00  0.00    -0.550 OA
ATOM      5  O   UNL     1      17.976  70.231  33.340  1.00  0.00    -0.550 OA
ENDBRANCH   2   3
ENDBRANCH   1   2
BRANCH   1   6
ATOM      6  C   UNL     1      18.418  66.287  33.219  1.00  0.00     0.000 C 
BRANCH   6   7
ATOM      7  C   UNL     1      17.942  66.231  34.681  1.00  0.00    -0.003 C 
ATOM      8  C   UNL     1      18.562  65.077  35.469  1.00  0.00     0.004 C 
ENDBRANCH   6   7
ENDBRANCH   1   6
TORSDOF 4
ENDMDL
MODEL 8
REMARK VINA RESULT:    -3.624     19.144     20.083
REMARK INTER + INTRA:          -4.616
REMARK INTER:                  -4.378
REMARK INTRA:                  -0.238
REMARK UNBOUND:                -0.144
REMARK SMILES CCCCCC(=O)[O-]
REMARK SMILES IDX 4 1 5 2 6 3 7 4 8 5 3 6 2 7 1 8
REMARK H PARENT
REMARK Flexibility Score: inf
ROOT
ATOM      1  C   UNL     1      18.142  68.661  35.689  1.00  0.00     0.006 C 
ENDROOT
BRANCH   1   2
ATOM      2  C   UNL     1      17.621  69.943  35.029  1.00  0.00     0.053 C 
BRANCH   2   3
ATOM      3  C   UNL     1      17.900  69.924  33.559  1.00  0.00     0.041 C 
ATOM      4  O   UNL     1      16.955  69.794  32.737  1.00  0.00    -0.550 OA
ATOM      5  O   UNL     1      19.208  70.000  33.099  1.00  0.00    -0.550 OA
ENDBRANCH   2   3
ENDBRANCH   1   2
BRANCH   1   6
ATOM      6  C   UNL     1      17.269  67.431  35.382  1.00  0.00     0.000 C 
BRANCH   6   7
ATOM      7  C   UNL     1      18.048  66.177  34.950  1.00  0.00    -0.003 C 
ATOM      8  C   UNL     1      18.443  66.196  33.474  1.00  0.00     0.004 C 
ENDBRANCH   6   7
ENDBRANCH   1   6
TORSDOF 4
ENDMDL
MODEL 9
REMARK VINA RESULT:    -3.590     17.730     18.645
REMARK INTER + INTRA:          -4.573
REMARK INTER:                  -4.480
REMARK INTRA:                  -0.093
REMARK UNBOUND:                -0.144
REMARK SMILES CCCCCC(=O)[O-]
REMARK SMILES IDX 4 1 5 2 6 3 7 4 8 5 3 6 2 7 1 8
REMARK H PARENT
REMARK Flexibility Score: inf
ROOT
ATOM      1  C   UNL     1       8.307  77.894  31.474  1.00  0.00     0.006 C 
ENDROOT
BRANCH   1   2
ATOM      2  C   UNL     1       9.235  76.673  31.430  1.00  0.00     0.053 C 
BRANCH   2   3
ATOM      3  C   UNL     1      10.449  76.969  30.608  1.00  0.00     0.041 C 
ATOM      4  O   UNL     1      10.385  76.943  29.351  1.00  0.00    -0.550 OA
ATOM      5  O   UNL     1      11.664  77.225  31.230  1.00  0.00    -0.550 OA
ENDBRANCH   2   3
ENDBRANCH   1   2
BRANCH   1   6
ATOM      6  C   UNL     1       8.902  79.069  32.271  1.00  0.00     0.000 C 
BRANCH   6   7
ATOM      7  C   UNL     1       7.869  80.082  32.796  1.00  0.00    -0.003 C 
ATOM      8  C   UNL     1       7.836  80.166  34.322  1.00  0.00     0.004 C 
ENDBRANCH   6   7
ENDBRANCH   1   6
TORSDOF 4
ENDMDL
