MODEL 1
REMARK VINA RESULT:    10.355      0.000      0.000
REMARK INTER + INTRA:          11.236
REMARK INTER:                  11.263
REMARK INTRA:                  -0.027
REMARK UNBOUND:                -0.027
REMARK SMILES O=C([O-])c1ccc(O)cc1
REMARK SMILES IDX 4 1 5 2 10 3 6 4 9 5 7 6 2 7 1 8 3 9 8 10
REMARK H PARENT 8 11
REMARK Flexibility Score: inf
ROOT
ATOM      1  C   UNL     1      -1.538  -7.785  24.033  1.00  0.00    -0.003 A 
ATOM      2  C   UNL     1      -0.567  -6.912  24.554  1.00  0.00     0.014 A 
ATOM      3  C   UNL     1      -1.641  -9.085  24.561  1.00  0.00     0.014 A 
ATOM      4  C   UNL     1       0.284  -7.331  25.581  1.00  0.00     0.047 A 
ATOM      5  C   UNL     1      -0.788  -9.501  25.588  1.00  0.00     0.047 A 
ATOM      6  C   UNL     1       0.175  -8.626  26.101  1.00  0.00     0.115 A 
ENDROOT
BRANCH   1   7
ATOM      7  C   UNL     1      -2.442  -7.348  22.946  1.00  0.00     0.071 C 
ATOM      8  O   UNL     1      -3.582  -6.883  23.209  1.00  0.00    -0.545 OA
ATOM      9  O   UNL     1      -2.044  -7.445  21.617  1.00  0.00    -0.545 OA
ENDBRANCH   1   7
BRANCH   6  10
ATOM     10  O   UNL     1       1.017  -9.055  27.125  1.00  0.00    -0.508 OA
ATOM     11  H   UNL     1       1.183 -10.040  27.297  1.00  0.00     0.293 HD
ENDBRANCH   6  10
TORSDOF 2
ENDMDL
MODEL 2
REMARK VINA RESULT:    10.455      0.068      1.533
REMARK INTER + INTRA:          11.345
REMARK INTER:                  11.372
REMARK INTRA:                  -0.027
REMARK UNBOUND:                -0.027
REMARK SMILES O=C([O-])c1ccc(O)cc1
REMARK SMILES IDX 4 1 5 2 10 3 6 4 9 5 7 6 2 7 1 8 3 9 8 10
REMARK H PARENT 8 11
REMARK Flexibility Score: inf
ROOT
ATOM      1  C   UNL     1      -1.552  -7.801  23.982  1.00  0.00    -0.003 A 
ATOM      2  C   UNL     1      -1.693  -9.081  24.549  1.00  0.00     0.014 A 
ATOM      3  C   UNL     1      -0.559  -6.939  24.483  1.00  0.00     0.014 A 
ATOM      4  C   UNL     1      -0.858  -9.489  25.593  1.00  0.00     0.047 A 
ATOM      5  C   UNL     1       0.274  -7.350  25.528  1.00  0.00     0.047 A 
ATOM      6  C   UNL     1       0.128  -8.624  26.085  1.00  0.00     0.115 A 
ENDROOT
BRANCH   1   7
ATOM      7  C   UNL     1      -2.433  -7.363  22.877  1.00  0.00     0.071 C 
ATOM      8  O   UNL     1      -3.571  -6.881  23.117  1.00  0.00    -0.545 OA
ATOM      9  O   UNL     1      -2.015  -7.478  21.556  1.00  0.00    -0.545 OA
ENDBRANCH   1   7
BRANCH   6  10
ATOM     10  O   UNL     1       0.966  -9.019  27.125  1.00  0.00    -0.508 OA
ATOM     11  H   UNL     1       1.225  -9.991  27.257  1.00  0.00     0.293 HD
ENDBRANCH   6  10
TORSDOF 2
ENDMDL
MODEL 3
REMARK VINA RESULT:    12.730      2.046      4.757
REMARK INTER + INTRA:          13.819
REMARK INTER:                  13.846
REMARK INTRA:                  -0.027
REMARK UNBOUND:                -0.027
REMARK SMILES O=C([O-])c1ccc(O)cc1
REMARK SMILES IDX 4 1 5 2 10 3 6 4 9 5 7 6 2 7 1 8 3 9 8 10
REMARK H PARENT 8 11
REMARK Flexibility Score: inf
ROOT
ATOM      1  C   UNL     1      -1.841  -7.909  23.359  1.00  0.00    -0.003 A 
ATOM      2  C   UNL     1      -3.120  -7.323  23.328  1.00  0.00     0.014 A 
ATOM      3  C   UNL     1      -1.169  -8.144  22.146  1.00  0.00     0.014 A 
ATOM      4  C   UNL     1      -3.712  -6.981  22.109  1.00  0.00     0.047 A 
ATOM      5  C   UNL     1      -1.765  -7.801  20.929  1.00  0.00     0.047 A 
ATOM      6  C   UNL     1      -3.036  -7.218  20.906  1.00  0.00     0.115 A 
ENDROOT
BRANCH   1   7
ATOM      7  C   UNL     1      -1.208  -8.274  24.646  1.00  0.00     0.071 C 
ATOM      8  O   UNL     1      -1.481  -9.368  25.207  1.00  0.00    -0.545 OA
ATOM      9  O   UNL     1      -0.302  -7.413  25.255  1.00  0.00    -0.545 OA
ENDBRANCH   1   7
BRANCH   6  10
ATOM     10  O   UNL     1      -3.616  -6.881  19.686  1.00  0.00    -0.508 OA
ATOM     11  H   UNL     1      -4.586  -6.594  19.622  1.00  0.00     0.293 HD
ENDBRANCH   6  10
TORSDOF 2
ENDMDL
