MODEL 1
REMARK VINA RESULT:    -3.794      0.000      0.000
REMARK INTER + INTRA:          -6.916
REMARK INTER:                  -5.790
REMARK INTRA:                  -1.127
REMARK UNBOUND:                -1.127
REMARK SMILES OC[C@@H]1O[C@H](O[C@]2(CO)O[C@H](CO)[C@@H](O)[C@@H]2O)[C@@H](O)[C@@H](O)[C@H]1O
REMARK SMILES IDX 6 1 5 2 3 3 22 4 4 5 20 6 18 7 2 8 1 9 23 11 21 13 19 15
REMARK SMILES IDX 7 17 16 18 10 19 14 20 11 21 8 22 9 23 17 25 15 27 12 29
REMARK SMILES IDX 13 30
REMARK H PARENT 1 10 23 12 21 14 19 16 9 24 17 26 15 28 13 31
REMARK Flexibility Score: inf
ROOT
ATOM      1  O   UNL     1       8.424   5.211   2.842  1.00  0.00    -0.313 OA
ENDROOT
BRANCH   1   2
ATOM      2  C   UNL     1       8.804   6.510   3.285  1.00  0.00     0.285 C 
ATOM      3  C   UNL     1      11.095   5.836   3.484  1.00  0.00     0.178 C 
ATOM      4  C   UNL     1      11.142   5.990   1.937  1.00  0.00     0.177 C 
ATOM      5  O   UNL     1       9.952   6.417   4.117  1.00  0.00    -0.341 OA
ATOM      6  C   UNL     1      10.512   7.327   1.523  1.00  0.00     0.179 C 
ATOM      7  C   UNL     1       9.065   7.450   2.065  1.00  0.00     0.202 C 
BRANCH   3   8
ATOM      8  C   UNL     1      11.261   4.376   3.923  1.00  0.00     0.191 C 
BRANCH   8   9
ATOM      9  O   UNL     1      12.445   3.847   3.387  1.00  0.00    -0.394 OA
ATOM     10  H   UNL     1      12.966   4.612   3.020  1.00  0.00     0.210 HD
ENDBRANCH   8   9
ENDBRANCH   3   8
BRANCH   4  11
ATOM     11  O   UNL     1      12.468   5.931   1.474  1.00  0.00    -0.387 OA
ATOM     12  H   UNL     1      12.430   5.966   0.482  1.00  0.00     0.211 HD
ENDBRANCH   4  11
BRANCH   6  13
ATOM     13  O   UNL     1      11.331   8.408   1.917  1.00  0.00    -0.387 OA
ATOM     14  H   UNL     1      11.715   8.196   2.810  1.00  0.00     0.211 HD
ENDBRANCH   6  13
BRANCH   7  15
ATOM     15  O   UNL     1       8.752   8.799   2.340  1.00  0.00    -0.385 OA
ATOM     16  H   UNL     1       9.573   9.345   2.224  1.00  0.00     0.211 HD
ENDBRANCH   7  15
ENDBRANCH   1   2
BRANCH   1  17
ATOM     17  C   UNL     1       7.123   4.795   3.257  1.00  0.00     0.224 C 
ATOM     18  C   UNL     1       6.220   4.446   2.046  1.00  0.00     0.208 C 
ATOM     19  O   UNL     1       7.202   3.678   4.125  1.00  0.00    -0.337 OA
ATOM     20  C   UNL     1       6.006   2.954   2.182  1.00  0.00     0.180 C 
ATOM     21  C   UNL     1       6.295   2.697   3.661  1.00  0.00     0.179 C 
BRANCH  17  22
ATOM     22  C   UNL     1       6.524   5.975   4.041  1.00  0.00     0.225 C 
BRANCH  22  23
ATOM     23  O   UNL     1       5.125   5.869   4.123  1.00  0.00    -0.391 OA
ATOM     24  H   UNL     1       4.863   6.257   5.001  1.00  0.00     0.210 HD
ENDBRANCH  22  23
ENDBRANCH  17  22
BRANCH  18  25
ATOM     25  O   UNL     1       6.839   4.764   0.825  1.00  0.00    -0.385 OA
ATOM     26  H   UNL     1       7.165   5.697   0.905  1.00  0.00     0.211 HD
ENDBRANCH  18  25
BRANCH  20  27
ATOM     27  O   UNL     1       4.686   2.589   1.863  1.00  0.00    -0.387 OA
ATOM     28  H   UNL     1       4.695   2.317   0.906  1.00  0.00     0.211 HD
ENDBRANCH  20  27
BRANCH  21  29
ATOM     29  C   UNL     1       6.890   1.292   3.891  1.00  0.00     0.191 C 
BRANCH  29  30
ATOM     30  O   UNL     1       6.142   0.257   3.297  1.00  0.00    -0.394 OA
ATOM     31  H   UNL     1       5.203   0.552   3.160  1.00  0.00     0.210 HD
ENDBRANCH  29  30
ENDBRANCH  21  29
ENDBRANCH   1  17
TORSDOF 13
ENDMDL
MODEL 2
REMARK VINA RESULT:    -3.638      1.540      3.034
REMARK INTER + INTRA:          -6.679
REMARK INTER:                  -5.235
REMARK INTRA:                  -1.444
REMARK UNBOUND:                -1.127
REMARK SMILES OC[C@@H]1O[C@H](O[C@]2(CO)O[C@H](CO)[C@@H](O)[C@@H]2O)[C@@H](O)[C@@H](O)[C@H]1O
REMARK SMILES IDX 6 1 5 2 3 3 22 4 4 5 20 6 18 7 2 8 1 9 23 11 21 13 19 15
REMARK SMILES IDX 7 17 16 18 10 19 14 20 11 21 8 22 9 23 17 25 15 27 12 29
REMARK SMILES IDX 13 30
REMARK H PARENT 1 10 23 12 21 14 19 16 9 24 17 26 15 28 13 31
REMARK Flexibility Score: inf
ROOT
ATOM      1  O   UNL     1       8.383   5.350   2.009  1.00  0.00    -0.313 OA
ENDROOT
BRANCH   1   2
ATOM      2  C   UNL     1       8.085   6.091   3.187  1.00  0.00     0.285 C 
ATOM      3  C   UNL     1      10.253   7.112   3.164  1.00  0.00     0.178 C 
ATOM      4  C   UNL     1       9.671   8.025   2.047  1.00  0.00     0.177 C 
ATOM      5  O   UNL     1       9.284   6.362   3.901  1.00  0.00    -0.341 OA
ATOM      6  C   UNL     1       8.299   8.567   2.473  1.00  0.00     0.179 C 
ATOM      7  C   UNL     1       7.330   7.410   2.828  1.00  0.00     0.202 C 
BRANCH   3   8
ATOM      8  C   UNL     1      11.354   6.186   2.636  1.00  0.00     0.191 C 
BRANCH   8   9
ATOM      9  O   UNL     1      11.221   6.026   1.248  1.00  0.00    -0.394 OA
ATOM     10  H   UNL     1      10.253   6.130   1.034  1.00  0.00     0.210 HD
ENDBRANCH   8   9
ENDBRANCH   3   8
BRANCH   4  11
ATOM     11  O   UNL     1      10.538   9.097   1.781  1.00  0.00    -0.387 OA
ATOM     12  H   UNL     1      11.323   8.991   2.380  1.00  0.00     0.211 HD
ENDBRANCH   4  11
BRANCH   6  13
ATOM     13  O   UNL     1       8.437   9.499   3.525  1.00  0.00    -0.387 OA
ATOM     14  H   UNL     1       9.302   9.974   3.408  1.00  0.00     0.211 HD
ENDBRANCH   6  13
BRANCH   7  15
ATOM     15  O   UNL     1       6.427   7.813   3.835  1.00  0.00    -0.385 OA
ATOM     16  H   UNL     1       6.942   8.039   4.653  1.00  0.00     0.211 HD
ENDBRANCH   7  15
ENDBRANCH   1   2
BRANCH   1  17
ATOM     17  C   UNL     1       7.637   4.142   1.856  1.00  0.00     0.224 C 
ATOM     18  C   UNL     1       8.223   2.995   2.719  1.00  0.00     0.208 C 
ATOM     19  O   UNL     1       6.276   4.341   2.196  1.00  0.00    -0.337 OA
ATOM     20  C   UNL     1       7.144   2.740   3.749  1.00  0.00     0.180 C 
ATOM     21  C   UNL     1       5.891   3.311   3.086  1.00  0.00     0.179 C 
BRANCH  17  22
ATOM     22  C   UNL     1       7.715   3.775   0.364  1.00  0.00     0.225 C 
BRANCH  22  23
ATOM     23  O   UNL     1       8.974   4.100  -0.170  1.00  0.00    -0.391 OA
ATOM     24  H   UNL     1       9.061   5.089  -0.105  1.00  0.00     0.210 HD
ENDBRANCH  22  23
ENDBRANCH  17  22
BRANCH  18  25
ATOM     25  O   UNL     1       9.433   3.367   3.330  1.00  0.00    -0.385 OA
ATOM     26  H   UNL     1       9.675   2.633   3.953  1.00  0.00     0.211 HD
ENDBRANCH  18  25
BRANCH  20  27
ATOM     27  O   UNL     1       6.988   1.366   4.005  1.00  0.00    -0.387 OA
ATOM     28  H   UNL     1       6.735   1.287   4.964  1.00  0.00     0.211 HD
ENDBRANCH  20  27
BRANCH  21  29
ATOM     29  C   UNL     1       4.898   3.870   4.125  1.00  0.00     0.191 C 
BRANCH  29  30
ATOM     30  O   UNL     1       4.806   5.276   4.121  1.00  0.00    -0.394 OA
ATOM     31  H   UNL     1       5.010   5.633   5.026  1.00  0.00     0.210 HD
ENDBRANCH  29  30
ENDBRANCH  21  29
ENDBRANCH   1  17
TORSDOF 13
ENDMDL
MODEL 3
REMARK VINA RESULT:    -3.631      2.154      6.520
REMARK INTER + INTRA:          -6.669
REMARK INTER:                  -5.031
REMARK INTRA:                  -1.637
REMARK UNBOUND:                -1.127
REMARK SMILES OC[C@@H]1O[C@H](O[C@]2(CO)O[C@H](CO)[C@@H](O)[C@@H]2O)[C@@H](O)[C@@H](O)[C@H]1O
REMARK SMILES IDX 6 1 5 2 3 3 22 4 4 5 20 6 18 7 2 8 1 9 23 11 21 13 19 15
REMARK SMILES IDX 7 17 16 18 10 19 14 20 11 21 8 22 9 23 17 25 15 27 12 29
REMARK SMILES IDX 13 30
REMARK H PARENT 1 10 23 12 21 14 19 16 9 24 17 26 15 28 13 31
REMARK Flexibility Score: inf
ROOT
ATOM      1  O   UNL     1      10.830   5.754   2.430  1.00  0.00    -0.313 OA
ENDROOT
BRANCH   1   2
ATOM      2  C   UNL     1       9.898   4.885   3.066  1.00  0.00     0.285 C 
ATOM      3  C   UNL     1       8.525   6.738   3.717  1.00  0.00     0.178 C 
ATOM      4  C   UNL     1       8.031   6.726   2.243  1.00  0.00     0.177 C 
ATOM      5  O   UNL     1       9.245   5.572   4.125  1.00  0.00    -0.341 OA
ATOM      6  C   UNL     1       7.669   5.295   1.821  1.00  0.00     0.179 C 
ATOM      7  C   UNL     1       8.868   4.335   2.029  1.00  0.00     0.202 C 
BRANCH   3   8
ATOM      8  C   UNL     1       9.328   8.002   4.046  1.00  0.00     0.191 C 
BRANCH   8   9
ATOM      9  O   UNL     1       9.860   8.550   2.869  1.00  0.00    -0.394 OA
ATOM     10  H   UNL     1       9.923   9.535   3.009  1.00  0.00     0.210 HD
ENDBRANCH   8   9
ENDBRANCH   3   8
BRANCH   4  11
ATOM     11  O   UNL     1       6.910   7.559   2.089  1.00  0.00    -0.387 OA
ATOM     12  H   UNL     1       7.249   8.489   2.002  1.00  0.00     0.211 HD
ENDBRANCH   4  11
BRANCH   6  13
ATOM     13  O   UNL     1       6.504   4.859   2.489  1.00  0.00    -0.387 OA
ATOM     14  H   UNL     1       5.774   5.505   2.295  1.00  0.00     0.211 HD
ENDBRANCH   6  13
BRANCH   7  15
ATOM     15  O   UNL     1       8.412   3.037   2.349  1.00  0.00    -0.385 OA
ATOM     16  H   UNL     1       8.870   2.735   3.177  1.00  0.00     0.211 HD
ENDBRANCH   7  15
ENDBRANCH   1   2
BRANCH   1  17
ATOM     17  C   UNL     1      12.134   5.760   3.010  1.00  0.00     0.224 C 
ATOM     18  C   UNL     1      13.236   5.960   1.938  1.00  0.00     0.208 C 
ATOM     19  O   UNL     1      12.246   6.771   3.996  1.00  0.00    -0.337 OA
ATOM     20  C   UNL     1      13.814   7.318   2.274  1.00  0.00     0.180 C 
ATOM     21  C   UNL     1      13.426   7.506   3.740  1.00  0.00     0.179 C 
BRANCH  17  22
ATOM     22  C   UNL     1      12.306   4.393   3.696  1.00  0.00     0.225 C 
BRANCH  22  23
ATOM     23  O   UNL     1      13.558   3.830   3.394  1.00  0.00    -0.391 OA
ATOM     24  H   UNL     1      13.912   3.457   4.246  1.00  0.00     0.210 HD
ENDBRANCH  22  23
ENDBRANCH  17  22
BRANCH  18  25
ATOM     25  O   UNL     1      12.708   5.938   0.636  1.00  0.00    -0.385 OA
ATOM     26  H   UNL     1      13.224   5.257   0.131  1.00  0.00     0.211 HD
ENDBRANCH  18  25
BRANCH  20  27
ATOM     27  O   UNL     1      15.212   7.337   2.123  1.00  0.00    -0.387 OA
ATOM     28  H   UNL     1      15.491   8.287   2.215  1.00  0.00     0.211 HD
ENDBRANCH  20  27
BRANCH  21  29
ATOM     29  C   UNL     1      13.195   8.992   4.084  1.00  0.00     0.191 C 
BRANCH  29  30
ATOM     30  O   UNL     1      12.534   9.711   3.070  1.00  0.00    -0.394 OA
ATOM     31  H   UNL     1      11.673   9.268   2.845  1.00  0.00     0.210 HD
ENDBRANCH  29  30
ENDBRANCH  21  29
ENDBRANCH   1  17
TORSDOF 13
ENDMDL
MODEL 4
REMARK VINA RESULT:    -3.258      2.182      6.332
REMARK INTER + INTRA:          -6.099
REMARK INTER:                  -5.562
REMARK INTRA:                  -0.537
REMARK UNBOUND:                -1.127
REMARK SMILES OC[C@@H]1O[C@H](O[C@]2(CO)O[C@H](CO)[C@@H](O)[C@@H]2O)[C@@H](O)[C@@H](O)[C@H]1O
REMARK SMILES IDX 6 1 5 2 3 3 22 4 4 5 20 6 18 7 2 8 1 9 23 11 21 13 19 15
REMARK SMILES IDX 7 17 16 18 10 19 14 20 11 21 8 22 9 23 17 25 15 27 12 29
REMARK SMILES IDX 13 30
REMARK H PARENT 1 10 23 12 21 14 19 16 9 24 17 26 15 28 13 31
REMARK Flexibility Score: inf
ROOT
ATOM      1  O   UNL     1      10.816   5.490   2.928  1.00  0.00    -0.313 OA
ENDROOT
BRANCH   1   2
ATOM      2  C   UNL     1      10.085   6.642   2.522  1.00  0.00     0.285 C 
ATOM      3  C   UNL     1       8.152   5.315   2.027  1.00  0.00     0.178 C 
ATOM      4  C   UNL     1       7.921   5.306   3.564  1.00  0.00     0.177 C 
ATOM      5  O   UNL     1       9.104   6.276   1.561  1.00  0.00    -0.341 OA
ATOM      6  C   UNL     1       8.057   6.729   4.125  1.00  0.00     0.179 C 
ATOM      7  C   UNL     1       9.433   7.341   3.757  1.00  0.00     0.202 C 
BRANCH   3   8
ATOM      8  C   UNL     1       8.496   3.922   1.486  1.00  0.00     0.191 C 
BRANCH   8   9
ATOM      9  O   UNL     1       8.771   3.996   0.113  1.00  0.00    -0.394 OA
ATOM     10  H   UNL     1       8.659   4.949  -0.156  1.00  0.00     0.210 HD
ENDBRANCH   8   9
ENDBRANCH   3   8
BRANCH   4  11
ATOM     11  O   UNL     1       6.647   4.800   3.871  1.00  0.00    -0.387 OA
ATOM     12  H   UNL     1       5.985   5.399   3.438  1.00  0.00     0.211 HD
ENDBRANCH   4  11
BRANCH   6  13
ATOM     13  O   UNL     1       6.977   7.535   3.705  1.00  0.00    -0.387 OA
ATOM     14  H   UNL     1       6.354   6.969   3.176  1.00  0.00     0.211 HD
ENDBRANCH   6  13
BRANCH   7  15
ATOM     15  O   UNL     1       9.326   8.740   3.599  1.00  0.00    -0.385 OA
ATOM     16  H   UNL     1       9.175   9.149   4.491  1.00  0.00     0.211 HD
ENDBRANCH   7  15
ENDBRANCH   1   2
BRANCH   1  17
ATOM     17  C   UNL     1      12.200   5.721   3.191  1.00  0.00     0.224 C 
ATOM     18  C   UNL     1      12.981   6.051   1.893  1.00  0.00     0.208 C 
ATOM     19  O   UNL     1      12.370   6.772   4.125  1.00  0.00    -0.337 OA
ATOM     20  C   UNL     1      13.395   7.494   2.086  1.00  0.00     0.180 C 
ATOM     21  C   UNL     1      13.327   7.672   3.602  1.00  0.00     0.179 C 
BRANCH  17  22
ATOM     22  C   UNL     1      12.740   4.424   3.817  1.00  0.00     0.225 C 
BRANCH  22  23
ATOM     23  O   UNL     1      13.975   4.066   3.251  1.00  0.00    -0.391 OA
ATOM     24  H   UNL     1      14.321   4.878   2.791  1.00  0.00     0.210 HD
ENDBRANCH  22  23
ENDBRANCH  17  22
BRANCH  18  25
ATOM     25  O   UNL     1      12.180   5.899   0.748  1.00  0.00    -0.385 OA
ATOM     26  H   UNL     1      11.240   5.857   1.062  1.00  0.00     0.211 HD
ENDBRANCH  18  25
BRANCH  20  27
ATOM     27  O   UNL     1      14.700   7.725   1.616  1.00  0.00    -0.387 OA
ATOM     28  H   UNL     1      15.250   7.945   2.415  1.00  0.00     0.211 HD
ENDBRANCH  20  27
BRANCH  21  29
ATOM     29  C   UNL     1      12.946   9.116   3.992  1.00  0.00     0.191 C 
BRANCH  29  30
ATOM     30  O   UNL     1      12.018   9.712   3.115  1.00  0.00    -0.394 OA
ATOM     31  H   UNL     1      12.455  10.446   2.606  1.00  0.00     0.210 HD
ENDBRANCH  29  30
ENDBRANCH  21  29
ENDBRANCH   1  17
TORSDOF 13
ENDMDL
MODEL 5
REMARK VINA RESULT:    -3.216      1.922      3.914
REMARK INTER + INTRA:          -6.035
REMARK INTER:                  -4.831
REMARK INTRA:                  -1.203
REMARK UNBOUND:                -1.127
REMARK SMILES OC[C@@H]1O[C@H](O[C@]2(CO)O[C@H](CO)[C@@H](O)[C@@H]2O)[C@@H](O)[C@@H](O)[C@H]1O
REMARK SMILES IDX 6 1 5 2 3 3 22 4 4 5 20 6 18 7 2 8 1 9 23 11 21 13 19 15
REMARK SMILES IDX 7 17 16 18 10 19 14 20 11 21 8 22 9 23 17 25 15 27 12 29
REMARK SMILES IDX 13 30
REMARK H PARENT 1 10 23 12 21 14 19 16 9 24 17 26 15 28 13 31
REMARK Flexibility Score: inf
ROOT
ATOM      1  O   UNL     1       9.947   6.503   2.967  1.00  0.00    -0.313 OA
ENDROOT
BRANCH   1   2
ATOM      2  C   UNL     1      10.832   6.553   1.853  1.00  0.00     0.285 C 
ATOM      3  C   UNL     1      11.049   8.931   2.056  1.00  0.00     0.178 C 
ATOM      4  C   UNL     1      12.018   8.615   3.230  1.00  0.00     0.177 C 
ATOM      5  O   UNL     1      10.732   7.818   1.215  1.00  0.00    -0.341 OA
ATOM      6  C   UNL     1      13.026   7.538   2.805  1.00  0.00     0.179 C 
ATOM      7  C   UNL     1      12.299   6.263   2.305  1.00  0.00     0.202 C 
BRANCH   3   8
ATOM      8  C   UNL     1       9.765   9.618   2.536  1.00  0.00     0.191 C 
BRANCH   8   9
ATOM      9  O   UNL     1       9.482   9.235   3.856  1.00  0.00    -0.394 OA
ATOM     10  H   UNL     1      10.023   8.419   4.045  1.00  0.00     0.210 HD
ENDBRANCH   8   9
ENDBRANCH   3   8
BRANCH   4  11
ATOM     11  O   UNL     1      12.707   9.772   3.629  1.00  0.00    -0.387 OA
ATOM     12  H   UNL     1      12.536  10.465   2.938  1.00  0.00     0.211 HD
ENDBRANCH   4  11
BRANCH   6  13
ATOM     13  O   UNL     1      13.932   8.052   1.851  1.00  0.00    -0.387 OA
ATOM     14  H   UNL     1      13.740   7.620   0.977  1.00  0.00     0.211 HD
ENDBRANCH   6  13
BRANCH   7  15
ATOM     15  O   UNL     1      13.060   5.618   1.307  1.00  0.00    -0.385 OA
ATOM     16  H   UNL     1      12.463   5.400   0.544  1.00  0.00     0.211 HD
ENDBRANCH   7  15
ENDBRANCH   1   2
BRANCH   1  17
ATOM     17  C   UNL     1       9.300   5.246   3.161  1.00  0.00     0.224 C 
ATOM     18  C   UNL     1       7.884   5.419   3.769  1.00  0.00     0.208 C 
ATOM     19  O   UNL     1       9.206   4.530   1.942  1.00  0.00    -0.337 OA
ATOM     20  C   UNL     1       6.964   4.961   2.659  1.00  0.00     0.180 C 
ATOM     21  C   UNL     1       7.872   4.085   1.796  1.00  0.00     0.179 C 
BRANCH  17  22
ATOM     22  C   UNL     1      10.194   4.447   4.125  1.00  0.00     0.225 C 
BRANCH  22  23
ATOM     23  O   UNL     1      10.818   3.375   3.463  1.00  0.00    -0.391 OA
ATOM     24  H   UNL     1      11.639   3.744   3.040  1.00  0.00     0.210 HD
ENDBRANCH  22  23
ENDBRANCH  17  22
BRANCH  18  25
ATOM     25  O   UNL     1       7.628   6.755   4.125  1.00  0.00    -0.385 OA
ATOM     26  H   UNL     1       7.276   7.203   3.313  1.00  0.00     0.211 HD
ENDBRANCH  18  25
BRANCH  20  27
ATOM     27  O   UNL     1       5.881   4.214   3.158  1.00  0.00    -0.387 OA
ATOM     28  H   UNL     1       5.567   3.641   2.409  1.00  0.00     0.211 HD
ENDBRANCH  20  27
BRANCH  21  29
ATOM     29  C   UNL     1       7.470   4.136   0.308  1.00  0.00     0.191 C 
BRANCH  29  30
ATOM     30  O   UNL     1       8.509   3.771  -0.571  1.00  0.00    -0.394 OA
ATOM     31  H   UNL     1       8.428   2.810  -0.813  1.00  0.00     0.210 HD
ENDBRANCH  29  30
ENDBRANCH  21  29
ENDBRANCH   1  17
TORSDOF 13
ENDMDL
MODEL 6
REMARK VINA RESULT:    -3.184      1.512      5.833
REMARK INTER + INTRA:          -5.985
REMARK INTER:                  -5.013
REMARK INTRA:                  -0.973
REMARK UNBOUND:                -1.127
REMARK SMILES OC[C@@H]1O[C@H](O[C@]2(CO)O[C@H](CO)[C@@H](O)[C@@H]2O)[C@@H](O)[C@@H](O)[C@H]1O
REMARK SMILES IDX 6 1 5 2 3 3 22 4 4 5 20 6 18 7 2 8 1 9 23 11 21 13 19 15
REMARK SMILES IDX 7 17 16 18 10 19 14 20 11 21 8 22 9 23 17 25 15 27 12 29
REMARK SMILES IDX 13 30
REMARK H PARENT 1 10 23 12 21 14 19 16 9 24 17 26 15 28 13 31
REMARK Flexibility Score: inf
ROOT
ATOM      1  O   UNL     1       9.272   5.565   2.848  1.00  0.00    -0.313 OA
ENDROOT
BRANCH   1   2
ATOM      2  C   UNL     1       7.995   6.165   2.661  1.00  0.00     0.285 C 
ATOM      3  C   UNL     1       7.102   4.128   1.770  1.00  0.00     0.178 C 
ATOM      4  C   UNL     1       7.031   3.660   3.251  1.00  0.00     0.177 C 
ATOM      5  O   UNL     1       7.317   5.530   1.586  1.00  0.00    -0.341 OA
ATOM      6  C   UNL     1       6.390   4.754   4.118  1.00  0.00     0.179 C 
ATOM      7  C   UNL     1       7.158   6.093   3.978  1.00  0.00     0.202 C 
BRANCH   3   8
ATOM      8  C   UNL     1       8.123   3.322   0.959  1.00  0.00     0.191 C 
BRANCH   8   9
ATOM      9  O   UNL     1       8.853   4.179   0.122  1.00  0.00    -0.394 OA
ATOM     10  H   UNL     1       8.198   4.798  -0.304  1.00  0.00     0.210 HD
ENDBRANCH   8   9
ENDBRANCH   3   8
BRANCH   4  11
ATOM     11  O   UNL     1       6.283   2.475   3.361  1.00  0.00    -0.387 OA
ATOM     12  H   UNL     1       5.761   2.382   2.522  1.00  0.00     0.211 HD
ENDBRANCH   4  11
BRANCH   6  13
ATOM     13  O   UNL     1       5.016   4.885   3.820  1.00  0.00    -0.387 OA
ATOM     14  H   UNL     1       4.749   4.119   3.245  1.00  0.00     0.211 HD
ENDBRANCH   6  13
BRANCH   7  15
ATOM     15  O   UNL     1       6.277   7.186   4.125  1.00  0.00    -0.385 OA
ATOM     16  H   UNL     1       6.593   7.748   4.880  1.00  0.00     0.211 HD
ENDBRANCH   7  15
ENDBRANCH   1   2
BRANCH   1  17
ATOM     17  C   UNL     1      10.297   6.459   3.280  1.00  0.00     0.224 C 
ATOM     18  C   UNL     1      11.044   7.097   2.081  1.00  0.00     0.208 C 
ATOM     19  O   UNL     1       9.762   7.482   4.102  1.00  0.00    -0.337 OA
ATOM     20  C   UNL     1      10.665   8.560   2.165  1.00  0.00     0.180 C 
ATOM     21  C   UNL     1      10.241   8.724   3.624  1.00  0.00     0.179 C 
BRANCH  17  22
ATOM     22  C   UNL     1      11.272   5.620   4.124  1.00  0.00     0.225 C 
BRANCH  22  23
ATOM     23  O   UNL     1      11.610   4.425   3.466  1.00  0.00    -0.391 OA
ATOM     24  H   UNL     1      12.598   4.330   3.543  1.00  0.00     0.210 HD
ENDBRANCH  22  23
ENDBRANCH  17  22
BRANCH  18  25
ATOM     25  O   UNL     1      10.642   6.535   0.857  1.00  0.00    -0.385 OA
ATOM     26  H   UNL     1      11.415   6.017   0.515  1.00  0.00     0.211 HD
ENDBRANCH  18  25
BRANCH  20  27
ATOM     27  O   UNL     1      11.755   9.396   1.866  1.00  0.00    -0.387 OA
ATOM     28  H   UNL     1      11.371  10.251   1.535  1.00  0.00     0.211 HD
ENDBRANCH  20  27
BRANCH  21  29
ATOM     29  C   UNL     1       9.145   9.798   3.785  1.00  0.00     0.191 C 
BRANCH  29  30
ATOM     30  O   UNL     1       7.939   9.476   3.133  1.00  0.00    -0.394 OA
ATOM     31  H   UNL     1       8.114   8.844   2.386  1.00  0.00     0.210 HD
ENDBRANCH  29  30
ENDBRANCH  21  29
ENDBRANCH   1  17
TORSDOF 13
ENDMDL
MODEL 7
REMARK VINA RESULT:    -3.122      1.724      6.278
REMARK INTER + INTRA:          -5.891
REMARK INTER:                  -4.462
REMARK INTRA:                  -1.428
REMARK UNBOUND:                -1.127
REMARK SMILES OC[C@@H]1O[C@H](O[C@]2(CO)O[C@H](CO)[C@@H](O)[C@@H]2O)[C@@H](O)[C@@H](O)[C@H]1O
REMARK SMILES IDX 6 1 5 2 3 3 22 4 4 5 20 6 18 7 2 8 1 9 23 11 21 13 19 15
REMARK SMILES IDX 7 17 16 18 10 19 14 20 11 21 8 22 9 23 17 25 15 27 12 29
REMARK SMILES IDX 13 30
REMARK H PARENT 1 10 23 12 21 14 19 16 9 24 17 26 15 28 13 31
REMARK Flexibility Score: inf
ROOT
ATOM      1  O   UNL     1      10.211   5.272   2.669  1.00  0.00    -0.313 OA
ENDROOT
BRANCH   1   2
ATOM      2  C   UNL     1       9.329   4.624   3.580  1.00  0.00     0.285 C 
ATOM      3  C   UNL     1       7.446   5.816   2.699  1.00  0.00     0.178 C 
ATOM      4  C   UNL     1       7.512   4.798   1.526  1.00  0.00     0.177 C 
ATOM      5  O   UNL     1       8.216   5.463   3.853  1.00  0.00    -0.341 OA
ATOM      6  C   UNL     1       7.641   3.369   2.075  1.00  0.00     0.179 C 
ATOM      7  C   UNL     1       8.871   3.244   3.010  1.00  0.00     0.202 C 
BRANCH   3   8
ATOM      8  C   UNL     1       7.788   7.240   2.247  1.00  0.00     0.191 C 
BRANCH   8   9
ATOM      9  O   UNL     1       8.974   7.233   1.498  1.00  0.00    -0.394 OA
ATOM     10  H   UNL     1       9.450   8.086   1.696  1.00  0.00     0.210 HD
ENDBRANCH   8   9
ENDBRANCH   3   8
BRANCH   4  11
ATOM     11  O   UNL     1       6.361   4.891   0.725  1.00  0.00    -0.387 OA
ATOM     12  H   UNL     1       5.622   4.460   1.227  1.00  0.00     0.211 HD
ENDBRANCH   4  11
BRANCH   6  13
ATOM     13  O   UNL     1       6.442   2.967   2.703  1.00  0.00    -0.387 OA
ATOM     14  H   UNL     1       6.082   3.741   3.212  1.00  0.00     0.211 HD
ENDBRANCH   6  13
BRANCH   7  15
ATOM     15  O   UNL     1       8.628   2.289   4.022  1.00  0.00    -0.385 OA
ATOM     16  H   UNL     1       7.692   2.390   4.335  1.00  0.00     0.211 HD
ENDBRANCH   7  15
ENDBRANCH   1   2
BRANCH   1  17
ATOM     17  C   UNL     1      11.365   5.860   3.268  1.00  0.00     0.224 C 
ATOM     18  C   UNL     1      12.367   6.371   2.201  1.00  0.00     0.208 C 
ATOM     19  O   UNL     1      11.002   6.929   4.125  1.00  0.00    -0.337 OA
ATOM     20  C   UNL     1      12.338   7.873   2.378  1.00  0.00     0.180 C 
ATOM     21  C   UNL     1      11.810   8.044   3.802  1.00  0.00     0.179 C 
BRANCH  17  22
ATOM     22  C   UNL     1      12.016   4.757   4.120  1.00  0.00     0.225 C 
BRANCH  22  23
ATOM     23  O   UNL     1      12.975   4.047   3.378  1.00  0.00    -0.391 OA
ATOM     24  H   UNL     1      12.657   3.105   3.333  1.00  0.00     0.210 HD
ENDBRANCH  22  23
ENDBRANCH  17  22
BRANCH  18  25
ATOM     25  O   UNL     1      11.978   6.002   0.902  1.00  0.00    -0.385 OA
ATOM     26  H   UNL     1      12.049   6.818   0.341  1.00  0.00     0.211 HD
ENDBRANCH  18  25
BRANCH  20  27
ATOM     27  O   UNL     1      13.621   8.434   2.253  1.00  0.00    -0.387 OA
ATOM     28  H   UNL     1      13.591   9.311   2.722  1.00  0.00     0.211 HD
ENDBRANCH  20  27
BRANCH  21  29
ATOM     29  C   UNL     1      10.989   9.340   3.958  1.00  0.00     0.191 C 
BRANCH  29  30
ATOM     30  O   UNL     1      10.226   9.666   2.819  1.00  0.00    -0.394 OA
ATOM     31  H   UNL     1      10.727  10.307   2.247  1.00  0.00     0.210 HD
ENDBRANCH  29  30
ENDBRANCH  21  29
ENDBRANCH   1  17
TORSDOF 13
ENDMDL
MODEL 8
REMARK VINA RESULT:    -2.825      1.402      2.776
REMARK INTER + INTRA:          -5.438
REMARK INTER:                  -4.443
REMARK INTRA:                  -0.995
REMARK UNBOUND:                -1.127
REMARK SMILES OC[C@@H]1O[C@H](O[C@]2(CO)O[C@H](CO)[C@@H](O)[C@@H]2O)[C@@H](O)[C@@H](O)[C@H]1O
REMARK SMILES IDX 6 1 5 2 3 3 22 4 4 5 20 6 18 7 2 8 1 9 23 11 21 13 19 15
REMARK SMILES IDX 7 17 16 18 10 19 14 20 11 21 8 22 9 23 17 25 15 27 12 29
REMARK SMILES IDX 13 30
REMARK H PARENT 1 10 23 12 21 14 19 16 9 24 17 26 15 28 13 31
REMARK Flexibility Score: inf
ROOT
ATOM      1  O   UNL     1       8.422   6.073   3.309  1.00  0.00    -0.313 OA
ENDROOT
BRANCH   1   2
ATOM      2  C   UNL     1       9.401   5.244   2.690  1.00  0.00     0.285 C 
ATOM      3  C   UNL     1      10.817   7.130   2.268  1.00  0.00     0.178 C 
ATOM      4  C   UNL     1      11.198   7.021   3.771  1.00  0.00     0.177 C 
ATOM      5  O   UNL     1      10.132   5.996   1.731  1.00  0.00    -0.341 OA
ATOM      6  C   UNL     1      11.529   5.563   4.125  1.00  0.00     0.179 C 
ATOM      7  C   UNL     1      10.351   4.623   3.764  1.00  0.00     0.202 C 
BRANCH   3   8
ATOM      8  C   UNL     1      10.040   8.416   1.962  1.00  0.00     0.191 C 
BRANCH   8   9
ATOM      9  O   UNL     1       8.755   8.098   1.495  1.00  0.00    -0.394 OA
ATOM     10  H   UNL     1       8.745   7.118   1.315  1.00  0.00     0.210 HD
ENDBRANCH   8   9
ENDBRANCH   3   8
BRANCH   4  11
ATOM     11  O   UNL     1      12.303   7.838   4.064  1.00  0.00    -0.387 OA
ATOM     12  H   UNL     1      12.013   8.478   4.766  1.00  0.00     0.211 HD
ENDBRANCH   4  11
BRANCH   6  13
ATOM     13  O   UNL     1      12.742   5.167   3.520  1.00  0.00    -0.387 OA
ATOM     14  H   UNL     1      13.487   5.633   3.984  1.00  0.00     0.211 HD
ENDBRANCH   6  13
BRANCH   7  15
ATOM     15  O   UNL     1      10.830   3.348   3.396  1.00  0.00    -0.385 OA
ATOM     16  H   UNL     1      11.816   3.335   3.507  1.00  0.00     0.211 HD
ENDBRANCH   7  15
ENDBRANCH   1   2
BRANCH   1  17
ATOM     17  C   UNL     1       7.115   5.505   3.379  1.00  0.00     0.224 C 
ATOM     18  C   UNL     1       6.532   5.236   1.968  1.00  0.00     0.208 C 
ATOM     19  O   UNL     1       7.125   4.300   4.124  1.00  0.00    -0.337 OA
ATOM     20  C   UNL     1       6.452   3.726   1.900  1.00  0.00     0.180 C 
ATOM     21  C   UNL     1       6.446   3.314   3.371  1.00  0.00     0.179 C 
BRANCH  17  22
ATOM     22  C   UNL     1       6.242   6.529   4.125  1.00  0.00     0.225 C 
BRANCH  22  23
ATOM     23  O   UNL     1       6.581   7.843   3.760  1.00  0.00    -0.391 OA
ATOM     24  H   UNL     1       5.743   8.270   3.432  1.00  0.00     0.210 HD
ENDBRANCH  22  23
ENDBRANCH  17  22
BRANCH  18  25
ATOM     25  O   UNL     1       7.359   5.750   0.954  1.00  0.00    -0.385 OA
ATOM     26  H   UNL     1       8.084   6.253   1.407  1.00  0.00     0.211 HD
ENDBRANCH  18  25
BRANCH  20  27
ATOM     27  O   UNL     1       5.276   3.298   1.258  1.00  0.00    -0.387 OA
ATOM     28  H   UNL     1       5.482   3.273   0.285  1.00  0.00     0.211 HD
ENDBRANCH  20  27
BRANCH  21  29
ATOM     29  C   UNL     1       7.123   1.944   3.584  1.00  0.00     0.191 C 
BRANCH  29  30
ATOM     30  O   UNL     1       8.249   1.736   2.764  1.00  0.00    -0.394 OA
ATOM     31  H   UNL     1       7.987   1.230   1.949  1.00  0.00     0.210 HD
ENDBRANCH  29  30
ENDBRANCH  21  29
ENDBRANCH   1  17
TORSDOF 13
ENDMDL
MODEL 9
REMARK VINA RESULT:    -2.687      1.724      3.698
REMARK INTER + INTRA:          -5.228
REMARK INTER:                  -4.577
REMARK INTRA:                  -0.650
REMARK UNBOUND:                -1.127
REMARK SMILES OC[C@@H]1O[C@H](O[C@]2(CO)O[C@H](CO)[C@@H](O)[C@@H]2O)[C@@H](O)[C@@H](O)[C@H]1O
REMARK SMILES IDX 6 1 5 2 3 3 22 4 4 5 20 6 18 7 2 8 1 9 23 11 21 13 19 15
REMARK SMILES IDX 7 17 16 18 10 19 14 20 11 21 8 22 9 23 17 25 15 27 12 29
REMARK SMILES IDX 13 30
REMARK H PARENT 1 10 23 12 21 14 19 16 9 24 17 26 15 28 13 31
REMARK Flexibility Score: inf
ROOT
ATOM      1  O   UNL     1       9.372   5.947   2.712  1.00  0.00    -0.313 OA
ENDROOT
BRANCH   1   2
ATOM      2  C   UNL     1      10.502   6.182   1.879  1.00  0.00     0.285 C 
ATOM      3  C   UNL     1      10.209   8.554   2.051  1.00  0.00     0.178 C 
ATOM      4  C   UNL     1      10.862   8.405   3.455  1.00  0.00     0.177 C 
ATOM      5  O   UNL     1      10.346   7.417   1.194  1.00  0.00    -0.341 OA
ATOM      6  C   UNL     1      12.130   7.545   3.356  1.00  0.00     0.179 C 
ATOM      7  C   UNL     1      11.817   6.166   2.722  1.00  0.00     0.202 C 
BRANCH   3   8
ATOM      8  C   UNL     1       8.738   8.978   2.141  1.00  0.00     0.191 C 
BRANCH   8   9
ATOM      9  O   UNL     1       8.394   9.232   3.478  1.00  0.00    -0.394 OA
ATOM     10  H   UNL     1       8.663  10.171   3.675  1.00  0.00     0.210 HD
ENDBRANCH   8   9
ENDBRANCH   3   8
BRANCH   4  11
ATOM     11  O   UNL     1      11.188   9.664   3.986  1.00  0.00    -0.387 OA
ATOM     12  H   UNL     1      11.543  10.212   3.237  1.00  0.00     0.211 HD
ENDBRANCH   4  11
BRANCH   6  13
ATOM     13  O   UNL     1      13.149   8.238   2.667  1.00  0.00    -0.387 OA
ATOM     14  H   UNL     1      12.720   8.860   2.021  1.00  0.00     0.211 HD
ENDBRANCH   6  13
BRANCH   7  15
ATOM     15  O   UNL     1      12.928   5.694   1.990  1.00  0.00    -0.385 OA
ATOM     16  H   UNL     1      13.714   6.260   2.207  1.00  0.00     0.211 HD
ENDBRANCH   7  15
ENDBRANCH   1   2
BRANCH   1  17
ATOM     17  C   UNL     1       8.551   4.850   2.311  1.00  0.00     0.224 C 
ATOM     18  C   UNL     1       8.823   3.588   3.169  1.00  0.00     0.208 C 
ATOM     19  O   UNL     1       7.178   5.189   2.392  1.00  0.00    -0.337 OA
ATOM     20  C   UNL     1       7.535   3.398   3.939  1.00  0.00     0.180 C 
ATOM     21  C   UNL     1       6.512   4.158   3.095  1.00  0.00     0.179 C 
BRANCH  17  22
ATOM     22  C   UNL     1       8.896   4.572   0.838  1.00  0.00     0.225 C 
BRANCH  22  23
ATOM     23  O   UNL     1       7.832   3.929   0.183  1.00  0.00    -0.391 OA
ATOM     24  H   UNL     1       8.001   4.024  -0.793  1.00  0.00     0.210 HD
ENDBRANCH  22  23
ENDBRANCH  17  22
BRANCH  18  25
ATOM     25  O   UNL     1       9.914   3.771   4.036  1.00  0.00    -0.385 OA
ATOM     26  H   UNL     1      10.497   2.975   3.933  1.00  0.00     0.211 HD
ENDBRANCH  18  25
BRANCH  20  27
ATOM     27  O   UNL     1       7.186   2.039   4.039  1.00  0.00    -0.387 OA
ATOM     28  H   UNL     1       6.921   1.750   3.125  1.00  0.00     0.211 HD
ENDBRANCH  20  27
BRANCH  21  29
ATOM     29  C   UNL     1       5.390   4.764   3.963  1.00  0.00     0.191 C 
BRANCH  29  30
ATOM     30  O   UNL     1       4.141   4.134   3.794  1.00  0.00    -0.394 OA
ATOM     31  H   UNL     1       3.412   4.738   4.096  1.00  0.00     0.210 HD
ENDBRANCH  29  30
ENDBRANCH  21  29
ENDBRANCH   1  17
TORSDOF 13
ENDMDL
