MODEL 1
REMARK VINA RESULT:    -4.595      0.000      0.000
REMARK INTER + INTRA:          -7.661
REMARK INTER:                  -7.281
REMARK INTRA:                  -0.380
REMARK UNBOUND:                -0.380
REMARK SMILES CCCCCCCCCCCC(=O)[O-]
REMARK SMILES IDX 7 1 8 2 9 3 10 4 11 5 12 6 13 7 14 8 6 9 5 10 4 11 3 12 2 13
REMARK SMILES IDX 1 14
REMARK H PARENT
REMARK Flexibility Score: inf
ROOT
ATOM      1  C   UNL     1      -0.506  21.412  31.852  1.00  0.00     0.000 C 
ENDROOT
BRANCH   1   2
ATOM      2  C   UNL     1       0.534  21.231  32.973  1.00  0.00     0.000 C 
BRANCH   2   3
ATOM      3  C   UNL     1       1.311  19.899  32.942  1.00  0.00     0.000 C 
BRANCH   3   4
ATOM      4  C   UNL     1       2.764  19.999  32.434  1.00  0.00     0.006 C 
BRANCH   4   5
ATOM      5  C   UNL     1       3.829  19.789  33.521  1.00  0.00     0.053 C 
BRANCH   5   6
ATOM      6  C   UNL     1       4.429  18.417  33.458  1.00  0.00     0.041 C 
ATOM      7  O   UNL     1       5.361  18.171  32.648  1.00  0.00    -0.550 OA
ATOM      8  O   UNL     1       3.981  17.422  34.317  1.00  0.00    -0.550 OA
ENDBRANCH   5   6
ENDBRANCH   4   5
ENDBRANCH   3   4
ENDBRANCH   2   3
ENDBRANCH   1   2
BRANCH   1   9
ATOM      9  C   UNL     1      -0.458  20.286  30.805  1.00  0.00     0.000 C 
BRANCH   9  10
ATOM     10  C   UNL     1      -1.649  20.325  29.828  1.00  0.00    -0.000 C 
BRANCH  10  11
ATOM     11  C   UNL     1      -1.668  19.204  28.772  1.00  0.00    -0.000 C 
BRANCH  11  12
ATOM     12  C   UNL     1      -2.834  19.270  27.767  1.00  0.00    -0.000 C 
BRANCH  12  13
ATOM     13  C   UNL     1      -2.763  20.480  26.810  1.00  0.00    -0.003 C 
ATOM     14  C   UNL     1      -1.356  20.719  26.264  1.00  0.00     0.004 C 
ENDBRANCH  12  13
ENDBRANCH  11  12
ENDBRANCH  10  11
ENDBRANCH   9  10
ENDBRANCH   1   9
TORSDOF 10
ENDMDL
MODEL 2
REMARK VINA RESULT:    -4.565      3.735      5.096
REMARK INTER + INTRA:          -7.613
REMARK INTER:                  -7.115
REMARK INTRA:                  -0.498
REMARK UNBOUND:                -0.380
REMARK SMILES CCCCCCCCCCCC(=O)[O-]
REMARK SMILES IDX 7 1 8 2 9 3 10 4 11 5 12 6 13 7 14 8 6 9 5 10 4 11 3 12 2 13
REMARK SMILES IDX 1 14
REMARK H PARENT
REMARK Flexibility Score: inf
ROOT
ATOM      1  C   UNL     1       2.221  19.948  32.504  1.00  0.00     0.000 C 
ENDROOT
BRANCH   1   2
ATOM      2  C   UNL     1       2.170  18.703  33.407  1.00  0.00     0.000 C 
BRANCH   2   3
ATOM      3  C   UNL     1       3.415  18.479  34.291  1.00  0.00     0.000 C 
BRANCH   3   4
ATOM      4  C   UNL     1       4.753  18.390  33.530  1.00  0.00     0.006 C 
BRANCH   4   5
ATOM      5  C   UNL     1       5.327  16.969  33.425  1.00  0.00     0.053 C 
BRANCH   5   6
ATOM      6  C   UNL     1       6.630  16.946  32.686  1.00  0.00     0.041 C 
ATOM      7  O   UNL     1       7.035  15.882  32.150  1.00  0.00    -0.550 OA
ATOM      8  O   UNL     1       7.380  18.109  32.563  1.00  0.00    -0.550 OA
ENDBRANCH   5   6
ENDBRANCH   4   5
ENDBRANCH   3   4
ENDBRANCH   2   3
ENDBRANCH   1   2
BRANCH   1   9
ATOM      9  C   UNL     1       0.893  20.725  32.482  1.00  0.00     0.000 C 
BRANCH   9  10
ATOM     10  C   UNL     1       0.261  20.872  33.880  1.00  0.00    -0.000 C 
BRANCH  10  11
ATOM     11  C   UNL     1       0.851  21.998  34.751  1.00  0.00    -0.000 C 
BRANCH  11  12
ATOM     12  C   UNL     1      -0.075  23.210  34.970  1.00  0.00    -0.000 C 
BRANCH  12  13
ATOM     13  C   UNL     1      -0.937  23.566  33.739  1.00  0.00    -0.003 C 
ATOM     14  C   UNL     1      -2.060  24.547  34.069  1.00  0.00     0.004 C 
ENDBRANCH  12  13
ENDBRANCH  11  12
ENDBRANCH  10  11
ENDBRANCH   9  10
ENDBRANCH   1   9
TORSDOF 10
ENDMDL
MODEL 3
REMARK VINA RESULT:    -4.488     15.439     17.801
REMARK INTER + INTRA:          -7.491
REMARK INTER:                  -7.201
REMARK INTRA:                  -0.290
REMARK UNBOUND:                -0.380
REMARK SMILES CCCCCCCCCCCC(=O)[O-]
REMARK SMILES IDX 7 1 8 2 9 3 10 4 11 5 12 6 13 7 14 8 6 9 5 10 4 11 3 12 2 13
REMARK SMILES IDX 1 14
REMARK H PARENT
REMARK Flexibility Score: inf
ROOT
ATOM      1  C   UNL     1       1.871   8.530  15.265  1.00  0.00     0.000 C 
ENDROOT
BRANCH   1   2
ATOM      2  C   UNL     1       2.896   9.402  16.011  1.00  0.00     0.000 C 
BRANCH   2   3
ATOM      3  C   UNL     1       4.150   9.785  15.199  1.00  0.00     0.000 C 
BRANCH   3   4
ATOM      4  C   UNL     1       5.418  10.053  16.035  1.00  0.00     0.006 C 
BRANCH   4   5
ATOM      5  C   UNL     1       6.369  11.095  15.426  1.00  0.00     0.053 C 
BRANCH   5   6
ATOM      6  C   UNL     1       7.539  11.374  16.319  1.00  0.00     0.041 C 
ATOM      7  O   UNL     1       8.253  12.392  16.127  1.00  0.00    -0.550 OA
ATOM      8  O   UNL     1       7.819  10.526  17.383  1.00  0.00    -0.550 OA
ENDBRANCH   5   6
ENDBRANCH   4   5
ENDBRANCH   3   4
ENDBRANCH   2   3
ENDBRANCH   1   2
BRANCH   1   9
ATOM      9  C   UNL     1       0.567   8.330  16.056  1.00  0.00     0.000 C 
BRANCH   9  10
ATOM     10  C   UNL     1       0.354   9.402  17.142  1.00  0.00    -0.000 C 
BRANCH  10  11
ATOM     11  C   UNL     1      -1.050   9.425  17.775  1.00  0.00    -0.000 C 
BRANCH  11  12
ATOM     12  C   UNL     1      -1.263  10.498  18.860  1.00  0.00    -0.000 C 
BRANCH  12  13
ATOM     13  C   UNL     1      -2.237  10.068  19.978  1.00  0.00    -0.003 C 
ATOM     14  C   UNL     1      -1.524   9.439  21.173  1.00  0.00     0.004 C 
ENDBRANCH  12  13
ENDBRANCH  11  12
ENDBRANCH  10  11
ENDBRANCH   9  10
ENDBRANCH   1   9
TORSDOF 10
ENDMDL
MODEL 4
REMARK VINA RESULT:    -4.447      3.163      5.002
REMARK INTER + INTRA:          -7.427
REMARK INTER:                  -6.626
REMARK INTRA:                  -0.800
REMARK UNBOUND:                -0.380
REMARK SMILES CCCCCCCCCCCC(=O)[O-]
REMARK SMILES IDX 7 1 8 2 9 3 10 4 11 5 12 6 13 7 14 8 6 9 5 10 4 11 3 12 2 13
REMARK SMILES IDX 1 14
REMARK H PARENT
REMARK Flexibility Score: inf
ROOT
ATOM      1  C   UNL     1       2.937  19.448  33.029  1.00  0.00     0.000 C 
ENDROOT
BRANCH   1   2
ATOM      2  C   UNL     1       4.268  19.419  33.801  1.00  0.00     0.000 C 
BRANCH   2   3
ATOM      3  C   UNL     1       4.405  18.284  34.837  1.00  0.00     0.000 C 
BRANCH   3   4
ATOM      4  C   UNL     1       5.655  17.396  34.677  1.00  0.00     0.006 C 
BRANCH   4   5
ATOM      5  C   UNL     1       5.644  16.509  33.422  1.00  0.00     0.053 C 
BRANCH   5   6
ATOM      6  C   UNL     1       6.808  16.798  32.524  1.00  0.00     0.041 C 
ATOM      7  O   UNL     1       7.303  17.954  32.481  1.00  0.00    -0.550 OA
ATOM      8  O   UNL     1       7.367  15.780  31.761  1.00  0.00    -0.550 OA
ENDBRANCH   5   6
ENDBRANCH   4   5
ENDBRANCH   3   4
ENDBRANCH   2   3
ENDBRANCH   1   2
BRANCH   1   9
ATOM      9  C   UNL     1       1.732  19.051  33.899  1.00  0.00     0.000 C 
BRANCH   9  10
ATOM     10  C   UNL     1       1.329  20.149  34.902  1.00  0.00    -0.000 C 
BRANCH  10  11
ATOM     11  C   UNL     1       1.309  21.581  34.333  1.00  0.00    -0.000 C 
BRANCH  11  12
ATOM     12  C   UNL     1      -0.086  22.226  34.231  1.00  0.00    -0.000 C 
BRANCH  12  13
ATOM     13  C   UNL     1      -0.519  22.547  32.784  1.00  0.00    -0.003 C 
ATOM     14  C   UNL     1      -0.452  21.330  31.864  1.00  0.00     0.004 C 
ENDBRANCH  12  13
ENDBRANCH  11  12
ENDBRANCH  10  11
ENDBRANCH   9  10
ENDBRANCH   1   9
TORSDOF 10
ENDMDL
MODEL 5
REMARK VINA RESULT:    -4.429     15.397     18.061
REMARK INTER + INTRA:          -7.398
REMARK INTER:                  -7.094
REMARK INTRA:                  -0.304
REMARK UNBOUND:                -0.380
REMARK SMILES CCCCCCCCCCCC(=O)[O-]
REMARK SMILES IDX 7 1 8 2 9 3 10 4 11 5 12 6 13 7 14 8 6 9 5 10 4 11 3 12 2 13
REMARK SMILES IDX 1 14
REMARK H PARENT
REMARK Flexibility Score: inf
ROOT
ATOM      1  C   UNL     1       1.930   8.585  15.393  1.00  0.00     0.000 C 
ENDROOT
BRANCH   1   2
ATOM      2  C   UNL     1       0.560   8.522  16.091  1.00  0.00     0.000 C 
BRANCH   2   3
ATOM      3  C   UNL     1       0.337   9.570  17.201  1.00  0.00     0.000 C 
BRANCH   3   4
ATOM      4  C   UNL     1      -0.988   9.433  17.977  1.00  0.00     0.006 C 
BRANCH   4   5
ATOM      5  C   UNL     1      -1.405  10.698  18.745  1.00  0.00     0.053 C 
BRANCH   5   6
ATOM      6  C   UNL     1      -2.106  10.368  20.027  1.00  0.00     0.041 C 
ATOM      7  O   UNL     1      -3.280  10.774  20.229  1.00  0.00    -0.550 OA
ATOM      8  O   UNL     1      -1.474   9.583  20.983  1.00  0.00    -0.550 OA
ENDBRANCH   5   6
ENDBRANCH   4   5
ENDBRANCH   3   4
ENDBRANCH   2   3
ENDBRANCH   1   2
BRANCH   1   9
ATOM      9  C   UNL     1       2.971   9.390  16.190  1.00  0.00     0.000 C 
BRANCH   9  10
ATOM     10  C   UNL     1       4.012  10.082  15.289  1.00  0.00    -0.000 C 
BRANCH  10  11
ATOM     11  C   UNL     1       5.480   9.719  15.586  1.00  0.00    -0.000 C 
BRANCH  11  12
ATOM     12  C   UNL     1       6.139  10.529  16.719  1.00  0.00    -0.000 C 
BRANCH  12  13
ATOM     13  C   UNL     1       7.058  11.665  16.220  1.00  0.00    -0.003 C 
ATOM     14  C   UNL     1       8.141  12.035  17.232  1.00  0.00     0.004 C 
ENDBRANCH  12  13
ENDBRANCH  11  12
ENDBRANCH  10  11
ENDBRANCH   9  10
ENDBRANCH   1   9
TORSDOF 10
ENDMDL
MODEL 6
REMARK VINA RESULT:    -4.362      1.295      1.683
REMARK INTER + INTRA:          -7.292
REMARK INTER:                  -6.705
REMARK INTRA:                  -0.586
REMARK UNBOUND:                -0.380
REMARK SMILES CCCCCCCCCCCC(=O)[O-]
REMARK SMILES IDX 7 1 8 2 9 3 10 4 11 5 12 6 13 7 14 8 6 9 5 10 4 11 3 12 2 13
REMARK SMILES IDX 1 14
REMARK H PARENT
REMARK Flexibility Score: inf
ROOT
ATOM      1  C   UNL     1      -0.212  20.851  31.514  1.00  0.00     0.000 C 
ENDROOT
BRANCH   1   2
ATOM      2  C   UNL     1      -0.515  22.060  32.418  1.00  0.00     0.000 C 
BRANCH   2   3
ATOM      3  C   UNL     1       0.266  22.099  33.748  1.00  0.00     0.000 C 
BRANCH   3   4
ATOM      4  C   UNL     1       0.829  20.744  34.220  1.00  0.00     0.006 C 
BRANCH   4   5
ATOM      5  C   UNL     1       2.346  20.739  34.464  1.00  0.00     0.053 C 
BRANCH   5   6
ATOM      6  C   UNL     1       3.071  19.896  33.460  1.00  0.00     0.041 C 
ATOM      7  O   UNL     1       3.237  20.314  32.284  1.00  0.00    -0.550 OA
ATOM      8  O   UNL     1       3.592  18.664  33.834  1.00  0.00    -0.550 OA
ENDBRANCH   5   6
ENDBRANCH   4   5
ENDBRANCH   3   4
ENDBRANCH   2   3
ENDBRANCH   1   2
BRANCH   1   9
ATOM      9  C   UNL     1      -1.284  20.629  30.434  1.00  0.00     0.000 C 
BRANCH   9  10
ATOM     10  C   UNL     1      -0.994  19.404  29.545  1.00  0.00    -0.000 C 
BRANCH  10  11
ATOM     11  C   UNL     1      -2.095  19.059  28.524  1.00  0.00    -0.000 C 
BRANCH  11  12
ATOM     12  C   UNL     1      -2.915  20.259  28.015  1.00  0.00    -0.000 C 
BRANCH  12  13
ATOM     13  C   UNL     1      -2.732  20.545  26.508  1.00  0.00    -0.003 C 
ATOM     14  C   UNL     1      -1.297  20.929  26.151  1.00  0.00     0.004 C 
ENDBRANCH  12  13
ENDBRANCH  11  12
ENDBRANCH  10  11
ENDBRANCH   9  10
ENDBRANCH   1   9
TORSDOF 10
ENDMDL
MODEL 7
REMARK VINA RESULT:    -4.262      4.152      7.505
REMARK INTER + INTRA:          -7.133
REMARK INTER:                  -6.688
REMARK INTRA:                  -0.446
REMARK UNBOUND:                -0.380
REMARK SMILES CCCCCCCCCCCC(=O)[O-]
REMARK SMILES IDX 7 1 8 2 9 3 10 4 11 5 12 6 13 7 14 8 6 9 5 10 4 11 3 12 2 13
REMARK SMILES IDX 1 14
REMARK H PARENT
REMARK Flexibility Score: inf
ROOT
ATOM      1  C   UNL     1      -0.413  21.857  32.437  1.00  0.00     0.000 C 
ENDROOT
BRANCH   1   2
ATOM      2  C   UNL     1      -0.487  20.639  31.498  1.00  0.00     0.000 C 
BRANCH   2   3
ATOM      3  C   UNL     1      -1.248  20.872  30.176  1.00  0.00     0.000 C 
BRANCH   3   4
ATOM      4  C   UNL     1      -1.566  19.598  29.368  1.00  0.00     0.006 C 
BRANCH   4   5
ATOM      5  C   UNL     1      -1.701  19.827  27.854  1.00  0.00     0.053 C 
BRANCH   5   6
ATOM      6  C   UNL     1      -3.129  19.766  27.406  1.00  0.00     0.041 C 
ATOM      7  O   UNL     1      -3.969  20.590  27.853  1.00  0.00    -0.550 OA
ATOM      8  O   UNL     1      -3.524  18.820  26.468  1.00  0.00    -0.550 OA
ENDBRANCH   5   6
ENDBRANCH   4   5
ENDBRANCH   3   4
ENDBRANCH   2   3
ENDBRANCH   1   2
BRANCH   1   9
ATOM      9  C   UNL     1       0.708  21.738  33.483  1.00  0.00     0.000 C 
BRANCH   9  10
ATOM     10  C   UNL     1       1.201  20.290  33.672  1.00  0.00    -0.000 C 
BRANCH  10  11
ATOM     11  C   UNL     1       2.700  20.145  33.994  1.00  0.00    -0.000 C 
BRANCH  11  12
ATOM     12  C   UNL     1       3.596  19.781  32.795  1.00  0.00    -0.000 C 
BRANCH  12  13
ATOM     13  C   UNL     1       4.605  18.650  33.092  1.00  0.00    -0.003 C 
ATOM     14  C   UNL     1       4.133  17.715  34.204  1.00  0.00     0.004 C 
ENDBRANCH  12  13
ENDBRANCH  11  12
ENDBRANCH  10  11
ENDBRANCH   9  10
ENDBRANCH   1   9
TORSDOF 10
ENDMDL
MODEL 8
REMARK VINA RESULT:    -4.147      5.162      7.609
REMARK INTER + INTRA:          -6.951
REMARK INTER:                  -6.356
REMARK INTRA:                  -0.596
REMARK UNBOUND:                -0.380
REMARK SMILES CCCCCCCCCCCC(=O)[O-]
REMARK SMILES IDX 7 1 8 2 9 3 10 4 11 5 12 6 13 7 14 8 6 9 5 10 4 11 3 12 2 13
REMARK SMILES IDX 1 14
REMARK H PARENT
REMARK Flexibility Score: inf
ROOT
ATOM      1  C   UNL     1       3.071  19.490  33.051  1.00  0.00     0.000 C 
ENDROOT
BRANCH   1   2
ATOM      2  C   UNL     1       2.041  20.607  33.300  1.00  0.00     0.000 C 
BRANCH   2   3
ATOM      3  C   UNL     1       1.752  20.918  34.783  1.00  0.00     0.000 C 
BRANCH   3   4
ATOM      4  C   UNL     1       0.336  21.450  35.079  1.00  0.00     0.006 C 
BRANCH   4   5
ATOM      5  C   UNL     1       0.167  22.960  34.846  1.00  0.00     0.053 C 
BRANCH   5   6
ATOM      6  C   UNL     1      -0.829  23.250  33.765  1.00  0.00     0.041 C 
ATOM      7  O   UNL     1      -1.669  24.176  33.909  1.00  0.00    -0.550 OA
ATOM      8  O   UNL     1      -0.805  22.519  32.583  1.00  0.00    -0.550 OA
ENDBRANCH   5   6
ENDBRANCH   4   5
ENDBRANCH   3   4
ENDBRANCH   2   3
ENDBRANCH   1   2
BRANCH   1   9
ATOM      9  C   UNL     1       3.001  18.368  34.100  1.00  0.00     0.000 C 
BRANCH   9  10
ATOM     10  C   UNL     1       4.354  17.663  34.316  1.00  0.00    -0.000 C 
BRANCH  10  11
ATOM     11  C   UNL     1       5.594  18.493  33.929  1.00  0.00    -0.000 C 
BRANCH  11  12
ATOM     12  C   UNL     1       6.478  17.876  32.829  1.00  0.00    -0.000 C 
BRANCH  12  13
ATOM     13  C   UNL     1       6.605  16.340  32.920  1.00  0.00    -0.003 C 
ATOM     14  C   UNL     1       7.273  15.729  31.690  1.00  0.00     0.004 C 
ENDBRANCH  12  13
ENDBRANCH  11  12
ENDBRANCH  10  11
ENDBRANCH   9  10
ENDBRANCH   1   9
TORSDOF 10
ENDMDL
MODEL 9
REMARK VINA RESULT:    -4.039      1.395      2.069
REMARK INTER + INTRA:          -6.780
REMARK INTER:                  -6.494
REMARK INTRA:                  -0.286
REMARK UNBOUND:                -0.380
REMARK SMILES CCCCCCCCCCCC(=O)[O-]
REMARK SMILES IDX 7 1 8 2 9 3 10 4 11 5 12 6 13 7 14 8 6 9 5 10 4 11 3 12 2 13
REMARK SMILES IDX 1 14
REMARK H PARENT
REMARK Flexibility Score: inf
ROOT
ATOM      1  C   UNL     1       1.252  19.942  31.744  1.00  0.00     0.000 C 
ENDROOT
BRANCH   1   2
ATOM      2  C   UNL     1       2.115  19.691  32.994  1.00  0.00     0.000 C 
BRANCH   2   3
ATOM      3  C   UNL     1       3.636  19.848  32.786  1.00  0.00     0.000 C 
BRANCH   3   4
ATOM      4  C   UNL     1       4.518  18.979  33.705  1.00  0.00     0.006 C 
BRANCH   4   5
ATOM      5  C   UNL     1       4.834  17.584  33.143  1.00  0.00     0.053 C 
BRANCH   5   6
ATOM      6  C   UNL     1       6.301  17.394  32.911  1.00  0.00     0.041 C 
ATOM      7  O   UNL     1       7.119  18.281  33.271  1.00  0.00    -0.550 OA
ATOM      8  O   UNL     1       6.768  16.222  32.328  1.00  0.00    -0.550 OA
ENDBRANCH   5   6
ENDBRANCH   4   5
ENDBRANCH   3   4
ENDBRANCH   2   3
ENDBRANCH   1   2
BRANCH   1   9
ATOM      9  C   UNL     1      -0.073  20.653  32.066  1.00  0.00     0.000 C 
BRANCH   9  10
ATOM     10  C   UNL     1      -0.853  21.068  30.803  1.00  0.00    -0.000 C 
BRANCH  10  11
ATOM     11  C   UNL     1      -1.270  19.908  29.879  1.00  0.00    -0.000 C 
BRANCH  11  12
ATOM     12  C   UNL     1      -2.042  20.325  28.612  1.00  0.00    -0.000 C 
BRANCH  12  13
ATOM     13  C   UNL     1      -1.298  20.008  27.297  1.00  0.00    -0.003 C 
ATOM     14  C   UNL     1      -1.560  21.046  26.207  1.00  0.00     0.004 C 
ENDBRANCH  12  13
ENDBRANCH  11  12
ENDBRANCH  10  11
ENDBRANCH   9  10
ENDBRANCH   1   9
TORSDOF 10
ENDMDL
