MODEL 1
REMARK VINA RESULT:    -4.926      0.000      0.000
REMARK INTER + INTRA:          -5.364
REMARK INTER:                  -5.358
REMARK INTRA:                  -0.006
REMARK UNBOUND:                -0.006
REMARK SMILES COc1cc2ccc(=O)oc2cc1O
REMARK SMILES IDX 3 1 13 2 12 3 11 4 5 5 4 6 6 7 7 8 8 9 9 10 10 11 2 12 1 13
REMARK SMILES IDX 14 14
REMARK H PARENT 14 15
REMARK Flexibility Score: inf
ROOT
ATOM      1  C   UNL     1      42.145  19.882  -1.862  1.00  0.00     0.161 A 
ATOM      2  C   UNL     1      42.378  18.494  -1.926  1.00  0.00     0.161 A 
ATOM      3  C   UNL     1      43.055  17.943  -3.020  1.00  0.00     0.098 A 
ATOM      4  C   UNL     1      43.505  18.760  -4.059  1.00  0.00     0.142 A 
ATOM      5  C   UNL     1      43.277  20.152  -4.004  1.00  0.00     0.022 A 
ATOM      6  C   UNL     1      42.600  20.707  -2.910  1.00  0.00     0.062 A 
ATOM      7  C   UNL     1      43.739  20.944  -5.059  1.00  0.00     0.019 A 
ATOM      8  C   UNL     1      44.408  20.345  -6.125  1.00  0.00     0.094 A 
ATOM      9  C   UNL     1      44.598  18.958  -6.111  1.00  0.00     0.336 A 
ATOM     10  O   UNL     1      45.199  18.397  -7.064  1.00  0.00    -0.246 OA
ATOM     11  O   UNL     1      44.148  18.227  -5.095  1.00  0.00    -0.423 OA
ENDROOT
BRANCH   1  12
ATOM     12  O   UNL     1      41.463  20.402  -0.750  1.00  0.00    -0.493 OA
ATOM     13  C   UNL     1      40.048  20.391  -0.592  1.00  0.00     0.278 C 
ENDBRANCH   1  12
BRANCH   2  14
ATOM     14  O   UNL     1      41.943  17.644  -0.909  1.00  0.00    -0.504 OA
ATOM     15  H   UNL     1      42.447  17.544  -0.037  1.00  0.00     0.293 HD
ENDBRANCH   2  14
TORSDOF 2
ENDMDL
MODEL 2
REMARK VINA RESULT:    -4.390      1.037      1.143
REMARK INTER + INTRA:          -4.780
REMARK INTER:                  -4.718
REMARK INTRA:                  -0.062
REMARK UNBOUND:                -0.006
REMARK SMILES COc1cc2ccc(=O)oc2cc1O
REMARK SMILES IDX 3 1 13 2 12 3 11 4 5 5 4 6 6 7 7 8 8 9 9 10 10 11 2 12 1 13
REMARK SMILES IDX 14 14
REMARK H PARENT 14 15
REMARK Flexibility Score: inf
ROOT
ATOM      1  C   UNL     1      41.936  19.190  -2.670  1.00  0.00     0.161 A 
ATOM      2  C   UNL     1      42.434  17.921  -2.315  1.00  0.00     0.161 A 
ATOM      3  C   UNL     1      43.439  17.320  -3.082  1.00  0.00     0.098 A 
ATOM      4  C   UNL     1      43.959  17.970  -4.203  1.00  0.00     0.142 A 
ATOM      5  C   UNL     1      43.466  19.242  -4.567  1.00  0.00     0.022 A 
ATOM      6  C   UNL     1      42.460  19.847  -3.802  1.00  0.00     0.062 A 
ATOM      7  C   UNL     1      44.006  19.867  -5.694  1.00  0.00     0.019 A 
ATOM      8  C   UNL     1      45.006  19.224  -6.423  1.00  0.00     0.094 A 
ATOM      9  C   UNL     1      45.444  17.963  -6.003  1.00  0.00     0.336 A 
ATOM     10  O   UNL     1      46.346  17.366  -6.646  1.00  0.00    -0.246 OA
ATOM     11  O   UNL     1      44.915  17.390  -4.925  1.00  0.00    -0.423 OA
ENDROOT
BRANCH   1  12
ATOM     12  O   UNL     1      40.928  19.765  -1.879  1.00  0.00    -0.493 OA
ATOM     13  C   UNL     1      41.160  20.679  -0.812  1.00  0.00     0.278 C 
ENDBRANCH   1  12
BRANCH   2  14
ATOM     14  O   UNL     1      41.941  17.239  -1.203  1.00  0.00    -0.504 OA
ATOM     15  H   UNL     1      41.951  17.643  -0.274  1.00  0.00     0.293 HD
ENDBRANCH   2  14
TORSDOF 2
ENDMDL
MODEL 3
REMARK VINA RESULT:    -4.383      6.950      9.311
REMARK INTER + INTRA:          -4.774
REMARK INTER:                  -4.727
REMARK INTRA:                  -0.046
REMARK UNBOUND:                -0.006
REMARK SMILES COc1cc2ccc(=O)oc2cc1O
REMARK SMILES IDX 3 1 13 2 12 3 11 4 5 5 4 6 6 7 7 8 8 9 9 10 10 11 2 12 1 13
REMARK SMILES IDX 14 14
REMARK H PARENT 14 15
REMARK Flexibility Score: inf
ROOT
ATOM      1  C   UNL     1      49.946  15.300  -5.238  1.00  0.00     0.161 A 
ATOM      2  C   UNL     1      48.758  15.948  -4.846  1.00  0.00     0.161 A 
ATOM      3  C   UNL     1      47.816  15.277  -4.059  1.00  0.00     0.098 A 
ATOM      4  C   UNL     1      48.041  13.959  -3.655  1.00  0.00     0.142 A 
ATOM      5  C   UNL     1      49.227  13.301  -4.042  1.00  0.00     0.022 A 
ATOM      6  C   UNL     1      50.173  13.970  -4.830  1.00  0.00     0.062 A 
ATOM      7  C   UNL     1      49.425  11.982  -3.622  1.00  0.00     0.019 A 
ATOM      8  C   UNL     1      48.453  11.359  -2.839  1.00  0.00     0.094 A 
ATOM      9  C   UNL     1      47.301  12.075  -2.494  1.00  0.00     0.336 A 
ATOM     10  O   UNL     1      46.412  11.531  -1.788  1.00  0.00    -0.246 OA
ATOM     11  O   UNL     1      47.139  13.329  -2.906  1.00  0.00    -0.423 OA
ENDROOT
BRANCH   1  12
ATOM     12  O   UNL     1      50.870  16.003  -6.027  1.00  0.00    -0.493 OA
ATOM     13  C   UNL     1      52.283  15.839  -5.956  1.00  0.00     0.278 C 
ENDBRANCH   1  12
BRANCH   2  14
ATOM     14  O   UNL     1      48.496  17.263  -5.230  1.00  0.00    -0.504 OA
ATOM     15  H   UNL     1      49.039  18.045  -4.886  1.00  0.00     0.293 HD
ENDBRANCH   2  14
TORSDOF 2
ENDMDL
MODEL 4
REMARK VINA RESULT:    -4.352      8.061     10.784
REMARK INTER + INTRA:          -4.739
REMARK INTER:                  -4.695
REMARK INTRA:                  -0.045
REMARK UNBOUND:                -0.006
REMARK SMILES COc1cc2ccc(=O)oc2cc1O
REMARK SMILES IDX 3 1 13 2 12 3 11 4 5 5 4 6 6 7 7 8 8 9 9 10 10 11 2 12 1 13
REMARK SMILES IDX 14 14
REMARK H PARENT 14 15
REMARK Flexibility Score: inf
ROOT
ATOM      1  C   UNL     1      52.321  14.236  -6.366  1.00  0.00     0.161 A 
ATOM      2  C   UNL     1      51.901  15.545  -6.055  1.00  0.00     0.161 A 
ATOM      3  C   UNL     1      50.741  15.751  -5.300  1.00  0.00     0.098 A 
ATOM      4  C   UNL     1      49.988  14.666  -4.846  1.00  0.00     0.142 A 
ATOM      5  C   UNL     1      50.401  13.351  -5.152  1.00  0.00     0.022 A 
ATOM      6  C   UNL     1      51.562  13.140  -5.908  1.00  0.00     0.062 A 
ATOM      7  C   UNL     1      49.627  12.285  -4.685  1.00  0.00     0.019 A 
ATOM      8  C   UNL     1      48.480  12.546  -3.936  1.00  0.00     0.094 A 
ATOM      9  C   UNL     1      48.133  13.876  -3.672  1.00  0.00     0.336 A 
ATOM     10  O   UNL     1      47.101  14.133  -2.998  1.00  0.00    -0.246 OA
ATOM     11  O   UNL     1      48.887  14.872  -4.128  1.00  0.00    -0.423 OA
ENDROOT
BRANCH   1  12
ATOM     12  O   UNL     1      53.489  14.065  -7.125  1.00  0.00    -0.493 OA
ATOM     13  C   UNL     1      54.294  12.890  -7.116  1.00  0.00     0.278 C 
ENDBRANCH   1  12
BRANCH   2  14
ATOM     14  O   UNL     1      52.624  16.655  -6.490  1.00  0.00    -0.504 OA
ATOM     15  H   UNL     1      52.238  17.332  -7.135  1.00  0.00     0.293 HD
ENDBRANCH   2  14
TORSDOF 2
ENDMDL
MODEL 5
REMARK VINA RESULT:    -4.273      1.919      4.887
REMARK INTER + INTRA:          -4.653
REMARK INTER:                  -4.593
REMARK INTRA:                  -0.060
REMARK UNBOUND:                -0.006
REMARK SMILES COc1cc2ccc(=O)oc2cc1O
REMARK SMILES IDX 3 1 13 2 12 3 11 4 5 5 4 6 6 7 7 8 8 9 9 10 10 11 2 12 1 13
REMARK SMILES IDX 14 14
REMARK H PARENT 14 15
REMARK Flexibility Score: inf
ROOT
ATOM      1  C   UNL     1      43.965  16.705  -3.769  1.00  0.00     0.161 A 
ATOM      2  C   UNL     1      43.078  16.012  -2.921  1.00  0.00     0.161 A 
ATOM      3  C   UNL     1      42.189  16.718  -2.103  1.00  0.00     0.098 A 
ATOM      4  C   UNL     1      42.170  18.114  -2.116  1.00  0.00     0.142 A 
ATOM      5  C   UNL     1      43.054  18.818  -2.962  1.00  0.00     0.022 A 
ATOM      6  C   UNL     1      43.946  18.114  -3.783  1.00  0.00     0.062 A 
ATOM      7  C   UNL     1      43.012  20.215  -2.954  1.00  0.00     0.019 A 
ATOM      8  C   UNL     1      42.107  20.869  -2.120  1.00  0.00     0.094 A 
ATOM      9  C   UNL     1      41.261  20.105  -1.308  1.00  0.00     0.336 A 
ATOM     10  O   UNL     1      40.437  20.676  -0.547  1.00  0.00    -0.246 OA
ATOM     11  O   UNL     1      41.321  18.777  -1.335  1.00  0.00    -0.423 OA
ENDROOT
BRANCH   1  12
ATOM     12  O   UNL     1      44.843  15.966  -4.577  1.00  0.00    -0.493 OA
ATOM     13  C   UNL     1      46.261  15.970  -4.444  1.00  0.00     0.278 C 
ENDBRANCH   1  12
BRANCH   2  14
ATOM     14  O   UNL     1      43.067  14.618  -2.877  1.00  0.00    -0.504 OA
ATOM     15  H   UNL     1      42.240  14.077  -3.099  1.00  0.00     0.293 HD
ENDBRANCH   2  14
TORSDOF 2
ENDMDL
MODEL 6
REMARK VINA RESULT:    -4.262      6.534      7.717
REMARK INTER + INTRA:          -4.642
REMARK INTER:                  -4.577
REMARK INTRA:                  -0.065
REMARK UNBOUND:                -0.006
REMARK SMILES COc1cc2ccc(=O)oc2cc1O
REMARK SMILES IDX 3 1 13 2 12 3 11 4 5 5 4 6 6 7 7 8 8 9 9 10 10 11 2 12 1 13
REMARK SMILES IDX 14 14
REMARK H PARENT 14 15
REMARK Flexibility Score: inf
ROOT
ATOM      1  C   UNL     1      47.682  13.350  -3.110  1.00  0.00     0.161 A 
ATOM      2  C   UNL     1      48.957  12.893  -3.498  1.00  0.00     0.161 A 
ATOM      3  C   UNL     1      49.732  13.642  -4.390  1.00  0.00     0.098 A 
ATOM      4  C   UNL     1      49.252  14.848  -4.906  1.00  0.00     0.142 A 
ATOM      5  C   UNL     1      47.976  15.314  -4.523  1.00  0.00     0.022 A 
ATOM      6  C   UNL     1      47.197  14.567  -3.630  1.00  0.00     0.062 A 
ATOM      7  C   UNL     1      47.523  16.525  -5.056  1.00  0.00     0.019 A 
ATOM      8  C   UNL     1      48.336  17.232  -5.941  1.00  0.00     0.094 A 
ATOM      9  C   UNL     1      49.589  16.707  -6.275  1.00  0.00     0.336 A 
ATOM     10  O   UNL     1      50.338  17.329  -7.073  1.00  0.00    -0.246 OA
ATOM     11  O   UNL     1      49.997  15.553  -5.753  1.00  0.00    -0.423 OA
ENDROOT
BRANCH   1  12
ATOM     12  O   UNL     1      46.931  12.574  -2.213  1.00  0.00    -0.493 OA
ATOM     13  C   UNL     1      45.906  11.662  -2.594  1.00  0.00     0.278 C 
ENDBRANCH   1  12
BRANCH   2  14
ATOM     14  O   UNL     1      49.472  11.694  -3.006  1.00  0.00    -0.504 OA
ATOM     15  H   UNL     1      49.391  10.822  -3.515  1.00  0.00     0.293 HD
ENDBRANCH   2  14
TORSDOF 2
ENDMDL
MODEL 7
REMARK VINA RESULT:    -4.232      6.826      8.357
REMARK INTER + INTRA:          -4.609
REMARK INTER:                  -4.556
REMARK INTRA:                  -0.053
REMARK UNBOUND:                -0.006
REMARK SMILES COc1cc2ccc(=O)oc2cc1O
REMARK SMILES IDX 3 1 13 2 12 3 11 4 5 5 4 6 6 7 7 8 8 9 9 10 10 11 2 12 1 13
REMARK SMILES IDX 14 14
REMARK H PARENT 14 15
REMARK Flexibility Score: inf
ROOT
ATOM      1  C   UNL     1      47.883  13.594  -3.374  1.00  0.00     0.161 A 
ATOM      2  C   UNL     1      47.461  14.904  -3.676  1.00  0.00     0.161 A 
ATOM      3  C   UNL     1      48.244  15.724  -4.498  1.00  0.00     0.098 A 
ATOM      4  C   UNL     1      49.448  15.254  -5.026  1.00  0.00     0.142 A 
ATOM      5  C   UNL     1      49.879  13.943  -4.730  1.00  0.00     0.022 A 
ATOM      6  C   UNL     1      49.098  13.119  -3.908  1.00  0.00     0.062 A 
ATOM      7  C   UNL     1      51.088  13.501  -5.273  1.00  0.00     0.019 A 
ATOM      8  C   UNL     1      51.829  14.359  -6.085  1.00  0.00     0.094 A 
ATOM      9  C   UNL     1      51.339  15.645  -6.335  1.00  0.00     0.336 A 
ATOM     10  O   UNL     1      51.993  16.435  -7.066  1.00  0.00    -0.246 OA
ATOM     11  O   UNL     1      50.185  16.041  -5.807  1.00  0.00    -0.423 OA
ENDROOT
BRANCH   1  12
ATOM     12  O   UNL     1      47.074  12.798  -2.548  1.00  0.00    -0.493 OA
ATOM     13  C   UNL     1      47.533  12.109  -1.389  1.00  0.00     0.278 C 
ENDBRANCH   1  12
BRANCH   2  14
ATOM     14  O   UNL     1      46.266  15.410  -3.167  1.00  0.00    -0.504 OA
ATOM     15  H   UNL     1      45.558  15.824  -3.762  1.00  0.00     0.293 HD
ENDBRANCH   2  14
TORSDOF 2
ENDMDL
MODEL 8
REMARK VINA RESULT:    -4.181      6.025      8.106
REMARK INTER + INTRA:          -4.554
REMARK INTER:                  -4.510
REMARK INTRA:                  -0.043
REMARK UNBOUND:                -0.006
REMARK SMILES COc1cc2ccc(=O)oc2cc1O
REMARK SMILES IDX 3 1 13 2 12 3 11 4 5 5 4 6 6 7 7 8 8 9 9 10 10 11 2 12 1 13
REMARK SMILES IDX 14 14
REMARK H PARENT 14 15
REMARK Flexibility Score: inf
ROOT
ATOM      1  C   UNL     1      49.438  13.787  -4.353  1.00  0.00     0.161 A 
ATOM      2  C   UNL     1      48.839  12.918  -3.420  1.00  0.00     0.161 A 
ATOM      3  C   UNL     1      47.565  13.197  -2.914  1.00  0.00     0.098 A 
ATOM      4  C   UNL     1      46.873  14.337  -3.327  1.00  0.00     0.142 A 
ATOM      5  C   UNL     1      47.464  15.215  -4.261  1.00  0.00     0.022 A 
ATOM      6  C   UNL     1      48.740  14.939  -4.770  1.00  0.00     0.062 A 
ATOM      7  C   UNL     1      46.747  16.349  -4.655  1.00  0.00     0.019 A 
ATOM      8  C   UNL     1      45.480  16.580  -4.120  1.00  0.00     0.094 A 
ATOM      9  C   UNL     1      44.959  15.666  -3.197  1.00  0.00     0.336 A 
ATOM     10  O   UNL     1      43.817  15.855  -2.702  1.00  0.00    -0.246 OA
ATOM     11  O   UNL     1      45.661  14.594  -2.840  1.00  0.00    -0.423 OA
ENDROOT
BRANCH   1  12
ATOM     12  O   UNL     1      50.717  13.477  -4.841  1.00  0.00    -0.493 OA
ATOM     13  C   UNL     1      51.427  14.256  -5.799  1.00  0.00     0.278 C 
ENDBRANCH   1  12
BRANCH   2  14
ATOM     14  O   UNL     1      49.498  11.769  -2.983  1.00  0.00    -0.504 OA
ATOM     15  H   UNL     1      49.111  11.163  -2.270  1.00  0.00     0.293 HD
ENDBRANCH   2  14
TORSDOF 2
ENDMDL
MODEL 9
REMARK VINA RESULT:    -4.018      7.273      9.249
REMARK INTER + INTRA:          -4.377
REMARK INTER:                  -4.333
REMARK INTRA:                  -0.043
REMARK UNBOUND:                -0.006
REMARK SMILES COc1cc2ccc(=O)oc2cc1O
REMARK SMILES IDX 3 1 13 2 12 3 11 4 5 5 4 6 6 7 7 8 8 9 9 10 10 11 2 12 1 13
REMARK SMILES IDX 14 14
REMARK H PARENT 14 15
REMARK Flexibility Score: inf
ROOT
ATOM      1  C   UNL     1      50.121  15.943  -5.885  1.00  0.00     0.161 A 
ATOM      2  C   UNL     1      51.052  14.895  -5.746  1.00  0.00     0.161 A 
ATOM      3  C   UNL     1      50.759  13.796  -4.930  1.00  0.00     0.098 A 
ATOM      4  C   UNL     1      49.544  13.726  -4.246  1.00  0.00     0.142 A 
ATOM      5  C   UNL     1      48.605  14.771  -4.378  1.00  0.00     0.022 A 
ATOM      6  C   UNL     1      48.894  15.873  -5.194  1.00  0.00     0.062 A 
ATOM      7  C   UNL     1      47.397  14.673  -3.681  1.00  0.00     0.019 A 
ATOM      8  C   UNL     1      47.155  13.557  -2.881  1.00  0.00     0.094 A 
ATOM      9  C   UNL     1      48.134  12.560  -2.798  1.00  0.00     0.336 A 
ATOM     10  O   UNL     1      47.936  11.544  -2.082  1.00  0.00    -0.246 OA
ATOM     11  O   UNL     1      49.274  12.677  -3.473  1.00  0.00    -0.423 OA
ENDROOT
BRANCH   1  12
ATOM     12  O   UNL     1      50.446  17.030  -6.712  1.00  0.00    -0.493 OA
ATOM     13  C   UNL     1      49.546  18.076  -7.064  1.00  0.00     0.278 C 
ENDBRANCH   1  12
BRANCH   2  14
ATOM     14  O   UNL     1      52.277  14.927  -6.413  1.00  0.00    -0.504 OA
ATOM     15  H   UNL     1      52.954  14.179  -6.334  1.00  0.00     0.293 HD
ENDBRANCH   2  14
TORSDOF 2
ENDMDL
