MODEL 1
REMARK VINA RESULT:    -6.723      0.000      0.000
REMARK INTER + INTRA:          -6.723
REMARK INTER:                  -6.723
REMARK INTRA:                   0.000
REMARK UNBOUND:                 0.000
REMARK SMILES CC1=CC[C@@H]2[C@@H](C1)C2(C)C
REMARK SMILES IDX 1 1 2 2 3 3 4 4 5 5 6 6 7 7 8 8 9 9 10 10
REMARK H PARENT
REMARK Flexibility Score: inf
ROOT
ATOM      1  C   UNL     1       3.250  10.662  11.442  1.00  0.00     0.039 C 
ATOM      2  C   UNL     1       3.876   9.486  12.135  1.00  0.00    -0.077 C 
ATOM      3  C   UNL     1       3.716   9.337  13.483  1.00  0.00    -0.028 C 
ATOM      4  C   UNL     1       4.350   8.177  14.249  1.00  0.00     0.031 C 
ATOM      5  C   UNL     1       5.543   7.671  13.432  1.00  0.00     0.003 C 
ATOM      6  C   UNL     1       4.829   7.193  12.112  1.00  0.00     0.003 C 
ATOM      7  C   UNL     1       4.738   8.508  11.329  1.00  0.00     0.034 C 
ATOM      8  C   UNL     1       5.930   6.377  12.751  1.00  0.00    -0.029 C 
ATOM      9  C   UNL     1       5.513   5.095  13.478  1.00  0.00     0.012 C 
ATOM     10  C   UNL     1       7.264   6.360  11.999  1.00  0.00     0.012 C 
ENDROOT
TORSDOF 0
ENDMDL
MODEL 2
REMARK VINA RESULT:    -6.356      0.829      2.218
REMARK INTER + INTRA:          -6.356
REMARK INTER:                  -6.356
REMARK INTRA:                   0.000
REMARK UNBOUND:                 0.000
REMARK SMILES CC1=CC[C@@H]2[C@@H](C1)C2(C)C
REMARK SMILES IDX 1 1 2 2 3 3 4 4 5 5 6 6 7 7 8 8 9 9 10 10
REMARK H PARENT
REMARK Flexibility Score: inf
ROOT
ATOM      1  C   UNL     1       3.096  10.009  14.043  1.00  0.00     0.039 C 
ATOM      2  C   UNL     1       3.987   9.001  13.375  1.00  0.00    -0.077 C 
ATOM      3  C   UNL     1       3.990   8.905  12.013  1.00  0.00    -0.028 C 
ATOM      4  C   UNL     1       4.854   7.883  11.276  1.00  0.00     0.031 C 
ATOM      5  C   UNL     1       5.164   6.741  12.250  1.00  0.00     0.003 C 
ATOM      6  C   UNL     1       5.969   7.505  13.368  1.00  0.00     0.003 C 
ATOM      7  C   UNL     1       4.829   8.052  14.236  1.00  0.00     0.034 C 
ATOM      8  C   UNL     1       6.407   6.145  12.873  1.00  0.00    -0.029 C 
ATOM      9  C   UNL     1       7.644   6.100  11.970  1.00  0.00     0.012 C 
ATOM     10  C   UNL     1       6.205   4.985  13.852  1.00  0.00     0.012 C 
ENDROOT
TORSDOF 0
ENDMDL
MODEL 3
REMARK VINA RESULT:    -4.893      1.332      4.136
REMARK INTER + INTRA:          -4.893
REMARK INTER:                  -4.893
REMARK INTRA:                   0.000
REMARK UNBOUND:                 0.000
REMARK SMILES CC1=CC[C@@H]2[C@@H](C1)C2(C)C
REMARK SMILES IDX 1 1 2 2 3 3 4 4 5 5 6 6 7 7 8 8 9 9 10 10
REMARK H PARENT
REMARK Flexibility Score: inf
ROOT
ATOM      1  C   UNL     1       7.398   4.913  12.580  1.00  0.00     0.039 C 
ATOM      2  C   UNL     1       6.687   6.146  13.060  1.00  0.00    -0.077 C 
ATOM      3  C   UNL     1       7.330   7.009  13.899  1.00  0.00    -0.028 C 
ATOM      4  C   UNL     1       6.650   8.265  14.442  1.00  0.00     0.031 C 
ATOM      5  C   UNL     1       5.136   8.043  14.384  1.00  0.00     0.003 C 
ATOM      6  C   UNL     1       4.913   7.868  12.835  1.00  0.00     0.003 C 
ATOM      7  C   UNL     1       5.226   6.379  12.653  1.00  0.00     0.034 C 
ATOM      8  C   UNL     1       3.964   8.689  13.678  1.00  0.00    -0.029 C 
ATOM      9  C   UNL     1       4.039  10.211  13.528  1.00  0.00     0.012 C 
ATOM     10  C   UNL     1       2.583   8.070  13.916  1.00  0.00     0.012 C 
ENDROOT
TORSDOF 0
ENDMDL
MODEL 4
REMARK VINA RESULT:    -4.881      1.189      4.321
REMARK INTER + INTRA:          -4.881
REMARK INTER:                  -4.881
REMARK INTRA:                   0.000
REMARK UNBOUND:                 0.000
REMARK SMILES CC1=CC[C@@H]2[C@@H](C1)C2(C)C
REMARK SMILES IDX 1 1 2 2 3 3 4 4 5 5 6 6 7 7 8 8 9 9 10 10
REMARK H PARENT
REMARK Flexibility Score: inf
ROOT
ATOM      1  C   UNL     1       6.741   6.168  13.893  1.00  0.00     0.039 C 
ATOM      2  C   UNL     1       5.702   7.142  13.416  1.00  0.00    -0.077 C 
ATOM      3  C   UNL     1       5.299   7.110  12.112  1.00  0.00    -0.028 C 
ATOM      4  C   UNL     1       4.266   8.091  11.560  1.00  0.00     0.031 C 
ATOM      5  C   UNL     1       4.269   9.331  12.461  1.00  0.00     0.003 C 
ATOM      6  C   UNL     1       3.823   8.709  13.837  1.00  0.00     0.003 C 
ATOM      7  C   UNL     1       5.162   8.202  14.384  1.00  0.00     0.034 C 
ATOM      8  C   UNL     1       3.271  10.032  13.356  1.00  0.00    -0.029 C 
ATOM      9  C   UNL     1       1.824  10.041  12.855  1.00  0.00     0.012 C 
ATOM     10  C   UNL     1       3.765  11.270  14.110  1.00  0.00     0.012 C 
ENDROOT
TORSDOF 0
ENDMDL
MODEL 5
REMARK VINA RESULT:    -4.496      1.082      4.109
REMARK INTER + INTRA:          -4.496
REMARK INTER:                  -4.496
REMARK INTRA:                   0.000
REMARK UNBOUND:                 0.000
REMARK SMILES CC1=CC[C@@H]2[C@@H](C1)C2(C)C
REMARK SMILES IDX 1 1 2 2 3 3 4 4 5 5 6 6 7 7 8 8 9 9 10 10
REMARK H PARENT
REMARK Flexibility Score: inf
ROOT
ATOM      1  C   UNL     1       7.990   4.890  12.362  1.00  0.00     0.039 C 
ATOM      2  C   UNL     1       6.693   5.599  12.625  1.00  0.00    -0.077 C 
ATOM      3  C   UNL     1       5.539   4.875  12.718  1.00  0.00    -0.028 C 
ATOM      4  C   UNL     1       4.185   5.541  12.958  1.00  0.00     0.031 C 
ATOM      5  C   UNL     1       4.288   6.997  12.493  1.00  0.00     0.003 C 
ATOM      6  C   UNL     1       5.402   7.548  13.460  1.00  0.00     0.003 C 
ATOM      7  C   UNL     1       6.676   7.129  12.718  1.00  0.00     0.034 C 
ATOM      8  C   UNL     1       4.168   8.361  13.137  1.00  0.00    -0.029 C 
ATOM      9  C   UNL     1       3.108   8.482  14.237  1.00  0.00     0.012 C 
ATOM     10  C   UNL     1       4.392   9.577  12.235  1.00  0.00     0.012 C 
ENDROOT
TORSDOF 0
ENDMDL
