MODEL 1
REMARK VINA RESULT:    -1.455      0.000      0.000
REMARK INTER + INTRA:          -1.918
REMARK INTER:                  -2.221
REMARK INTRA:                   0.303
REMARK UNBOUND:                 0.303
REMARK SMILES CC1=CCC[C@@H](C)C(=O)C[C@H](C(C)C)C(=O)C1
REMARK SMILES IDX 8 1 9 2 6 3 7 4 5 5 4 6 3 7 2 8 1 9 10 11 11 12 15 13 16 14
REMARK SMILES IDX 17 15 12 17 13 18 14 19
REMARK H PARENT
REMARK Flexibility Score: 70.00
ROOT
ATOM      1  C   UNL     1      77.998  35.775  50.706  1.00  0.00     0.136 C 
ATOM      2  O   UNL     1      77.221  35.854  49.766  1.00  0.00    -0.299 OA
ENDROOT
BRANCH   1   3
ATOM      3  C   UNL     1      79.464  36.090  50.470  1.00  0.00     0.053 C 
ATOM      4  C   UNL     1      79.874  35.748  49.032  1.00  0.00     0.016 C 
BRANCH   3   5
ATOM      5  C   UNL     1      80.363  35.368  51.494  1.00  0.00     0.015 C 
BRANCH   5   6
ATOM      6  C   UNL     1      80.865  34.012  50.963  1.00  0.00     0.028 C 
BRANCH   6   7
ATOM      7  C   UNL     1      80.677  32.915  51.979  1.00  0.00    -0.028 C 
ATOM      8  C   UNL     1      79.538  32.202  52.138  1.00  0.00    -0.070 CG0
ATOM      9  C   UNL     1      79.520  31.119  53.187  1.00  0.00     0.039 C 
ATOM     10  G   UNL     1      78.284  32.432  51.310  1.00  0.00     0.000 G0
ENDBRANCH   6   7
ENDBRANCH   5   6
ENDBRANCH   3   5
ENDBRANCH   1   3
BRANCH   1  11
ATOM     11  C   UNL     1      77.493  35.292  52.052  1.00  0.00     0.087 C 
BRANCH  11  12
ATOM     12  C   UNL     1      76.403  34.190  51.999  1.00  0.00     0.066 C 
BRANCH  12  13
ATOM     13  C   UNL     1      77.034  32.805  52.081  1.00  0.00     0.140 C 
ATOM     14  O   UNL     1      76.543  31.986  52.846  1.00  0.00    -0.299 OA
BRANCH  13  15
ATOM     15  C   UNL     1      78.266  32.426  51.287  1.00  0.00     0.106 CG0
ATOM     16  G   UNL     1      79.487  32.223  52.171  1.00  0.00     0.000 G0
ENDBRANCH  13  15
ENDBRANCH  12  13
BRANCH  12  17
ATOM     17  C   UNL     1      75.195  34.383  52.977  1.00  0.00    -0.006 C 
ATOM     18  C   UNL     1      74.933  35.865  53.298  1.00  0.00     0.008 C 
ATOM     19  C   UNL     1      73.909  33.780  52.382  1.00  0.00     0.008 C 
ENDBRANCH  12  17
ENDBRANCH  11  12
ENDBRANCH   1  11
TORSDOF 1
ENDMDL
MODEL 2
REMARK VINA RESULT:    -1.371      1.626      4.198
REMARK INTER + INTRA:          -1.790
REMARK INTER:                  -2.421
REMARK INTRA:                   0.630
REMARK UNBOUND:                 0.303
REMARK SMILES CC1=CCC[C@@H](C)C(=O)C[C@H](C(C)C)C(=O)C1
REMARK SMILES IDX 8 1 9 2 6 3 7 4 5 5 4 6 3 7 2 8 1 9 10 11 11 12 15 13 16 14
REMARK SMILES IDX 17 15 12 17 13 18 14 19
REMARK H PARENT
REMARK Flexibility Score: 70.00
ROOT
ATOM      1  C   UNL     1      77.361  35.221  51.832  1.00  0.00     0.136 C 
ATOM      2  O   UNL     1      77.864  35.886  52.726  1.00  0.00    -0.299 OA
ENDROOT
BRANCH   1   3
ATOM      3  C   UNL     1      75.950  34.692  52.020  1.00  0.00     0.053 C 
ATOM      4  C   UNL     1      75.095  35.684  52.819  1.00  0.00     0.016 C 
BRANCH   3   5
ATOM      5  C   UNL     1      75.959  33.300  52.683  1.00  0.00     0.015 C 
BRANCH   5   6
ATOM      6  C   UNL     1      76.781  32.281  51.871  1.00  0.00     0.028 C 
BRANCH   6   7
ATOM      7  C   UNL     1      77.815  31.598  52.726  1.00  0.00    -0.028 C 
ATOM      8  C   UNL     1      79.149  31.642  52.503  1.00  0.00    -0.070 CG0
ATOM      9  C   UNL     1      80.055  30.922  53.470  1.00  0.00     0.039 C 
ATOM     10  G   UNL     1      79.778  32.386  51.335  1.00  0.00     0.000 G0
ENDBRANCH   6   7
ENDBRANCH   5   6
ENDBRANCH   3   5
ENDBRANCH   1   3
BRANCH   1  11
ATOM     11  C   UNL     1      78.183  34.881  50.603  1.00  0.00     0.087 C 
BRANCH  11  12
ATOM     12  C   UNL     1      79.721  34.949  50.791  1.00  0.00     0.066 C 
BRANCH  12  13
ATOM     13  C   UNL     1      80.214  33.768  51.619  1.00  0.00     0.140 C 
ATOM     14  O   UNL     1      81.001  33.986  52.531  1.00  0.00    -0.299 OA
BRANCH  13  15
ATOM     15  C   UNL     1      79.802  32.342  51.325  1.00  0.00     0.106 CG0
ATOM     16  G   UNL     1      79.150  31.666  52.522  1.00  0.00     0.000 G0
ENDBRANCH  13  15
ENDBRANCH  12  13
BRANCH  12  17
ATOM     17  C   UNL     1      80.553  35.184  49.485  1.00  0.00    -0.006 C 
ATOM     18  C   UNL     1      80.877  33.870  48.753  1.00  0.00     0.008 C 
ATOM     19  C   UNL     1      79.795  36.108  48.513  1.00  0.00     0.008 C 
ENDBRANCH  12  17
ENDBRANCH  11  12
ENDBRANCH   1  11
TORSDOF 1
ENDMDL
MODEL 3
REMARK VINA RESULT:    -1.303     14.376     16.439
REMARK INTER + INTRA:          -1.686
REMARK INTER:                  -2.519
REMARK INTRA:                   0.833
REMARK UNBOUND:                 0.303
REMARK SMILES CC1=CCC[C@@H](C)C(=O)C[C@H](C(C)C)C(=O)C1
REMARK SMILES IDX 8 1 9 2 6 3 7 4 5 5 4 6 3 7 2 8 1 9 10 11 11 12 15 13 16 14
REMARK SMILES IDX 17 15 12 17 13 18 14 19
REMARK H PARENT
REMARK Flexibility Score: 70.00
ROOT
ATOM      1  C   UNL     1      84.338  30.922  64.819  1.00  0.00     0.136 C 
ATOM      2  O   UNL     1      83.948  31.244  65.931  1.00  0.00    -0.299 OA
ENDROOT
BRANCH   1   3
ATOM      3  C   UNL     1      83.482  29.985  63.986  1.00  0.00     0.053 C 
ATOM      4  C   UNL     1      81.995  30.344  64.113  1.00  0.00     0.016 C 
BRANCH   3   5
ATOM      5  C   UNL     1      83.735  28.512  64.362  1.00  0.00     0.015 C 
BRANCH   5   6
ATOM      6  C   UNL     1      85.059  28.334  65.131  1.00  0.00     0.028 C 
BRANCH   6   7
ATOM      7  C   UNL     1      85.954  27.322  64.466  1.00  0.00    -0.028 C 
ATOM      8  C   UNL     1      87.303  27.409  64.405  1.00  0.00    -0.070 CG0
ATOM      9  C   UNL     1      88.056  26.295  63.721  1.00  0.00     0.039 C 
ATOM     10  G   UNL     1      88.094  28.565  64.996  1.00  0.00     0.000 G0
ENDBRANCH   6   7
ENDBRANCH   5   6
ENDBRANCH   3   5
ENDBRANCH   1   3
BRANCH   1  11
ATOM     11  C   UNL     1      85.694  31.402  64.336  1.00  0.00     0.087 C 
BRANCH  11  12
ATOM     12  C   UNL     1      86.907  30.929  65.179  1.00  0.00     0.066 C 
BRANCH  12  13
ATOM     13  C   UNL     1      87.740  29.917  64.401  1.00  0.00     0.140 C 
ATOM     14  O   UNL     1      88.076  30.196  63.258  1.00  0.00    -0.299 OA
BRANCH  13  15
ATOM     15  C   UNL     1      88.125  28.570  64.975  1.00  0.00     0.106 CG0
ATOM     16  G   UNL     1      87.283  27.436  64.411  1.00  0.00     0.000 G0
ENDBRANCH  13  15
ENDBRANCH  12  13
BRANCH  12  17
ATOM     17  C   UNL     1      87.761  32.065  65.836  1.00  0.00    -0.006 C 
ATOM     18  C   UNL     1      87.738  33.365  65.012  1.00  0.00     0.008 C 
ATOM     19  C   UNL     1      87.252  32.380  67.255  1.00  0.00     0.008 C 
ENDBRANCH  12  17
ENDBRANCH  11  12
ENDBRANCH   1  11
TORSDOF 1
ENDMDL
MODEL 4
REMARK VINA RESULT:    -0.344      1.452      3.742
REMARK INTER + INTRA:          -0.223
REMARK INTER:                  -0.462
REMARK INTRA:                   0.240
REMARK UNBOUND:                 0.303
REMARK SMILES CC1=CCC[C@@H](C)C(=O)C[C@H](C(C)C)C(=O)C1
REMARK SMILES IDX 8 1 9 2 6 3 7 4 5 5 4 6 3 7 2 8 1 9 10 11 11 12 15 13 16 14
REMARK SMILES IDX 17 15 12 17 13 18 14 19
REMARK H PARENT
REMARK Flexibility Score: 70.00
ROOT
ATOM      1  C   UNL     1      77.936  32.205  52.412  1.00  0.00     0.136 C 
ATOM      2  O   UNL     1      77.406  31.561  53.306  1.00  0.00    -0.299 OA
ENDROOT
BRANCH   1   3
ATOM      3  C   UNL     1      79.442  32.118  52.244  1.00  0.00     0.053 C 
ATOM      4  C   UNL     1      80.147  33.228  53.036  1.00  0.00     0.016 C 
BRANCH   3   5
ATOM      5  C   UNL     1      79.842  32.154  50.756  1.00  0.00     0.015 C 
BRANCH   5   6
ATOM      6  C   UNL     1      81.010  33.126  50.497  1.00  0.00     0.028 C 
BRANCH   6   7
ATOM      7  C   UNL     1      80.680  34.108  49.403  1.00  0.00    -0.028 C 
ATOM      8  C   UNL     1      79.947  35.232  49.574  1.00  0.00    -0.070 CG0
ATOM      9  C   UNL     1      79.727  36.125  48.378  1.00  0.00     0.039 C 
ATOM     10  G   UNL     1      79.343  35.642  50.907  1.00  0.00     0.000 G0
ENDBRANCH   6   7
ENDBRANCH   5   6
ENDBRANCH   3   5
ENDBRANCH   1   3
BRANCH   1  11
ATOM     11  C   UNL     1      77.090  33.125  51.553  1.00  0.00     0.087 C 
BRANCH  11  12
ATOM     12  C   UNL     1      77.093  34.618  51.972  1.00  0.00     0.066 C 
BRANCH  12  13
ATOM     13  C   UNL     1      77.795  35.471  50.921  1.00  0.00     0.140 C 
ATOM     14  O   UNL     1      77.116  35.993  50.048  1.00  0.00    -0.299 OA
BRANCH  13  15
ATOM     15  C   UNL     1      79.297  35.654  50.896  1.00  0.00     0.106 CG0
ATOM     16  G   UNL     1      79.914  35.223  49.575  1.00  0.00     0.000 G0
ENDBRANCH  13  15
ENDBRANCH  12  13
BRANCH  12  17
ATOM     17  C   UNL     1      75.710  35.198  52.422  1.00  0.00    -0.006 C 
ATOM     18  C   UNL     1      74.676  34.094  52.705  1.00  0.00     0.008 C 
ATOM     19  C   UNL     1      75.864  36.056  53.693  1.00  0.00     0.008 C 
ENDBRANCH  12  17
ENDBRANCH  11  12
ENDBRANCH   1  11
TORSDOF 1
ENDMDL
MODEL 5
REMARK VINA RESULT:    -0.113     14.011     15.631
REMARK INTER + INTRA:           0.131
REMARK INTER:                  -0.136
REMARK INTRA:                   0.267
REMARK UNBOUND:                 0.303
REMARK SMILES CC1=CCC[C@@H](C)C(=O)C[C@H](C(C)C)C(=O)C1
REMARK SMILES IDX 8 1 9 2 6 3 7 4 5 5 4 6 3 7 2 8 1 9 10 11 11 12 15 13 16 14
REMARK SMILES IDX 17 15 12 17 13 18 14 19
REMARK H PARENT
REMARK Flexibility Score: 70.00
ROOT
ATOM      1  C   UNL     1      85.119  33.121  63.524  1.00  0.00     0.136 C 
ATOM      2  O   UNL     1      85.191  32.775  62.355  1.00  0.00    -0.299 OA
ENDROOT
BRANCH   1   3
ATOM      3  C   UNL     1      86.058  34.205  64.025  1.00  0.00     0.053 C 
ATOM      4  C   UNL     1      85.876  35.501  63.223  1.00  0.00     0.016 C 
BRANCH   3   5
ATOM      5  C   UNL     1      87.525  33.732  63.996  1.00  0.00     0.015 C 
BRANCH   5   6
ATOM      6  C   UNL     1      87.868  32.848  65.211  1.00  0.00     0.028 C 
BRANCH   6   7
ATOM      7  C   UNL     1      88.125  31.421  64.803  1.00  0.00    -0.028 C 
ATOM      8  C   UNL     1      87.584  30.338  65.407  1.00  0.00    -0.070 CG0
ATOM      9  C   UNL     1      87.924  28.975  64.860  1.00  0.00     0.039 C 
ATOM     10  G   UNL     1      86.647  30.429  66.602  1.00  0.00     0.000 G0
ENDBRANCH   6   7
ENDBRANCH   5   6
ENDBRANCH   3   5
ENDBRANCH   1   3
BRANCH   1  11
ATOM     11  C   UNL     1      84.156  32.411  64.455  1.00  0.00     0.087 C 
BRANCH  11  12
ATOM     12  C   UNL     1      84.626  31.025  64.970  1.00  0.00     0.066 C 
BRANCH  12  13
ATOM     13  C   UNL     1      85.361  31.166  66.298  1.00  0.00     0.140 C 
ATOM     14  O   UNL     1      84.915  31.944  67.130  1.00  0.00    -0.299 OA
BRANCH  13  15
ATOM     15  C   UNL     1      86.640  30.415  66.601  1.00  0.00     0.106 CG0
ATOM     16  G   UNL     1      87.572  30.344  65.401  1.00  0.00     0.000 G0
ENDBRANCH  13  15
ENDBRANCH  12  13
BRANCH  12  17
ATOM     17  C   UNL     1      83.538  29.899  64.977  1.00  0.00    -0.006 C 
ATOM     18  C   UNL     1      82.385  30.194  64.001  1.00  0.00     0.008 C 
ATOM     19  C   UNL     1      84.156  28.539  64.603  1.00  0.00     0.008 C 
ENDBRANCH  12  17
ENDBRANCH  11  12
ENDBRANCH   1  11
TORSDOF 1
ENDMDL
MODEL 6
REMARK VINA RESULT:     0.343     14.468     16.163
REMARK INTER + INTRA:           0.826
REMARK INTER:                  -0.085
REMARK INTRA:                   0.911
REMARK UNBOUND:                 0.303
REMARK SMILES CC1=CCC[C@@H](C)C(=O)C[C@H](C(C)C)C(=O)C1
REMARK SMILES IDX 8 1 9 2 6 3 7 4 5 5 4 6 3 7 2 8 1 9 10 11 11 12 15 13 16 14
REMARK SMILES IDX 17 15 12 17 13 18 14 19
REMARK H PARENT
REMARK Flexibility Score: 70.00
ROOT
ATOM      1  C   UNL     1      87.619  32.928  64.981  1.00  0.00     0.136 C 
ATOM      2  O   UNL     1      87.533  33.088  66.190  1.00  0.00    -0.299 OA
ENDROOT
BRANCH   1   3
ATOM      3  C   UNL     1      87.231  34.075  64.064  1.00  0.00     0.053 C 
ATOM      4  C   UNL     1      87.841  35.396  64.550  1.00  0.00     0.016 C 
BRANCH   3   5
ATOM      5  C   UNL     1      85.699  34.185  63.924  1.00  0.00     0.015 C 
BRANCH   5   6
ATOM      6  C   UNL     1      85.077  32.887  63.373  1.00  0.00     0.028 C 
BRANCH   6   7
ATOM      7  C   UNL     1      83.968  32.385  64.260  1.00  0.00    -0.028 C 
ATOM      8  C   UNL     1      83.967  31.186  64.888  1.00  0.00    -0.070 CG0
ATOM      9  C   UNL     1      82.788  30.843  65.763  1.00  0.00     0.039 C 
ATOM     10  G   UNL     1      85.097  30.176  64.762  1.00  0.00     0.000 G0
ENDBRANCH   6   7
ENDBRANCH   5   6
ENDBRANCH   3   5
ENDBRANCH   1   3
BRANCH   1  11
ATOM     11  C   UNL     1      88.033  31.576  64.435  1.00  0.00     0.087 C 
BRANCH  11  12
ATOM     12  C   UNL     1      87.681  30.359  65.330  1.00  0.00     0.066 C 
BRANCH  12  13
ATOM     13  C   UNL     1      86.217  30.409  65.754  1.00  0.00     0.140 C 
ATOM     14  O   UNL     1      85.960  30.626  66.930  1.00  0.00    -0.299 OA
BRANCH  13  15
ATOM     15  C   UNL     1      85.082  30.158  64.785  1.00  0.00     0.106 CG0
ATOM     16  G   UNL     1      83.986  31.208  64.888  1.00  0.00     0.000 G0
ENDBRANCH  13  15
ENDBRANCH  12  13
BRANCH  12  17
ATOM     17  C   UNL     1      88.121  28.961  64.778  1.00  0.00    -0.006 C 
ATOM     18  C   UNL     1      87.211  27.823  65.275  1.00  0.00     0.008 C 
ATOM     19  C   UNL     1      88.111  28.954  63.238  1.00  0.00     0.008 C 
ENDBRANCH  12  17
ENDBRANCH  11  12
ENDBRANCH   1  11
TORSDOF 1
ENDMDL
MODEL 7
REMARK VINA RESULT:     0.383     14.348     16.448
REMARK INTER + INTRA:           0.888
REMARK INTER:                  -1.909
REMARK INTRA:                   2.796
REMARK UNBOUND:                 0.303
REMARK SMILES CC1=CCC[C@@H](C)C(=O)C[C@H](C(C)C)C(=O)C1
REMARK SMILES IDX 8 1 9 2 6 3 7 4 5 5 4 6 3 7 2 8 1 9 10 11 11 12 15 13 16 14
REMARK SMILES IDX 17 15 12 17 13 18 14 19
REMARK H PARENT
REMARK Flexibility Score: 70.00
ROOT
ATOM      1  C   UNL     1      87.715  29.373  65.104  1.00  0.00     0.136 C 
ATOM      2  O   UNL     1      88.124  29.564  66.240  1.00  0.00    -0.299 OA
ENDROOT
BRANCH   1   3
ATOM      3  C   UNL     1      87.036  28.053  64.784  1.00  0.00     0.053 C 
ATOM      4  C   UNL     1      88.007  27.093  64.084  1.00  0.00     0.016 C 
BRANCH   3   5
ATOM      5  C   UNL     1      85.760  28.269  63.945  1.00  0.00     0.015 C 
BRANCH   5   6
ATOM      6  C   UNL     1      84.482  28.023  64.770  1.00  0.00     0.028 C 
BRANCH   6   7
ATOM      7  C   UNL     1      83.502  29.158  64.622  1.00  0.00    -0.028 C 
ATOM      8  C   UNL     1      83.777  30.453  64.897  1.00  0.00    -0.070 CG0
ATOM      9  C   UNL     1      82.690  31.474  64.672  1.00  0.00     0.039 C 
ATOM     10  G   UNL     1      85.126  30.931  65.412  1.00  0.00     0.000 G0
ENDBRANCH   6   7
ENDBRANCH   5   6
ENDBRANCH   3   5
ENDBRANCH   1   3
BRANCH   1  11
ATOM     11  C   UNL     1      87.965  30.419  64.035  1.00  0.00     0.087 C 
BRANCH  11  12
ATOM     12  C   UNL     1      87.385  31.827  64.333  1.00  0.00     0.066 C 
BRANCH  12  13
ATOM     13  C   UNL     1      85.862  31.782  64.381  1.00  0.00     0.140 C 
ATOM     14  O   UNL     1      85.234  32.464  63.583  1.00  0.00    -0.299 OA
BRANCH  13  15
ATOM     15  C   UNL     1      85.107  30.962  65.406  1.00  0.00     0.106 CG0
ATOM     16  G   UNL     1      83.762  30.478  64.887  1.00  0.00     0.000 G0
ENDBRANCH  13  15
ENDBRANCH  12  13
BRANCH  12  17
ATOM     17  C   UNL     1      88.024  32.581  65.546  1.00  0.00    -0.006 C 
ATOM     18  C   UNL     1      88.072  34.104  65.329  1.00  0.00     0.008 C 
ATOM     19  C   UNL     1      87.238  32.299  66.841  1.00  0.00     0.008 C 
ENDBRANCH  12  17
ENDBRANCH  11  12
ENDBRANCH   1  11
TORSDOF 1
ENDMDL
MODEL 8
REMARK VINA RESULT:     0.787     14.885     16.431
REMARK INTER + INTRA:           1.504
REMARK INTER:                   0.720
REMARK INTRA:                   0.783
REMARK UNBOUND:                 0.303
REMARK SMILES CC1=CCC[C@@H](C)C(=O)C[C@H](C(C)C)C(=O)C1
REMARK SMILES IDX 8 1 9 2 6 3 7 4 5 5 4 6 3 7 2 8 1 9 10 11 11 12 15 13 16 14
REMARK SMILES IDX 17 15 12 17 13 18 14 19
REMARK H PARENT
REMARK Flexibility Score: 70.00
ROOT
ATOM      1  C   UNL     1      86.999  31.173  64.539  1.00  0.00     0.136 C 
ATOM      2  O   UNL     1      87.216  32.335  64.228  1.00  0.00    -0.299 OA
ENDROOT
BRANCH   1   3
ATOM      3  C   UNL     1      87.886  30.519  65.584  1.00  0.00     0.053 C 
ATOM      4  C   UNL     1      88.122  29.039  65.253  1.00  0.00     0.016 C 
BRANCH   3   5
ATOM      5  C   UNL     1      87.299  30.688  67.000  1.00  0.00     0.015 C 
BRANCH   5   6
ATOM      6  C   UNL     1      86.454  31.971  67.123  1.00  0.00     0.028 C 
BRANCH   6   7
ATOM      7  C   UNL     1      85.149  31.709  67.829  1.00  0.00    -0.028 C 
ATOM      8  C   UNL     1      83.938  31.698  67.227  1.00  0.00    -0.070 CG0
ATOM      9  C   UNL     1      82.727  31.394  68.073  1.00  0.00     0.039 C 
ATOM     10  G   UNL     1      83.738  31.969  65.744  1.00  0.00     0.000 G0
ENDBRANCH   6   7
ENDBRANCH   5   6
ENDBRANCH   3   5
ENDBRANCH   1   3
BRANCH   1  11
ATOM     11  C   UNL     1      85.909  30.400  63.822  1.00  0.00     0.087 C 
BRANCH  11  12
ATOM     12  C   UNL     1      84.832  29.762  64.738  1.00  0.00     0.066 C 
BRANCH  12  13
ATOM     13  C   UNL     1      83.648  30.706  64.913  1.00  0.00     0.140 C 
ATOM     14  O   UNL     1      82.604  30.444  64.331  1.00  0.00    -0.299 OA
BRANCH  13  15
ATOM     15  C   UNL     1      83.733  31.971  65.740  1.00  0.00     0.106 CG0
ATOM     16  G   UNL     1      83.907  31.685  67.223  1.00  0.00     0.000 G0
ENDBRANCH  13  15
ENDBRANCH  12  13
BRANCH  12  17
ATOM     17  C   UNL     1      84.413  28.299  64.374  1.00  0.00    -0.006 C 
ATOM     18  C   UNL     1      85.612  27.334  64.354  1.00  0.00     0.008 C 
ATOM     19  C   UNL     1      83.374  27.762  65.377  1.00  0.00     0.008 C 
ENDBRANCH  12  17
ENDBRANCH  11  12
ENDBRANCH   1  11
TORSDOF 1
ENDMDL
MODEL 9
REMARK VINA RESULT:     1.350     14.843     16.858
REMARK INTER + INTRA:           2.363
REMARK INTER:                  -1.558
REMARK INTRA:                   3.922
REMARK UNBOUND:                 0.303
REMARK SMILES CC1=CCC[C@@H](C)C(=O)C[C@H](C(C)C)C(=O)C1
REMARK SMILES IDX 8 1 9 2 6 3 7 4 5 5 4 6 3 7 2 8 1 9 10 11 11 12 15 13 16 14
REMARK SMILES IDX 17 15 12 17 13 18 14 19
REMARK H PARENT
REMARK Flexibility Score: 70.00
ROOT
ATOM      1  C   UNL     1      85.003  29.813  64.776  1.00  0.00     0.136 C 
ATOM      2  O   UNL     1      85.621  28.814  65.112  1.00  0.00    -0.299 OA
ENDROOT
BRANCH   1   3
ATOM      3  C   UNL     1      83.594  30.014  65.305  1.00  0.00     0.053 C 
ATOM      4  C   UNL     1      82.552  29.525  64.289  1.00  0.00     0.016 C 
BRANCH   3   5
ATOM      5  C   UNL     1      83.346  31.485  65.694  1.00  0.00     0.015 C 
BRANCH   5   6
ATOM      6  C   UNL     1      83.221  31.663  67.220  1.00  0.00     0.028 C 
BRANCH   6   7
ATOM      7  C   UNL     1      84.572  31.714  67.884  1.00  0.00    -0.028 C 
ATOM      8  C   UNL     1      85.691  32.217  67.314  1.00  0.00    -0.070 CG0
ATOM      9  C   UNL     1      86.963  32.217  68.124  1.00  0.00     0.039 C 
ATOM     10  G   UNL     1      85.728  32.786  65.904  1.00  0.00     0.000 G0
ENDBRANCH   6   7
ENDBRANCH   5   6
ENDBRANCH   3   5
ENDBRANCH   1   3
BRANCH   1  11
ATOM     11  C   UNL     1      85.627  30.778  63.786  1.00  0.00     0.087 C 
BRANCH  11  12
ATOM     12  C   UNL     1      87.059  31.260  64.137  1.00  0.00     0.066 C 
BRANCH  12  13
ATOM     13  C   UNL     1      87.011  32.401  65.146  1.00  0.00     0.140 C 
ATOM     14  O   UNL     1      88.045  33.009  65.386  1.00  0.00    -0.299 OA
BRANCH  13  15
ATOM     15  C   UNL     1      85.745  32.775  65.889  1.00  0.00     0.106 CG0
ATOM     16  G   UNL     1      85.713  32.213  67.301  1.00  0.00     0.000 G0
ENDBRANCH  13  15
ENDBRANCH  12  13
BRANCH  12  17
ATOM     17  C   UNL     1      88.078  30.134  64.519  1.00  0.00    -0.006 C 
ATOM     18  C   UNL     1      87.896  29.647  65.967  1.00  0.00     0.008 C 
ATOM     19  C   UNL     1      87.933  28.923  63.577  1.00  0.00     0.008 C 
ENDBRANCH  12  17
ENDBRANCH  11  12
ENDBRANCH   1  11
TORSDOF 1
ENDMDL
