MODEL 1
REMARK VINA RESULT:    -5.499      0.000      0.000
REMARK INTER + INTRA:          -6.575
REMARK INTER:                  -6.302
REMARK INTRA:                  -0.272
REMARK UNBOUND:                -0.272
REMARK SMILES O=C1C[C@H](c2ccc(O)cc2)Oc2cc(O)cc(O)c21
REMARK SMILES IDX 3 1 4 2 12 3 13 4 14 5 15 6 17 7 18 8 20 9 2 10 1 11 5 12
REMARK SMILES IDX 6 13 11 14 7 15 10 16 8 17 9 18 19 20 16 22
REMARK H PARENT 9 19 19 21 16 23
REMARK Flexibility Score: inf
ROOT
ATOM      1  C   UNL     1      50.104 -21.957  11.102  1.00  0.00     0.131 C 
ATOM      2  C   UNL     1      49.303 -22.388  12.346  1.00  0.00     0.211 C 
ATOM      3  O   UNL     1      48.921 -21.233  13.098  1.00  0.00    -0.484 OA
ATOM      4  C   UNL     1      49.813 -20.182  13.351  1.00  0.00     0.138 A 
ATOM      5  C   UNL     1      49.513 -19.252  14.350  1.00  0.00     0.093 A 
ATOM      6  C   UNL     1      50.407 -18.212  14.633  1.00  0.00     0.123 A 
ATOM      7  C   UNL     1      51.597 -18.100  13.907  1.00  0.00     0.093 A 
ATOM      8  C   UNL     1      51.899 -19.016  12.888  1.00  0.00     0.133 A 
ATOM      9  C   UNL     1      50.998 -20.063  12.600  1.00  0.00     0.102 A 
ATOM     10  C   UNL     1      51.222 -21.039  11.506  1.00  0.00     0.174 C 
ATOM     11  O   UNL     1      52.313 -21.073  10.875  1.00  0.00    -0.294 OA
ENDROOT
BRANCH   2  12
ATOM     12  C   UNL     1      48.071 -23.230  12.063  1.00  0.00    -0.007 A 
ATOM     13  C   UNL     1      47.084 -22.695  11.213  1.00  0.00     0.011 A 
ATOM     14  C   UNL     1      47.854 -24.505  12.627  1.00  0.00     0.011 A 
ATOM     15  C   UNL     1      45.924 -23.417  10.921  1.00  0.00     0.046 A 
ATOM     16  C   UNL     1      46.691 -25.224  12.332  1.00  0.00     0.046 A 
ATOM     17  C   UNL     1      45.726 -24.685  11.478  1.00  0.00     0.115 A 
BRANCH  17  18
ATOM     18  O   UNL     1      44.575 -25.415  11.192  1.00  0.00    -0.508 OA
ATOM     19  H   UNL     1      44.069 -25.912  11.916  1.00  0.00     0.293 HD
ENDBRANCH  17  18
ENDBRANCH   2  12
BRANCH   8  20
ATOM     20  O   UNL     1      53.083 -18.876  12.164  1.00  0.00    -0.507 OA
ATOM     21  H   UNL     1      53.929 -19.370  12.428  1.00  0.00     0.293 HD
ENDBRANCH   8  20
BRANCH   6  22
ATOM     22  O   UNL     1      50.124 -17.287  15.636  1.00  0.00    -0.508 OA
ATOM     23  H   UNL     1      50.593 -17.320  16.534  1.00  0.00     0.293 HD
ENDBRANCH   6  22
TORSDOF 4
ENDMDL
MODEL 2
REMARK VINA RESULT:    -5.479      2.158      6.870
REMARK INTER + INTRA:          -6.552
REMARK INTER:                  -6.279
REMARK INTRA:                  -0.272
REMARK UNBOUND:                -0.272
REMARK SMILES O=C1C[C@H](c2ccc(O)cc2)Oc2cc(O)cc(O)c21
REMARK SMILES IDX 3 1 4 2 12 3 13 4 14 5 15 6 17 7 18 8 20 9 2 10 1 11 5 12
REMARK SMILES IDX 6 13 11 14 7 15 10 16 8 17 9 18 19 20 16 22
REMARK H PARENT 9 19 19 21 16 23
REMARK Flexibility Score: inf
ROOT
ATOM      1  C   UNL     1      48.715 -21.499  12.038  1.00  0.00     0.131 C 
ATOM      2  C   UNL     1      48.876 -21.188  13.539  1.00  0.00     0.211 C 
ATOM      3  O   UNL     1      49.441 -22.319  14.209  1.00  0.00    -0.484 OA
ATOM      4  C   UNL     1      49.005 -23.626  13.958  1.00  0.00     0.138 A 
ATOM      5  C   UNL     1      49.338 -24.645  14.855  1.00  0.00     0.093 A 
ATOM      6  C   UNL     1      48.886 -25.952  14.633  1.00  0.00     0.123 A 
ATOM      7  C   UNL     1      48.110 -26.238  13.506  1.00  0.00     0.093 A 
ATOM      8  C   UNL     1      47.786 -25.228  12.588  1.00  0.00     0.133 A 
ATOM      9  C   UNL     1      48.242 -23.910  12.809  1.00  0.00     0.102 A 
ATOM     10  C   UNL     1      47.985 -22.800  11.860  1.00  0.00     0.174 C 
ATOM     11  O   UNL     1      47.208 -22.947  10.878  1.00  0.00    -0.294 OA
ENDROOT
BRANCH   2  12
ATOM     12  C   UNL     1      49.700 -19.953  13.859  1.00  0.00    -0.007 A 
ATOM     13  C   UNL     1      51.021 -19.894  13.375  1.00  0.00     0.011 A 
ATOM     14  C   UNL     1      49.219 -18.878  14.637  1.00  0.00     0.011 A 
ATOM     15  C   UNL     1      51.831 -18.788  13.644  1.00  0.00     0.046 A 
ATOM     16  C   UNL     1      50.034 -17.773  14.903  1.00  0.00     0.046 A 
ATOM     17  C   UNL     1      51.339 -17.724  14.407  1.00  0.00     0.115 A 
BRANCH  17  18
ATOM     18  O   UNL     1      52.138 -16.615  14.679  1.00  0.00    -0.508 OA
ATOM     19  H   UNL     1      52.577 -16.489  15.584  1.00  0.00     0.293 HD
ENDBRANCH  17  18
ENDBRANCH   2  12
BRANCH   8  20
ATOM     20  O   UNL     1      47.024 -25.537  11.462  1.00  0.00    -0.507 OA
ATOM     21  H   UNL     1      47.089 -24.992  10.609  1.00  0.00     0.293 HD
ENDBRANCH   8  20
BRANCH   6  22
ATOM     22  O   UNL     1      49.201 -26.973  15.528  1.00  0.00    -0.508 OA
ATOM     23  H   UNL     1      49.577 -27.858  15.209  1.00  0.00     0.293 HD
ENDBRANCH   6  22
TORSDOF 4
ENDMDL
MODEL 3
REMARK VINA RESULT:    -5.315      2.785      6.705
REMARK INTER + INTRA:          -6.364
REMARK INTER:                  -6.116
REMARK INTRA:                  -0.248
REMARK UNBOUND:                -0.272
REMARK SMILES O=C1C[C@H](c2ccc(O)cc2)Oc2cc(O)cc(O)c21
REMARK SMILES IDX 3 1 4 2 12 3 13 4 14 5 15 6 17 7 18 8 20 9 2 10 1 11 5 12
REMARK SMILES IDX 6 13 11 14 7 15 10 16 8 17 9 18 19 20 16 22
REMARK H PARENT 9 19 19 21 16 23
REMARK Flexibility Score: inf
ROOT
ATOM      1  C   UNL     1      50.239 -21.986  12.191  1.00  0.00     0.131 C 
ATOM      2  C   UNL     1      49.768 -21.470  13.565  1.00  0.00     0.211 C 
ATOM      3  O   UNL     1      50.200 -22.366  14.593  1.00  0.00    -0.484 OA
ATOM      4  C   UNL     1      50.096 -23.757  14.458  1.00  0.00     0.138 A 
ATOM      5  C   UNL     1      50.213 -24.568  15.591  1.00  0.00     0.093 A 
ATOM      6  C   UNL     1      50.084 -25.957  15.477  1.00  0.00     0.123 A 
ATOM      7  C   UNL     1      49.847 -26.534  14.226  1.00  0.00     0.093 A 
ATOM      8  C   UNL     1      49.748 -25.733  13.078  1.00  0.00     0.133 A 
ATOM      9  C   UNL     1      49.880 -24.332  13.191  1.00  0.00     0.102 A 
ATOM     10  C   UNL     1      49.838 -23.423  12.020  1.00  0.00     0.174 C 
ATOM     11  O   UNL     1      49.525 -23.848  10.875  1.00  0.00    -0.294 OA
ENDROOT
BRANCH   2  12
ATOM     12  C   UNL     1      50.210 -20.059  13.914  1.00  0.00    -0.007 A 
ATOM     13  C   UNL     1      49.324 -19.249  14.648  1.00  0.00     0.011 A 
ATOM     14  C   UNL     1      51.451 -19.513  13.518  1.00  0.00     0.011 A 
ATOM     15  C   UNL     1      49.670 -17.940  14.992  1.00  0.00     0.046 A 
ATOM     16  C   UNL     1      51.793 -18.202  13.864  1.00  0.00     0.046 A 
ATOM     17  C   UNL     1      50.907 -17.414  14.602  1.00  0.00     0.115 A 
BRANCH  17  18
ATOM     18  O   UNL     1      51.264 -16.111  14.941  1.00  0.00    -0.508 OA
ATOM     19  H   UNL     1      51.793 -15.909  15.782  1.00  0.00     0.293 HD
ENDBRANCH  17  18
ENDBRANCH   2  12
BRANCH   8  20
ATOM     20  O   UNL     1      49.528 -26.329  11.837  1.00  0.00    -0.507 OA
ATOM     21  H   UNL     1      50.292 -26.693  11.279  1.00  0.00     0.293 HD
ENDBRANCH   8  20
BRANCH   6  22
ATOM     22  O   UNL     1      50.186 -26.774  16.602  1.00  0.00    -0.508 OA
ATOM     23  H   UNL     1      50.733 -27.626  16.589  1.00  0.00     0.293 HD
ENDBRANCH   6  22
TORSDOF 4
ENDMDL
MODEL 4
REMARK VINA RESULT:    -5.298      2.322      6.844
REMARK INTER + INTRA:          -6.344
REMARK INTER:                  -6.057
REMARK INTRA:                  -0.287
REMARK UNBOUND:                -0.272
REMARK SMILES O=C1C[C@H](c2ccc(O)cc2)Oc2cc(O)cc(O)c21
REMARK SMILES IDX 3 1 4 2 12 3 13 4 14 5 15 6 17 7 18 8 20 9 2 10 1 11 5 12
REMARK SMILES IDX 6 13 11 14 7 15 10 16 8 17 9 18 19 20 16 22
REMARK H PARENT 9 19 19 21 16 23
REMARK Flexibility Score: inf
ROOT
ATOM      1  C   UNL     1      48.677 -21.440  12.495  1.00  0.00     0.131 C 
ATOM      2  C   UNL     1      49.884 -21.352  13.450  1.00  0.00     0.211 C 
ATOM      3  O   UNL     1      51.008 -22.022  12.871  1.00  0.00    -0.484 OA
ATOM      4  C   UNL     1      50.889 -23.268  12.243  1.00  0.00     0.138 A 
ATOM      5  C   UNL     1      52.037 -24.026  11.995  1.00  0.00     0.093 A 
ATOM      6  C   UNL     1      51.932 -25.286  11.394  1.00  0.00     0.123 A 
ATOM      7  C   UNL     1      50.675 -25.782  11.033  1.00  0.00     0.093 A 
ATOM      8  C   UNL     1      49.517 -25.023  11.258  1.00  0.00     0.133 A 
ATOM      9  C   UNL     1      49.622 -23.751  11.862  1.00  0.00     0.102 A 
ATOM     10  C   UNL     1      48.452 -22.868  12.086  1.00  0.00     0.174 C 
ATOM     11  O   UNL     1      47.276 -23.279  11.888  1.00  0.00    -0.294 OA
ENDROOT
BRANCH   2  12
ATOM     12  C   UNL     1      50.292 -19.945  13.849  1.00  0.00    -0.007 A 
ATOM     13  C   UNL     1      49.386 -19.184  14.613  1.00  0.00     0.011 A 
ATOM     14  C   UNL     1      51.517 -19.354  13.473  1.00  0.00     0.011 A 
ATOM     15  C   UNL     1      49.700 -17.880  15.005  1.00  0.00     0.046 A 
ATOM     16  C   UNL     1      51.827 -18.048  13.867  1.00  0.00     0.046 A 
ATOM     17  C   UNL     1      50.923 -17.310  14.634  1.00  0.00     0.115 A 
BRANCH  17  18
ATOM     18  O   UNL     1      51.247 -16.011  15.021  1.00  0.00    -0.508 OA
ATOM     19  H   UNL     1      52.115 -15.803  15.501  1.00  0.00     0.293 HD
ENDBRANCH  17  18
ENDBRANCH   2  12
BRANCH   8  20
ATOM     20  O   UNL     1      48.275 -25.528  10.875  1.00  0.00    -0.507 OA
ATOM     21  H   UNL     1      47.411 -25.173  11.270  1.00  0.00     0.293 HD
ENDBRANCH   8  20
BRANCH   6  22
ATOM     22  O   UNL     1      53.069 -26.055  11.154  1.00  0.00    -0.508 OA
ATOM     23  H   UNL     1      53.307 -26.370  10.222  1.00  0.00     0.293 HD
ENDBRANCH   6  22
TORSDOF 4
ENDMDL
MODEL 5
REMARK VINA RESULT:    -5.103      1.798      6.719
REMARK INTER + INTRA:          -6.122
REMARK INTER:                  -5.819
REMARK INTRA:                  -0.303
REMARK UNBOUND:                -0.272
REMARK SMILES O=C1C[C@H](c2ccc(O)cc2)Oc2cc(O)cc(O)c21
REMARK SMILES IDX 3 1 4 2 12 3 13 4 14 5 15 6 17 7 18 8 20 9 2 10 1 11 5 12
REMARK SMILES IDX 6 13 11 14 7 15 10 16 8 17 9 18 19 20 16 22
REMARK H PARENT 9 19 19 21 16 23
REMARK Flexibility Score: inf
ROOT
ATOM      1  C   UNL     1      50.503 -23.085  12.490  1.00  0.00     0.131 C 
ATOM      2  C   UNL     1      50.195 -21.658  11.995  1.00  0.00     0.211 C 
ATOM      3  O   UNL     1      48.791 -21.403  12.104  1.00  0.00    -0.484 OA
ATOM      4  C   UNL     1      47.831 -22.344  11.712  1.00  0.00     0.138 A 
ATOM      5  C   UNL     1      46.507 -21.938  11.522  1.00  0.00     0.093 A 
ATOM      6  C   UNL     1      45.541 -22.861  11.103  1.00  0.00     0.123 A 
ATOM      7  C   UNL     1      45.902 -24.194  10.885  1.00  0.00     0.093 A 
ATOM      8  C   UNL     1      47.223 -24.619  11.091  1.00  0.00     0.133 A 
ATOM      9  C   UNL     1      48.198 -23.690  11.515  1.00  0.00     0.102 A 
ATOM     10  C   UNL     1      49.601 -24.071  11.803  1.00  0.00     0.174 C 
ATOM     11  O   UNL     1      50.033 -25.224  11.532  1.00  0.00    -0.294 OA
ENDROOT
BRANCH   2  12
ATOM     12  C   UNL     1      50.961 -20.550  12.696  1.00  0.00    -0.007 A 
ATOM     13  C   UNL     1      50.225 -19.588  13.413  1.00  0.00     0.011 A 
ATOM     14  C   UNL     1      52.366 -20.422  12.643  1.00  0.00     0.011 A 
ATOM     15  C   UNL     1      50.872 -18.539  14.072  1.00  0.00     0.046 A 
ATOM     16  C   UNL     1      53.008 -19.371  13.304  1.00  0.00     0.046 A 
ATOM     17  C   UNL     1      52.266 -18.429  14.021  1.00  0.00     0.115 A 
BRANCH  17  18
ATOM     18  O   UNL     1      52.922 -17.390  14.676  1.00  0.00    -0.508 OA
ATOM     19  H   UNL     1      53.828 -17.057  14.366  1.00  0.00     0.293 HD
ENDBRANCH  17  18
ENDBRANCH   2  12
BRANCH   8  20
ATOM     20  O   UNL     1      47.559 -25.956  10.884  1.00  0.00    -0.507 OA
ATOM     21  H   UNL     1      48.264 -26.230  10.209  1.00  0.00     0.293 HD
ENDBRANCH   8  20
BRANCH   6  22
ATOM     22  O   UNL     1      44.221 -22.464  10.899  1.00  0.00    -0.508 OA
ATOM     23  H   UNL     1      43.479 -22.754  11.524  1.00  0.00     0.293 HD
ENDBRANCH   6  22
TORSDOF 4
ENDMDL
MODEL 6
REMARK VINA RESULT:    -4.900      2.126      6.892
REMARK INTER + INTRA:          -5.888
REMARK INTER:                  -5.600
REMARK INTRA:                  -0.288
REMARK UNBOUND:                -0.272
REMARK SMILES O=C1C[C@H](c2ccc(O)cc2)Oc2cc(O)cc(O)c21
REMARK SMILES IDX 3 1 4 2 12 3 13 4 14 5 15 6 17 7 18 8 20 9 2 10 1 11 5 12
REMARK SMILES IDX 6 13 11 14 7 15 10 16 8 17 9 18 19 20 16 22
REMARK H PARENT 9 19 19 21 16 23
REMARK Flexibility Score: inf
ROOT
ATOM      1  C   UNL     1      51.294 -23.290  13.366  1.00  0.00     0.131 C 
ATOM      2  C   UNL     1      50.775 -22.083  12.561  1.00  0.00     0.211 C 
ATOM      3  O   UNL     1      49.352 -22.164  12.432  1.00  0.00    -0.484 OA
ATOM      4  C   UNL     1      48.702 -23.363  12.113  1.00  0.00     0.138 A 
ATOM      5  C   UNL     1      47.375 -23.331  11.675  1.00  0.00     0.093 A 
ATOM      6  C   UNL     1      46.720 -24.518  11.326  1.00  0.00     0.123 A 
ATOM      7  C   UNL     1      47.393 -25.739  11.426  1.00  0.00     0.093 A 
ATOM      8  C   UNL     1      48.719 -25.788  11.884  1.00  0.00     0.133 A 
ATOM      9  C   UNL     1      49.380 -24.592  12.238  1.00  0.00     0.102 A 
ATOM     10  C   UNL     1      50.760 -24.565  12.778  1.00  0.00     0.174 C 
ATOM     11  O   UNL     1      51.472 -25.606  12.801  1.00  0.00    -0.294 OA
ENDROOT
BRANCH   2  12
ATOM     12  C   UNL     1      51.149 -20.722  13.121  1.00  0.00    -0.007 A 
ATOM     13  C   UNL     1      52.514 -20.384  13.186  1.00  0.00     0.011 A 
ATOM     14  C   UNL     1      50.202 -19.792  13.602  1.00  0.00     0.011 A 
ATOM     15  C   UNL     1      52.922 -19.150  13.698  1.00  0.00     0.046 A 
ATOM     16  C   UNL     1      50.615 -18.558  14.115  1.00  0.00     0.046 A 
ATOM     17  C   UNL     1      51.972 -18.233  14.162  1.00  0.00     0.115 A 
BRANCH  17  18
ATOM     18  O   UNL     1      52.367 -16.999  14.674  1.00  0.00    -0.508 OA
ATOM     19  H   UNL     1      52.052 -16.676  15.581  1.00  0.00     0.293 HD
ENDBRANCH  17  18
ENDBRANCH   2  12
BRANCH   8  20
ATOM     20  O   UNL     1      49.367 -27.017  11.993  1.00  0.00    -0.507 OA
ATOM     21  H   UNL     1      49.639 -27.398  12.893  1.00  0.00     0.293 HD
ENDBRANCH   8  20
BRANCH   6  22
ATOM     22  O   UNL     1      45.402 -24.495  10.875  1.00  0.00    -0.508 OA
ATOM     23  H   UNL     1      45.156 -24.093   9.978  1.00  0.00     0.293 HD
ENDBRANCH   6  22
TORSDOF 4
ENDMDL
MODEL 7
REMARK VINA RESULT:    -4.358     13.396     17.002
REMARK INTER + INTRA:          -5.267
REMARK INTER:                  -4.997
REMARK INTRA:                  -0.270
REMARK UNBOUND:                -0.272
REMARK SMILES O=C1C[C@H](c2ccc(O)cc2)Oc2cc(O)cc(O)c21
REMARK SMILES IDX 3 1 4 2 12 3 13 4 14 5 15 6 17 7 18 8 20 9 2 10 1 11 5 12
REMARK SMILES IDX 6 13 11 14 7 15 10 16 8 17 9 18 19 20 16 22
REMARK H PARENT 9 19 19 21 16 23
REMARK Flexibility Score: inf
ROOT
ATOM      1  C   UNL     1      33.228 -24.779  17.489  1.00  0.00     0.131 C 
ATOM      2  C   UNL     1      33.892 -25.440  18.714  1.00  0.00     0.211 C 
ATOM      3  O   UNL     1      35.306 -25.516  18.514  1.00  0.00    -0.484 OA
ATOM      4  C   UNL     1      35.865 -25.923  17.295  1.00  0.00     0.138 A 
ATOM      5  C   UNL     1      37.209 -26.299  17.246  1.00  0.00     0.093 A 
ATOM      6  C   UNL     1      37.775 -26.735  16.041  1.00  0.00     0.123 A 
ATOM      7  C   UNL     1      36.993 -26.783  14.883  1.00  0.00     0.093 A 
ATOM      8  C   UNL     1      35.647 -26.388  14.914  1.00  0.00     0.133 A 
ATOM      9  C   UNL     1      35.076 -25.947  16.128  1.00  0.00     0.102 A 
ATOM     10  C   UNL     1      33.678 -25.466  16.231  1.00  0.00     0.174 C 
ATOM     11  O   UNL     1      32.877 -25.575  15.263  1.00  0.00    -0.294 OA
ENDROOT
BRANCH   2  12
ATOM     12  C   UNL     1      33.611 -24.765  20.045  1.00  0.00    -0.007 A 
ATOM     13  C   UNL     1      33.881 -23.389  20.160  1.00  0.00     0.011 A 
ATOM     14  C   UNL     1      33.118 -25.452  21.175  1.00  0.00     0.011 A 
ATOM     15  C   UNL     1      33.651 -22.713  21.362  1.00  0.00     0.046 A 
ATOM     16  C   UNL     1      32.889 -24.772  22.376  1.00  0.00     0.046 A 
ATOM     17  C   UNL     1      33.152 -23.403  22.472  1.00  0.00     0.115 A 
BRANCH  17  18
ATOM     18  O   UNL     1      32.917 -22.740  23.674  1.00  0.00    -0.508 OA
ATOM     19  H   UNL     1      32.669 -23.245  24.517  1.00  0.00     0.293 HD
ENDBRANCH  17  18
ENDBRANCH   2  12
BRANCH   8  20
ATOM     20  O   UNL     1      34.889 -26.428  13.745  1.00  0.00    -0.507 OA
ATOM     21  H   UNL     1      34.931 -25.683  13.058  1.00  0.00     0.293 HD
ENDBRANCH   8  20
BRANCH   6  22
ATOM     22  O   UNL     1      39.112 -27.125  15.985  1.00  0.00    -0.508 OA
ATOM     23  H   UNL     1      39.528 -27.694  16.712  1.00  0.00     0.293 HD
ENDBRANCH   6  22
TORSDOF 4
ENDMDL
MODEL 8
REMARK VINA RESULT:    -4.310      1.338      2.999
REMARK INTER + INTRA:          -5.212
REMARK INTER:                  -4.935
REMARK INTRA:                  -0.277
REMARK UNBOUND:                -0.272
REMARK SMILES O=C1C[C@H](c2ccc(O)cc2)Oc2cc(O)cc(O)c21
REMARK SMILES IDX 3 1 4 2 12 3 13 4 14 5 15 6 17 7 18 8 20 9 2 10 1 11 5 12
REMARK SMILES IDX 6 13 11 14 7 15 10 16 8 17 9 18 19 20 16 22
REMARK H PARENT 9 19 19 21 16 23
REMARK Flexibility Score: inf
ROOT
ATOM      1  C   UNL     1      48.241 -21.701  14.195  1.00  0.00     0.131 C 
ATOM      2  C   UNL     1      48.210 -21.884  12.664  1.00  0.00     0.211 C 
ATOM      3  O   UNL     1      49.499 -21.589  12.117  1.00  0.00    -0.484 OA
ATOM      4  C   UNL     1      50.244 -20.476  12.527  1.00  0.00     0.138 A 
ATOM      5  C   UNL     1      51.320 -20.044  11.747  1.00  0.00     0.093 A 
ATOM      6  C   UNL     1      52.058 -18.917  12.129  1.00  0.00     0.123 A 
ATOM      7  C   UNL     1      51.722 -18.229  13.298  1.00  0.00     0.093 A 
ATOM      8  C   UNL     1      50.656 -18.664  14.101  1.00  0.00     0.133 A 
ATOM      9  C   UNL     1      49.913 -19.802  13.718  1.00  0.00     0.102 A 
ATOM     10  C   UNL     1      48.807 -20.353  14.538  1.00  0.00     0.174 C 
ATOM     11  O   UNL     1      48.372 -19.735  15.548  1.00  0.00    -0.294 OA
ENDROOT
BRANCH   2  12
ATOM     12  C   UNL     1      47.765 -23.254  12.185  1.00  0.00    -0.007 A 
ATOM     13  C   UNL     1      48.569 -24.363  12.508  1.00  0.00     0.011 A 
ATOM     14  C   UNL     1      46.603 -23.467  11.412  1.00  0.00     0.011 A 
ATOM     15  C   UNL     1      48.217 -25.649  12.088  1.00  0.00     0.046 A 
ATOM     16  C   UNL     1      46.255 -24.756  10.994  1.00  0.00     0.046 A 
ATOM     17  C   UNL     1      47.057 -25.848  11.332  1.00  0.00     0.115 A 
BRANCH  17  18
ATOM     18  O   UNL     1      46.694 -27.125  10.910  1.00  0.00    -0.508 OA
ATOM     19  H   UNL     1      45.775 -27.316  10.528  1.00  0.00     0.293 HD
ENDBRANCH  17  18
ENDBRANCH   2  12
BRANCH   8  20
ATOM     20  O   UNL     1      50.347 -17.973  15.272  1.00  0.00    -0.507 OA
ATOM     21  H   UNL     1      49.585 -17.305  15.311  1.00  0.00     0.293 HD
ENDBRANCH   8  20
BRANCH   6  22
ATOM     22  O   UNL     1      53.125 -18.470  11.351  1.00  0.00    -0.508 OA
ATOM     23  H   UNL     1      53.019 -17.703  10.699  1.00  0.00     0.293 HD
ENDBRANCH   6  22
TORSDOF 4
ENDMDL
MODEL 9
REMARK VINA RESULT:    -3.967     11.142     14.537
REMARK INTER + INTRA:          -4.819
REMARK INTER:                  -4.548
REMARK INTRA:                  -0.271
REMARK UNBOUND:                -0.272
REMARK SMILES O=C1C[C@H](c2ccc(O)cc2)Oc2cc(O)cc(O)c21
REMARK SMILES IDX 3 1 4 2 12 3 13 4 14 5 15 6 17 7 18 8 20 9 2 10 1 11 5 12
REMARK SMILES IDX 6 13 11 14 7 15 10 16 8 17 9 18 19 20 16 22
REMARK H PARENT 9 19 19 21 16 23
REMARK Flexibility Score: inf
ROOT
ATOM      1  C   UNL     1      38.634 -27.087  16.118  1.00  0.00     0.131 C 
ATOM      2  C   UNL     1      38.819 -25.979  17.174  1.00  0.00     0.211 C 
ATOM      3  O   UNL     1      37.599 -25.793  17.897  1.00  0.00    -0.484 OA
ATOM      4  C   UNL     1      36.354 -25.745  17.256  1.00  0.00     0.138 A 
ATOM      5  C   UNL     1      35.248 -25.236  17.941  1.00  0.00     0.093 A 
ATOM      6  C   UNL     1      34.003 -25.155  17.305  1.00  0.00     0.123 A 
ATOM      7  C   UNL     1      33.867 -25.594  15.985  1.00  0.00     0.093 A 
ATOM      8  C   UNL     1      34.966 -26.125  15.292  1.00  0.00     0.133 A 
ATOM      9  C   UNL     1      36.221 -26.209  15.933  1.00  0.00     0.102 A 
ATOM     10  C   UNL     1      37.415 -26.804  15.288  1.00  0.00     0.174 C 
ATOM     11  O   UNL     1      37.406 -27.125  14.068  1.00  0.00    -0.294 OA
ENDROOT
BRANCH   2  12
ATOM     12  C   UNL     1      39.954 -26.205  18.158  1.00  0.00    -0.007 A 
ATOM     13  C   UNL     1      41.217 -25.667  17.846  1.00  0.00     0.011 A 
ATOM     14  C   UNL     1      39.813 -26.946  19.351  1.00  0.00     0.011 A 
ATOM     15  C   UNL     1      42.303 -25.848  18.708  1.00  0.00     0.046 A 
ATOM     16  C   UNL     1      40.903 -27.125  20.209  1.00  0.00     0.046 A 
ATOM     17  C   UNL     1      42.147 -26.576  19.893  1.00  0.00     0.115 A 
BRANCH  17  18
ATOM     18  O   UNL     1      43.222 -26.761  20.759  1.00  0.00    -0.508 OA
ATOM     19  H   UNL     1      43.741 -27.631  20.781  1.00  0.00     0.293 HD
ENDBRANCH  17  18
ENDBRANCH   2  12
BRANCH   8  20
ATOM     20  O   UNL     1      34.805 -26.572  13.982  1.00  0.00    -0.507 OA
ATOM     21  H   UNL     1      34.680 -25.926  13.210  1.00  0.00     0.293 HD
ENDBRANCH   8  20
BRANCH   6  22
ATOM     22  O   UNL     1      32.896 -24.638  17.975  1.00  0.00    -0.508 OA
ATOM     23  H   UNL     1      32.508 -23.734  17.736  1.00  0.00     0.293 HD
ENDBRANCH   6  22
TORSDOF 4
ENDMDL
