MODEL 1
REMARK VINA RESULT:    -4.159      0.000      0.000
REMARK INTER + INTRA:          -9.027
REMARK INTER:                  -7.805
REMARK INTRA:                  -1.222
REMARK UNBOUND:                -1.222
REMARK SMILES CCCCCCCCC=CCCCCCCCC(=O)[O-]
REMARK SMILES IDX 10 1 9 2 11 3 12 4 13 5 14 6 15 7 16 8 17 9 18 10 19 11
REMARK SMILES IDX 20 12 8 13 7 14 6 15 5 16 4 17 3 18 2 19 1 20
REMARK H PARENT
REMARK Flexibility Score: inf
ROOT
ATOM      1  C   UNL     1       3.628   1.305 -24.708  1.00  0.00    -0.031 C 
ATOM      2  C   UNL     1       3.220   2.030 -23.650  1.00  0.00    -0.031 C 
ENDROOT
BRANCH   1   3
ATOM      3  C   UNL     1       4.905   1.537 -25.476  1.00  0.00     0.027 C 
BRANCH   3   4
ATOM      4  C   UNL     1       4.806   1.046 -26.928  1.00  0.00     0.004 C 
BRANCH   4   5
ATOM      5  C   UNL     1       5.646  -0.216 -27.169  1.00  0.00     0.000 C 
BRANCH   5   6
ATOM      6  C   UNL     1       6.649  -0.436 -26.030  1.00  0.00     0.000 C 
BRANCH   6   7
ATOM      7  C   UNL     1       7.669  -1.523 -26.398  1.00  0.00     0.000 C 
BRANCH   7   8
ATOM      8  C   UNL     1       7.330  -2.894 -25.783  1.00  0.00     0.006 C 
BRANCH   8   9
ATOM      9  C   UNL     1       8.127  -3.232 -24.514  1.00  0.00     0.053 C 
BRANCH   9  10
ATOM     10  C   UNL     1       7.249  -3.317 -23.304  1.00  0.00     0.041 C 
ATOM     11  O   UNL     1       7.756  -3.300 -22.151  1.00  0.00    -0.550 OA
ATOM     12  O   UNL     1       5.873  -3.438 -23.450  1.00  0.00    -0.550 OA
ENDBRANCH   9  10
ENDBRANCH   8   9
ENDBRANCH   7   8
ENDBRANCH   6   7
ENDBRANCH   5   6
ENDBRANCH   4   5
ENDBRANCH   3   4
ENDBRANCH   1   3
BRANCH   2  13
ATOM     13  C   UNL     1       3.999   3.158 -23.016  1.00  0.00     0.027 C 
BRANCH  13  14
ATOM     14  C   UNL     1       3.785   3.197 -21.499  1.00  0.00     0.004 C 
BRANCH  14  15
ATOM     15  C   UNL     1       2.952   2.001 -21.004  1.00  0.00     0.000 C 
BRANCH  15  16
ATOM     16  C   UNL     1       3.612   1.267 -19.826  1.00  0.00     0.000 C 
BRANCH  16  17
ATOM     17  C   UNL     1       5.094   1.642 -19.654  1.00  0.00    -0.000 C 
BRANCH  17  18
ATOM     18  C   UNL     1       5.419   2.131 -18.233  1.00  0.00    -0.000 C 
BRANCH  18  19
ATOM     19  C   UNL     1       6.881   1.881 -17.839  1.00  0.00    -0.003 C 
ATOM     20  C   UNL     1       7.614   1.093 -18.922  1.00  0.00     0.004 C 
ENDBRANCH  18  19
ENDBRANCH  17  18
ENDBRANCH  16  17
ENDBRANCH  15  16
ENDBRANCH  14  15
ENDBRANCH  13  14
ENDBRANCH   2  13
TORSDOF 15
ENDMDL
MODEL 2
REMARK VINA RESULT:    -3.839      1.638      2.131
REMARK INTER + INTRA:          -8.426
REMARK INTER:                  -6.851
REMARK INTRA:                  -1.575
REMARK UNBOUND:                -1.222
REMARK SMILES CCCCCCCCC=CCCCCCCCC(=O)[O-]
REMARK SMILES IDX 10 1 9 2 11 3 12 4 13 5 14 6 15 7 16 8 17 9 18 10 19 11
REMARK SMILES IDX 20 12 8 13 7 14 6 15 5 16 4 17 3 18 2 19 1 20
REMARK H PARENT
REMARK Flexibility Score: inf
ROOT
ATOM      1  C   UNL     1       4.050   1.406 -24.653  1.00  0.00    -0.031 C 
ATOM      2  C   UNL     1       3.557   1.998 -23.550  1.00  0.00    -0.031 C 
ENDROOT
BRANCH   1   3
ATOM      3  C   UNL     1       5.237   1.898 -25.443  1.00  0.00     0.027 C 
BRANCH   3   4
ATOM      4  C   UNL     1       5.034   1.735 -26.957  1.00  0.00     0.004 C 
BRANCH   4   5
ATOM      5  C   UNL     1       4.280   0.443 -27.301  1.00  0.00     0.000 C 
BRANCH   5   6
ATOM      6  C   UNL     1       5.256  -0.705 -27.586  1.00  0.00     0.000 C 
BRANCH   6   7
ATOM      7  C   UNL     1       5.204  -1.760 -26.471  1.00  0.00     0.000 C 
BRANCH   7   8
ATOM      8  C   UNL     1       6.381  -1.643 -25.484  1.00  0.00     0.006 C 
BRANCH   8   9
ATOM      9  C   UNL     1       7.735  -1.345 -26.146  1.00  0.00     0.053 C 
BRANCH   9  10
ATOM     10  C   UNL     1       8.409  -2.590 -26.633  1.00  0.00     0.041 C 
ATOM     11  O   UNL     1       9.032  -2.586 -27.728  1.00  0.00    -0.550 OA
ATOM     12  O   UNL     1       8.330  -3.760 -25.890  1.00  0.00    -0.550 OA
ENDBRANCH   9  10
ENDBRANCH   8   9
ENDBRANCH   7   8
ENDBRANCH   6   7
ENDBRANCH   5   6
ENDBRANCH   4   5
ENDBRANCH   3   4
ENDBRANCH   1   3
BRANCH   2  13
ATOM     13  C   UNL     1       4.144   3.219 -22.882  1.00  0.00     0.027 C 
BRANCH  13  14
ATOM     14  C   UNL     1       3.895   3.199 -21.369  1.00  0.00     0.004 C 
BRANCH  14  15
ATOM     15  C   UNL     1       3.103   1.954 -20.934  1.00  0.00     0.000 C 
BRANCH  15  16
ATOM     16  C   UNL     1       3.767   1.208 -19.766  1.00  0.00     0.000 C 
BRANCH  16  17
ATOM     17  C   UNL     1       4.918   2.010 -19.133  1.00  0.00    -0.000 C 
BRANCH  17  18
ATOM     18  C   UNL     1       6.291   1.359 -19.367  1.00  0.00    -0.000 C 
BRANCH  18  19
ATOM     19  C   UNL     1       7.283   1.644 -18.231  1.00  0.00    -0.003 C 
ATOM     20  C   UNL     1       6.579   2.273 -17.032  1.00  0.00     0.004 C 
ENDBRANCH  18  19
ENDBRANCH  17  18
ENDBRANCH  16  17
ENDBRANCH  15  16
ENDBRANCH  14  15
ENDBRANCH  13  14
ENDBRANCH   2  13
TORSDOF 15
ENDMDL
MODEL 3
REMARK VINA RESULT:    -3.834      1.337      3.256
REMARK INTER + INTRA:          -8.418
REMARK INTER:                  -7.332
REMARK INTRA:                  -1.086
REMARK UNBOUND:                -1.222
REMARK SMILES CCCCCCCCC=CCCCCCCCC(=O)[O-]
REMARK SMILES IDX 10 1 9 2 11 3 12 4 13 5 14 6 15 7 16 8 17 9 18 10 19 11
REMARK SMILES IDX 20 12 8 13 7 14 6 15 5 16 4 17 3 18 2 19 1 20
REMARK H PARENT
REMARK Flexibility Score: inf
ROOT
ATOM      1  C   UNL     1       4.734  -0.648 -26.731  1.00  0.00    -0.031 C 
ATOM      2  C   UNL     1       3.926   0.391 -26.448  1.00  0.00    -0.031 C 
ENDROOT
BRANCH   1   3
ATOM      3  C   UNL     1       5.782  -1.208 -25.802  1.00  0.00     0.027 C 
BRANCH   3   4
ATOM      4  C   UNL     1       7.160  -1.306 -26.476  1.00  0.00     0.004 C 
BRANCH   4   5
ATOM      5  C   UNL     1       8.134  -2.177 -25.671  1.00  0.00     0.000 C 
BRANCH   5   6
ATOM      6  C   UNL     1       8.064  -3.641 -26.122  1.00  0.00     0.000 C 
BRANCH   6   7
ATOM      7  C   UNL     1       8.672  -4.572 -25.062  1.00  0.00     0.000 C 
BRANCH   7   8
ATOM      8  C   UNL     1       9.554  -3.824 -24.045  1.00  0.00     0.006 C 
BRANCH   8   9
ATOM      9  C   UNL     1       9.575  -4.453 -22.643  1.00  0.00     0.053 C 
BRANCH   9  10
ATOM     10  C   UNL     1       8.441  -3.970 -21.793  1.00  0.00     0.041 C 
ATOM     11  O   UNL     1       7.566  -3.205 -22.278  1.00  0.00    -0.550 OA
ATOM     12  O   UNL     1       8.363  -4.347 -20.458  1.00  0.00    -0.550 OA
ENDBRANCH   9  10
ENDBRANCH   8   9
ENDBRANCH   7   8
ENDBRANCH   6   7
ENDBRANCH   5   6
ENDBRANCH   4   5
ENDBRANCH   3   4
ENDBRANCH   1   3
BRANCH   2  13
ATOM     13  C   UNL     1       3.894   1.134 -25.133  1.00  0.00     0.027 C 
BRANCH  13  14
ATOM     14  C   UNL     1       4.933   2.261 -25.106  1.00  0.00     0.004 C 
BRANCH  14  15
ATOM     15  C   UNL     1       4.817   3.119 -23.835  1.00  0.00     0.000 C 
BRANCH  15  16
ATOM     16  C   UNL     1       3.379   3.189 -23.296  1.00  0.00     0.000 C 
BRANCH  16  17
ATOM     17  C   UNL     1       3.313   3.008 -21.769  1.00  0.00    -0.000 C 
BRANCH  17  18
ATOM     18  C   UNL     1       3.321   1.529 -21.349  1.00  0.00    -0.000 C 
BRANCH  18  19
ATOM     19  C   UNL     1       3.530   1.343 -19.839  1.00  0.00    -0.003 C 
ATOM     20  C   UNL     1       4.965   1.679 -19.438  1.00  0.00     0.004 C 
ENDBRANCH  18  19
ENDBRANCH  17  18
ENDBRANCH  16  17
ENDBRANCH  15  16
ENDBRANCH  14  15
ENDBRANCH  13  14
ENDBRANCH   2  13
TORSDOF 15
ENDMDL
MODEL 4
REMARK VINA RESULT:    -3.602      4.194      7.070
REMARK INTER + INTRA:          -7.982
REMARK INTER:                  -5.745
REMARK INTRA:                  -2.237
REMARK UNBOUND:                -1.222
REMARK SMILES CCCCCCCCC=CCCCCCCCC(=O)[O-]
REMARK SMILES IDX 10 1 9 2 11 3 12 4 13 5 14 6 15 7 16 8 17 9 18 10 19 11
REMARK SMILES IDX 20 12 8 13 7 14 6 15 5 16 4 17 3 18 2 19 1 20
REMARK H PARENT
REMARK Flexibility Score: inf
ROOT
ATOM      1  C   UNL     1       7.444  -3.378 -23.191  1.00  0.00    -0.031 C 
ATOM      2  C   UNL     1       6.857  -2.814 -24.263  1.00  0.00    -0.031 C 
ENDROOT
BRANCH   1   3
ATOM      3  C   UNL     1       7.817  -4.835 -23.074  1.00  0.00     0.027 C 
BRANCH   3   4
ATOM      4  C   UNL     1       9.207  -5.125 -23.662  1.00  0.00     0.004 C 
BRANCH   4   5
ATOM      5  C   UNL     1      10.212  -4.010 -23.342  1.00  0.00     0.000 C 
BRANCH   5   6
ATOM      6  C   UNL     1      10.735  -3.355 -24.626  1.00  0.00     0.000 C 
BRANCH   6   7
ATOM      7  C   UNL     1      10.487  -4.257 -25.844  1.00  0.00     0.000 C 
BRANCH   7   8
ATOM      8  C   UNL     1      10.660  -3.514 -27.182  1.00  0.00     0.006 C 
BRANCH   8   9
ATOM      9  C   UNL     1      11.968  -3.840 -27.920  1.00  0.00     0.053 C 
BRANCH   9  10
ATOM     10  C   UNL     1      13.061  -2.875 -27.580  1.00  0.00     0.041 C 
ATOM     11  O   UNL     1      14.022  -3.237 -26.851  1.00  0.00    -0.550 OA
ATOM     12  O   UNL     1      13.007  -1.568 -28.050  1.00  0.00    -0.550 OA
ENDBRANCH   9  10
ENDBRANCH   8   9
ENDBRANCH   7   8
ENDBRANCH   6   7
ENDBRANCH   5   6
ENDBRANCH   4   5
ENDBRANCH   3   4
ENDBRANCH   1   3
BRANCH   2  13
ATOM     13  C   UNL     1       6.528  -3.531 -25.551  1.00  0.00     0.027 C 
BRANCH  13  14
ATOM     14  C   UNL     1       6.999  -2.728 -26.770  1.00  0.00     0.004 C 
BRANCH  14  15
ATOM     15  C   UNL     1       7.777  -1.465 -26.360  1.00  0.00     0.000 C 
BRANCH  15  16
ATOM     16  C   UNL     1       7.215  -0.188 -27.005  1.00  0.00     0.000 C 
BRANCH  16  17
ATOM     17  C   UNL     1       5.678  -0.132 -26.960  1.00  0.00    -0.000 C 
BRANCH  17  18
ATOM     18  C   UNL     1       5.148   0.517 -25.671  1.00  0.00    -0.000 C 
BRANCH  18  19
ATOM     19  C   UNL     1       5.492   2.010 -25.575  1.00  0.00    -0.003 C 
ATOM     20  C   UNL     1       4.755   2.669 -24.412  1.00  0.00     0.004 C 
ENDBRANCH  18  19
ENDBRANCH  17  18
ENDBRANCH  16  17
ENDBRANCH  15  16
ENDBRANCH  14  15
ENDBRANCH  13  14
ENDBRANCH   2  13
TORSDOF 15
ENDMDL
MODEL 5
REMARK VINA RESULT:    -3.559      2.502      6.539
REMARK INTER + INTRA:          -7.901
REMARK INTER:                  -7.065
REMARK INTRA:                  -0.836
REMARK UNBOUND:                -1.222
REMARK SMILES CCCCCCCCC=CCCCCCCCC(=O)[O-]
REMARK SMILES IDX 10 1 9 2 11 3 12 4 13 5 14 6 15 7 16 8 17 9 18 10 19 11
REMARK SMILES IDX 20 12 8 13 7 14 6 15 5 16 4 17 3 18 2 19 1 20
REMARK H PARENT
REMARK Flexibility Score: inf
ROOT
ATOM      1  C   UNL     1       4.973   1.085 -26.661  1.00  0.00    -0.031 C 
ATOM      2  C   UNL     1       4.802  -0.248 -26.578  1.00  0.00    -0.031 C 
ENDROOT
BRANCH   1   3
ATOM      3  C   UNL     1       5.313   1.987 -25.501  1.00  0.00     0.027 C 
BRANCH   3   4
ATOM      4  C   UNL     1       4.058   2.496 -24.775  1.00  0.00     0.004 C 
BRANCH   4   5
ATOM      5  C   UNL     1       4.401   3.198 -23.454  1.00  0.00     0.000 C 
BRANCH   5   6
ATOM      6  C   UNL     1       3.134   3.495 -22.643  1.00  0.00     0.000 C 
BRANCH   6   7
ATOM      7  C   UNL     1       3.081   2.636 -21.371  1.00  0.00     0.000 C 
BRANCH   7   8
ATOM      8  C   UNL     1       4.479   2.279 -20.833  1.00  0.00     0.006 C 
BRANCH   8   9
ATOM      9  C   UNL     1       4.470   1.561 -19.474  1.00  0.00     0.053 C 
BRANCH   9  10
ATOM     10  C   UNL     1       5.757   1.747 -18.731  1.00  0.00     0.041 C 
ATOM     11  O   UNL     1       5.767   2.337 -17.618  1.00  0.00    -0.550 OA
ATOM     12  O   UNL     1       6.948   1.287 -19.278  1.00  0.00    -0.550 OA
ENDBRANCH   9  10
ENDBRANCH   8   9
ENDBRANCH   7   8
ENDBRANCH   6   7
ENDBRANCH   5   6
ENDBRANCH   4   5
ENDBRANCH   3   4
ENDBRANCH   1   3
BRANCH   2  13
ATOM     13  C   UNL     1       4.979  -1.071 -25.324  1.00  0.00     0.027 C 
BRANCH  13  14
ATOM     14  C   UNL     1       6.385  -1.679 -25.253  1.00  0.00     0.004 C 
BRANCH  14  15
ATOM     15  C   UNL     1       6.397  -3.010 -24.481  1.00  0.00     0.000 C 
BRANCH  15  16
ATOM     16  C   UNL     1       7.559  -3.926 -24.899  1.00  0.00     0.000 C 
BRANCH  16  17
ATOM     17  C   UNL     1       8.875  -3.570 -24.187  1.00  0.00    -0.000 C 
BRANCH  17  18
ATOM     18  C   UNL     1       9.235  -4.571 -23.076  1.00  0.00    -0.000 C 
BRANCH  18  19
ATOM     19  C   UNL     1       8.204  -4.590 -21.939  1.00  0.00    -0.003 C 
ATOM     20  C   UNL     1       8.890  -4.634 -20.576  1.00  0.00     0.004 C 
ENDBRANCH  18  19
ENDBRANCH  17  18
ENDBRANCH  16  17
ENDBRANCH  15  16
ENDBRANCH  14  15
ENDBRANCH  13  14
ENDBRANCH   2  13
TORSDOF 15
ENDMDL
MODEL 6
REMARK VINA RESULT:    -3.488     17.735     21.346
REMARK INTER + INTRA:          -7.769
REMARK INTER:                  -6.417
REMARK INTRA:                  -1.352
REMARK UNBOUND:                -1.222
REMARK SMILES CCCCCCCCC=CCCCCCCCC(=O)[O-]
REMARK SMILES IDX 10 1 9 2 11 3 12 4 13 5 14 6 15 7 16 8 17 9 18 10 19 11
REMARK SMILES IDX 20 12 8 13 7 14 6 15 5 16 4 17 3 18 2 19 1 20
REMARK H PARENT
REMARK Flexibility Score: inf
ROOT
ATOM      1  C   UNL     1      16.363  13.980 -10.434  1.00  0.00    -0.031 C 
ATOM      2  C   UNL     1      17.528  13.321 -10.579  1.00  0.00    -0.031 C 
ENDROOT
BRANCH   1   3
ATOM      3  C   UNL     1      14.999  13.336 -10.429  1.00  0.00     0.027 C 
BRANCH   3   4
ATOM      4  C   UNL     1      14.296  13.479  -9.070  1.00  0.00     0.004 C 
BRANCH   4   5
ATOM      5  C   UNL     1      14.768  12.420  -8.063  1.00  0.00     0.000 C 
BRANCH   5   6
ATOM      6  C   UNL     1      14.251  11.028  -8.444  1.00  0.00     0.000 C 
BRANCH   6   7
ATOM      7  C   UNL     1      12.748  10.901  -8.149  1.00  0.00     0.000 C 
BRANCH   7   8
ATOM      8  C   UNL     1      11.946  10.376  -9.355  1.00  0.00     0.006 C 
BRANCH   8   9
ATOM      9  C   UNL     1      10.989   9.220  -9.022  1.00  0.00     0.053 C 
BRANCH   9  10
ATOM     10  C   UNL     1      11.724   7.948  -8.732  1.00  0.00     0.041 C 
ATOM     11  O   UNL     1      11.269   7.132  -7.888  1.00  0.00    -0.550 OA
ATOM     12  O   UNL     1      12.923   7.674  -9.378  1.00  0.00    -0.550 OA
ENDBRANCH   9  10
ENDBRANCH   8   9
ENDBRANCH   7   8
ENDBRANCH   6   7
ENDBRANCH   5   6
ENDBRANCH   4   5
ENDBRANCH   3   4
ENDBRANCH   1   3
BRANCH   2  13
ATOM     13  C   UNL     1      17.669  11.822 -10.702  1.00  0.00     0.027 C 
BRANCH  13  14
ATOM     14  C   UNL     1      19.144  11.406 -10.758  1.00  0.00     0.004 C 
BRANCH  14  15
ATOM     15  C   UNL     1      20.052  12.407 -10.023  1.00  0.00     0.000 C 
BRANCH  15  16
ATOM     16  C   UNL     1      21.333  12.731 -10.808  1.00  0.00     0.000 C 
BRANCH  16  17
ATOM     17  C   UNL     1      21.103  13.793 -11.897  1.00  0.00    -0.000 C 
BRANCH  17  18
ATOM     18  C   UNL     1      22.176  13.754 -12.997  1.00  0.00    -0.000 C 
BRANCH  18  19
ATOM     19  C   UNL     1      22.095  12.487 -13.860  1.00  0.00    -0.003 C 
ATOM     20  C   UNL     1      22.067  12.836 -15.346  1.00  0.00     0.004 C 
ENDBRANCH  18  19
ENDBRANCH  17  18
ENDBRANCH  16  17
ENDBRANCH  15  16
ENDBRANCH  14  15
ENDBRANCH  13  14
ENDBRANCH   2  13
TORSDOF 15
ENDMDL
MODEL 7
REMARK VINA RESULT:    -3.449      2.483      6.653
REMARK INTER + INTRA:          -7.694
REMARK INTER:                  -6.247
REMARK INTRA:                  -1.447
REMARK UNBOUND:                -1.222
REMARK SMILES CCCCCCCCC=CCCCCCCCC(=O)[O-]
REMARK SMILES IDX 10 1 9 2 11 3 12 4 13 5 14 6 15 7 16 8 17 9 18 10 19 11
REMARK SMILES IDX 20 12 8 13 7 14 6 15 5 16 4 17 3 18 2 19 1 20
REMARK H PARENT
REMARK Flexibility Score: inf
ROOT
ATOM      1  C   UNL     1       4.313   2.181 -25.370  1.00  0.00    -0.031 C 
ATOM      2  C   UNL     1       3.643   1.013 -25.369  1.00  0.00    -0.031 C 
ENDROOT
BRANCH   1   3
ATOM      3  C   UNL     1       4.725   2.944 -24.136  1.00  0.00     0.027 C 
BRANCH   3   4
ATOM      4  C   UNL     1       3.516   3.503 -23.371  1.00  0.00     0.004 C 
BRANCH   4   5
ATOM      5  C   UNL     1       3.735   3.483 -21.851  1.00  0.00     0.000 C 
BRANCH   5   6
ATOM      6  C   UNL     1       2.877   2.401 -21.185  1.00  0.00     0.000 C 
BRANCH   6   7
ATOM      7  C   UNL     1       3.756   1.283 -20.604  1.00  0.00     0.000 C 
BRANCH   7   8
ATOM      8  C   UNL     1       5.079   1.807 -20.016  1.00  0.00     0.006 C 
BRANCH   8   9
ATOM      9  C   UNL     1       5.195   1.660 -18.491  1.00  0.00     0.053 C 
BRANCH   9  10
ATOM     10  C   UNL     1       6.609   1.807 -18.018  1.00  0.00     0.041 C 
ATOM     11  O   UNL     1       6.857   2.413 -16.942  1.00  0.00    -0.550 OA
ATOM     12  O   UNL     1       7.653   1.295 -18.778  1.00  0.00    -0.550 OA
ENDBRANCH   9  10
ENDBRANCH   8   9
ENDBRANCH   7   8
ENDBRANCH   6   7
ENDBRANCH   5   6
ENDBRANCH   4   5
ENDBRANCH   3   4
ENDBRANCH   1   3
BRANCH   2  13
ATOM     13  C   UNL     1       3.244   0.241 -24.134  1.00  0.00     0.027 C 
BRANCH  13  14
ATOM     14  C   UNL     1       3.769  -1.198 -24.185  1.00  0.00     0.004 C 
BRANCH  14  15
ATOM     15  C   UNL     1       3.898  -1.712 -25.629  1.00  0.00     0.000 C 
BRANCH  15  16
ATOM     16  C   UNL     1       5.247  -2.398 -25.896  1.00  0.00     0.000 C 
BRANCH  16  17
ATOM     17  C   UNL     1       6.435  -1.426 -25.782  1.00  0.00    -0.000 C 
BRANCH  17  18
ATOM     18  C   UNL     1       7.738  -2.016 -26.345  1.00  0.00    -0.000 C 
BRANCH  18  19
ATOM     19  C   UNL     1       8.564  -2.753 -25.282  1.00  0.00    -0.003 C 
ATOM     20  C   UNL     1       8.512  -4.264 -25.496  1.00  0.00     0.004 C 
ENDBRANCH  18  19
ENDBRANCH  17  18
ENDBRANCH  16  17
ENDBRANCH  15  16
ENDBRANCH  14  15
ENDBRANCH  13  14
ENDBRANCH   2  13
TORSDOF 15
ENDMDL
MODEL 8
REMARK VINA RESULT:    -3.390     17.621     21.192
REMARK INTER + INTRA:          -7.585
REMARK INTER:                  -5.789
REMARK INTRA:                  -1.796
REMARK UNBOUND:                -1.222
REMARK SMILES CCCCCCCCC=CCCCCCCCC(=O)[O-]
REMARK SMILES IDX 10 1 9 2 11 3 12 4 13 5 14 6 15 7 16 8 17 9 18 10 19 11
REMARK SMILES IDX 20 12 8 13 7 14 6 15 5 16 4 17 3 18 2 19 1 20
REMARK H PARENT
REMARK Flexibility Score: inf
ROOT
ATOM      1  C   UNL     1      14.742  14.007 -11.204  1.00  0.00    -0.031 C 
ATOM      2  C   UNL     1      13.760  13.786 -10.311  1.00  0.00    -0.031 C 
ENDROOT
BRANCH   1   3
ATOM      3  C   UNL     1      15.975  14.838 -10.946  1.00  0.00     0.027 C 
BRANCH   3   4
ATOM      4  C   UNL     1      17.239  13.973 -10.821  1.00  0.00     0.004 C 
BRANCH   4   5
ATOM      5  C   UNL     1      17.323  13.268  -9.460  1.00  0.00     0.000 C 
BRANCH   5   6
ATOM      6  C   UNL     1      17.488  11.754  -9.633  1.00  0.00     0.000 C 
BRANCH   6   7
ATOM      7  C   UNL     1      17.793  11.077  -8.288  1.00  0.00     0.000 C 
BRANCH   7   8
ATOM      8  C   UNL     1      19.234  10.540  -8.204  1.00  0.00     0.006 C 
BRANCH   8   9
ATOM      9  C   UNL     1      20.317  11.581  -8.529  1.00  0.00     0.053 C 
BRANCH   9  10
ATOM     10  C   UNL     1      21.164  11.166  -9.693  1.00  0.00     0.041 C 
ATOM     11  O   UNL     1      20.814  11.458 -10.867  1.00  0.00    -0.550 OA
ATOM     12  O   UNL     1      22.328  10.438  -9.481  1.00  0.00    -0.550 OA
ENDBRANCH   9  10
ENDBRANCH   8   9
ENDBRANCH   7   8
ENDBRANCH   6   7
ENDBRANCH   5   6
ENDBRANCH   4   5
ENDBRANCH   3   4
ENDBRANCH   1   3
BRANCH   2  13
ATOM     13  C   UNL     1      13.755  14.282  -8.884  1.00  0.00     0.027 C 
BRANCH  13  14
ATOM     14  C   UNL     1      14.094  13.153  -7.903  1.00  0.00     0.004 C 
BRANCH  14  15
ATOM     15  C   UNL     1      13.264  11.886  -8.174  1.00  0.00     0.000 C 
BRANCH  15  16
ATOM     16  C   UNL     1      14.138  10.658  -8.475  1.00  0.00     0.000 C 
BRANCH  16  17
ATOM     17  C   UNL     1      13.305   9.424  -8.863  1.00  0.00    -0.000 C 
BRANCH  17  18
ATOM     18  C   UNL     1      11.829   9.765  -9.125  1.00  0.00    -0.000 C 
BRANCH  18  19
ATOM     19  C   UNL     1      10.916   8.532  -9.067  1.00  0.00    -0.003 C 
ATOM     20  C   UNL     1       9.497   8.878  -9.512  1.00  0.00     0.004 C 
ENDBRANCH  18  19
ENDBRANCH  17  18
ENDBRANCH  16  17
ENDBRANCH  15  16
ENDBRANCH  14  15
ENDBRANCH  13  14
ENDBRANCH   2  13
TORSDOF 15
ENDMDL
MODEL 9
REMARK VINA RESULT:    -3.320      4.796      7.769
REMARK INTER + INTRA:          -7.454
REMARK INTER:                  -4.912
REMARK INTRA:                  -2.541
REMARK UNBOUND:                -1.222
REMARK SMILES CCCCCCCCC=CCCCCCCCC(=O)[O-]
REMARK SMILES IDX 10 1 9 2 11 3 12 4 13 5 14 6 15 7 16 8 17 9 18 10 19 11
REMARK SMILES IDX 20 12 8 13 7 14 6 15 5 16 4 17 3 18 2 19 1 20
REMARK H PARENT
REMARK Flexibility Score: inf
ROOT
ATOM      1  C   UNL     1       7.846  -3.379 -22.542  1.00  0.00    -0.031 C 
ATOM      2  C   UNL     1       7.014  -3.444 -23.598  1.00  0.00    -0.031 C 
ENDROOT
BRANCH   1   3
ATOM      3  C   UNL     1       8.566  -4.557 -21.933  1.00  0.00     0.027 C 
BRANCH   3   4
ATOM      4  C   UNL     1       9.762  -5.008 -22.786  1.00  0.00     0.004 C 
BRANCH   4   5
ATOM      5  C   UNL     1      10.699  -3.841 -23.126  1.00  0.00     0.000 C 
BRANCH   5   6
ATOM      6  C   UNL     1      10.641  -3.505 -24.621  1.00  0.00     0.000 C 
BRANCH   6   7
ATOM      7  C   UNL     1      10.645  -4.784 -25.472  1.00  0.00     0.000 C 
BRANCH   7   8
ATOM      8  C   UNL     1      11.184  -4.553 -26.896  1.00  0.00     0.006 C 
BRANCH   8   9
ATOM      9  C   UNL     1      12.643  -4.991 -27.098  1.00  0.00     0.053 C 
BRANCH   9  10
ATOM     10  C   UNL     1      13.587  -3.829 -27.073  1.00  0.00     0.041 C 
ATOM     11  O   UNL     1      14.830  -4.020 -27.151  1.00  0.00    -0.550 OA
ATOM     12  O   UNL     1      13.096  -2.536 -26.941  1.00  0.00    -0.550 OA
ENDBRANCH   9  10
ENDBRANCH   8   9
ENDBRANCH   7   8
ENDBRANCH   6   7
ENDBRANCH   5   6
ENDBRANCH   4   5
ENDBRANCH   3   4
ENDBRANCH   1   3
BRANCH   2  13
ATOM     13  C   UNL     1       6.707  -4.695 -24.388  1.00  0.00     0.027 C 
BRANCH  13  14
ATOM     14  C   UNL     1       6.176  -4.353 -25.785  1.00  0.00     0.004 C 
BRANCH  14  15
ATOM     15  C   UNL     1       7.298  -4.326 -26.836  1.00  0.00     0.000 C 
BRANCH  15  16
ATOM     16  C   UNL     1       7.412  -2.968 -27.548  1.00  0.00     0.000 C 
BRANCH  16  17
ATOM     17  C   UNL     1       8.111  -1.906 -26.681  1.00  0.00    -0.000 C 
BRANCH  17  18
ATOM     18  C   UNL     1       7.292  -0.610 -26.559  1.00  0.00    -0.000 C 
BRANCH  18  19
ATOM     19  C   UNL     1       5.790  -0.835 -26.781  1.00  0.00    -0.003 C 
ATOM     20  C   UNL     1       5.030  -0.817 -25.458  1.00  0.00     0.004 C 
ENDBRANCH  18  19
ENDBRANCH  17  18
ENDBRANCH  16  17
ENDBRANCH  15  16
ENDBRANCH  14  15
ENDBRANCH  13  14
ENDBRANCH   2  13
TORSDOF 15
ENDMDL
