MODEL 1
REMARK VINA RESULT:    -9.271      0.000      0.000
REMARK INTER + INTRA:         -11.160
REMARK INTER:                 -10.897
REMARK INTRA:                  -0.263
REMARK UNBOUND:                -0.263
REMARK SMILES O=c1cc(-c2ccc(O)c(O)c2)oc2cc(O)cc(O)c12
REMARK SMILES IDX 4 1 3 2 2 3 1 4 21 5 19 6 18 7 16 8 15 9 14 10 13 11 5 12
REMARK SMILES IDX 6 13 7 14 8 15 12 16 10 17 9 18 11 20 20 22 17 24
REMARK H PARENT 9 19 11 21 20 23 17 25
REMARK Flexibility Score: inf
ROOT
ATOM      1  C   UNL     1     -31.315  16.881  57.277  1.00  0.00     0.138 A 
ATOM      2  C   UNL     1     -30.028  16.340  57.158  1.00  0.00     0.100 A 
ATOM      3  C   UNL     1     -28.917  17.182  57.221  1.00  0.00     0.197 A 
ATOM      4  O   UNL     1     -27.773  16.658  57.174  1.00  0.00    -0.289 OA
ATOM      5  C   UNL     1     -29.098  18.577  57.372  1.00  0.00     0.107 A 
ATOM      6  C   UNL     1     -28.041  19.534  57.408  1.00  0.00     0.134 A 
ATOM      7  C   UNL     1     -28.335  20.877  57.679  1.00  0.00     0.093 A 
ATOM      8  C   UNL     1     -29.650  21.306  57.855  1.00  0.00     0.123 A 
ATOM      9  C   UNL     1     -30.697  20.386  57.768  1.00  0.00     0.094 A 
ATOM     10  C   UNL     1     -30.433  19.034  57.533  1.00  0.00     0.146 A 
ATOM     11  O   UNL     1     -31.457  18.188  57.473  1.00  0.00    -0.456 OA
ENDROOT
BRANCH   1  12
ATOM     12  C   UNL     1     -32.532  16.033  57.215  1.00  0.00     0.021 A 
ATOM     13  C   UNL     1     -33.406  16.074  56.114  1.00  0.00     0.016 A 
ATOM     14  C   UNL     1     -34.549  15.271  56.088  1.00  0.00     0.051 A 
ATOM     15  C   UNL     1     -34.850  14.420  57.155  1.00  0.00     0.157 A 
ATOM     16  C   UNL     1     -32.842  15.186  58.293  1.00  0.00     0.062 A 
ATOM     17  C   UNL     1     -33.986  14.378  58.275  1.00  0.00     0.158 A 
BRANCH  15  18
ATOM     18  O   UNL     1     -36.006  13.642  57.064  1.00  0.00    -0.504 OA
ATOM     19  H   UNL     1     -36.109  12.731  57.489  1.00  0.00     0.293 HD
ENDBRANCH  15  18
BRANCH  17  20
ATOM     20  O   UNL     1     -34.222  13.557  59.379  1.00  0.00    -0.504 OA
ATOM     21  H   UNL     1     -33.564  12.874  59.726  1.00  0.00     0.293 HD
ENDBRANCH  17  20
ENDBRANCH   1  12
BRANCH   6  22
ATOM     22  O   UNL     1     -26.700  19.227  57.161  1.00  0.00    -0.507 OA
ATOM     23  H   UNL     1     -26.310  18.297  57.172  1.00  0.00     0.293 HD
ENDBRANCH   6  22
BRANCH   8  24
ATOM     24  O   UNL     1     -29.906  22.651  58.108  1.00  0.00    -0.508 OA
ATOM     25  H   UNL     1     -30.644  23.150  57.623  1.00  0.00     0.293 HD
ENDBRANCH   8  24
TORSDOF 5
ENDMDL
MODEL 2
REMARK VINA RESULT:    -9.230      0.623      1.498
REMARK INTER + INTRA:         -11.111
REMARK INTER:                 -10.839
REMARK INTRA:                  -0.273
REMARK UNBOUND:                -0.263
REMARK SMILES O=c1cc(-c2ccc(O)c(O)c2)oc2cc(O)cc(O)c12
REMARK SMILES IDX 4 1 3 2 2 3 1 4 21 5 19 6 18 7 16 8 15 9 14 10 13 11 5 12
REMARK SMILES IDX 6 13 7 14 8 15 12 16 10 17 9 18 11 20 20 22 17 24
REMARK H PARENT 9 19 11 21 20 23 17 25
REMARK Flexibility Score: inf
ROOT
ATOM      1  C   UNL     1     -31.246  16.884  57.291  1.00  0.00     0.138 A 
ATOM      2  C   UNL     1     -29.955  16.369  57.105  1.00  0.00     0.100 A 
ATOM      3  C   UNL     1     -28.859  17.232  57.133  1.00  0.00     0.197 A 
ATOM      4  O   UNL     1     -27.708  16.732  57.025  1.00  0.00    -0.289 OA
ATOM      5  C   UNL     1     -29.059  18.620  57.317  1.00  0.00     0.107 A 
ATOM      6  C   UNL     1     -28.020  19.598  57.322  1.00  0.00     0.134 A 
ATOM      7  C   UNL     1     -28.326  20.929  57.630  1.00  0.00     0.093 A 
ATOM      8  C   UNL     1     -29.640  21.329  57.872  1.00  0.00     0.123 A 
ATOM      9  C   UNL     1     -30.672  20.391  57.816  1.00  0.00     0.094 A 
ATOM     10  C   UNL     1     -30.394  19.049  57.546  1.00  0.00     0.146 A 
ATOM     11  O   UNL     1     -31.403  18.184  57.517  1.00  0.00    -0.456 OA
ENDROOT
BRANCH   1  12
ATOM     12  C   UNL     1     -32.448  16.012  57.269  1.00  0.00     0.021 A 
ATOM     13  C   UNL     1     -32.652  15.011  58.235  1.00  0.00     0.016 A 
ATOM     14  C   UNL     1     -33.788  14.200  58.184  1.00  0.00     0.051 A 
ATOM     15  C   UNL     1     -34.738  14.362  57.171  1.00  0.00     0.157 A 
ATOM     16  C   UNL     1     -33.397  16.165  56.243  1.00  0.00     0.062 A 
ATOM     17  C   UNL     1     -34.538  15.356  56.185  1.00  0.00     0.158 A 
BRANCH  15  18
ATOM     18  O   UNL     1     -35.851  13.519  57.179  1.00  0.00    -0.504 OA
ATOM     19  H   UNL     1     -35.848  12.583  57.558  1.00  0.00     0.293 HD
ENDBRANCH  15  18
BRANCH  17  20
ATOM     20  O   UNL     1     -35.439  15.574  55.141  1.00  0.00    -0.504 OA
ATOM     21  H   UNL     1     -36.356  15.979  55.261  1.00  0.00     0.293 HD
ENDBRANCH  17  20
ENDBRANCH   1  12
BRANCH   6  22
ATOM     22  O   UNL     1     -26.685  19.320  57.010  1.00  0.00    -0.507 OA
ATOM     23  H   UNL     1     -26.361  18.481  56.557  1.00  0.00     0.293 HD
ENDBRANCH   6  22
BRANCH   8  24
ATOM     24  O   UNL     1     -29.910  22.664  58.160  1.00  0.00    -0.508 OA
ATOM     25  H   UNL     1     -30.225  22.956  59.079  1.00  0.00     0.293 HD
ENDBRANCH   8  24
TORSDOF 5
ENDMDL
MODEL 3
REMARK VINA RESULT:    -9.095      1.705      2.508
REMARK INTER + INTRA:         -10.953
REMARK INTER:                 -10.671
REMARK INTRA:                  -0.283
REMARK UNBOUND:                -0.263
REMARK SMILES O=c1cc(-c2ccc(O)c(O)c2)oc2cc(O)cc(O)c12
REMARK SMILES IDX 4 1 3 2 2 3 1 4 21 5 19 6 18 7 16 8 15 9 14 10 13 11 5 12
REMARK SMILES IDX 6 13 7 14 8 15 12 16 10 17 9 18 11 20 20 22 17 24
REMARK H PARENT 9 19 11 21 20 23 17 25
REMARK Flexibility Score: inf
ROOT
ATOM      1  C   UNL     1     -30.919  16.708  56.868  1.00  0.00     0.138 A 
ATOM      2  C   UNL     1     -31.083  17.698  55.889  1.00  0.00     0.100 A 
ATOM      3  C   UNL     1     -30.146  18.727  55.786  1.00  0.00     0.197 A 
ATOM      4  O   UNL     1     -30.286  19.565  54.857  1.00  0.00    -0.289 OA
ATOM      5  C   UNL     1     -29.058  18.782  56.688  1.00  0.00     0.107 A 
ATOM      6  C   UNL     1     -28.066  19.807  56.703  1.00  0.00     0.134 A 
ATOM      7  C   UNL     1     -26.969  19.694  57.568  1.00  0.00     0.093 A 
ATOM      8  C   UNL     1     -26.861  18.626  58.459  1.00  0.00     0.123 A 
ATOM      9  C   UNL     1     -27.855  17.647  58.491  1.00  0.00     0.094 A 
ATOM     10  C   UNL     1     -28.942  17.713  57.617  1.00  0.00     0.146 A 
ATOM     11  O   UNL     1     -29.859  16.752  57.668  1.00  0.00    -0.456 OA
ENDROOT
BRANCH   1  12
ATOM     12  C   UNL     1     -31.885  15.591  57.024  1.00  0.00     0.021 A 
ATOM     13  C   UNL     1     -32.235  14.761  55.944  1.00  0.00     0.016 A 
ATOM     14  C   UNL     1     -33.155  13.725  56.117  1.00  0.00     0.051 A 
ATOM     15  C   UNL     1     -33.749  13.496  57.362  1.00  0.00     0.157 A 
ATOM     16  C   UNL     1     -32.494  15.369  58.271  1.00  0.00     0.062 A 
ATOM     17  C   UNL     1     -33.416  14.332  58.454  1.00  0.00     0.158 A 
BRANCH  15  18
ATOM     18  O   UNL     1     -34.658  12.441  57.468  1.00  0.00    -0.504 OA
ATOM     19  H   UNL     1     -35.631  12.557  57.713  1.00  0.00     0.293 HD
ENDBRANCH  15  18
BRANCH  17  20
ATOM     20  O   UNL     1     -33.971  14.169  59.724  1.00  0.00    -0.504 OA
ATOM     21  H   UNL     1     -34.324  13.292  60.078  1.00  0.00     0.293 HD
ENDBRANCH  17  20
ENDBRANCH   1  12
BRANCH   6  22
ATOM     22  O   UNL     1     -28.121  20.959  55.914  1.00  0.00    -0.507 OA
ATOM     23  H   UNL     1     -28.712  21.755  56.095  1.00  0.00     0.293 HD
ENDBRANCH   6  22
BRANCH   8  24
ATOM     24  O   UNL     1     -25.765  18.555  59.315  1.00  0.00    -0.508 OA
ATOM     25  H   UNL     1     -24.977  17.949  59.117  1.00  0.00     0.293 HD
ENDBRANCH   8  24
TORSDOF 5
ENDMDL
MODEL 4
REMARK VINA RESULT:    -9.066      2.084      2.754
REMARK INTER + INTRA:         -10.919
REMARK INTER:                 -10.625
REMARK INTRA:                  -0.294
REMARK UNBOUND:                -0.263
REMARK SMILES O=c1cc(-c2ccc(O)c(O)c2)oc2cc(O)cc(O)c12
REMARK SMILES IDX 4 1 3 2 2 3 1 4 21 5 19 6 18 7 16 8 15 9 14 10 13 11 5 12
REMARK SMILES IDX 6 13 7 14 8 15 12 16 10 17 9 18 11 20 20 22 17 24
REMARK H PARENT 9 19 11 21 20 23 17 25
REMARK Flexibility Score: inf
ROOT
ATOM      1  C   UNL     1     -31.333  17.018  56.853  1.00  0.00     0.138 A 
ATOM      2  C   UNL     1     -31.271  17.800  58.015  1.00  0.00     0.100 A 
ATOM      3  C   UNL     1     -30.387  18.877  58.075  1.00  0.00     0.197 A 
ATOM      4  O   UNL     1     -30.400  19.598  59.107  1.00  0.00    -0.289 OA
ATOM      5  C   UNL     1     -29.538  19.153  56.978  1.00  0.00     0.107 A 
ATOM      6  C   UNL     1     -28.569  20.200  56.943  1.00  0.00     0.134 A 
ATOM      7  C   UNL     1     -27.866  20.451  55.758  1.00  0.00     0.093 A 
ATOM      8  C   UNL     1     -28.052  19.656  54.627  1.00  0.00     0.123 A 
ATOM      9  C   UNL     1     -28.958  18.595  54.667  1.00  0.00     0.094 A 
ATOM     10  C   UNL     1     -29.700  18.341  55.824  1.00  0.00     0.146 A 
ATOM     11  O   UNL     1     -30.564  17.331  55.816  1.00  0.00    -0.456 OA
ENDROOT
BRANCH   1  12
ATOM     12  C   UNL     1     -32.254  15.859  56.735  1.00  0.00     0.021 A 
ATOM     13  C   UNL     1     -33.578  15.917  57.206  1.00  0.00     0.016 A 
ATOM     14  C   UNL     1     -34.418  14.807  57.091  1.00  0.00     0.051 A 
ATOM     15  C   UNL     1     -33.961  13.620  56.513  1.00  0.00     0.157 A 
ATOM     16  C   UNL     1     -31.790  14.660  56.166  1.00  0.00     0.062 A 
ATOM     17  C   UNL     1     -32.627  13.544  56.046  1.00  0.00     0.158 A 
BRANCH  15  18
ATOM     18  O   UNL     1     -34.853  12.550  56.426  1.00  0.00    -0.504 OA
ATOM     19  H   UNL     1     -34.573  11.579  56.428  1.00  0.00     0.293 HD
ENDBRANCH  15  18
BRANCH  17  20
ATOM     20  O   UNL     1     -32.098  12.392  55.462  1.00  0.00    -0.504 OA
ATOM     21  H   UNL     1     -31.142  12.305  55.150  1.00  0.00     0.293 HD
ENDBRANCH  17  20
ENDBRANCH   1  12
BRANCH   6  22
ATOM     22  O   UNL     1     -28.243  20.999  58.043  1.00  0.00    -0.507 OA
ATOM     23  H   UNL     1     -28.089  21.995  58.007  1.00  0.00     0.293 HD
ENDBRANCH   6  22
BRANCH   8  24
ATOM     24  O   UNL     1     -27.325  19.926  53.471  1.00  0.00    -0.508 OA
ATOM     25  H   UNL     1     -27.181  20.875  53.145  1.00  0.00     0.293 HD
ENDBRANCH   8  24
TORSDOF 5
ENDMDL
MODEL 5
REMARK VINA RESULT:    -8.903      1.564      7.347
REMARK INTER + INTRA:         -10.727
REMARK INTER:                 -10.463
REMARK INTRA:                  -0.264
REMARK UNBOUND:                -0.263
REMARK SMILES O=c1cc(-c2ccc(O)c(O)c2)oc2cc(O)cc(O)c12
REMARK SMILES IDX 4 1 3 2 2 3 1 4 21 5 19 6 18 7 16 8 15 9 14 10 13 11 5 12
REMARK SMILES IDX 6 13 7 14 8 15 12 16 10 17 9 18 11 20 20 22 17 24
REMARK H PARENT 9 19 11 21 20 23 17 25
REMARK Flexibility Score: inf
ROOT
ATOM      1  C   UNL     1     -32.286  16.297  57.195  1.00  0.00     0.138 A 
ATOM      2  C   UNL     1     -32.906  16.211  55.941  1.00  0.00     0.100 A 
ATOM      3  C   UNL     1     -34.069  15.453  55.797  1.00  0.00     0.197 A 
ATOM      4  O   UNL     1     -34.636  15.446  54.673  1.00  0.00    -0.289 OA
ATOM      5  C   UNL     1     -34.596  14.753  56.908  1.00  0.00     0.107 A 
ATOM      6  C   UNL     1     -35.751  13.918  56.868  1.00  0.00     0.134 A 
ATOM      7  C   UNL     1     -36.247  13.369  58.057  1.00  0.00     0.093 A 
ATOM      8  C   UNL     1     -35.595  13.574  59.273  1.00  0.00     0.123 A 
ATOM      9  C   UNL     1     -34.432  14.345  59.314  1.00  0.00     0.094 A 
ATOM     10  C   UNL     1     -33.933  14.935  58.151  1.00  0.00     0.146 A 
ATOM     11  O   UNL     1     -32.831  15.675  58.235  1.00  0.00    -0.456 OA
ENDROOT
BRANCH   1  12
ATOM     12  C   UNL     1     -31.047  17.087  57.406  1.00  0.00     0.021 A 
ATOM     13  C   UNL     1     -31.088  18.461  57.701  1.00  0.00     0.016 A 
ATOM     14  C   UNL     1     -29.905  19.181  57.883  1.00  0.00     0.051 A 
ATOM     15  C   UNL     1     -28.661  18.554  57.771  1.00  0.00     0.157 A 
ATOM     16  C   UNL     1     -29.795  16.460  57.278  1.00  0.00     0.062 A 
ATOM     17  C   UNL     1     -28.605  17.175  57.461  1.00  0.00     0.158 A 
BRANCH  15  18
ATOM     18  O   UNL     1     -27.518  19.331  57.968  1.00  0.00    -0.504 OA
ATOM     19  H   UNL     1     -26.783  19.098  58.620  1.00  0.00     0.293 HD
ENDBRANCH  15  18
BRANCH  17  20
ATOM     20  O   UNL     1     -27.401  16.481  57.327  1.00  0.00    -0.504 OA
ATOM     21  H   UNL     1     -26.822  16.200  58.104  1.00  0.00     0.293 HD
ENDBRANCH  17  20
ENDBRANCH   1  12
BRANCH   6  22
ATOM     22  O   UNL     1     -36.430  13.579  55.694  1.00  0.00    -0.507 OA
ATOM     23  H   UNL     1     -37.415  13.721  55.535  1.00  0.00     0.293 HD
ENDBRANCH   6  22
BRANCH   8  24
ATOM     24  O   UNL     1     -36.108  13.000  60.433  1.00  0.00    -0.508 OA
ATOM     25  H   UNL     1     -35.501  12.682  61.180  1.00  0.00     0.293 HD
ENDBRANCH   8  24
TORSDOF 5
ENDMDL
MODEL 6
REMARK VINA RESULT:    -8.690      2.283      7.097
REMARK INTER + INTRA:         -10.477
REMARK INTER:                 -10.212
REMARK INTRA:                  -0.266
REMARK UNBOUND:                -0.263
REMARK SMILES O=c1cc(-c2ccc(O)c(O)c2)oc2cc(O)cc(O)c12
REMARK SMILES IDX 4 1 3 2 2 3 1 4 21 5 19 6 18 7 16 8 15 9 14 10 13 11 5 12
REMARK SMILES IDX 6 13 7 14 8 15 12 16 10 17 9 18 11 20 20 22 17 24
REMARK H PARENT 9 19 11 21 20 23 17 25
REMARK Flexibility Score: inf
ROOT
ATOM      1  C   UNL     1     -31.698  16.111  56.292  1.00  0.00     0.138 A 
ATOM      2  C   UNL     1     -31.030  14.883  56.405  1.00  0.00     0.100 A 
ATOM      3  C   UNL     1     -31.724  13.696  56.172  1.00  0.00     0.197 A 
ATOM      4  O   UNL     1     -31.082  12.614  56.219  1.00  0.00    -0.289 OA
ATOM      5  C   UNL     1     -33.102  13.736  55.855  1.00  0.00     0.107 A 
ATOM      6  C   UNL     1     -33.920  12.588  55.638  1.00  0.00     0.134 A 
ATOM      7  C   UNL     1     -35.245  12.754  55.216  1.00  0.00     0.093 A 
ATOM      8  C   UNL     1     -35.799  14.025  55.062  1.00  0.00     0.123 A 
ATOM      9  C   UNL     1     -35.023  15.155  55.324  1.00  0.00     0.094 A 
ATOM     10  C   UNL     1     -33.688  15.023  55.714  1.00  0.00     0.146 A 
ATOM     11  O   UNL     1     -32.979  16.124  55.939  1.00  0.00    -0.456 OA
ENDROOT
BRANCH   1  12
ATOM     12  C   UNL     1     -31.009  17.404  56.530  1.00  0.00     0.021 A 
ATOM     13  C   UNL     1     -30.209  18.008  55.543  1.00  0.00     0.016 A 
ATOM     14  C   UNL     1     -29.565  19.220  55.799  1.00  0.00     0.051 A 
ATOM     15  C   UNL     1     -29.696  19.852  57.038  1.00  0.00     0.157 A 
ATOM     16  C   UNL     1     -31.129  18.034  57.781  1.00  0.00     0.062 A 
ATOM     17  C   UNL     1     -30.487  19.249  58.045  1.00  0.00     0.158 A 
BRANCH  15  18
ATOM     18  O   UNL     1     -29.028  21.064  57.228  1.00  0.00    -0.504 OA
ATOM     19  H   UNL     1     -29.037  21.584  58.094  1.00  0.00     0.293 HD
ENDBRANCH  15  18
BRANCH  17  20
ATOM     20  O   UNL     1     -30.662  19.818  59.308  1.00  0.00    -0.504 OA
ATOM     21  H   UNL     1     -31.112  19.350  60.081  1.00  0.00     0.293 HD
ENDBRANCH  17  20
ENDBRANCH   1  12
BRANCH   6  22
ATOM     22  O   UNL     1     -33.492  11.273  55.844  1.00  0.00    -0.507 OA
ATOM     23  H   UNL     1     -32.660  10.868  55.444  1.00  0.00     0.293 HD
ENDBRANCH   6  22
BRANCH   8  24
ATOM     24  O   UNL     1     -37.124  14.152  54.655  1.00  0.00    -0.508 OA
ATOM     25  H   UNL     1     -37.684  14.957  54.915  1.00  0.00     0.293 HD
ENDBRANCH   8  24
TORSDOF 5
ENDMDL
MODEL 7
REMARK VINA RESULT:    -8.653      2.172      7.368
REMARK INTER + INTRA:         -10.433
REMARK INTER:                 -10.122
REMARK INTRA:                  -0.311
REMARK UNBOUND:                -0.263
REMARK SMILES O=c1cc(-c2ccc(O)c(O)c2)oc2cc(O)cc(O)c12
REMARK SMILES IDX 4 1 3 2 2 3 1 4 21 5 19 6 18 7 16 8 15 9 14 10 13 11 5 12
REMARK SMILES IDX 6 13 7 14 8 15 12 16 10 17 9 18 11 20 20 22 17 24
REMARK H PARENT 9 19 11 21 20 23 17 25
REMARK Flexibility Score: inf
ROOT
ATOM      1  C   UNL     1     -31.912  16.147  56.956  1.00  0.00     0.138 A 
ATOM      2  C   UNL     1     -32.065  15.581  58.229  1.00  0.00     0.100 A 
ATOM      3  C   UNL     1     -33.206  14.832  58.519  1.00  0.00     0.197 A 
ATOM      4  O   UNL     1     -33.285  14.285  59.650  1.00  0.00    -0.289 OA
ATOM      5  C   UNL     1     -34.213  14.675  57.537  1.00  0.00     0.107 A 
ATOM      6  C   UNL     1     -35.435  13.967  57.733  1.00  0.00     0.134 A 
ATOM      7  C   UNL     1     -36.305  13.778  56.652  1.00  0.00     0.093 A 
ATOM      8  C   UNL     1     -36.026  14.323  55.399  1.00  0.00     0.123 A 
ATOM      9  C   UNL     1     -34.859  15.064  55.210  1.00  0.00     0.094 A 
ATOM     10  C   UNL     1     -33.954  15.240  56.260  1.00  0.00     0.146 A 
ATOM     11  O   UNL     1     -32.846  15.939  56.034  1.00  0.00    -0.456 OA
ENDROOT
BRANCH   1  12
ATOM     12  C   UNL     1     -30.720  16.955  56.594  1.00  0.00     0.021 A 
ATOM     13  C   UNL     1     -29.513  16.852  57.310  1.00  0.00     0.016 A 
ATOM     14  C   UNL     1     -28.411  17.633  56.953  1.00  0.00     0.051 A 
ATOM     15  C   UNL     1     -28.487  18.532  55.887  1.00  0.00     0.157 A 
ATOM     16  C   UNL     1     -30.799  17.871  55.531  1.00  0.00     0.062 A 
ATOM     17  C   UNL     1     -29.699  18.656  55.167  1.00  0.00     0.158 A 
BRANCH  15  18
ATOM     18  O   UNL     1     -27.347  19.280  55.581  1.00  0.00    -0.504 OA
ATOM     19  H   UNL     1     -26.601  18.953  54.983  1.00  0.00     0.293 HD
ENDBRANCH  15  18
BRANCH  17  20
ATOM     20  O   UNL     1     -29.852  19.536  54.094  1.00  0.00    -0.504 OA
ATOM     21  H   UNL     1     -30.650  19.541  53.477  1.00  0.00     0.293 HD
ENDBRANCH  17  20
ENDBRANCH   1  12
BRANCH   6  22
ATOM     22  O   UNL     1     -35.852  13.454  58.966  1.00  0.00    -0.507 OA
ATOM     23  H   UNL     1     -36.346  13.977  59.671  1.00  0.00     0.293 HD
ENDBRANCH   6  22
BRANCH   8  24
ATOM     24  O   UNL     1     -36.921  14.128  54.351  1.00  0.00    -0.508 OA
ATOM     25  H   UNL     1     -37.705  14.754  54.199  1.00  0.00     0.293 HD
ENDBRANCH   8  24
TORSDOF 5
ENDMDL
MODEL 8
REMARK VINA RESULT:    -8.564      2.153      7.053
REMARK INTER + INTRA:         -10.329
REMARK INTER:                 -10.016
REMARK INTRA:                  -0.312
REMARK UNBOUND:                -0.263
REMARK SMILES O=c1cc(-c2ccc(O)c(O)c2)oc2cc(O)cc(O)c12
REMARK SMILES IDX 4 1 3 2 2 3 1 4 21 5 19 6 18 7 16 8 15 9 14 10 13 11 5 12
REMARK SMILES IDX 6 13 7 14 8 15 12 16 10 17 9 18 11 20 20 22 17 24
REMARK H PARENT 9 19 11 21 20 23 17 25
REMARK Flexibility Score: inf
ROOT
ATOM      1  C   UNL     1     -31.748  15.921  57.090  1.00  0.00     0.138 A 
ATOM      2  C   UNL     1     -31.418  14.866  56.227  1.00  0.00     0.100 A 
ATOM      3  C   UNL     1     -32.072  13.640  56.354  1.00  0.00     0.197 A 
ATOM      4  O   UNL     1     -31.798  12.733  55.525  1.00  0.00    -0.289 OA
ATOM      5  C   UNL     1     -33.040  13.460  57.370  1.00  0.00     0.107 A 
ATOM      6  C   UNL     1     -33.741  12.243  57.619  1.00  0.00     0.134 A 
ATOM      7  C   UNL     1     -34.761  12.217  58.578  1.00  0.00     0.093 A 
ATOM      8  C   UNL     1     -35.065  13.346  59.338  1.00  0.00     0.123 A 
ATOM      9  C   UNL     1     -34.348  14.528  59.141  1.00  0.00     0.094 A 
ATOM     10  C   UNL     1     -33.348  14.595  58.168  1.00  0.00     0.146 A 
ATOM     11  O   UNL     1     -32.700  15.743  58.000  1.00  0.00    -0.456 OA
ENDROOT
BRANCH   1  12
ATOM     12  C   UNL     1     -31.083  17.245  57.001  1.00  0.00     0.021 A 
ATOM     13  C   UNL     1     -30.397  17.651  55.842  1.00  0.00     0.016 A 
ATOM     14  C   UNL     1     -29.772  18.898  55.791  1.00  0.00     0.051 A 
ATOM     15  C   UNL     1     -29.809  19.763  56.888  1.00  0.00     0.157 A 
ATOM     16  C   UNL     1     -31.108  18.109  58.109  1.00  0.00     0.062 A 
ATOM     17  C   UNL     1     -30.484  19.362  58.065  1.00  0.00     0.158 A 
BRANCH  15  18
ATOM     18  O   UNL     1     -29.166  20.997  56.769  1.00  0.00    -0.504 OA
ATOM     19  H   UNL     1     -28.857  21.550  57.556  1.00  0.00     0.293 HD
ENDBRANCH  15  18
BRANCH  17  20
ATOM     20  O   UNL     1     -30.560  20.168  59.202  1.00  0.00    -0.504 OA
ATOM     21  H   UNL     1     -31.289  20.848  59.365  1.00  0.00     0.293 HD
ENDBRANCH  17  20
ENDBRANCH   1  12
BRANCH   6  22
ATOM     22  O   UNL     1     -33.459  11.034  56.975  1.00  0.00    -0.507 OA
ATOM     23  H   UNL     1     -32.561  10.778  56.594  1.00  0.00     0.293 HD
ENDBRANCH   6  22
BRANCH   8  24
ATOM     24  O   UNL     1     -36.075  13.279  60.293  1.00  0.00    -0.508 OA
ATOM     25  H   UNL     1     -36.194  12.463  60.883  1.00  0.00     0.293 HD
ENDBRANCH   8  24
TORSDOF 5
ENDMDL
MODEL 9
REMARK VINA RESULT:    -8.535      2.055      7.254
REMARK INTER + INTRA:         -10.295
REMARK INTER:                 -10.011
REMARK INTRA:                  -0.284
REMARK UNBOUND:                -0.263
REMARK SMILES O=c1cc(-c2ccc(O)c(O)c2)oc2cc(O)cc(O)c12
REMARK SMILES IDX 4 1 3 2 2 3 1 4 21 5 19 6 18 7 16 8 15 9 14 10 13 11 5 12
REMARK SMILES IDX 6 13 7 14 8 15 12 16 10 17 9 18 11 20 20 22 17 24
REMARK H PARENT 9 19 11 21 20 23 17 25
REMARK Flexibility Score: inf
ROOT
ATOM      1  C   UNL     1     -31.960  16.120  57.013  1.00  0.00     0.138 A 
ATOM      2  C   UNL     1     -32.168  15.579  58.289  1.00  0.00     0.100 A 
ATOM      3  C   UNL     1     -33.331  14.853  58.549  1.00  0.00     0.197 A 
ATOM      4  O   UNL     1     -33.460  14.327  59.686  1.00  0.00    -0.289 OA
ATOM      5  C   UNL     1     -34.304  14.694  57.535  1.00  0.00     0.107 A 
ATOM      6  C   UNL     1     -35.545  14.010  57.698  1.00  0.00     0.134 A 
ATOM      7  C   UNL     1     -36.378  13.816  56.589  1.00  0.00     0.093 A 
ATOM      8  C   UNL     1     -36.045  14.334  55.338  1.00  0.00     0.123 A 
ATOM      9  C   UNL     1     -34.859  15.052  55.179  1.00  0.00     0.094 A 
ATOM     10  C   UNL     1     -33.990  15.233  56.258  1.00  0.00     0.146 A 
ATOM     11  O   UNL     1     -32.863  15.910  56.061  1.00  0.00    -0.456 OA
ENDROOT
BRANCH   1  12
ATOM     12  C   UNL     1     -30.742  16.902  56.681  1.00  0.00     0.021 A 
ATOM     13  C   UNL     1     -30.768  17.946  55.739  1.00  0.00     0.016 A 
ATOM     14  C   UNL     1     -29.605  18.658  55.440  1.00  0.00     0.051 A 
ATOM     15  C   UNL     1     -28.394  18.344  56.063  1.00  0.00     0.157 A 
ATOM     16  C   UNL     1     -29.521  16.578  57.297  1.00  0.00     0.062 A 
ATOM     17  C   UNL     1     -28.350  17.287  57.003  1.00  0.00     0.158 A 
BRANCH  15  18
ATOM     18  O   UNL     1     -27.269  19.097  55.720  1.00  0.00    -0.504 OA
ATOM     19  H   UNL     1     -27.026  19.977  56.152  1.00  0.00     0.293 HD
ENDBRANCH  15  18
BRANCH  17  20
ATOM     20  O   UNL     1     -27.178  16.912  57.662  1.00  0.00    -0.504 OA
ATOM     21  H   UNL     1     -27.146  16.265  58.435  1.00  0.00     0.293 HD
ENDBRANCH  17  20
ENDBRANCH   1  12
BRANCH   6  22
ATOM     22  O   UNL     1     -36.014  13.526  58.923  1.00  0.00    -0.507 OA
ATOM     23  H   UNL     1     -36.525  14.070  59.601  1.00  0.00     0.293 HD
ENDBRANCH   6  22
BRANCH   8  24
ATOM     24  O   UNL     1     -36.904  14.135  54.261  1.00  0.00    -0.508 OA
ATOM     25  H   UNL     1     -37.586  13.385  54.258  1.00  0.00     0.293 HD
ENDBRANCH   8  24
TORSDOF 5
ENDMDL
