MODEL 1
REMARK VINA RESULT:    -4.015      0.000      0.000
REMARK INTER + INTRA:          -4.914
REMARK INTER:                  -4.837
REMARK INTRA:                  -0.078
REMARK UNBOUND:                -0.078
REMARK SMILES CC[C@@H](C)[C@@H]([NH3+])C(=O)[O-]
REMARK SMILES IDX 3 1 4 2 5 3 6 4 7 8 8 9 9 10 2 11 1 12
REMARK H PARENT 6 5 6 6 6 7
REMARK Flexibility Score: inf
ROOT
ATOM      1  C   UNL     1     -34.044   8.959  11.525  1.00  0.00     0.050 C 
ATOM      2  C   UNL     1     -34.476  10.418  11.291  1.00  0.00     0.014 C 
ENDROOT
BRANCH   1   3
ATOM      3  C   UNL     1     -33.881   8.609  13.040  1.00  0.00     0.230 C 
BRANCH   3   4
ATOM      4  N   UNL     1     -34.688   7.440  13.423  1.00  0.00    -0.350 N 
ATOM      5  H   UNL     1     -34.413   7.110  14.377  1.00  0.00     0.345 HD
ATOM      6  H   UNL     1     -34.512   6.659  12.748  1.00  0.00     0.345 HD
ATOM      7  H   UNL     1     -35.709   7.657  13.414  1.00  0.00     0.345 HD
ENDBRANCH   3   4
BRANCH   3   8
ATOM      8  C   UNL     1     -32.438   8.419  13.446  1.00  0.00     0.099 C 
ATOM      9  O   UNL     1     -32.130   7.641  14.387  1.00  0.00    -0.544 OA
ATOM     10  O   UNL     1     -31.434   9.089  12.758  1.00  0.00    -0.544 OA
ENDBRANCH   3   8
ENDBRANCH   1   3
BRANCH   1  11
ATOM     11  C   UNL     1     -35.019   8.008  10.785  1.00  0.00     0.006 C 
ATOM     12  C   UNL     1     -34.645   7.774   9.321  1.00  0.00     0.004 C 
ENDBRANCH   1  11
TORSDOF 4
ENDMDL
MODEL 2
REMARK VINA RESULT:    -3.980      7.387      8.088
REMARK INTER + INTRA:          -4.872
REMARK INTER:                  -4.778
REMARK INTRA:                  -0.094
REMARK UNBOUND:                -0.078
REMARK SMILES CC[C@@H](C)[C@@H]([NH3+])C(=O)[O-]
REMARK SMILES IDX 3 1 4 2 5 3 6 4 7 8 8 9 9 10 2 11 1 12
REMARK H PARENT 6 5 6 6 6 7
REMARK Flexibility Score: inf
ROOT
ATOM      1  C   UNL     1     -36.599   0.810  14.005  1.00  0.00     0.050 C 
ATOM      2  C   UNL     1     -37.197  -0.252  14.946  1.00  0.00     0.014 C 
ENDROOT
BRANCH   1   3
ATOM      3  C   UNL     1     -36.398   2.195  14.703  1.00  0.00     0.230 C 
BRANCH   3   4
ATOM      4  N   UNL     1     -34.974   2.537  14.843  1.00  0.00    -0.350 N 
ATOM      5  H   UNL     1     -34.394   1.668  14.842  1.00  0.00     0.345 HD
ATOM      6  H   UNL     1     -34.822   3.027  15.755  1.00  0.00     0.345 HD
ATOM      7  H   UNL     1     -34.652   3.168  14.074  1.00  0.00     0.345 HD
ENDBRANCH   3   4
BRANCH   3   8
ATOM      8  C   UNL     1     -37.151   3.311  14.018  1.00  0.00     0.099 C 
ATOM      9  O   UNL     1     -36.541   4.304  13.541  1.00  0.00    -0.544 OA
ATOM     10  O   UNL     1     -38.532   3.233  13.888  1.00  0.00    -0.544 OA
ENDBRANCH   3   8
ENDBRANCH   1   3
BRANCH   1  11
ATOM     11  C   UNL     1     -35.299   0.260  13.367  1.00  0.00     0.006 C 
ATOM     12  C   UNL     1     -35.391   0.091  11.849  1.00  0.00     0.004 C 
ENDBRANCH   1  11
TORSDOF 4
ENDMDL
MODEL 3
REMARK VINA RESULT:    -3.973     15.284     15.921
REMARK INTER + INTRA:          -4.863
REMARK INTER:                  -4.768
REMARK INTRA:                  -0.096
REMARK UNBOUND:                -0.078
REMARK SMILES CC[C@@H](C)[C@@H]([NH3+])C(=O)[O-]
REMARK SMILES IDX 3 1 4 2 5 3 6 4 7 8 8 9 9 10 2 11 1 12
REMARK H PARENT 6 5 6 6 6 7
REMARK Flexibility Score: inf
ROOT
ATOM      1  C   UNL     1     -21.457  12.361  21.702  1.00  0.00     0.050 C 
ATOM      2  C   UNL     1     -22.245  12.266  23.021  1.00  0.00     0.014 C 
ENDROOT
BRANCH   1   3
ATOM      3  C   UNL     1     -21.521  11.044  20.860  1.00  0.00     0.230 C 
BRANCH   3   4
ATOM      4  N   UNL     1     -21.961  11.296  19.480  1.00  0.00    -0.350 N 
ATOM      5  H   UNL     1     -22.877  10.824  19.303  1.00  0.00     0.345 HD
ATOM      6  H   UNL     1     -21.259  10.901  18.812  1.00  0.00     0.345 HD
ATOM      7  H   UNL     1     -22.058  12.318  19.287  1.00  0.00     0.345 HD
ENDBRANCH   3   4
BRANCH   3   8
ATOM      8  C   UNL     1     -20.220  10.276  20.875  1.00  0.00     0.099 C 
ATOM      9  O   UNL     1     -19.565  10.138  21.942  1.00  0.00    -0.544 OA
ATOM     10  O   UNL     1     -19.751   9.691  19.706  1.00  0.00    -0.544 OA
ENDBRANCH   3   8
ENDBRANCH   1   3
BRANCH   1  11
ATOM     11  C   UNL     1     -21.926  13.608  20.910  1.00  0.00     0.006 C 
ATOM     12  C   UNL     1     -20.785  14.561  20.547  1.00  0.00     0.004 C 
ENDBRANCH   1  11
TORSDOF 4
ENDMDL
MODEL 4
REMARK VINA RESULT:    -3.907      7.687      8.956
REMARK INTER + INTRA:          -4.784
REMARK INTER:                  -4.711
REMARK INTRA:                  -0.074
REMARK UNBOUND:                -0.078
REMARK SMILES CC[C@@H](C)[C@@H]([NH3+])C(=O)[O-]
REMARK SMILES IDX 3 1 4 2 5 3 6 4 7 8 8 9 9 10 2 11 1 12
REMARK H PARENT 6 5 6 6 6 7
REMARK Flexibility Score: inf
ROOT
ATOM      1  C   UNL     1     -27.356  13.808  14.636  1.00  0.00     0.050 C 
ATOM      2  C   UNL     1     -27.393  14.670  13.362  1.00  0.00     0.014 C 
ENDROOT
BRANCH   1   3
ATOM      3  C   UNL     1     -26.685  12.414  14.406  1.00  0.00     0.230 C 
BRANCH   3   4
ATOM      4  N   UNL     1     -25.370  12.322  15.060  1.00  0.00    -0.350 N 
ATOM      5  H   UNL     1     -24.919  13.265  15.093  1.00  0.00     0.345 HD
ATOM      6  H   UNL     1     -24.750  11.686  14.507  1.00  0.00     0.345 HD
ATOM      7  H   UNL     1     -25.448  11.943  16.030  1.00  0.00     0.345 HD
ENDBRANCH   3   4
BRANCH   3   8
ATOM      8  C   UNL     1     -27.570  11.262  14.822  1.00  0.00     0.099 C 
ATOM      9  O   UNL     1     -28.825  11.365  14.780  1.00  0.00    -0.544 OA
ATOM     10  O   UNL     1     -26.998  10.064  15.230  1.00  0.00    -0.544 OA
ENDBRANCH   3   8
ENDBRANCH   1   3
BRANCH   1  11
ATOM     11  C   UNL     1     -26.697  14.613  15.784  1.00  0.00     0.006 C 
ATOM     12  C   UNL     1     -27.235  16.040  15.912  1.00  0.00     0.004 C 
ENDBRANCH   1  11
TORSDOF 4
ENDMDL
MODEL 5
REMARK VINA RESULT:    -3.860     15.505     16.064
REMARK INTER + INTRA:          -4.728
REMARK INTER:                  -4.650
REMARK INTRA:                  -0.077
REMARK UNBOUND:                -0.078
REMARK SMILES CC[C@@H](C)[C@@H]([NH3+])C(=O)[O-]
REMARK SMILES IDX 3 1 4 2 5 3 6 4 7 8 8 9 9 10 2 11 1 12
REMARK H PARENT 6 5 6 6 6 7
REMARK Flexibility Score: inf
ROOT
ATOM      1  C   UNL     1     -21.192  12.631  22.108  1.00  0.00     0.050 C 
ATOM      2  C   UNL     1     -22.265  12.240  23.140  1.00  0.00     0.014 C 
ENDROOT
BRANCH   1   3
ATOM      3  C   UNL     1     -20.322  11.415  21.646  1.00  0.00     0.230 C 
BRANCH   3   4
ATOM      4  N   UNL     1     -20.081  10.465  22.743  1.00  0.00    -0.350 N 
ATOM      5  H   UNL     1     -19.410   9.724  22.435  1.00  0.00     0.345 HD
ATOM      6  H   UNL     1     -20.981   9.999  23.004  1.00  0.00     0.345 HD
ATOM      7  H   UNL     1     -19.701  10.943  23.591  1.00  0.00     0.345 HD
ENDBRANCH   3   4
BRANCH   3   8
ATOM      8  C   UNL     1     -20.897  10.708  20.442  1.00  0.00     0.099 C 
ATOM      9  O   UNL     1     -21.869   9.915  20.562  1.00  0.00    -0.544 OA
ATOM     10  O   UNL     1     -20.369  10.952  19.181  1.00  0.00    -0.544 OA
ENDBRANCH   3   8
ENDBRANCH   1   3
BRANCH   1  11
ATOM     11  C   UNL     1     -21.861  13.379  20.927  1.00  0.00     0.006 C 
ATOM     12  C   UNL     1     -21.139  14.671  20.540  1.00  0.00     0.004 C 
ENDBRANCH   1  11
TORSDOF 4
ENDMDL
MODEL 6
REMARK VINA RESULT:    -3.784     15.268     16.027
REMARK INTER + INTRA:          -4.636
REMARK INTER:                  -4.557
REMARK INTRA:                  -0.079
REMARK UNBOUND:                -0.078
REMARK SMILES CC[C@@H](C)[C@@H]([NH3+])C(=O)[O-]
REMARK SMILES IDX 3 1 4 2 5 3 6 4 7 8 8 9 9 10 2 11 1 12
REMARK H PARENT 6 5 6 6 6 7
REMARK Flexibility Score: inf
ROOT
ATOM      1  C   UNL     1     -21.777  11.019  22.176  1.00  0.00     0.050 C 
ATOM      2  C   UNL     1     -22.514   9.778  21.639  1.00  0.00     0.014 C 
ENDROOT
BRANCH   1   3
ATOM      3  C   UNL     1     -20.343  11.182  21.573  1.00  0.00     0.230 C 
BRANCH   3   4
ATOM      4  N   UNL     1     -19.306  10.662  22.477  1.00  0.00    -0.350 N 
ATOM      5  H   UNL     1     -18.436  10.444  21.939  1.00  0.00     0.345 HD
ATOM      6  H   UNL     1     -19.642   9.775  22.920  1.00  0.00     0.345 HD
ATOM      7  H   UNL     1     -19.080  11.343  23.236  1.00  0.00     0.345 HD
ENDBRANCH   3   4
BRANCH   3   8
ATOM      8  C   UNL     1     -20.212  10.568  20.199  1.00  0.00     0.099 C 
ATOM      9  O   UNL     1     -20.628  11.178  19.178  1.00  0.00    -0.544 OA
ATOM     10  O   UNL     1     -19.602   9.329  20.052  1.00  0.00    -0.544 OA
ENDBRANCH   3   8
ENDBRANCH   1   3
BRANCH   1  11
ATOM     11  C   UNL     1     -22.665  12.273  21.972  1.00  0.00     0.006 C 
ATOM     12  C   UNL     1     -21.879  13.505  21.518  1.00  0.00     0.004 C 
ENDBRANCH   1  11
TORSDOF 4
ENDMDL
MODEL 7
REMARK VINA RESULT:    -3.743     14.469     15.335
REMARK INTER + INTRA:          -4.586
REMARK INTER:                  -4.489
REMARK INTRA:                  -0.097
REMARK UNBOUND:                -0.078
REMARK SMILES CC[C@@H](C)[C@@H]([NH3+])C(=O)[O-]
REMARK SMILES IDX 3 1 4 2 5 3 6 4 7 8 8 9 9 10 2 11 1 12
REMARK H PARENT 6 5 6 6 6 7
REMARK Flexibility Score: inf
ROOT
ATOM      1  C   UNL     1     -20.682  11.096  20.641  1.00  0.00     0.050 C 
ATOM      2  C   UNL     1     -20.051  10.749  22.002  1.00  0.00     0.014 C 
ENDROOT
BRANCH   1   3
ATOM      3  C   UNL     1     -21.061   9.829  19.807  1.00  0.00     0.230 C 
BRANCH   3   4
ATOM      4  N   UNL     1     -22.518   9.649  19.712  1.00  0.00    -0.350 N 
ATOM      5  H   UNL     1     -22.848   9.894  18.750  1.00  0.00     0.345 HD
ATOM      6  H   UNL     1     -22.992  10.290  20.390  1.00  0.00     0.345 HD
ATOM      7  H   UNL     1     -22.800   8.668  19.934  1.00  0.00     0.345 HD
ENDBRANCH   3   4
BRANCH   3   8
ATOM      8  C   UNL     1     -20.430   9.821  18.434  1.00  0.00     0.099 C 
ATOM      9  O   UNL     1     -19.319  10.380  18.232  1.00  0.00    -0.544 OA
ATOM     10  O   UNL     1     -21.065   9.168  17.386  1.00  0.00    -0.544 OA
ENDBRANCH   3   8
ENDBRANCH   1   3
BRANCH   1  11
ATOM     11  C   UNL     1     -21.878  12.057  20.858  1.00  0.00     0.006 C 
ATOM     12  C   UNL     1     -22.161  12.353  22.332  1.00  0.00     0.004 C 
ENDBRANCH   1  11
TORSDOF 4
ENDMDL
MODEL 8
REMARK VINA RESULT:    -3.699     15.852     16.277
REMARK INTER + INTRA:          -4.533
REMARK INTER:                  -4.407
REMARK INTRA:                  -0.126
REMARK UNBOUND:                -0.078
REMARK SMILES CC[C@@H](C)[C@@H]([NH3+])C(=O)[O-]
REMARK SMILES IDX 3 1 4 2 5 3 6 4 7 8 8 9 9 10 2 11 1 12
REMARK H PARENT 6 5 6 6 6 7
REMARK Flexibility Score: inf
ROOT
ATOM      1  C   UNL     1     -21.762  10.982  22.448  1.00  0.00     0.050 C 
ATOM      2  C   UNL     1     -22.230  12.277  23.137  1.00  0.00     0.014 C 
ENDROOT
BRANCH   1   3
ATOM      3  C   UNL     1     -20.380  11.139  21.734  1.00  0.00     0.230 C 
BRANCH   3   4
ATOM      4  N   UNL     1     -19.277  10.612  22.551  1.00  0.00    -0.350 N 
ATOM      5  H   UNL     1     -19.473  10.773  23.566  1.00  0.00     0.345 HD
ATOM      6  H   UNL     1     -18.392  11.116  22.309  1.00  0.00     0.345 HD
ATOM      7  H   UNL     1     -19.128   9.592  22.386  1.00  0.00     0.345 HD
ENDBRANCH   3   4
BRANCH   3   8
ATOM      8  C   UNL     1     -20.362  10.527  20.352  1.00  0.00     0.099 C 
ATOM      9  O   UNL     1     -19.654   9.515  20.104  1.00  0.00    -0.544 OA
ATOM     10  O   UNL     1     -21.154  11.068  19.348  1.00  0.00    -0.544 OA
ENDBRANCH   3   8
ENDBRANCH   1   3
BRANCH   1  11
ATOM     11  C   UNL     1     -21.786   9.818  23.471  1.00  0.00     0.006 C 
ATOM     12  C   UNL     1     -22.164   8.472  22.850  1.00  0.00     0.004 C 
ENDBRANCH   1  11
TORSDOF 4
ENDMDL
