MODEL 1
REMARK VINA RESULT:    85.550      0.000      0.000
REMARK INTER + INTRA:          90.552
REMARK INTER:                  90.552
REMARK INTRA:                   0.000
REMARK UNBOUND:                 0.000
REMARK SMILES CC1(C)[C@H]2CC[C@@]3(C)[C@H](C=CC4=C(O)C(=O)C(=O)[C@]43C)[C@]2(C)CC[C@@H]1O
REMARK SMILES IDX 1 1 2 2 4 3 5 4 6 5 7 6 9 7 21 8 23 9 24 10 25 11 22 12
REMARK SMILES IDX 10 13 11 14 12 15 13 16 15 17 16 18 17 19 18 20 19 21 20 22
REMARK SMILES IDX 8 23 3 24 26 25 14 27
REMARK H PARENT 26 26 14 28
REMARK Flexibility Score: inf
ROOT
ATOM      1  C   UNL     1      18.901  13.786  24.644  1.00  0.00     0.014 C 
ATOM      2  C   UNL     1      18.052  12.664  23.983  1.00  0.00    -0.006 C 
ATOM      3  C   UNL     1      17.864  12.965  22.435  1.00  0.00     0.004 C 
ATOM      4  C   UNL     1      19.194  13.060  21.650  1.00  0.00     0.005 C 
ATOM      5  C   UNL     1      18.982  13.662  20.260  1.00  0.00     0.009 C 
ATOM      6  C   UNL     1      17.938  12.909  19.371  1.00  0.00    -0.009 C 
ATOM      7  C   UNL     1      16.583  12.667  20.201  1.00  0.00     0.025 C 
ATOM      8  C   UNL     1      16.805  12.076  21.680  1.00  0.00    -0.022 C 
ATOM      9  C   UNL     1      15.477  12.102  22.516  1.00  0.00     0.010 C 
ATOM     10  C   UNL     1      15.654  11.718  23.994  1.00  0.00     0.033 C 
ATOM     11  C   UNL     1      16.660  12.641  24.695  1.00  0.00     0.120 C 
ATOM     12  C   UNL     1      17.231  10.570  21.553  1.00  0.00     0.012 C 
ATOM     13  C   UNL     1      15.635  13.884  20.176  1.00  0.00    -0.022 C 
ATOM     14  C   UNL     1      15.815  14.977  19.433  1.00  0.00     0.005 C 
ATOM     15  C   UNL     1      16.935  15.046  18.507  1.00  0.00     0.012 C 
ATOM     16  C   UNL     1      17.537  16.164  18.091  1.00  0.00     0.171 C 
ATOM     17  C   UNL     1      18.736  15.817  17.369  1.00  0.00     0.264 C 
ATOM     18  O   UNL     1      19.548  16.624  16.844  1.00  0.00    -0.282 OA
ATOM     19  C   UNL     1      18.846  14.376  17.382  1.00  0.00     0.217 C 
ATOM     20  O   UNL     1      19.771  13.729  16.823  1.00  0.00    -0.289 OA
ATOM     21  C   UNL     1      17.638  13.785  18.078  1.00  0.00     0.069 C 
ATOM     22  C   UNL     1      16.764  13.064  17.024  1.00  0.00     0.026 C 
ATOM     23  C   UNL     1      18.559  11.559  18.902  1.00  0.00     0.013 C 
ATOM     24  C   UNL     1      18.799  11.333  24.266  1.00  0.00     0.014 C 
ENDROOT
BRANCH  11  25
ATOM     25  O   UNL     1      16.107  13.938  24.750  1.00  0.00    -0.393 OA
ATOM     26  H   UNL     1      16.689  14.534  24.211  1.00  0.00     0.210 HD
ENDBRANCH  11  25
BRANCH  16  27
ATOM     27  O   UNL     1      17.126  17.470  18.357  1.00  0.00    -0.504 OA
ATOM     28  H   UNL     1      16.152  17.743  18.337  1.00  0.00     0.293 HD
ENDBRANCH  16  27
TORSDOF 2
ENDMDL
MODEL 2
REMARK VINA RESULT:    88.248      1.327      6.339
REMARK INTER + INTRA:          93.407
REMARK INTER:                  93.407
REMARK INTRA:                   0.000
REMARK UNBOUND:                 0.000
REMARK SMILES CC1(C)[C@H]2CC[C@@]3(C)[C@H](C=CC4=C(O)C(=O)C(=O)[C@]43C)[C@]2(C)CC[C@@H]1O
REMARK SMILES IDX 1 1 2 2 4 3 5 4 6 5 7 6 9 7 21 8 23 9 24 10 25 11 22 12
REMARK SMILES IDX 10 13 11 14 12 15 13 16 15 17 16 18 17 19 18 20 19 21 20 22
REMARK SMILES IDX 8 23 3 24 26 25 14 27
REMARK H PARENT 26 26 14 28
REMARK Flexibility Score: inf
ROOT
ATOM      1  C   UNL     1      16.275  14.846  17.801  1.00  0.00     0.014 C 
ATOM      2  C   UNL     1      17.248  13.654  18.022  1.00  0.00    -0.006 C 
ATOM      3  C   UNL     1      17.281  13.258  19.560  1.00  0.00     0.004 C 
ATOM      4  C   UNL     1      15.904  12.841  20.128  1.00  0.00     0.005 C 
ATOM      5  C   UNL     1      15.922  12.784  21.656  1.00  0.00     0.009 C 
ATOM      6  C   UNL     1      17.012  11.843  22.266  1.00  0.00    -0.009 C 
ATOM      7  C   UNL     1      18.442  12.153  21.598  1.00  0.00     0.025 C 
ATOM      8  C   UNL     1      18.418  12.257  19.994  1.00  0.00    -0.022 C 
ATOM      9  C   UNL     1      19.777  12.804  19.432  1.00  0.00     0.010 C 
ATOM     10  C   UNL     1      19.763  13.097  17.922  1.00  0.00     0.033 C 
ATOM     11  C   UNL     1      18.671  14.111  17.558  1.00  0.00     0.120 C 
ATOM     12  C   UNL     1      18.234  10.812  19.406  1.00  0.00     0.012 C 
ATOM     13  C   UNL     1      19.175  13.334  22.266  1.00  0.00    -0.022 C 
ATOM     14  C   UNL     1      18.771  13.956  23.375  1.00  0.00     0.005 C 
ATOM     15  C   UNL     1      17.596  13.477  24.085  1.00  0.00     0.012 C 
ATOM     16  C   UNL     1      16.794  14.217  24.857  1.00  0.00     0.171 C 
ATOM     17  C   UNL     1      15.621  13.449  25.196  1.00  0.00     0.264 C 
ATOM     18  O   UNL     1      14.656  13.840  25.905  1.00  0.00    -0.282 OA
ATOM     19  C   UNL     1      15.747  12.160  24.553  1.00  0.00     0.217 C 
ATOM     20  O   UNL     1      14.904  11.231  24.654  1.00  0.00    -0.289 OA
ATOM     21  C   UNL     1      17.079  12.084  23.836  1.00  0.00     0.069 C 
ATOM     22  C   UNL     1      17.986  11.077  24.585  1.00  0.00     0.026 C 
ATOM     23  C   UNL     1      16.589  10.363  22.026  1.00  0.00     0.013 C 
ATOM     24  C   UNL     1      16.748  12.509  17.102  1.00  0.00     0.014 C 
ENDROOT
BRANCH  11  25
ATOM     25  O   UNL     1      19.008  15.352  18.137  1.00  0.00    -0.393 OA
ATOM     26  H   UNL     1      19.717  15.763  17.576  1.00  0.00     0.210 HD
ENDBRANCH  11  25
BRANCH  16  27
ATOM     27  O   UNL     1      17.004  15.543  25.232  1.00  0.00    -0.504 OA
ATOM     28  H   UNL     1      16.289  16.251  25.130  1.00  0.00     0.293 HD
ENDBRANCH  16  27
TORSDOF 2
ENDMDL
