MODEL 1
REMARK VINA RESULT:    -5.787      0.000      0.000
REMARK INTER + INTRA:          -8.920
REMARK INTER:                  -8.155
REMARK INTRA:                  -0.765
REMARK UNBOUND:                -0.765
REMARK SMILES COc1ccc(-c2cc(=O)c3c(OC)c(OC)c(OC)c(OC)c3o2)cc1OC
REMARK SMILES IDX 7 1 8 2 9 3 10 4 11 5 24 6 25 7 21 8 18 9 15 10 12 11 6 12
REMARK SMILES IDX 3 13 27 14 4 15 26 16 5 17 2 18 1 19 28 20 29 21 22 22 23 23
REMARK SMILES IDX 13 24 14 25 19 26 20 27 16 28 17 29
REMARK H PARENT
REMARK Flexibility Score: inf
ROOT
ATOM      1  C   UNL     1      -2.904  -0.440  20.901  1.00  0.00     0.138 A 
ATOM      2  C   UNL     1      -1.647  -0.597  20.311  1.00  0.00     0.100 A 
ATOM      3  C   UNL     1      -0.619  -1.185  21.042  1.00  0.00     0.197 A 
ATOM      4  O   UNL     1       0.507  -1.316  20.492  1.00  0.00    -0.289 OA
ATOM      5  C   UNL     1      -0.855  -1.621  22.369  1.00  0.00     0.115 A 
ATOM      6  C   UNL     1      -2.160  -1.451  22.890  1.00  0.00     0.188 A 
ATOM      7  O   UNL     1      -3.102  -0.881  22.139  1.00  0.00    -0.452 OA
ATOM      8  C   UNL     1      -2.462  -1.868  24.205  1.00  0.00     0.209 A 
ATOM      9  C   UNL     1      -1.465  -2.493  24.986  1.00  0.00     0.211 A 
ATOM     10  C   UNL     1      -0.149  -2.647  24.480  1.00  0.00     0.208 A 
ATOM     11  C   UNL     1       0.161  -2.197  23.170  1.00  0.00     0.179 A 
ENDROOT
BRANCH   1  12
ATOM     12  C   UNL     1      -4.025   0.211  20.178  1.00  0.00     0.021 A 
ATOM     13  C   UNL     1      -6.175   1.368  18.759  1.00  0.00     0.160 A 
ATOM     14  C   UNL     1      -6.211   1.312  20.160  1.00  0.00     0.161 A 
ATOM     15  C   UNL     1      -5.060   0.854  18.074  1.00  0.00     0.051 A 
ATOM     16  C   UNL     1      -5.142   0.724  20.863  1.00  0.00     0.062 A 
ATOM     17  C   UNL     1      -3.999   0.285  18.778  1.00  0.00     0.016 A 
BRANCH  13  18
ATOM     18  O   UNL     1      -7.266   1.940  18.085  1.00  0.00    -0.493 OA
ATOM     19  C   UNL     1      -7.368   2.059  16.669  1.00  0.00     0.278 C 
ENDBRANCH  13  18
BRANCH  14  20
ATOM     20  O   UNL     1      -7.330   1.849  20.817  1.00  0.00    -0.493 OA
ATOM     21  C   UNL     1      -7.465   1.949  22.233  1.00  0.00     0.278 C 
ENDBRANCH  14  20
ENDBRANCH   1  12
BRANCH   8  22
ATOM     22  O   UNL     1      -3.718  -1.651  24.804  1.00  0.00    -0.490 OA
ATOM     23  C   UNL     1      -4.187  -0.463  25.430  1.00  0.00     0.278 C 
ENDBRANCH   8  22
BRANCH  11  24
ATOM     24  O   UNL     1       1.457  -2.294  22.617  1.00  0.00    -0.492 OA
ATOM     25  C   UNL     1       2.188  -3.476  22.304  1.00  0.00     0.278 C 
ENDBRANCH  11  24
BRANCH   9  26
ATOM     26  O   UNL     1      -1.748  -2.940  26.288  1.00  0.00    -0.490 OA
ATOM     27  C   UNL     1      -1.563  -2.182  27.484  1.00  0.00     0.279 C 
ENDBRANCH   9  26
BRANCH  10  28
ATOM     28  O   UNL     1       0.880  -3.246  25.234  1.00  0.00    -0.490 OA
ATOM     29  C   UNL     1       1.851  -2.607  26.056  1.00  0.00     0.278 C 
ENDBRANCH  10  28
TORSDOF 7
ENDMDL
MODEL 2
REMARK VINA RESULT:    -5.716      4.535      7.338
REMARK INTER + INTRA:          -8.819
REMARK INTER:                  -8.066
REMARK INTRA:                  -0.753
REMARK UNBOUND:                -0.765
REMARK SMILES COc1ccc(-c2cc(=O)c3c(OC)c(OC)c(OC)c(OC)c3o2)cc1OC
REMARK SMILES IDX 7 1 8 2 9 3 10 4 11 5 24 6 25 7 21 8 18 9 15 10 12 11 6 12
REMARK SMILES IDX 3 13 27 14 4 15 26 16 5 17 2 18 1 19 28 20 29 21 22 22 23 23
REMARK SMILES IDX 13 24 14 25 19 26 20 27 16 28 17 29
REMARK H PARENT
REMARK Flexibility Score: inf
ROOT
ATOM      1  C   UNL     1       1.579  -3.829  24.367  1.00  0.00     0.138 A 
ATOM      2  C   UNL     1       2.535  -3.945  25.380  1.00  0.00     0.100 A 
ATOM      3  C   UNL     1       2.209  -3.547  26.673  1.00  0.00     0.197 A 
ATOM      4  O   UNL     1       3.085  -3.658  27.572  1.00  0.00    -0.289 OA
ATOM      5  C   UNL     1       0.917  -3.035  26.951  1.00  0.00     0.115 A 
ATOM      6  C   UNL     1      -0.005  -2.971  25.878  1.00  0.00     0.188 A 
ATOM      7  O   UNL     1       0.368  -3.368  24.663  1.00  0.00    -0.452 OA
ATOM      8  C   UNL     1      -1.309  -2.474  26.089  1.00  0.00     0.209 A 
ATOM      9  C   UNL     1      -1.705  -2.078  27.386  1.00  0.00     0.211 A 
ATOM     10  C   UNL     1      -0.781  -2.117  28.462  1.00  0.00     0.208 A 
ATOM     11  C   UNL     1       0.540  -2.585  28.240  1.00  0.00     0.179 A 
ENDROOT
BRANCH   1  12
ATOM     12  C   UNL     1       1.886  -4.208  22.964  1.00  0.00     0.021 A 
ATOM     13  C   UNL     1       2.419  -5.005  20.308  1.00  0.00     0.160 A 
ATOM     14  C   UNL     1       1.722  -3.814  20.554  1.00  0.00     0.161 A 
ATOM     15  C   UNL     1       2.855  -5.789  21.391  1.00  0.00     0.051 A 
ATOM     16  C   UNL     1       1.448  -3.425  21.880  1.00  0.00     0.062 A 
ATOM     17  C   UNL     1       2.593  -5.391  22.702  1.00  0.00     0.016 A 
BRANCH  13  18
ATOM     18  O   UNL     1       2.657  -5.378  18.976  1.00  0.00    -0.493 OA
ATOM     19  C   UNL     1       2.116  -6.539  18.352  1.00  0.00     0.278 C 
ENDBRANCH  13  18
BRANCH  14  20
ATOM     20  O   UNL     1       1.313  -3.045  19.453  1.00  0.00    -0.493 OA
ATOM     21  C   UNL     1       0.270  -2.074  19.487  1.00  0.00     0.278 C 
ENDBRANCH  14  20
ENDBRANCH   1  12
BRANCH   8  22
ATOM     22  O   UNL     1      -2.241  -2.312  25.046  1.00  0.00    -0.490 OA
ATOM     23  C   UNL     1      -3.198  -3.257  24.583  1.00  0.00     0.278 C 
ENDBRANCH   8  22
BRANCH  11  24
ATOM     24  O   UNL     1       1.517  -2.624  29.259  1.00  0.00    -0.492 OA
ATOM     25  C   UNL     1       1.560  -3.479  30.398  1.00  0.00     0.278 C 
ENDBRANCH  11  24
BRANCH   9  26
ATOM     26  O   UNL     1      -3.007  -1.605  27.626  1.00  0.00    -0.490 OA
ATOM     27  C   UNL     1      -3.431  -0.247  27.504  1.00  0.00     0.279 C 
ENDBRANCH   9  26
BRANCH  10  28
ATOM     28  O   UNL     1      -1.129  -1.711  29.766  1.00  0.00    -0.490 OA
ATOM     29  C   UNL     1      -0.984  -0.422  30.350  1.00  0.00     0.278 C 
ENDBRANCH  10  28
TORSDOF 7
ENDMDL
MODEL 3
REMARK VINA RESULT:    -5.548      1.083      1.198
REMARK INTER + INTRA:          -8.584
REMARK INTER:                  -7.815
REMARK INTRA:                  -0.769
REMARK UNBOUND:                -0.765
REMARK SMILES COc1ccc(-c2cc(=O)c3c(OC)c(OC)c(OC)c(OC)c3o2)cc1OC
REMARK SMILES IDX 7 1 8 2 9 3 10 4 11 5 24 6 25 7 21 8 18 9 15 10 12 11 6 12
REMARK SMILES IDX 3 13 27 14 4 15 26 16 5 17 2 18 1 19 28 20 29 21 22 22 23 23
REMARK SMILES IDX 13 24 14 25 19 26 20 27 16 28 17 29
REMARK H PARENT
REMARK Flexibility Score: inf
ROOT
ATOM      1  C   UNL     1      -2.053  -0.928  21.523  1.00  0.00     0.138 A 
ATOM      2  C   UNL     1      -0.868  -1.293  20.878  1.00  0.00     0.100 A 
ATOM      3  C   UNL     1       0.121  -1.961  21.595  1.00  0.00     0.197 A 
ATOM      4  O   UNL     1       1.182  -2.280  20.995  1.00  0.00    -0.289 OA
ATOM      5  C   UNL     1      -0.083  -2.266  22.963  1.00  0.00     0.115 A 
ATOM      6  C   UNL     1      -1.319  -1.887  23.541  1.00  0.00     0.188 A 
ATOM      7  O   UNL     1      -2.225  -1.250  22.801  1.00  0.00    -0.452 OA
ATOM      8  C   UNL     1      -1.585  -2.165  24.899  1.00  0.00     0.209 A 
ATOM      9  C   UNL     1      -0.629  -2.862  25.670  1.00  0.00     0.211 A 
ATOM     10  C   UNL     1       0.620  -3.227  25.106  1.00  0.00     0.208 A 
ATOM     11  C   UNL     1       0.900  -2.915  23.750  1.00  0.00     0.179 A 
ENDROOT
BRANCH   1  12
ATOM     12  C   UNL     1      -3.125  -0.184  20.813  1.00  0.00     0.021 A 
ATOM     13  C   UNL     1      -5.185   1.150  19.418  1.00  0.00     0.160 A 
ATOM     14  C   UNL     1      -5.249   1.032  20.813  1.00  0.00     0.161 A 
ATOM     15  C   UNL     1      -4.087   0.609  18.726  1.00  0.00     0.051 A 
ATOM     16  C   UNL     1      -4.225   0.355  21.505  1.00  0.00     0.062 A 
ATOM     17  C   UNL     1      -3.070  -0.047  19.419  1.00  0.00     0.016 A 
BRANCH  13  18
ATOM     18  O   UNL     1      -6.232   1.810  18.754  1.00  0.00    -0.493 OA
ATOM     19  C   UNL     1      -6.675   1.501  17.436  1.00  0.00     0.278 C 
ENDBRANCH  13  18
BRANCH  14  20
ATOM     20  O   UNL     1      -6.350   1.596  21.477  1.00  0.00    -0.493 OA
ATOM     21  C   UNL     1      -6.519   1.612  22.893  1.00  0.00     0.278 C 
ENDBRANCH  14  20
ENDBRANCH   1  12
BRANCH   8  22
ATOM     22  O   UNL     1      -2.761  -1.740  25.547  1.00  0.00    -0.490 OA
ATOM     23  C   UNL     1      -3.046  -0.447  26.065  1.00  0.00     0.278 C 
ENDBRANCH   8  22
BRANCH  11  24
ATOM     24  O   UNL     1       2.133  -3.224  23.134  1.00  0.00    -0.492 OA
ATOM     25  C   UNL     1       2.680  -4.513  22.870  1.00  0.00     0.278 C 
ENDBRANCH  11  24
BRANCH   9  26
ATOM     26  O   UNL     1      -0.883  -3.175  27.017  1.00  0.00    -0.490 OA
ATOM     27  C   UNL     1      -0.562  -2.346  28.134  1.00  0.00     0.279 C 
ENDBRANCH   9  26
BRANCH  10  28
ATOM     28  O   UNL     1       1.610  -3.904  25.847  1.00  0.00    -0.490 OA
ATOM     29  C   UNL     1       2.685  -3.342  26.591  1.00  0.00     0.278 C 
ENDBRANCH  10  28
TORSDOF 7
ENDMDL
MODEL 4
REMARK VINA RESULT:    -5.515      1.208      3.536
REMARK INTER + INTRA:          -8.536
REMARK INTER:                  -7.941
REMARK INTRA:                  -0.596
REMARK UNBOUND:                -0.765
REMARK SMILES COc1ccc(-c2cc(=O)c3c(OC)c(OC)c(OC)c(OC)c3o2)cc1OC
REMARK SMILES IDX 7 1 8 2 9 3 10 4 11 5 24 6 25 7 21 8 18 9 15 10 12 11 6 12
REMARK SMILES IDX 3 13 27 14 4 15 26 16 5 17 2 18 1 19 28 20 29 21 22 22 23 23
REMARK SMILES IDX 13 24 14 25 19 26 20 27 16 28 17 29
REMARK H PARENT
REMARK Flexibility Score: inf
ROOT
ATOM      1  C   UNL     1      -2.827  -0.915  22.294  1.00  0.00     0.138 A 
ATOM      2  C   UNL     1      -3.465  -1.180  23.509  1.00  0.00     0.100 A 
ATOM      3  C   UNL     1      -2.762  -1.828  24.521  1.00  0.00     0.197 A 
ATOM      4  O   UNL     1      -3.356  -2.058  25.608  1.00  0.00    -0.289 OA
ATOM      5  C   UNL     1      -1.413  -2.207  24.314  1.00  0.00     0.115 A 
ATOM      6  C   UNL     1      -0.827  -1.882  23.067  1.00  0.00     0.188 A 
ATOM      7  O   UNL     1      -1.553  -1.261  22.138  1.00  0.00    -0.452 OA
ATOM      8  C   UNL     1       0.515  -2.229  22.798  1.00  0.00     0.209 A 
ATOM      9  C   UNL     1       1.285  -2.866  23.797  1.00  0.00     0.211 A 
ATOM     10  C   UNL     1       0.700  -3.215  25.041  1.00  0.00     0.208 A 
ATOM     11  C   UNL     1      -0.659  -2.895  25.295  1.00  0.00     0.179 A 
ENDROOT
BRANCH   1  12
ATOM     12  C   UNL     1      -3.540  -0.258  21.170  1.00  0.00     0.021 A 
ATOM     13  C   UNL     1      -4.909   0.907  18.992  1.00  0.00     0.160 A 
ATOM     14  C   UNL     1      -5.434   1.017  20.287  1.00  0.00     0.161 A 
ATOM     15  C   UNL     1      -3.696   0.223  18.791  1.00  0.00     0.051 A 
ATOM     16  C   UNL     1      -4.754   0.424  21.369  1.00  0.00     0.062 A 
ATOM     17  C   UNL     1      -3.021  -0.349  19.870  1.00  0.00     0.016 A 
BRANCH  13  18
ATOM     18  O   UNL     1      -5.620   1.488  17.930  1.00  0.00    -0.493 OA
ATOM     19  C   UNL     1      -5.797   0.887  16.651  1.00  0.00     0.278 C 
ENDBRANCH  13  18
BRANCH  14  20
ATOM     20  O   UNL     1      -6.638   1.719  20.457  1.00  0.00    -0.493 OA
ATOM     21  C   UNL     1      -7.303   1.892  21.707  1.00  0.00     0.278 C 
ENDBRANCH  14  20
ENDBRANCH   1  12
BRANCH   8  22
ATOM     22  O   UNL     1       1.125  -2.005  21.549  1.00  0.00    -0.490 OA
ATOM     23  C   UNL     1       1.243  -2.919  20.466  1.00  0.00     0.278 C 
ENDBRANCH   8  22
BRANCH  11  24
ATOM     24  O   UNL     1      -1.311  -3.238  26.501  1.00  0.00    -0.492 OA
ATOM     25  C   UNL     1      -1.087  -2.699  27.800  1.00  0.00     0.278 C 
ENDBRANCH  11  24
BRANCH   9  26
ATOM     26  O   UNL     1       2.631  -3.197  23.563  1.00  0.00    -0.490 OA
ATOM     27  C   UNL     1       3.125  -4.506  23.279  1.00  0.00     0.279 C 
ENDBRANCH   9  26
BRANCH  10  28
ATOM     28  O   UNL     1       1.427  -3.869  26.055  1.00  0.00    -0.490 OA
ATOM     29  C   UNL     1       2.402  -3.314  26.932  1.00  0.00     0.278 C 
ENDBRANCH  10  28
TORSDOF 7
ENDMDL
MODEL 5
REMARK VINA RESULT:    -5.484      3.368      7.055
REMARK INTER + INTRA:          -8.493
REMARK INTER:                  -7.666
REMARK INTRA:                  -0.827
REMARK UNBOUND:                -0.765
REMARK SMILES COc1ccc(-c2cc(=O)c3c(OC)c(OC)c(OC)c(OC)c3o2)cc1OC
REMARK SMILES IDX 7 1 8 2 9 3 10 4 11 5 24 6 25 7 21 8 18 9 15 10 12 11 6 12
REMARK SMILES IDX 3 13 27 14 4 15 26 16 5 17 2 18 1 19 28 20 29 21 22 22 23 23
REMARK SMILES IDX 13 24 14 25 19 26 20 27 16 28 17 29
REMARK H PARENT
REMARK Flexibility Score: inf
ROOT
ATOM      1  C   UNL     1       1.113  -2.584  23.337  1.00  0.00     0.138 A 
ATOM      2  C   UNL     1       1.991  -2.174  24.345  1.00  0.00     0.100 A 
ATOM      3  C   UNL     1       1.512  -1.386  25.387  1.00  0.00     0.197 A 
ATOM      4  O   UNL     1       2.320  -1.026  26.285  1.00  0.00    -0.289 OA
ATOM      5  C   UNL     1       0.145  -1.013  25.421  1.00  0.00     0.115 A 
ATOM      6  C   UNL     1      -0.688  -1.488  24.379  1.00  0.00     0.188 A 
ATOM      7  O   UNL     1      -0.168  -2.239  23.409  1.00  0.00    -0.452 OA
ATOM      8  C   UNL     1      -2.060  -1.155  24.356  1.00  0.00     0.209 A 
ATOM      9  C   UNL     1      -2.608  -0.378  25.402  1.00  0.00     0.211 A 
ATOM     10  C   UNL     1      -1.777   0.119  26.438  1.00  0.00     0.208 A 
ATOM     11  C   UNL     1      -0.391  -0.189  26.440  1.00  0.00     0.179 A 
ENDROOT
BRANCH   1  12
ATOM     12  C   UNL     1       1.580  -3.396  22.185  1.00  0.00     0.021 A 
ATOM     13  C   UNL     1       2.407  -5.008  20.018  1.00  0.00     0.160 A 
ATOM     14  C   UNL     1       1.815  -3.760  19.776  1.00  0.00     0.161 A 
ATOM     15  C   UNL     1       2.591  -5.441  21.344  1.00  0.00     0.051 A 
ATOM     16  C   UNL     1       1.394  -2.964  20.859  1.00  0.00     0.062 A 
ATOM     17  C   UNL     1       2.184  -4.641  22.412  1.00  0.00     0.016 A 
BRANCH  13  18
ATOM     18  O   UNL     1       2.796  -5.788  18.919  1.00  0.00    -0.493 OA
ATOM     19  C   UNL     1       2.002  -6.817  18.337  1.00  0.00     0.278 C 
ENDBRANCH  13  18
BRANCH  14  20
ATOM     20  O   UNL     1       1.660  -3.347  18.443  1.00  0.00    -0.493 OA
ATOM     21  C   UNL     1       0.403  -3.154  17.798  1.00  0.00     0.278 C 
ENDBRANCH  14  20
ENDBRANCH   1  12
BRANCH   8  22
ATOM     22  O   UNL     1      -2.917  -1.530  23.304  1.00  0.00    -0.490 OA
ATOM     23  C   UNL     1      -3.168  -0.822  22.096  1.00  0.00     0.278 C 
ENDBRANCH   8  22
BRANCH  11  24
ATOM     24  O   UNL     1       0.497   0.298  27.425  1.00  0.00    -0.492 OA
ATOM     25  C   UNL     1       0.905   1.645  27.646  1.00  0.00     0.278 C 
ENDBRANCH  11  24
BRANCH   9  26
ATOM     26  O   UNL     1      -3.976  -0.056  25.415  1.00  0.00    -0.490 OA
ATOM     27  C   UNL     1      -4.548   1.150  24.910  1.00  0.00     0.279 C 
ENDBRANCH   9  26
BRANCH  10  28
ATOM     28  O   UNL     1      -2.279   0.914  27.487  1.00  0.00    -0.490 OA
ATOM     29  C   UNL     1      -2.799   0.485  28.740  1.00  0.00     0.278 C 
ENDBRANCH  10  28
TORSDOF 7
ENDMDL
MODEL 6
REMARK VINA RESULT:    -5.359      2.160      8.816
REMARK INTER + INTRA:          -8.317
REMARK INTER:                  -7.616
REMARK INTRA:                  -0.701
REMARK UNBOUND:                -0.765
REMARK SMILES COc1ccc(-c2cc(=O)c3c(OC)c(OC)c(OC)c(OC)c3o2)cc1OC
REMARK SMILES IDX 7 1 8 2 9 3 10 4 11 5 24 6 25 7 21 8 18 9 15 10 12 11 6 12
REMARK SMILES IDX 3 13 27 14 4 15 26 16 5 17 2 18 1 19 28 20 29 21 22 22 23 23
REMARK SMILES IDX 13 24 14 25 19 26 20 27 16 28 17 29
REMARK H PARENT
REMARK Flexibility Score: inf
ROOT
ATOM      1  C   UNL     1      -1.253  -2.250  25.528  1.00  0.00     0.138 A 
ATOM      2  C   UNL     1      -2.626  -2.008  25.623  1.00  0.00     0.100 A 
ATOM      3  C   UNL     1      -3.310  -1.516  24.515  1.00  0.00     0.197 A 
ATOM      4  O   UNL     1      -4.547  -1.303  24.622  1.00  0.00    -0.289 OA
ATOM      5  C   UNL     1      -2.613  -1.270  23.306  1.00  0.00     0.115 A 
ATOM      6  C   UNL     1      -1.228  -1.564  23.279  1.00  0.00     0.188 A 
ATOM      7  O   UNL     1      -0.631  -2.033  24.373  1.00  0.00    -0.452 OA
ATOM      8  C   UNL     1      -0.476  -1.344  22.104  1.00  0.00     0.209 A 
ATOM      9  C   UNL     1      -1.121  -0.869  20.940  1.00  0.00     0.211 A 
ATOM     10  C   UNL     1      -2.504  -0.552  20.965  1.00  0.00     0.208 A 
ATOM     11  C   UNL     1      -3.250  -0.741  22.157  1.00  0.00     0.179 A 
ENDROOT
BRANCH   1  12
ATOM     12  C   UNL     1      -0.469  -2.743  26.690  1.00  0.00     0.021 A 
ATOM     13  C   UNL     1       1.082  -3.609  28.884  1.00  0.00     0.160 A 
ATOM     14  C   UNL     1      -0.243  -3.196  29.084  1.00  0.00     0.161 A 
ATOM     15  C   UNL     1       1.623  -3.596  27.586  1.00  0.00     0.051 A 
ATOM     16  C   UNL     1      -1.010  -2.754  27.988  1.00  0.00     0.062 A 
ATOM     17  C   UNL     1       0.854  -3.170  26.504  1.00  0.00     0.016 A 
BRANCH  13  18
ATOM     18  O   UNL     1       1.828  -4.023  29.999  1.00  0.00    -0.493 OA
ATOM     19  C   UNL     1       3.125  -4.608  29.931  1.00  0.00     0.278 C 
ENDBRANCH  13  18
BRANCH  14  20
ATOM     20  O   UNL     1      -0.761  -3.236  30.388  1.00  0.00    -0.493 OA
ATOM     21  C   UNL     1      -1.362  -2.127  31.053  1.00  0.00     0.278 C 
ENDBRANCH  14  20
ENDBRANCH   1  12
BRANCH   8  22
ATOM     22  O   UNL     1       0.917  -1.541  22.042  1.00  0.00    -0.490 OA
ATOM     23  C   UNL     1       1.611  -2.761  21.813  1.00  0.00     0.278 C 
ENDBRANCH   8  22
BRANCH  11  24
ATOM     24  O   UNL     1      -4.621  -0.419  22.258  1.00  0.00    -0.492 OA
ATOM     25  C   UNL     1      -5.717  -1.040  21.593  1.00  0.00     0.278 C 
ENDBRANCH  11  24
BRANCH   9  26
ATOM     26  O   UNL     1      -0.400  -0.669  19.751  1.00  0.00    -0.490 OA
ATOM     27  C   UNL     1       0.308   0.521  19.401  1.00  0.00     0.279 C 
ENDBRANCH   9  26
BRANCH  10  28
ATOM     28  O   UNL     1      -3.180  -0.056  19.832  1.00  0.00    -0.490 OA
ATOM     29  C   UNL     1      -3.466   1.300  19.507  1.00  0.00     0.278 C 
ENDBRANCH  10  28
TORSDOF 7
ENDMDL
MODEL 7
REMARK VINA RESULT:    -5.134      2.318      8.461
REMARK INTER + INTRA:          -7.999
REMARK INTER:                  -7.335
REMARK INTRA:                  -0.664
REMARK UNBOUND:                -0.765
REMARK SMILES COc1ccc(-c2cc(=O)c3c(OC)c(OC)c(OC)c(OC)c3o2)cc1OC
REMARK SMILES IDX 7 1 8 2 9 3 10 4 11 5 24 6 25 7 21 8 18 9 15 10 12 11 6 12
REMARK SMILES IDX 3 13 27 14 4 15 26 16 5 17 2 18 1 19 28 20 29 21 22 22 23 23
REMARK SMILES IDX 13 24 14 25 19 26 20 27 16 28 17 29
REMARK H PARENT
REMARK Flexibility Score: inf
ROOT
ATOM      1  C   UNL     1       0.449  -2.511  25.315  1.00  0.00     0.138 A 
ATOM      2  C   UNL     1       1.396  -2.492  24.287  1.00  0.00     0.100 A 
ATOM      3  C   UNL     1       1.013  -2.073  23.016  1.00  0.00     0.197 A 
ATOM      4  O   UNL     1       1.882  -2.065  22.103  1.00  0.00    -0.289 OA
ATOM      5  C   UNL     1      -0.323  -1.667  22.777  1.00  0.00     0.115 A 
ATOM      6  C   UNL     1      -1.218  -1.689  23.874  1.00  0.00     0.188 A 
ATOM      7  O   UNL     1      -0.791  -2.101  25.067  1.00  0.00    -0.452 OA
ATOM      8  C   UNL     1      -2.563  -1.294  23.703  1.00  0.00     0.209 A 
ATOM      9  C   UNL     1      -3.002  -0.836  22.442  1.00  0.00     0.211 A 
ATOM     10  C   UNL     1      -2.118  -0.831  21.332  1.00  0.00     0.208 A 
ATOM     11  C   UNL     1      -0.776  -1.261  21.498  1.00  0.00     0.179 A 
ENDROOT
BRANCH   1  12
ATOM     12  C   UNL     1       0.795  -2.981  26.680  1.00  0.00     0.021 A 
ATOM     13  C   UNL     1       1.521  -3.810  29.280  1.00  0.00     0.160 A 
ATOM     14  C   UNL     1       0.230  -3.318  29.038  1.00  0.00     0.161 A 
ATOM     15  C   UNL     1       2.441  -3.894  28.220  1.00  0.00     0.051 A 
ATOM     16  C   UNL     1      -0.124  -2.895  27.742  1.00  0.00     0.062 A 
ATOM     17  C   UNL     1       2.078  -3.486  26.936  1.00  0.00     0.016 A 
BRANCH  13  18
ATOM     18  O   UNL     1       1.852  -4.203  30.587  1.00  0.00    -0.493 OA
ATOM     19  C   UNL     1       3.125  -4.705  30.981  1.00  0.00     0.278 C 
ENDBRANCH  13  18
BRANCH  14  20
ATOM     20  O   UNL     1      -0.671  -3.261  30.113  1.00  0.00    -0.493 OA
ATOM     21  C   UNL     1      -1.022  -2.068  30.811  1.00  0.00     0.278 C 
ENDBRANCH  14  20
ENDBRANCH   1  12
BRANCH   8  22
ATOM     22  O   UNL     1      -3.517  -1.373  24.737  1.00  0.00    -0.490 OA
ATOM     23  C   UNL     1      -3.858  -0.365  25.680  1.00  0.00     0.278 C 
ENDBRANCH   8  22
BRANCH  11  24
ATOM     24  O   UNL     1       0.148  -1.308  20.431  1.00  0.00    -0.492 OA
ATOM     25  C   UNL     1       0.103  -2.135  19.271  1.00  0.00     0.278 C 
ENDBRANCH  11  24
BRANCH   9  26
ATOM     26  O   UNL     1      -4.329  -0.412  22.254  1.00  0.00    -0.490 OA
ATOM     27  C   UNL     1      -5.403  -1.230  21.789  1.00  0.00     0.279 C 
ENDBRANCH   9  26
BRANCH  10  28
ATOM     28  O   UNL     1      -2.522  -0.402  20.052  1.00  0.00    -0.490 OA
ATOM     29  C   UNL     1      -2.924   0.904  19.652  1.00  0.00     0.278 C 
ENDBRANCH  10  28
TORSDOF 7
ENDMDL
MODEL 8
REMARK VINA RESULT:    -5.050      3.007      5.867
REMARK INTER + INTRA:          -7.882
REMARK INTER:                  -7.128
REMARK INTRA:                  -0.754
REMARK UNBOUND:                -0.765
REMARK SMILES COc1ccc(-c2cc(=O)c3c(OC)c(OC)c(OC)c(OC)c3o2)cc1OC
REMARK SMILES IDX 7 1 8 2 9 3 10 4 11 5 24 6 25 7 21 8 18 9 15 10 12 11 6 12
REMARK SMILES IDX 3 13 27 14 4 15 26 16 5 17 2 18 1 19 28 20 29 21 22 22 23 23
REMARK SMILES IDX 13 24 14 25 19 26 20 27 16 28 17 29
REMARK H PARENT
REMARK Flexibility Score: inf
ROOT
ATOM      1  C   UNL     1      -0.043  -1.835  23.957  1.00  0.00     0.138 A 
ATOM      2  C   UNL     1       1.016  -1.772  24.868  1.00  0.00     0.100 A 
ATOM      3  C   UNL     1       0.741  -1.605  26.222  1.00  0.00     0.197 A 
ATOM      4  O   UNL     1       1.710  -1.549  27.026  1.00  0.00    -0.289 OA
ATOM      5  C   UNL     1      -0.601  -1.504  26.664  1.00  0.00     0.115 A 
ATOM      6  C   UNL     1      -1.620  -1.602  25.686  1.00  0.00     0.188 A 
ATOM      7  O   UNL     1      -1.293  -1.762  24.405  1.00  0.00    -0.452 OA
ATOM      8  C   UNL     1      -2.979  -1.513  26.062  1.00  0.00     0.209 A 
ATOM      9  C   UNL     1      -3.318  -1.367  27.425  1.00  0.00     0.211 A 
ATOM     10  C   UNL     1      -2.304  -1.246  28.409  1.00  0.00     0.208 A 
ATOM     11  C   UNL     1      -0.938  -1.302  28.024  1.00  0.00     0.179 A 
ENDROOT
BRANCH   1  12
ATOM     12  C   UNL     1       0.195  -1.979  22.499  1.00  0.00     0.021 A 
ATOM     13  C   UNL     1       0.632  -2.344  19.733  1.00  0.00     0.160 A 
ATOM     14  C   UNL     1      -0.417  -1.525  20.173  1.00  0.00     0.161 A 
ATOM     15  C   UNL     1       1.464  -2.971  20.678  1.00  0.00     0.051 A 
ATOM     16  C   UNL     1      -0.639  -1.354  21.554  1.00  0.00     0.062 A 
ATOM     17  C   UNL     1       1.248  -2.786  22.043  1.00  0.00     0.016 A 
BRANCH  13  18
ATOM     18  O   UNL     1       0.814  -2.513  18.351  1.00  0.00    -0.493 OA
ATOM     19  C   UNL     1       1.638  -3.514  17.761  1.00  0.00     0.278 C 
ENDBRANCH  13  18
BRANCH  14  20
ATOM     20  O   UNL     1      -1.221  -0.900  19.206  1.00  0.00    -0.493 OA
ATOM     21  C   UNL     1      -2.402  -0.154  19.496  1.00  0.00     0.278 C 
ENDBRANCH  14  20
ENDBRANCH   1  12
BRANCH   8  22
ATOM     22  O   UNL     1      -4.030  -1.522  25.125  1.00  0.00    -0.490 OA
ATOM     23  C   UNL     1      -4.531  -0.423  24.374  1.00  0.00     0.278 C 
ENDBRANCH   8  22
BRANCH  11  24
ATOM     24  O   UNL     1       0.120  -1.160  28.948  1.00  0.00    -0.492 OA
ATOM     25  C   UNL     1       0.482  -2.042  30.007  1.00  0.00     0.278 C 
ENDBRANCH  11  24
BRANCH   9  26
ATOM     26  O   UNL     1      -4.664  -1.303  27.827  1.00  0.00    -0.490 OA
ATOM     27  C   UNL     1      -5.432  -0.107  27.964  1.00  0.00     0.279 C 
ENDBRANCH   9  26
BRANCH  10  28
ATOM     28  O   UNL     1      -2.600  -1.078  29.776  1.00  0.00    -0.490 OA
ATOM     29  C   UNL     1      -2.709   0.138  30.507  1.00  0.00     0.278 C 
ENDBRANCH  10  28
TORSDOF 7
ENDMDL
MODEL 9
REMARK VINA RESULT:    -5.014      2.035      4.807
REMARK INTER + INTRA:          -7.831
REMARK INTER:                  -7.095
REMARK INTRA:                  -0.735
REMARK UNBOUND:                -0.765
REMARK SMILES COc1ccc(-c2cc(=O)c3c(OC)c(OC)c(OC)c(OC)c3o2)cc1OC
REMARK SMILES IDX 7 1 8 2 9 3 10 4 11 5 24 6 25 7 21 8 18 9 15 10 12 11 6 12
REMARK SMILES IDX 3 13 27 14 4 15 26 16 5 17 2 18 1 19 28 20 29 21 22 22 23 23
REMARK SMILES IDX 13 24 14 25 19 26 20 27 16 28 17 29
REMARK H PARENT
REMARK Flexibility Score: inf
ROOT
ATOM      1  C   UNL     1      -3.526  -0.989  24.078  1.00  0.00     0.138 A 
ATOM      2  C   UNL     1      -4.261  -0.505  25.164  1.00  0.00     0.100 A 
ATOM      3  C   UNL     1      -3.768  -0.680  26.453  1.00  0.00     0.197 A 
ATOM      4  O   UNL     1      -4.447  -0.237  27.418  1.00  0.00    -0.289 OA
ATOM      5  C   UNL     1      -2.530  -1.339  26.654  1.00  0.00     0.115 A 
ATOM      6  C   UNL     1      -1.830  -1.779  25.504  1.00  0.00     0.188 A 
ATOM      7  O   UNL     1      -2.356  -1.582  24.296  1.00  0.00    -0.452 OA
ATOM      8  C   UNL     1      -0.590  -2.440  25.635  1.00  0.00     0.209 A 
ATOM      9  C   UNL     1      -0.028  -2.624  26.918  1.00  0.00     0.211 A 
ATOM     10  C   UNL     1      -0.732  -2.206  28.076  1.00  0.00     0.208 A 
ATOM     11  C   UNL     1      -1.995  -1.572  27.944  1.00  0.00     0.179 A 
ENDROOT
BRANCH   1  12
ATOM     12  C   UNL     1      -4.022  -0.860  22.684  1.00  0.00     0.021 A 
ATOM     13  C   UNL     1      -5.010  -0.534  20.059  1.00  0.00     0.160 A 
ATOM     14  C   UNL     1      -3.627  -0.547  20.289  1.00  0.00     0.161 A 
ATOM     15  C   UNL     1      -5.894  -0.693  21.141  1.00  0.00     0.051 A 
ATOM     16  C   UNL     1      -3.138  -0.699  21.602  1.00  0.00     0.062 A 
ATOM     17  C   UNL     1      -5.403  -0.856  22.437  1.00  0.00     0.016 A 
BRANCH  13  18
ATOM     18  O   UNL     1      -5.467  -0.358  18.744  1.00  0.00    -0.493 OA
ATOM     19  C   UNL     1      -5.909   0.881  18.200  1.00  0.00     0.278 C 
ENDBRANCH  13  18
BRANCH  14  20
ATOM     20  O   UNL     1      -2.769  -0.403  19.187  1.00  0.00    -0.493 OA
ATOM     21  C   UNL     1      -1.394  -0.778  19.178  1.00  0.00     0.278 C 
ENDBRANCH  14  20
ENDBRANCH   1  12
BRANCH   8  22
ATOM     22  O   UNL     1       0.111  -2.971  24.535  1.00  0.00    -0.490 OA
ATOM     23  C   UNL     1       0.053  -4.299  24.029  1.00  0.00     0.278 C 
ENDBRANCH   8  22
BRANCH  11  24
ATOM     24  O   UNL     1      -2.761  -1.158  29.056  1.00  0.00    -0.492 OA
ATOM     25  C   UNL     1      -2.443  -0.147  30.009  1.00  0.00     0.278 C 
ENDBRANCH  11  24
BRANCH   9  26
ATOM     26  O   UNL     1       1.219  -3.254  27.072  1.00  0.00    -0.490 OA
ATOM     27  C   UNL     1       2.488  -2.603  27.028  1.00  0.00     0.279 C 
ENDBRANCH   9  26
BRANCH  10  28
ATOM     28  O   UNL     1      -0.216  -2.389  29.375  1.00  0.00    -0.490 OA
ATOM     29  C   UNL     1      -0.352  -3.527  30.219  1.00  0.00     0.278 C 
ENDBRANCH  10  28
TORSDOF 7
ENDMDL
