MODEL 1
REMARK VINA RESULT:    -6.240      0.000      0.000
REMARK INTER + INTRA:          -7.627
REMARK INTER:                  -7.335
REMARK INTRA:                  -0.293
REMARK UNBOUND:                -0.293
REMARK SMILES O=c1cc(-c2ccc(O)c(O)c2)oc2cc(O)cc(O)c12
REMARK SMILES IDX 4 1 3 2 2 3 1 4 21 5 19 6 18 7 16 8 15 9 14 10 13 11 5 12
REMARK SMILES IDX 6 13 7 14 8 15 12 16 10 17 9 18 11 20 20 22 17 24
REMARK H PARENT 9 19 11 21 20 23 17 25
REMARK Flexibility Score: inf
ROOT
ATOM      1  C   UNL     1      -0.781  34.717  63.213  1.00  0.00     0.138 A 
ATOM      2  C   UNL     1      -0.035  33.595  63.595  1.00  0.00     0.100 A 
ATOM      3  C   UNL     1       1.360  33.651  63.564  1.00  0.00     0.197 A 
ATOM      4  O   UNL     1       2.003  32.650  63.971  1.00  0.00    -0.289 OA
ATOM      5  C   UNL     1       2.007  34.829  63.120  1.00  0.00     0.107 A 
ATOM      6  C   UNL     1       3.420  34.986  63.008  1.00  0.00     0.134 A 
ATOM      7  C   UNL     1       3.951  36.236  62.667  1.00  0.00     0.093 A 
ATOM      8  C   UNL     1       3.119  37.317  62.374  1.00  0.00     0.123 A 
ATOM      9  C   UNL     1       1.733  37.159  62.427  1.00  0.00     0.094 A 
ATOM     10  C   UNL     1       1.175  35.934  62.798  1.00  0.00     0.146 A 
ATOM     11  O   UNL     1      -0.149  35.829  62.851  1.00  0.00    -0.456 OA
ENDROOT
BRANCH   1  12
ATOM     12  C   UNL     1      -2.266  34.712  63.226  1.00  0.00     0.021 A 
ATOM     13  C   UNL     1      -2.995  34.160  64.297  1.00  0.00     0.016 A 
ATOM     14  C   UNL     1      -4.392  34.160  64.278  1.00  0.00     0.051 A 
ATOM     15  C   UNL     1      -5.087  34.700  63.192  1.00  0.00     0.157 A 
ATOM     16  C   UNL     1      -2.970  35.242  62.130  1.00  0.00     0.062 A 
ATOM     17  C   UNL     1      -4.373  35.243  62.111  1.00  0.00     0.158 A 
BRANCH  15  18
ATOM     18  O   UNL     1      -6.481  34.686  63.203  1.00  0.00    -0.504 OA
ATOM     19  H   UNL     1      -7.008  34.155  63.887  1.00  0.00     0.293 HD
ENDBRANCH  15  18
BRANCH  17  20
ATOM     20  O   UNL     1      -5.059  35.780  61.022  1.00  0.00    -0.504 OA
ATOM     21  H   UNL     1      -5.322  35.210  60.226  1.00  0.00     0.293 HD
ENDBRANCH  17  20
ENDBRANCH   1  12
BRANCH   6  22
ATOM     22  O   UNL     1       4.340  33.949  63.196  1.00  0.00    -0.507 OA
ATOM     23  H   UNL     1       4.922  33.557  62.471  1.00  0.00     0.293 HD
ENDBRANCH   6  22
BRANCH   8  24
ATOM     24  O   UNL     1       3.682  38.542  62.023  1.00  0.00    -0.508 OA
ATOM     25  H   UNL     1       4.571  38.845  62.401  1.00  0.00     0.293 HD
ENDBRANCH   8  24
TORSDOF 5
ENDMDL
MODEL 2
REMARK VINA RESULT:    -5.950      5.524      9.097
REMARK INTER + INTRA:          -7.286
REMARK INTER:                  -6.981
REMARK INTRA:                  -0.305
REMARK UNBOUND:                -0.293
REMARK SMILES O=c1cc(-c2ccc(O)c(O)c2)oc2cc(O)cc(O)c12
REMARK SMILES IDX 4 1 3 2 2 3 1 4 21 5 19 6 18 7 16 8 15 9 14 10 13 11 5 12
REMARK SMILES IDX 6 13 7 14 8 15 12 16 10 17 9 18 11 20 20 22 17 24
REMARK H PARENT 9 19 11 21 20 23 17 25
REMARK Flexibility Score: inf
ROOT
ATOM      1  C   UNL     1       5.678  36.902  60.792  1.00  0.00     0.138 A 
ATOM      2  C   UNL     1       4.403  36.956  61.370  1.00  0.00     0.100 A 
ATOM      3  C   UNL     1       4.006  35.954  62.257  1.00  0.00     0.197 A 
ATOM      4  O   UNL     1       2.880  36.061  62.808  1.00  0.00    -0.289 OA
ATOM      5  C   UNL     1       4.881  34.878  62.541  1.00  0.00     0.107 A 
ATOM      6  C   UNL     1       4.567  33.780  63.397  1.00  0.00     0.134 A 
ATOM      7  C   UNL     1       5.555  32.834  63.695  1.00  0.00     0.093 A 
ATOM      8  C   UNL     1       6.824  32.910  63.121  1.00  0.00     0.123 A 
ATOM      9  C   UNL     1       7.124  33.950  62.239  1.00  0.00     0.094 A 
ATOM     10  C   UNL     1       6.171  34.929  61.950  1.00  0.00     0.146 A 
ATOM     11  O   UNL     1       6.501  35.910  61.116  1.00  0.00    -0.456 OA
ENDROOT
BRANCH   1  12
ATOM     12  C   UNL     1       6.152  37.940  59.841  1.00  0.00     0.021 A 
ATOM     13  C   UNL     1       5.271  38.587  58.953  1.00  0.00     0.016 A 
ATOM     14  C   UNL     1       5.745  39.553  58.062  1.00  0.00     0.051 A 
ATOM     15  C   UNL     1       7.102  39.885  58.033  1.00  0.00     0.157 A 
ATOM     16  C   UNL     1       7.518  38.269  59.798  1.00  0.00     0.062 A 
ATOM     17  C   UNL     1       7.995  39.239  58.903  1.00  0.00     0.158 A 
BRANCH  15  18
ATOM     18  O   UNL     1       7.544  40.854  57.133  1.00  0.00    -0.504 OA
ATOM     19  H   UNL     1       6.910  41.336  56.507  1.00  0.00     0.293 HD
ENDBRANCH  15  18
BRANCH  17  20
ATOM     20  O   UNL     1       9.351  39.562  58.878  1.00  0.00    -0.504 OA
ATOM     21  H   UNL     1       9.747  40.243  59.515  1.00  0.00     0.293 HD
ENDBRANCH  17  20
ENDBRANCH   1  12
BRANCH   6  22
ATOM     22  O   UNL     1       3.305  33.561  63.958  1.00  0.00    -0.507 OA
ATOM     23  H   UNL     1       2.877  34.146  64.659  1.00  0.00     0.293 HD
ENDBRANCH   6  22
BRANCH   8  24
ATOM     24  O   UNL     1       7.777  31.942  63.428  1.00  0.00    -0.508 OA
ATOM     25  H   UNL     1       7.897  31.597  64.373  1.00  0.00     0.293 HD
ENDBRANCH   8  24
TORSDOF 5
ENDMDL
MODEL 3
REMARK VINA RESULT:    -5.725     12.762     14.495
REMARK INTER + INTRA:          -7.021
REMARK INTER:                  -6.743
REMARK INTRA:                  -0.278
REMARK UNBOUND:                -0.293
REMARK SMILES O=c1cc(-c2ccc(O)c(O)c2)oc2cc(O)cc(O)c12
REMARK SMILES IDX 4 1 3 2 2 3 1 4 21 5 19 6 18 7 16 8 15 9 14 10 13 11 5 12
REMARK SMILES IDX 6 13 7 14 8 15 12 16 10 17 9 18 11 20 20 22 17 24
REMARK H PARENT 9 19 11 21 20 23 17 25
REMARK Flexibility Score: inf
ROOT
ATOM      1  C   UNL     1       9.568  44.005  62.843  1.00  0.00     0.138 A 
ATOM      2  C   UNL     1       9.375  42.940  63.734  1.00  0.00     0.100 A 
ATOM      3  C   UNL     1       8.839  43.188  64.999  1.00  0.00     0.197 A 
ATOM      4  O   UNL     1       8.620  42.205  65.753  1.00  0.00    -0.289 OA
ATOM      5  C   UNL     1       8.524  44.513  65.382  1.00  0.00     0.107 A 
ATOM      6  C   UNL     1       8.011  44.889  66.659  1.00  0.00     0.134 A 
ATOM      7  C   UNL     1       7.626  46.216  66.886  1.00  0.00     0.093 A 
ATOM      8  C   UNL     1       7.792  47.192  65.904  1.00  0.00     0.123 A 
ATOM      9  C   UNL     1       8.344  46.846  64.669  1.00  0.00     0.094 A 
ATOM     10  C   UNL     1       8.705  45.524  64.401  1.00  0.00     0.146 A 
ATOM     11  O   UNL     1       9.213  45.232  63.208  1.00  0.00    -0.456 OA
ENDROOT
BRANCH   1  12
ATOM     12  C   UNL     1      10.135  43.799  61.486  1.00  0.00     0.021 A 
ATOM     13  C   UNL     1      11.053  44.706  60.923  1.00  0.00     0.016 A 
ATOM     14  C   UNL     1      11.564  44.493  59.641  1.00  0.00     0.051 A 
ATOM     15  C   UNL     1      11.164  43.381  58.894  1.00  0.00     0.157 A 
ATOM     16  C   UNL     1       9.727  42.690  60.725  1.00  0.00     0.062 A 
ATOM     17  C   UNL     1      10.240  42.475  59.437  1.00  0.00     0.158 A 
BRANCH  15  18
ATOM     18  O   UNL     1      11.693  43.196  57.617  1.00  0.00    -0.504 OA
ATOM     19  H   UNL     1      12.509  42.618  57.452  1.00  0.00     0.293 HD
ENDBRANCH  15  18
BRANCH  17  20
ATOM     20  O   UNL     1       9.833  41.365  58.696  1.00  0.00    -0.504 OA
ATOM     21  H   UNL     1       9.942  40.422  59.050  1.00  0.00     0.293 HD
ENDBRANCH  17  20
ENDBRANCH   1  12
BRANCH   6  22
ATOM     22  O   UNL     1       7.882  44.009  67.740  1.00  0.00    -0.507 OA
ATOM     23  H   UNL     1       8.588  43.855  68.444  1.00  0.00     0.293 HD
ENDBRANCH   6  22
BRANCH   8  24
ATOM     24  O   UNL     1       7.413  48.506  66.169  1.00  0.00    -0.508 OA
ATOM     25  H   UNL     1       7.883  49.061  66.874  1.00  0.00     0.293 HD
ENDBRANCH   8  24
TORSDOF 5
ENDMDL
MODEL 4
REMARK VINA RESULT:    -5.680      4.575      6.875
REMARK INTER + INTRA:          -6.969
REMARK INTER:                  -6.678
REMARK INTRA:                  -0.291
REMARK UNBOUND:                -0.293
REMARK SMILES O=c1cc(-c2ccc(O)c(O)c2)oc2cc(O)cc(O)c12
REMARK SMILES IDX 4 1 3 2 2 3 1 4 21 5 19 6 18 7 16 8 15 9 14 10 13 11 5 12
REMARK SMILES IDX 6 13 7 14 8 15 12 16 10 17 9 18 11 20 20 22 17 24
REMARK H PARENT 9 19 11 21 20 23 17 25
REMARK Flexibility Score: inf
ROOT
ATOM      1  C   UNL     1      -3.241  33.750  58.802  1.00  0.00     0.138 A 
ATOM      2  C   UNL     1      -1.877  33.991  59.012  1.00  0.00     0.100 A 
ATOM      3  C   UNL     1      -1.428  34.348  60.285  1.00  0.00     0.197 A 
ATOM      4  O   UNL     1      -0.191  34.497  60.457  1.00  0.00    -0.289 OA
ATOM      5  C   UNL     1      -2.356  34.493  61.344  1.00  0.00     0.107 A 
ATOM      6  C   UNL     1      -2.018  34.891  62.671  1.00  0.00     0.134 A 
ATOM      7  C   UNL     1      -3.005  34.888  63.665  1.00  0.00     0.093 A 
ATOM      8  C   UNL     1      -4.327  34.560  63.367  1.00  0.00     0.123 A 
ATOM      9  C   UNL     1      -4.679  34.221  62.059  1.00  0.00     0.094 A 
ATOM     10  C   UNL     1      -3.711  34.182  61.054  1.00  0.00     0.146 A 
ATOM     11  O   UNL     1      -4.084  33.840  59.825  1.00  0.00    -0.456 OA
ENDROOT
BRANCH   1  12
ATOM     12  C   UNL     1      -3.774  33.368  57.469  1.00  0.00     0.021 A 
ATOM     13  C   UNL     1      -5.143  33.478  57.161  1.00  0.00     0.016 A 
ATOM     14  C   UNL     1      -5.619  33.103  55.902  1.00  0.00     0.051 A 
ATOM     15  C   UNL     1      -4.743  32.606  54.933  1.00  0.00     0.157 A 
ATOM     16  C   UNL     1      -2.900  32.855  56.495  1.00  0.00     0.062 A 
ATOM     17  C   UNL     1      -3.377  32.478  55.230  1.00  0.00     0.158 A 
BRANCH  15  18
ATOM     18  O   UNL     1      -5.248  32.241  53.685  1.00  0.00    -0.504 OA
ATOM     19  H   UNL     1      -6.243  32.211  53.496  1.00  0.00     0.293 HD
ENDBRANCH  15  18
BRANCH  17  20
ATOM     20  O   UNL     1      -2.497  31.979  54.270  1.00  0.00    -0.504 OA
ATOM     21  H   UNL     1      -2.700  31.131  53.754  1.00  0.00     0.293 HD
ENDBRANCH  17  20
ENDBRANCH   1  12
BRANCH   6  22
ATOM     22  O   UNL     1      -0.744  35.320  63.059  1.00  0.00    -0.507 OA
ATOM     23  H   UNL     1       0.101  35.163  62.531  1.00  0.00     0.293 HD
ENDBRANCH   6  22
BRANCH   8  24
ATOM     24  O   UNL     1      -5.286  34.583  64.378  1.00  0.00    -0.508 OA
ATOM     25  H   UNL     1      -5.384  35.378  64.997  1.00  0.00     0.293 HD
ENDBRANCH   8  24
TORSDOF 5
ENDMDL
MODEL 5
REMARK VINA RESULT:    -5.590     13.876     14.870
REMARK INTER + INTRA:          -6.863
REMARK INTER:                  -6.573
REMARK INTRA:                  -0.291
REMARK UNBOUND:                -0.293
REMARK SMILES O=c1cc(-c2ccc(O)c(O)c2)oc2cc(O)cc(O)c12
REMARK SMILES IDX 4 1 3 2 2 3 1 4 21 5 19 6 18 7 16 8 15 9 14 10 13 11 5 12
REMARK SMILES IDX 6 13 7 14 8 15 12 16 10 17 9 18 11 20 20 22 17 24
REMARK H PARENT 9 19 11 21 20 23 17 25
REMARK Flexibility Score: inf
ROOT
ATOM      1  C   UNL     1       9.387  45.386  62.386  1.00  0.00     0.138 A 
ATOM      2  C   UNL     1      10.476  44.504  62.401  1.00  0.00     0.100 A 
ATOM      3  C   UNL     1      11.077  44.129  61.199  1.00  0.00     0.197 A 
ATOM      4  O   UNL     1      12.091  43.386  61.249  1.00  0.00    -0.289 OA
ATOM      5  C   UNL     1      10.564  44.617  59.973  1.00  0.00     0.107 A 
ATOM      6  C   UNL     1      11.070  44.270  58.685  1.00  0.00     0.134 A 
ATOM      7  C   UNL     1      10.557  44.906  57.548  1.00  0.00     0.093 A 
ATOM      8  C   UNL     1       9.516  45.828  57.646  1.00  0.00     0.123 A 
ATOM      9  C   UNL     1       8.976  46.134  58.897  1.00  0.00     0.094 A 
ATOM     10  C   UNL     1       9.490  45.543  60.053  1.00  0.00     0.146 A 
ATOM     11  O   UNL     1       8.959  45.872  61.226  1.00  0.00    -0.456 OA
ENDROOT
BRANCH   1  12
ATOM     12  C   UNL     1       8.710  45.817  63.635  1.00  0.00     0.021 A 
ATOM     13  C   UNL     1       8.299  44.889  64.611  1.00  0.00     0.016 A 
ATOM     14  C   UNL     1       7.654  45.322  65.773  1.00  0.00     0.051 A 
ATOM     15  C   UNL     1       7.400  46.681  65.979  1.00  0.00     0.157 A 
ATOM     16  C   UNL     1       8.440  47.181  63.841  1.00  0.00     0.062 A 
ATOM     17  C   UNL     1       7.793  47.616  65.008  1.00  0.00     0.158 A 
BRANCH  15  18
ATOM     18  O   UNL     1       6.756  47.081  67.149  1.00  0.00    -0.504 OA
ATOM     19  H   UNL     1       6.857  46.572  68.019  1.00  0.00     0.293 HD
ENDBRANCH  15  18
BRANCH  17  20
ATOM     20  O   UNL     1       7.539  48.973  65.204  1.00  0.00    -0.504 OA
ATOM     21  H   UNL     1       7.582  49.637  64.440  1.00  0.00     0.293 HD
ENDBRANCH  17  20
ENDBRANCH   1  12
BRANCH   6  22
ATOM     22  O   UNL     1      12.052  43.298  58.466  1.00  0.00    -0.507 OA
ATOM     23  H   UNL     1      12.236  42.517  59.078  1.00  0.00     0.293 HD
ENDBRANCH   6  22
BRANCH   8  24
ATOM     24  O   UNL     1       9.019  46.430  56.492  1.00  0.00    -0.508 OA
ATOM     25  H   UNL     1       9.633  46.735  55.747  1.00  0.00     0.293 HD
ENDBRANCH   8  24
TORSDOF 5
ENDMDL
MODEL 6
REMARK VINA RESULT:    -5.585      6.145      8.688
REMARK INTER + INTRA:          -6.858
REMARK INTER:                  -6.588
REMARK INTRA:                  -0.269
REMARK UNBOUND:                -0.293
REMARK SMILES O=c1cc(-c2ccc(O)c(O)c2)oc2cc(O)cc(O)c12
REMARK SMILES IDX 4 1 3 2 2 3 1 4 21 5 19 6 18 7 16 8 15 9 14 10 13 11 5 12
REMARK SMILES IDX 6 13 7 14 8 15 12 16 10 17 9 18 11 20 20 22 17 24
REMARK H PARENT 9 19 11 21 20 23 17 25
REMARK Flexibility Score: inf
ROOT
ATOM      1  C   UNL     1       5.688  37.125  61.780  1.00  0.00     0.138 A 
ATOM      2  C   UNL     1       5.065  35.872  61.845  1.00  0.00     0.100 A 
ATOM      3  C   UNL     1       4.737  35.329  63.089  1.00  0.00     0.197 A 
ATOM      4  O   UNL     1       4.123  34.231  63.114  1.00  0.00    -0.289 OA
ATOM      5  C   UNL     1       5.063  36.034  64.272  1.00  0.00     0.107 A 
ATOM      6  C   UNL     1       4.813  35.559  65.595  1.00  0.00     0.134 A 
ATOM      7  C   UNL     1       5.073  36.395  66.688  1.00  0.00     0.093 A 
ATOM      8  C   UNL     1       5.630  37.661  66.512  1.00  0.00     0.123 A 
ATOM      9  C   UNL     1       5.929  38.114  65.225  1.00  0.00     0.094 A 
ATOM     10  C   UNL     1       5.649  37.317  64.112  1.00  0.00     0.146 A 
ATOM     11  O   UNL     1       5.934  37.790  62.904  1.00  0.00    -0.456 OA
ENDROOT
BRANCH   1  12
ATOM     12  C   UNL     1       6.060  37.749  60.485  1.00  0.00     0.021 A 
ATOM     13  C   UNL     1       5.086  38.186  59.567  1.00  0.00     0.016 A 
ATOM     14  C   UNL     1       5.464  38.761  58.351  1.00  0.00     0.051 A 
ATOM     15  C   UNL     1       6.816  38.902  58.024  1.00  0.00     0.157 A 
ATOM     16  C   UNL     1       7.418  37.882  60.145  1.00  0.00     0.062 A 
ATOM     17  C   UNL     1       7.799  38.459  58.924  1.00  0.00     0.158 A 
BRANCH  15  18
ATOM     18  O   UNL     1       7.161  39.481  56.804  1.00  0.00    -0.504 OA
ATOM     19  H   UNL     1       8.121  39.705  56.567  1.00  0.00     0.293 HD
ENDBRANCH  15  18
BRANCH  17  20
ATOM     20  O   UNL     1       9.149  38.593  58.603  1.00  0.00    -0.504 OA
ATOM     21  H   UNL     1       9.754  39.231  59.107  1.00  0.00     0.293 HD
ENDBRANCH  17  20
ENDBRANCH   1  12
BRANCH   6  22
ATOM     22  O   UNL     1       4.337  34.277  65.889  1.00  0.00    -0.507 OA
ATOM     23  H   UNL     1       3.932  34.002  66.771  1.00  0.00     0.293 HD
ENDBRANCH   6  22
BRANCH   8  24
ATOM     24  O   UNL     1       5.890  38.459  67.623  1.00  0.00    -0.508 OA
ATOM     25  H   UNL     1       5.290  39.238  67.868  1.00  0.00     0.293 HD
ENDBRANCH   8  24
TORSDOF 5
ENDMDL
MODEL 7
REMARK VINA RESULT:    -5.519      6.260      8.890
REMARK INTER + INTRA:          -6.779
REMARK INTER:                  -6.517
REMARK INTRA:                  -0.262
REMARK UNBOUND:                -0.293
REMARK SMILES O=c1cc(-c2ccc(O)c(O)c2)oc2cc(O)cc(O)c12
REMARK SMILES IDX 4 1 3 2 2 3 1 4 21 5 19 6 18 7 16 8 15 9 14 10 13 11 5 12
REMARK SMILES IDX 6 13 7 14 8 15 12 16 10 17 9 18 11 20 20 22 17 24
REMARK H PARENT 9 19 11 21 20 23 17 25
REMARK Flexibility Score: inf
ROOT
ATOM      1  C   UNL     1       5.774  37.200  61.719  1.00  0.00     0.138 A 
ATOM      2  C   UNL     1       5.793  37.959  62.897  1.00  0.00     0.100 A 
ATOM      3  C   UNL     1       5.450  37.360  64.110  1.00  0.00     0.197 A 
ATOM      4  O   UNL     1       5.537  38.050  65.158  1.00  0.00    -0.289 OA
ATOM      5  C   UNL     1       5.056  36.001  64.136  1.00  0.00     0.107 A 
ATOM      6  C   UNL     1       4.646  35.297  65.308  1.00  0.00     0.134 A 
ATOM      7  C   UNL     1       4.390  33.922  65.233  1.00  0.00     0.093 A 
ATOM      8  C   UNL     1       4.469  33.240  64.019  1.00  0.00     0.123 A 
ATOM      9  C   UNL     1       4.816  33.930  62.857  1.00  0.00     0.094 A 
ATOM     10  C   UNL     1       5.111  35.294  62.906  1.00  0.00     0.146 A 
ATOM     11  O   UNL     1       5.452  35.912  61.780  1.00  0.00    -0.456 OA
ENDROOT
BRANCH   1  12
ATOM     12  C   UNL     1       6.128  37.787  60.402  1.00  0.00     0.021 A 
ATOM     13  C   UNL     1       5.141  38.218  59.495  1.00  0.00     0.016 A 
ATOM     14  C   UNL     1       5.502  38.758  58.258  1.00  0.00     0.051 A 
ATOM     15  C   UNL     1       6.849  38.869  57.899  1.00  0.00     0.157 A 
ATOM     16  C   UNL     1       7.480  37.889  60.030  1.00  0.00     0.062 A 
ATOM     17  C   UNL     1       7.843  38.431  58.788  1.00  0.00     0.158 A 
BRANCH  15  18
ATOM     18  O   UNL     1       7.177  39.413  56.658  1.00  0.00    -0.504 OA
ATOM     19  H   UNL     1       6.738  40.257  56.307  1.00  0.00     0.293 HD
ENDBRANCH  15  18
BRANCH  17  20
ATOM     20  O   UNL     1       9.189  38.535  58.436  1.00  0.00    -0.504 OA
ATOM     21  H   UNL     1       9.544  38.138  57.573  1.00  0.00     0.293 HD
ENDBRANCH  17  20
ENDBRANCH   1  12
BRANCH   6  22
ATOM     22  O   UNL     1       4.453  35.900  66.555  1.00  0.00    -0.507 OA
ATOM     23  H   UNL     1       3.563  36.213  66.912  1.00  0.00     0.293 HD
ENDBRANCH   6  22
BRANCH   8  24
ATOM     24  O   UNL     1       4.192  31.875  63.979  1.00  0.00    -0.508 OA
ATOM     25  H   UNL     1       4.767  31.202  64.471  1.00  0.00     0.293 HD
ENDBRANCH   8  24
TORSDOF 5
ENDMDL
MODEL 8
REMARK VINA RESULT:    -5.383      5.207      8.568
REMARK INTER + INTRA:          -6.620
REMARK INTER:                  -6.320
REMARK INTRA:                  -0.299
REMARK UNBOUND:                -0.293
REMARK SMILES O=c1cc(-c2ccc(O)c(O)c2)oc2cc(O)cc(O)c12
REMARK SMILES IDX 4 1 3 2 2 3 1 4 21 5 19 6 18 7 16 8 15 9 14 10 13 11 5 12
REMARK SMILES IDX 6 13 7 14 8 15 12 16 10 17 9 18 11 20 20 22 17 24
REMARK H PARENT 9 19 11 21 20 23 17 25
REMARK Flexibility Score: inf
ROOT
ATOM      1  C   UNL     1       5.735  37.771  60.075  1.00  0.00     0.138 A 
ATOM      2  C   UNL     1       6.982  38.405  60.148  1.00  0.00     0.100 A 
ATOM      3  C   UNL     1       7.299  39.412  59.234  1.00  0.00     0.197 A 
ATOM      4  O   UNL     1       8.401  40.005  59.363  1.00  0.00    -0.289 OA
ATOM      5  C   UNL     1       6.372  39.762  58.224  1.00  0.00     0.107 A 
ATOM      6  C   UNL     1       6.603  40.743  57.214  1.00  0.00     0.134 A 
ATOM      7  C   UNL     1       5.567  41.088  56.337  1.00  0.00     0.093 A 
ATOM      8  C   UNL     1       4.331  40.445  56.393  1.00  0.00     0.123 A 
ATOM      9  C   UNL     1       4.112  39.445  57.342  1.00  0.00     0.094 A 
ATOM     10  C   UNL     1       5.114  39.103  58.253  1.00  0.00     0.146 A 
ATOM     11  O   UNL     1       4.861  38.156  59.150  1.00  0.00    -0.456 OA
ENDROOT
BRANCH   1  12
ATOM     12  C   UNL     1       5.347  36.694  61.020  1.00  0.00     0.021 A 
ATOM     13  C   UNL     1       6.263  35.709  61.436  1.00  0.00     0.016 A 
ATOM     14  C   UNL     1       5.868  34.701  62.319  1.00  0.00     0.051 A 
ATOM     15  C   UNL     1       4.555  34.650  62.795  1.00  0.00     0.157 A 
ATOM     16  C   UNL     1       4.024  36.630  61.492  1.00  0.00     0.062 A 
ATOM     17  C   UNL     1       3.627  35.618  62.379  1.00  0.00     0.158 A 
BRANCH  15  18
ATOM     18  O   UNL     1       4.192  33.632  63.676  1.00  0.00    -0.504 OA
ATOM     19  H   UNL     1       4.023  33.807  64.660  1.00  0.00     0.293 HD
ENDBRANCH  15  18
BRANCH  17  20
ATOM     20  O   UNL     1       2.314  35.571  62.847  1.00  0.00    -0.504 OA
ATOM     21  H   UNL     1       2.103  35.374  63.818  1.00  0.00     0.293 HD
ENDBRANCH  17  20
ENDBRANCH   1  12
BRANCH   6  22
ATOM     22  O   UNL     1       7.828  41.387  57.015  1.00  0.00    -0.507 OA
ATOM     23  H   UNL     1       8.184  41.684  56.119  1.00  0.00     0.293 HD
ENDBRANCH   6  22
BRANCH   8  24
ATOM     24  O   UNL     1       3.328  40.803  55.494  1.00  0.00    -0.508 OA
ATOM     25  H   UNL     1       2.427  40.340  55.494  1.00  0.00     0.293 HD
ENDBRANCH   8  24
TORSDOF 5
ENDMDL
MODEL 9
REMARK VINA RESULT:    -5.283     13.389     15.575
REMARK INTER + INTRA:          -6.502
REMARK INTER:                  -6.239
REMARK INTRA:                  -0.264
REMARK UNBOUND:                -0.293
REMARK SMILES O=c1cc(-c2ccc(O)c(O)c2)oc2cc(O)cc(O)c12
REMARK SMILES IDX 4 1 3 2 2 3 1 4 21 5 19 6 18 7 16 8 15 9 14 10 13 11 5 12
REMARK SMILES IDX 6 13 7 14 8 15 12 16 10 17 9 18 11 20 20 22 17 24
REMARK H PARENT 9 19 11 21 20 23 17 25
REMARK Flexibility Score: inf
ROOT
ATOM      1  C   UNL     1       9.465  45.768  62.241  1.00  0.00     0.138 A 
ATOM      2  C   UNL     1       9.439  47.152  62.457  1.00  0.00     0.100 A 
ATOM      3  C   UNL     1       8.999  47.651  63.684  1.00  0.00     0.197 A 
ATOM      4  O   UNL     1       9.046  48.894  63.870  1.00  0.00    -0.289 OA
ATOM      5  C   UNL     1       8.555  46.757  64.688  1.00  0.00     0.107 A 
ATOM      6  C   UNL     1       8.048  47.154  65.961  1.00  0.00     0.134 A 
ATOM      7  C   UNL     1       7.747  46.177  66.919  1.00  0.00     0.093 A 
ATOM      8  C   UNL     1       7.876  44.820  66.629  1.00  0.00     0.123 A 
ATOM      9  C   UNL     1       8.320  44.419  65.367  1.00  0.00     0.094 A 
ATOM     10  C   UNL     1       8.661  45.370  64.403  1.00  0.00     0.146 A 
ATOM     11  O   UNL     1       9.093  44.949  63.219  1.00  0.00    -0.456 OA
ENDROOT
BRANCH   1  12
ATOM     12  C   UNL     1       9.922  45.183  60.955  1.00  0.00     0.021 A 
ATOM     13  C   UNL     1       9.034  44.968  59.883  1.00  0.00     0.016 A 
ATOM     14  C   UNL     1       9.488  44.407  58.687  1.00  0.00     0.051 A 
ATOM     15  C   UNL     1      10.830  44.043  58.540  1.00  0.00     0.157 A 
ATOM     16  C   UNL     1      11.267  44.803  60.805  1.00  0.00     0.062 A 
ATOM     17  C   UNL     1      11.724  44.239  59.604  1.00  0.00     0.158 A 
BRANCH  15  18
ATOM     18  O   UNL     1      11.253  43.487  57.333  1.00  0.00    -0.504 OA
ATOM     19  H   UNL     1      11.236  42.487  57.166  1.00  0.00     0.293 HD
ENDBRANCH  15  18
BRANCH  17  20
ATOM     20  O   UNL     1      13.063  43.875  59.467  1.00  0.00    -0.504 OA
ATOM     21  H   UNL     1      13.753  44.111  60.171  1.00  0.00     0.293 HD
ENDBRANCH  17  20
ENDBRANCH   1  12
BRANCH   6  22
ATOM     22  O   UNL     1       7.800  48.482  66.325  1.00  0.00    -0.507 OA
ATOM     23  H   UNL     1       7.314  48.768  67.162  1.00  0.00     0.293 HD
ENDBRANCH   6  22
BRANCH   8  24
ATOM     24  O   UNL     1       7.552  43.875  67.600  1.00  0.00    -0.508 OA
ATOM     25  H   UNL     1       6.830  43.181  67.445  1.00  0.00     0.293 HD
ENDBRANCH   8  24
TORSDOF 5
ENDMDL
