MODEL 1
REMARK VINA RESULT:    -4.848      0.000      0.000
REMARK INTER + INTRA:          -5.208
REMARK INTER:                  -5.132
REMARK INTRA:                  -0.076
REMARK UNBOUND:                -0.076
REMARK SMILES CC(=O)c1cccc(C)c1
REMARK SMILES IDX 9 1 8 2 10 3 4 4 5 5 6 6 7 7 2 8 3 9 1 10
REMARK H PARENT
REMARK Flexibility Score: inf
ROOT
ATOM      1  C   UNL     1      48.440  78.152  20.002  1.00  0.00     0.044 C 
ATOM      2  C   UNL     1      48.870  77.618  21.336  1.00  0.00    -0.050 A 
ATOM      3  C   UNL     1      50.146  77.054  21.493  1.00  0.00     0.015 A 
ATOM      4  C   UNL     1      50.576  76.581  22.750  1.00  0.00     0.017 A 
ATOM      5  C   UNL     1      49.703  76.699  23.850  1.00  0.00     0.012 A 
ATOM      6  C   UNL     1      48.441  77.276  23.697  1.00  0.00     0.001 A 
ATOM      7  C   UNL     1      48.026  77.741  22.449  1.00  0.00     0.003 A 
ENDROOT
BRANCH   4   8
ATOM      8  C   UNL     1      51.921  75.972  22.931  1.00  0.00     0.159 C 
ATOM      9  O   UNL     1      52.457  75.342  21.979  1.00  0.00    -0.295 OA
ATOM     10  C   UNL     1      52.674  76.082  24.224  1.00  0.00     0.093 C 
ENDBRANCH   4   8
TORSDOF 1
ENDMDL
MODEL 2
REMARK VINA RESULT:    -4.781      2.231      4.318
REMARK INTER + INTRA:          -5.137
REMARK INTER:                  -5.063
REMARK INTRA:                  -0.074
REMARK UNBOUND:                -0.076
REMARK SMILES CC(=O)c1cccc(C)c1
REMARK SMILES IDX 9 1 8 2 10 3 4 4 5 5 6 6 7 7 2 8 3 9 1 10
REMARK H PARENT
REMARK Flexibility Score: inf
ROOT
ATOM      1  C   UNL     1      48.765  76.956  25.249  1.00  0.00     0.044 C 
ATOM      2  C   UNL     1      49.282  76.950  23.841  1.00  0.00    -0.050 A 
ATOM      3  C   UNL     1      48.585  77.628  22.830  1.00  0.00     0.015 A 
ATOM      4  C   UNL     1      49.079  77.660  21.510  1.00  0.00     0.017 A 
ATOM      5  C   UNL     1      50.296  77.007  21.229  1.00  0.00     0.012 A 
ATOM      6  C   UNL     1      50.999  76.347  22.239  1.00  0.00     0.001 A 
ATOM      7  C   UNL     1      50.500  76.323  23.542  1.00  0.00     0.003 A 
ENDROOT
BRANCH   4   8
ATOM      8  C   UNL     1      48.347  78.366  20.423  1.00  0.00     0.159 C 
ATOM      9  O   UNL     1      47.782  79.467  20.662  1.00  0.00    -0.295 OA
ATOM     10  C   UNL     1      48.256  77.806  19.035  1.00  0.00     0.093 C 
ENDBRANCH   4   8
TORSDOF 1
ENDMDL
MODEL 3
REMARK VINA RESULT:    -4.703      2.653      4.464
REMARK INTER + INTRA:          -5.054
REMARK INTER:                  -4.974
REMARK INTRA:                  -0.079
REMARK UNBOUND:                -0.076
REMARK SMILES CC(=O)c1cccc(C)c1
REMARK SMILES IDX 9 1 8 2 10 3 4 4 5 5 6 6 7 7 2 8 3 9 1 10
REMARK H PARENT
REMARK Flexibility Score: inf
ROOT
ATOM      1  C   UNL     1      53.234  75.853  24.018  1.00  0.00     0.044 C 
ATOM      2  C   UNL     1      51.791  76.262  24.061  1.00  0.00    -0.050 A 
ATOM      3  C   UNL     1      51.202  76.644  25.276  1.00  0.00     0.015 A 
ATOM      4  C   UNL     1      49.856  77.064  25.324  1.00  0.00     0.017 A 
ATOM      5  C   UNL     1      49.118  77.105  24.124  1.00  0.00     0.012 A 
ATOM      6  C   UNL     1      49.711  76.742  22.913  1.00  0.00     0.001 A 
ATOM      7  C   UNL     1      51.043  76.328  22.878  1.00  0.00     0.003 A 
ENDROOT
BRANCH   4   8
ATOM      8  C   UNL     1      49.213  77.463  26.605  1.00  0.00     0.159 C 
ATOM      9  O   UNL     1      49.881  77.444  27.674  1.00  0.00    -0.295 OA
ATOM     10  C   UNL     1      47.778  77.893  26.671  1.00  0.00     0.093 C 
ENDBRANCH   4   8
TORSDOF 1
ENDMDL
MODEL 4
REMARK VINA RESULT:    -4.647      2.575      4.014
REMARK INTER + INTRA:          -4.995
REMARK INTER:                  -4.923
REMARK INTRA:                  -0.072
REMARK UNBOUND:                -0.076
REMARK SMILES CC(=O)c1cccc(C)c1
REMARK SMILES IDX 9 1 8 2 10 3 4 4 5 5 6 6 7 7 2 8 3 9 1 10
REMARK H PARENT
REMARK Flexibility Score: inf
ROOT
ATOM      1  C   UNL     1      51.228  79.031  27.955  1.00  0.00     0.044 C 
ATOM      2  C   UNL     1      50.596  78.244  26.845  1.00  0.00    -0.050 A 
ATOM      3  C   UNL     1      51.392  77.696  25.827  1.00  0.00     0.015 A 
ATOM      4  C   UNL     1      50.815  76.924  24.797  1.00  0.00     0.017 A 
ATOM      5  C   UNL     1      49.423  76.704  24.818  1.00  0.00     0.012 A 
ATOM      6  C   UNL     1      48.634  77.234  25.841  1.00  0.00     0.001 A 
ATOM      7  C   UNL     1      49.217  77.996  26.855  1.00  0.00     0.003 A 
ENDROOT
BRANCH   4   8
ATOM      8  C   UNL     1      51.643  76.344  23.705  1.00  0.00     0.159 C 
ATOM      9  O   UNL     1      51.203  76.332  22.524  1.00  0.00    -0.295 OA
ATOM     10  C   UNL     1      53.001  75.764  23.964  1.00  0.00     0.093 C 
ENDBRANCH   4   8
TORSDOF 1
ENDMDL
MODEL 5
REMARK VINA RESULT:    -4.640      2.128      4.054
REMARK INTER + INTRA:          -4.987
REMARK INTER:                  -4.916
REMARK INTRA:                  -0.071
REMARK UNBOUND:                -0.076
REMARK SMILES CC(=O)c1cccc(C)c1
REMARK SMILES IDX 9 1 8 2 10 3 4 4 5 5 6 6 7 7 2 8 3 9 1 10
REMARK H PARENT
REMARK Flexibility Score: inf
ROOT
ATOM      1  C   UNL     1      52.067  75.909  22.691  1.00  0.00     0.044 C 
ATOM      2  C   UNL     1      50.706  76.539  22.739  1.00  0.00    -0.050 A 
ATOM      3  C   UNL     1      50.172  77.155  21.597  1.00  0.00     0.015 A 
ATOM      4  C   UNL     1      48.880  77.719  21.619  1.00  0.00     0.017 A 
ATOM      5  C   UNL     1      48.130  77.641  22.809  1.00  0.00     0.012 A 
ATOM      6  C   UNL     1      48.654  77.012  23.940  1.00  0.00     0.001 A 
ATOM      7  C   UNL     1      49.934  76.457  23.906  1.00  0.00     0.003 A 
ENDROOT
BRANCH   4   8
ATOM      8  C   UNL     1      48.303  78.385  20.420  1.00  0.00     0.159 C 
ATOM      9  O   UNL     1      47.753  79.513  20.533  1.00  0.00    -0.295 OA
ATOM     10  C   UNL     1      48.354  77.752  19.061  1.00  0.00     0.093 C 
ENDBRANCH   4   8
TORSDOF 1
ENDMDL
MODEL 6
REMARK VINA RESULT:    -4.624      2.596      4.271
REMARK INTER + INTRA:          -4.970
REMARK INTER:                  -4.893
REMARK INTRA:                  -0.077
REMARK UNBOUND:                -0.076
REMARK SMILES CC(=O)c1cccc(C)c1
REMARK SMILES IDX 9 1 8 2 10 3 4 4 5 5 6 6 7 7 2 8 3 9 1 10
REMARK H PARENT
REMARK Flexibility Score: inf
ROOT
ATOM      1  C   UNL     1      53.248  75.844  24.024  1.00  0.00     0.044 C 
ATOM      2  C   UNL     1      51.813  76.232  23.825  1.00  0.00    -0.050 A 
ATOM      3  C   UNL     1      51.028  76.622  24.921  1.00  0.00     0.015 A 
ATOM      4  C   UNL     1      49.688  77.024  24.742  1.00  0.00     0.017 A 
ATOM      5  C   UNL     1      49.156  77.037  23.438  1.00  0.00     0.012 A 
ATOM      6  C   UNL     1      49.943  76.667  22.345  1.00  0.00     0.001 A 
ATOM      7  C   UNL     1      51.268  76.271  22.534  1.00  0.00     0.003 A 
ENDROOT
BRANCH   4   8
ATOM      8  C   UNL     1      48.840  77.431  25.895  1.00  0.00     0.159 C 
ATOM      9  O   UNL     1      47.639  77.763  25.702  1.00  0.00    -0.295 OA
ATOM     10  C   UNL     1      49.369  77.459  27.297  1.00  0.00     0.093 C 
ENDBRANCH   4   8
TORSDOF 1
ENDMDL
MODEL 7
REMARK VINA RESULT:    -4.611      2.051      4.102
REMARK INTER + INTRA:          -4.956
REMARK INTER:                  -4.880
REMARK INTRA:                  -0.076
REMARK UNBOUND:                -0.076
REMARK SMILES CC(=O)c1cccc(C)c1
REMARK SMILES IDX 9 1 8 2 10 3 4 4 5 5 6 6 7 7 2 8 3 9 1 10
REMARK H PARENT
REMARK Flexibility Score: inf
ROOT
ATOM      1  C   UNL     1      53.184  75.787  23.949  1.00  0.00     0.044 C 
ATOM      2  C   UNL     1      51.813  76.316  24.249  1.00  0.00    -0.050 A 
ATOM      3  C   UNL     1      50.932  76.628  23.202  1.00  0.00     0.015 A 
ATOM      4  C   UNL     1      49.628  77.092  23.471  1.00  0.00     0.017 A 
ATOM      5  C   UNL     1      49.222  77.225  24.814  1.00  0.00     0.012 A 
ATOM      6  C   UNL     1      50.093  76.897  25.855  1.00  0.00     0.001 A 
ATOM      7  C   UNL     1      51.381  76.438  25.577  1.00  0.00     0.003 A 
ENDROOT
BRANCH   4   8
ATOM      8  C   UNL     1      48.684  77.437  22.373  1.00  0.00     0.159 C 
ATOM      9  O   UNL     1      47.449  77.514  22.610  1.00  0.00    -0.295 OA
ATOM     10  C   UNL     1      49.158  77.700  20.975  1.00  0.00     0.093 C 
ENDBRANCH   4   8
TORSDOF 1
ENDMDL
MODEL 8
REMARK VINA RESULT:    -4.568      2.534      3.792
REMARK INTER + INTRA:          -4.912
REMARK INTER:                  -4.834
REMARK INTRA:                  -0.078
REMARK UNBOUND:                -0.076
REMARK SMILES CC(=O)c1cccc(C)c1
REMARK SMILES IDX 9 1 8 2 10 3 4 4 5 5 6 6 7 7 2 8 3 9 1 10
REMARK H PARENT
REMARK Flexibility Score: inf
ROOT
ATOM      1  C   UNL     1      50.194  76.647  21.244  1.00  0.00     0.044 C 
ATOM      2  C   UNL     1      50.703  76.636  22.655  1.00  0.00    -0.050 A 
ATOM      3  C   UNL     1      49.860  77.010  23.712  1.00  0.00     0.015 A 
ATOM      4  C   UNL     1      50.315  76.970  25.046  1.00  0.00     0.017 A 
ATOM      5  C   UNL     1      51.631  76.535  25.298  1.00  0.00     0.012 A 
ATOM      6  C   UNL     1      52.464  76.145  24.246  1.00  0.00     0.001 A 
ATOM      7  C   UNL     1      52.003  76.189  22.930  1.00  0.00     0.003 A 
ENDROOT
BRANCH   4   8
ATOM      8  C   UNL     1      49.437  77.373  26.178  1.00  0.00     0.159 C 
ATOM      9  O   UNL     1      48.185  77.363  26.034  1.00  0.00    -0.295 OA
ATOM     10  C   UNL     1      49.996  77.795  27.504  1.00  0.00     0.093 C 
ENDBRANCH   4   8
TORSDOF 1
ENDMDL
MODEL 9
REMARK VINA RESULT:    -4.402      3.250      4.586
REMARK INTER + INTRA:          -4.735
REMARK INTER:                  -4.658
REMARK INTRA:                  -0.077
REMARK UNBOUND:                -0.076
REMARK SMILES CC(=O)c1cccc(C)c1
REMARK SMILES IDX 9 1 8 2 10 3 4 4 5 5 6 6 7 7 2 8 3 9 1 10
REMARK H PARENT
REMARK Flexibility Score: inf
ROOT
ATOM      1  C   UNL     1      52.610  76.151  24.140  1.00  0.00     0.044 C 
ATOM      2  C   UNL     1      51.168  76.498  24.359  1.00  0.00    -0.050 A 
ATOM      3  C   UNL     1      50.710  76.835  25.642  1.00  0.00     0.015 A 
ATOM      4  C   UNL     1      49.364  77.199  25.855  1.00  0.00     0.017 A 
ATOM      5  C   UNL     1      48.490  77.228  24.751  1.00  0.00     0.012 A 
ATOM      6  C   UNL     1      48.950  76.910  23.471  1.00  0.00     0.001 A 
ATOM      7  C   UNL     1      50.284  76.552  23.272  1.00  0.00     0.003 A 
ENDROOT
BRANCH   4   8
ATOM      8  C   UNL     1      48.861  77.550  27.211  1.00  0.00     0.159 C 
ATOM      9  O   UNL     1      47.653  77.876  27.365  1.00  0.00    -0.295 OA
ATOM     10  C   UNL     1      49.751  77.528  28.417  1.00  0.00     0.093 C 
ENDBRANCH   4   8
TORSDOF 1
ENDMDL
