MODEL 1
REMARK VINA RESULT:    -3.511      0.000      0.000
REMARK INTER + INTRA:          -4.446
REMARK INTER:                  -4.230
REMARK INTRA:                  -0.216
REMARK UNBOUND:                -0.216
REMARK SMILES OCC(O)CO
REMARK SMILES IDX 3 1 5 2 6 3 2 5 1 6 4 8
REMARK H PARENT 6 4 1 7 4 9
REMARK Flexibility Score: inf
ROOT
ATOM      1  C   UNL     1     168.203 170.789 171.442  1.00  0.00     0.165 C 
ENDROOT
BRANCH   1   2
ATOM      2  C   UNL     1     167.516 169.619 170.721  1.00  0.00     0.190 C 
BRANCH   2   3
ATOM      3  O   UNL     1     168.455 168.661 170.311  1.00  0.00    -0.394 OA
ATOM      4  H   UNL     1     169.233 169.162 169.951  1.00  0.00     0.210 HD
ENDBRANCH   2   3
ENDBRANCH   1   2
BRANCH   1   5
ATOM      5  C   UNL     1     169.682 170.491 171.737  1.00  0.00     0.190 C 
BRANCH   5   6
ATOM      6  O   UNL     1     170.454 170.658 170.580  1.00  0.00    -0.394 OA
ATOM      7  H   UNL     1     170.983 169.824 170.481  1.00  0.00     0.210 HD
ENDBRANCH   5   6
ENDBRANCH   1   5
BRANCH   1   8
ATOM      8  O   UNL     1     168.097 171.941 170.647  1.00  0.00    -0.388 OA
ATOM      9  H   UNL     1     168.838 172.545 170.914  1.00  0.00     0.211 HD
ENDBRANCH   1   8
TORSDOF 5
ENDMDL
MODEL 2
REMARK VINA RESULT:    -3.288      0.678      2.287
REMARK INTER + INTRA:          -4.177
REMARK INTER:                  -3.956
REMARK INTRA:                  -0.221
REMARK UNBOUND:                -0.216
REMARK SMILES OCC(O)CO
REMARK SMILES IDX 3 1 5 2 6 3 2 5 1 6 4 8
REMARK H PARENT 6 4 1 7 4 9
REMARK Flexibility Score: inf
ROOT
ATOM      1  C   UNL     1     168.034 170.807 170.912  1.00  0.00     0.165 C 
ENDROOT
BRANCH   1   2
ATOM      2  C   UNL     1     169.433 170.895 171.539  1.00  0.00     0.190 C 
BRANCH   2   3
ATOM      3  O   UNL     1     170.429 170.657 170.582  1.00  0.00    -0.394 OA
ATOM      4  H   UNL     1     170.709 169.710 170.693  1.00  0.00     0.210 HD
ENDBRANCH   2   3
ENDBRANCH   1   2
BRANCH   1   5
ATOM      5  C   UNL     1     167.526 169.357 170.846  1.00  0.00     0.190 C 
BRANCH   5   6
ATOM      6  O   UNL     1     168.529 168.510 170.357  1.00  0.00    -0.394 OA
ATOM      7  H   UNL     1     168.175 168.122 169.516  1.00  0.00     0.210 HD
ENDBRANCH   5   6
ENDBRANCH   1   5
BRANCH   1   8
ATOM      8  O   UNL     1     167.145 171.591 171.665  1.00  0.00    -0.388 OA
ATOM      9  H   UNL     1     166.749 170.996 172.355  1.00  0.00     0.211 HD
ENDBRANCH   1   8
TORSDOF 5
ENDMDL
MODEL 3
REMARK VINA RESULT:    -3.211      1.003      2.773
REMARK INTER + INTRA:          -4.085
REMARK INTER:                  -3.868
REMARK INTRA:                  -0.217
REMARK UNBOUND:                -0.216
REMARK SMILES OCC(O)CO
REMARK SMILES IDX 3 1 5 2 6 3 2 5 1 6 4 8
REMARK H PARENT 6 4 1 7 4 9
REMARK Flexibility Score: inf
ROOT
ATOM      1  C   UNL     1     168.887 169.959 171.358  1.00  0.00     0.165 C 
ENDROOT
BRANCH   1   2
ATOM      2  C   UNL     1     168.134 171.242 171.740  1.00  0.00     0.190 C 
BRANCH   2   3
ATOM      3  O   UNL     1     168.091 172.139 170.663  1.00  0.00    -0.394 OA
ATOM      4  H   UNL     1     168.607 171.721 169.924  1.00  0.00     0.210 HD
ENDBRANCH   2   3
ENDBRANCH   1   2
BRANCH   1   5
ATOM      5  C   UNL     1     168.063 169.073 170.409  1.00  0.00     0.190 C 
BRANCH   5   6
ATOM      6  O   UNL     1     166.714 169.451 170.435  1.00  0.00    -0.394 OA
ATOM      7  H   UNL     1     166.362 169.150 171.313  1.00  0.00     0.210 HD
ENDBRANCH   5   6
ENDBRANCH   1   5
BRANCH   1   8
ATOM      8  O   UNL     1     170.104 170.307 170.751  1.00  0.00    -0.388 OA
ATOM      9  H   UNL     1     169.894 170.979 170.050  1.00  0.00     0.211 HD
ENDBRANCH   1   8
TORSDOF 5
ENDMDL
MODEL 4
REMARK VINA RESULT:    -3.039      1.200      2.226
REMARK INTER + INTRA:          -3.877
REMARK INTER:                  -3.723
REMARK INTRA:                  -0.154
REMARK UNBOUND:                -0.216
REMARK SMILES OCC(O)CO
REMARK SMILES IDX 3 1 5 2 6 3 2 5 1 6 4 8
REMARK H PARENT 6 4 1 7 4 9
REMARK Flexibility Score: inf
ROOT
ATOM      1  C   UNL     1     167.722 169.777 171.214  1.00  0.00     0.165 C 
ENDROOT
BRANCH   1   2
ATOM      2  C   UNL     1     168.993 169.491 170.401  1.00  0.00     0.190 C 
BRANCH   2   3
ATOM      3  O   UNL     1     170.066 170.271 170.855  1.00  0.00    -0.394 OA
ATOM      4  H   UNL     1     170.034 171.123 170.345  1.00  0.00     0.210 HD
ENDBRANCH   2   3
ENDBRANCH   1   2
BRANCH   1   5
ATOM      5  C   UNL     1     167.652 171.244 171.669  1.00  0.00     0.190 C 
BRANCH   5   6
ATOM      6  O   UNL     1     168.115 172.093 170.655  1.00  0.00    -0.394 OA
ATOM      7  H   UNL     1     168.395 172.932 171.106  1.00  0.00     0.210 HD
ENDBRANCH   5   6
ENDBRANCH   1   5
BRANCH   1   8
ATOM      8  O   UNL     1     166.599 169.467 170.430  1.00  0.00    -0.388 OA
ATOM      9  H   UNL     1     165.800 169.771 170.936  1.00  0.00     0.211 HD
ENDBRANCH   1   8
TORSDOF 5
ENDMDL
MODEL 5
REMARK VINA RESULT:    -2.900     10.632     11.683
REMARK INTER + INTRA:          -3.710
REMARK INTER:                  -3.501
REMARK INTRA:                  -0.209
REMARK UNBOUND:                -0.216
REMARK SMILES OCC(O)CO
REMARK SMILES IDX 3 1 5 2 6 3 2 5 1 6 4 8
REMARK H PARENT 6 4 1 7 4 9
REMARK Flexibility Score: inf
ROOT
ATOM      1  C   UNL     1     176.801 179.175 170.530  1.00  0.00     0.165 C 
ENDROOT
BRANCH   1   2
ATOM      2  C   UNL     1     175.925 177.913 170.553  1.00  0.00     0.190 C 
BRANCH   2   3
ATOM      3  O   UNL     1     176.705 176.763 170.742  1.00  0.00    -0.394 OA
ATOM      4  H   UNL     1     176.820 176.348 169.847  1.00  0.00     0.210 HD
ENDBRANCH   2   3
ENDBRANCH   1   2
BRANCH   1   5
ATOM      5  C   UNL     1     177.162 179.647 171.947  1.00  0.00     0.190 C 
BRANCH   5   6
ATOM      6  O   UNL     1     177.282 178.551 172.812  1.00  0.00    -0.394 OA
ATOM      7  H   UNL     1     176.654 177.863 172.472  1.00  0.00     0.210 HD
ENDBRANCH   5   6
ENDBRANCH   1   5
BRANCH   1   8
ATOM      8  O   UNL     1     177.972 178.904 169.804  1.00  0.00    -0.388 OA
ATOM      9  H   UNL     1     178.318 178.031 170.129  1.00  0.00     0.211 HD
ENDBRANCH   1   8
TORSDOF 5
ENDMDL
MODEL 6
REMARK VINA RESULT:    -2.869      8.595      9.227
REMARK INTER + INTRA:          -3.672
REMARK INTER:                  -3.455
REMARK INTRA:                  -0.217
REMARK UNBOUND:                -0.216
REMARK SMILES OCC(O)CO
REMARK SMILES IDX 3 1 5 2 6 3 2 5 1 6 4 8
REMARK H PARENT 6 4 1 7 4 9
REMARK Flexibility Score: inf
ROOT
ATOM      1  C   UNL     1     165.312 178.122 167.010  1.00  0.00     0.165 C 
ENDROOT
BRANCH   1   2
ATOM      2  C   UNL     1     165.187 176.592 166.960  1.00  0.00     0.190 C 
BRANCH   2   3
ATOM      3  O   UNL     1     164.003 176.205 166.315  1.00  0.00    -0.394 OA
ATOM      4  H   UNL     1     163.435 177.017 166.255  1.00  0.00     0.210 HD
ENDBRANCH   2   3
ENDBRANCH   1   2
BRANCH   1   5
ATOM      5  C   UNL     1     164.262 178.751 167.940  1.00  0.00     0.190 C 
BRANCH   5   6
ATOM      6  O   UNL     1     163.590 177.757 168.663  1.00  0.00    -0.394 OA
ATOM      7  H   UNL     1     163.919 176.890 168.308  1.00  0.00     0.210 HD
ENDBRANCH   5   6
ENDBRANCH   1   5
BRANCH   1   8
ATOM      8  O   UNL     1     166.603 178.460 167.448  1.00  0.00    -0.388 OA
ATOM      9  H   UNL     1     167.223 177.785 167.066  1.00  0.00     0.211 HD
ENDBRANCH   1   8
TORSDOF 5
ENDMDL
MODEL 7
REMARK VINA RESULT:    -2.812     11.014     12.243
REMARK INTER + INTRA:          -3.604
REMARK INTER:                  -3.596
REMARK INTRA:                  -0.008
REMARK UNBOUND:                -0.216
REMARK SMILES OCC(O)CO
REMARK SMILES IDX 3 1 5 2 6 3 2 5 1 6 4 8
REMARK H PARENT 6 4 1 7 4 9
REMARK Flexibility Score: inf
ROOT
ATOM      1  C   UNL     1     176.636 179.164 171.401  1.00  0.00     0.165 C 
ENDROOT
BRANCH   1   2
ATOM      2  C   UNL     1     177.807 179.995 170.856  1.00  0.00     0.190 C 
BRANCH   2   3
ATOM      3  O   UNL     1     178.874 180.017 171.765  1.00  0.00    -0.394 OA
ATOM      4  H   UNL     1     178.564 179.537 172.578  1.00  0.00     0.210 HD
ENDBRANCH   2   3
ENDBRANCH   1   2
BRANCH   1   5
ATOM      5  C   UNL     1     176.158 178.113 170.386  1.00  0.00     0.190 C 
BRANCH   5   6
ATOM      6  O   UNL     1     176.596 176.836 170.761  1.00  0.00    -0.394 OA
ATOM      7  H   UNL     1     176.923 176.403 169.931  1.00  0.00     0.210 HD
ENDBRANCH   5   6
ENDBRANCH   1   5
BRANCH   1   8
ATOM      8  O   UNL     1     177.037 178.533 172.589  1.00  0.00    -0.388 OA
ATOM      9  H   UNL     1     177.623 179.174 173.072  1.00  0.00     0.211 HD
ENDBRANCH   1   8
TORSDOF 5
ENDMDL
MODEL 8
REMARK VINA RESULT:    -2.798      8.263      9.190
REMARK INTER + INTRA:          -3.587
REMARK INTER:                  -3.364
REMARK INTRA:                  -0.223
REMARK UNBOUND:                -0.216
REMARK SMILES OCC(O)CO
REMARK SMILES IDX 3 1 5 2 6 3 2 5 1 6 4 8
REMARK H PARENT 6 4 1 7 4 9
REMARK Flexibility Score: inf
ROOT
ATOM      1  C   UNL     1     164.303 178.009 167.232  1.00  0.00     0.165 C 
ENDROOT
BRANCH   1   2
ATOM      2  C   UNL     1     165.398 179.031 167.571  1.00  0.00     0.190 C 
BRANCH   2   3
ATOM      3  O   UNL     1     166.674 178.482 167.383  1.00  0.00    -0.394 OA
ATOM      4  H   UNL     1     167.205 178.715 168.189  1.00  0.00     0.210 HD
ENDBRANCH   2   3
ENDBRANCH   1   2
BRANCH   1   5
ATOM      5  C   UNL     1     164.856 176.824 166.423  1.00  0.00     0.190 C 
BRANCH   5   6
ATOM      6  O   UNL     1     165.408 175.863 167.280  1.00  0.00    -0.394 OA
ATOM      7  H   UNL     1     166.320 176.186 167.503  1.00  0.00     0.210 HD
ENDBRANCH   5   6
ENDBRANCH   1   5
BRANCH   1   8
ATOM      8  O   UNL     1     163.726 177.545 168.426  1.00  0.00    -0.388 OA
ATOM      9  H   UNL     1     163.744 176.552 168.387  1.00  0.00     0.211 HD
ENDBRANCH   1   8
TORSDOF 5
ENDMDL
MODEL 9
REMARK VINA RESULT:    -2.750      8.952      9.428
REMARK INTER + INTRA:          -3.529
REMARK INTER:                  -3.309
REMARK INTRA:                  -0.220
REMARK UNBOUND:                -0.216
REMARK SMILES OCC(O)CO
REMARK SMILES IDX 3 1 5 2 6 3 2 5 1 6 4 8
REMARK H PARENT 6 4 1 7 4 9
REMARK Flexibility Score: inf
ROOT
ATOM      1  C   UNL     1     165.235 177.675 167.472  1.00  0.00     0.165 C 
ENDROOT
BRANCH   1   2
ATOM      2  C   UNL     1     164.165 178.522 168.176  1.00  0.00     0.190 C 
BRANCH   2   3
ATOM      3  O   UNL     1     163.152 177.711 168.707  1.00  0.00    -0.394 OA
ATOM      4  H   UNL     1     162.365 177.811 168.110  1.00  0.00     0.210 HD
ENDBRANCH   2   3
ENDBRANCH   1   2
BRANCH   1   5
ATOM      5  C   UNL     1     164.780 177.223 166.075  1.00  0.00     0.190 C 
BRANCH   5   6
ATOM      6  O   UNL     1     163.799 176.228 166.178  1.00  0.00    -0.394 OA
ATOM      7  H   UNL     1     163.985 175.747 167.026  1.00  0.00     0.210 HD
ENDBRANCH   5   6
ENDBRANCH   1   5
BRANCH   1   8
ATOM      8  O   UNL     1     166.417 178.426 167.370  1.00  0.00    -0.388 OA
ATOM      9  H   UNL     1     166.733 178.593 168.297  1.00  0.00     0.211 HD
ENDBRANCH   1   8
TORSDOF 5
ENDMDL
