MODEL 1
REMARK VINA RESULT:    -2.058      0.000      0.000
REMARK INTER + INTRA:          -6.316
REMARK INTER:                  -3.742
REMARK INTRA:                  -2.574
REMARK UNBOUND:                -2.574
REMARK SMILES CCCCCCCCCCCCCCCC(=O)[O-]
REMARK SMILES IDX 9 1 10 2 11 3 12 4 13 5 14 6 15 7 16 8 17 9 18 10 8 11 7 12
REMARK SMILES IDX 6 13 5 14 4 15 3 16 2 17 1 18
REMARK H PARENT
REMARK Flexibility Score: inf
ROOT
ATOM      1  C   UNL     1      -1.757  15.139  -0.040  1.00  0.00     0.000 C 
ENDROOT
BRANCH   1   2
ATOM      2  C   UNL     1      -0.619  15.771  -0.863  1.00  0.00     0.000 C 
BRANCH   2   3
ATOM      3  C   UNL     1      -0.611  15.305  -2.329  1.00  0.00     0.000 C 
BRANCH   3   4
ATOM      4  C   UNL     1      -1.270  13.930  -2.516  1.00  0.00     0.000 C 
BRANCH   4   5
ATOM      5  C   UNL     1      -0.806  13.224  -3.799  1.00  0.00     0.000 C 
BRANCH   5   6
ATOM      6  C   UNL     1       0.636  13.615  -4.152  1.00  0.00     0.006 C 
BRANCH   6   7
ATOM      7  C   UNL     1       0.750  14.201  -5.567  1.00  0.00     0.053 C 
BRANCH   7   8
ATOM      8  C   UNL     1       0.483  13.167  -6.619  1.00  0.00     0.041 C 
ATOM      9  O   UNL     1       1.319  12.249  -6.830  1.00  0.00    -0.550 OA
ATOM     10  O   UNL     1      -0.703  13.199  -7.341  1.00  0.00    -0.550 OA
ENDBRANCH   7   8
ENDBRANCH   6   7
ENDBRANCH   5   6
ENDBRANCH   4   5
ENDBRANCH   3   4
ENDBRANCH   2   3
ENDBRANCH   1   2
BRANCH   1  11
ATOM     11  C   UNL     1      -1.431  14.890   1.445  1.00  0.00     0.000 C 
BRANCH  11  12
ATOM     12  C   UNL     1      -1.579  13.413   1.851  1.00  0.00    -0.000 C 
BRANCH  12  13
ATOM     13  C   UNL     1      -2.357  12.580   0.815  1.00  0.00    -0.000 C 
BRANCH  13  14
ATOM     14  C   UNL     1      -1.568  11.425   0.174  1.00  0.00    -0.000 C 
BRANCH  14  15
ATOM     15  C   UNL     1      -0.089  11.397   0.596  1.00  0.00    -0.000 C 
BRANCH  15  16
ATOM     16  C   UNL     1       0.866  11.619  -0.598  1.00  0.00    -0.000 C 
BRANCH  16  17
ATOM     17  C   UNL     1       1.681  12.919  -0.503  1.00  0.00    -0.003 C 
ATOM     18  C   UNL     1       2.006  13.320   0.934  1.00  0.00     0.004 C 
ENDBRANCH  16  17
ENDBRANCH  15  16
ENDBRANCH  14  15
ENDBRANCH  13  14
ENDBRANCH  12  13
ENDBRANCH  11  12
ENDBRANCH   1  11
TORSDOF 14
ENDMDL
MODEL 2
REMARK VINA RESULT:    -2.024      2.114      3.931
REMARK INTER + INTRA:          -6.254
REMARK INTER:                  -3.660
REMARK INTRA:                  -2.594
REMARK UNBOUND:                -2.574
REMARK SMILES CCCCCCCCCCCCCCCC(=O)[O-]
REMARK SMILES IDX 9 1 10 2 11 3 12 4 13 5 14 6 15 7 16 8 17 9 18 10 8 11 7 12
REMARK SMILES IDX 6 13 5 14 4 15 3 16 2 17 1 18
REMARK H PARENT
REMARK Flexibility Score: inf
ROOT
ATOM      1  C   UNL     1       2.707  16.189  -2.058  1.00  0.00     0.000 C 
ENDROOT
BRANCH   1   2
ATOM      2  C   UNL     1       3.057  15.948  -3.538  1.00  0.00     0.000 C 
BRANCH   2   3
ATOM      3  C   UNL     1       2.000  16.514  -4.503  1.00  0.00     0.000 C 
BRANCH   3   4
ATOM      4  C   UNL     1       1.321  15.422  -5.343  1.00  0.00     0.000 C 
BRANCH   4   5
ATOM      5  C   UNL     1       2.211  14.184  -5.532  1.00  0.00     0.000 C 
BRANCH   5   6
ATOM      6  C   UNL     1       1.363  12.931  -5.792  1.00  0.00     0.006 C 
BRANCH   6   7
ATOM      7  C   UNL     1      -0.014  13.273  -6.378  1.00  0.00     0.053 C 
BRANCH   7   8
ATOM      8  C   UNL     1      -0.091  12.956  -7.840  1.00  0.00     0.041 C 
ATOM      9  O   UNL     1       0.958  12.698  -8.487  1.00  0.00    -0.550 OA
ATOM     10  O   UNL     1      -1.324  12.913  -8.479  1.00  0.00    -0.550 OA
ENDBRANCH   7   8
ENDBRANCH   6   7
ENDBRANCH   5   6
ENDBRANCH   4   5
ENDBRANCH   3   4
ENDBRANCH   2   3
ENDBRANCH   1   2
BRANCH   1  11
ATOM     11  C   UNL     1       2.547  14.916  -1.206  1.00  0.00     0.000 C 
BRANCH  11  12
ATOM     12  C   UNL     1       2.988  13.641  -1.945  1.00  0.00    -0.000 C 
BRANCH  12  13
ATOM     13  C   UNL     1       1.842  12.630  -2.135  1.00  0.00    -0.000 C 
BRANCH  13  14
ATOM     14  C   UNL     1       0.482  13.060  -1.554  1.00  0.00    -0.000 C 
BRANCH  14  15
ATOM     15  C   UNL     1      -0.523  13.497  -2.633  1.00  0.00    -0.000 C 
BRANCH  15  16
ATOM     16  C   UNL     1      -0.834  15.008  -2.566  1.00  0.00    -0.000 C 
BRANCH  16  17
ATOM     17  C   UNL     1      -1.262  15.489  -1.170  1.00  0.00    -0.003 C 
ATOM     18  C   UNL     1      -2.706  15.985  -1.123  1.00  0.00     0.004 C 
ENDBRANCH  16  17
ENDBRANCH  15  16
ENDBRANCH  14  15
ENDBRANCH  13  14
ENDBRANCH  12  13
ENDBRANCH  11  12
ENDBRANCH   1  11
TORSDOF 14
ENDMDL
MODEL 3
REMARK VINA RESULT:    -1.999      1.796      3.835
REMARK INTER + INTRA:          -6.209
REMARK INTER:                  -4.161
REMARK INTRA:                  -2.048
REMARK UNBOUND:                -2.574
REMARK SMILES CCCCCCCCCCCCCCCC(=O)[O-]
REMARK SMILES IDX 9 1 10 2 11 3 12 4 13 5 14 6 15 7 16 8 17 9 18 10 8 11 7 12
REMARK SMILES IDX 6 13 5 14 4 15 3 16 2 17 1 18
REMARK H PARENT
REMARK Flexibility Score: inf
ROOT
ATOM      1  C   UNL     1       2.557  13.414  -2.600  1.00  0.00     0.000 C 
ENDROOT
BRANCH   1   2
ATOM      2  C   UNL     1       1.908  12.546  -3.693  1.00  0.00     0.000 C 
BRANCH   2   3
ATOM      3  C   UNL     1       0.746  13.256  -4.411  1.00  0.00     0.000 C 
BRANCH   3   4
ATOM      4  C   UNL     1       1.229  14.311  -5.417  1.00  0.00     0.000 C 
BRANCH   4   5
ATOM      5  C   UNL     1       1.005  13.882  -6.875  1.00  0.00     0.000 C 
BRANCH   5   6
ATOM      6  C   UNL     1      -0.261  13.022  -7.006  1.00  0.00     0.006 C 
BRANCH   6   7
ATOM      7  C   UNL     1      -0.075  11.861  -7.993  1.00  0.00     0.053 C 
BRANCH   7   8
ATOM      8  C   UNL     1      -0.789  12.110  -9.286  1.00  0.00     0.041 C 
ATOM      9  O   UNL     1      -0.708  11.275 -10.225  1.00  0.00    -0.550 OA
ATOM     10  O   UNL     1      -1.570  13.248  -9.442  1.00  0.00    -0.550 OA
ENDBRANCH   7   8
ENDBRANCH   6   7
ENDBRANCH   5   6
ENDBRANCH   4   5
ENDBRANCH   3   4
ENDBRANCH   2   3
ENDBRANCH   1   2
BRANCH   1  11
ATOM     11  C   UNL     1       2.254  12.981  -1.153  1.00  0.00     0.000 C 
BRANCH  11  12
ATOM     12  C   UNL     1       1.474  11.658  -1.075  1.00  0.00    -0.000 C 
BRANCH  12  13
ATOM     13  C   UNL     1       0.269  11.727  -0.118  1.00  0.00    -0.000 C 
BRANCH  13  14
ATOM     14  C   UNL     1      -0.526  13.045  -0.154  1.00  0.00    -0.000 C 
BRANCH  14  15
ATOM     15  C   UNL     1      -1.431  13.169  -1.392  1.00  0.00    -0.000 C 
BRANCH  15  16
ATOM     16  C   UNL     1      -1.558  14.628  -1.881  1.00  0.00    -0.000 C 
BRANCH  16  17
ATOM     17  C   UNL     1      -0.382  15.525  -1.462  1.00  0.00    -0.003 C 
ATOM     18  C   UNL     1       0.085  16.462  -2.574  1.00  0.00     0.004 C 
ENDBRANCH  16  17
ENDBRANCH  15  16
ENDBRANCH  14  15
ENDBRANCH  13  14
ENDBRANCH  12  13
ENDBRANCH  11  12
ENDBRANCH   1  11
TORSDOF 14
ENDMDL
MODEL 4
REMARK VINA RESULT:    -1.997      7.579      9.838
REMARK INTER + INTRA:          -6.206
REMARK INTER:                  -3.588
REMARK INTRA:                  -2.618
REMARK UNBOUND:                -2.574
REMARK SMILES CCCCCCCCCCCCCCCC(=O)[O-]
REMARK SMILES IDX 9 1 10 2 11 3 12 4 13 5 14 6 15 7 16 8 17 9 18 10 8 11 7 12
REMARK SMILES IDX 6 13 5 14 4 15 3 16 2 17 1 18
REMARK H PARENT
REMARK Flexibility Score: inf
ROOT
ATOM      1  C   UNL     1      -1.543   9.512 -12.109  1.00  0.00     0.000 C 
ENDROOT
BRANCH   1   2
ATOM      2  C   UNL     1      -1.018   8.066 -12.046  1.00  0.00     0.000 C 
BRANCH   2   3
ATOM      3  C   UNL     1       0.148   7.895 -11.055  1.00  0.00     0.000 C 
BRANCH   3   4
ATOM      4  C   UNL     1       0.577   9.222 -10.413  1.00  0.00     0.000 C 
BRANCH   4   5
ATOM      5  C   UNL     1       0.452   9.204  -8.882  1.00  0.00     0.000 C 
BRANCH   5   6
ATOM      6  C   UNL     1       0.331  10.628  -8.323  1.00  0.00     0.006 C 
BRANCH   6   7
ATOM      7  C   UNL     1       0.082  11.667  -9.426  1.00  0.00     0.053 C 
BRANCH   7   8
ATOM      8  C   UNL     1      -0.722  12.828  -8.925  1.00  0.00     0.041 C 
ATOM      9  O   UNL     1      -1.568  13.382  -9.676  1.00  0.00    -0.550 OA
ATOM     10  O   UNL     1      -0.560  13.275  -7.621  1.00  0.00    -0.550 OA
ENDBRANCH   7   8
ENDBRANCH   6   7
ENDBRANCH   5   6
ENDBRANCH   4   5
ENDBRANCH   3   4
ENDBRANCH   2   3
ENDBRANCH   1   2
BRANCH   1  11
ATOM     11  C   UNL     1      -3.045   9.677 -11.807  1.00  0.00     0.000 C 
BRANCH  11  12
ATOM     12  C   UNL     1      -3.314  10.518 -10.547  1.00  0.00    -0.000 C 
BRANCH  12  13
ATOM     13  C   UNL     1      -3.189   9.706  -9.245  1.00  0.00    -0.000 C 
BRANCH  13  14
ATOM     14  C   UNL     1      -4.461   8.952  -8.815  1.00  0.00    -0.000 C 
BRANCH  14  15
ATOM     15  C   UNL     1      -4.213   7.458  -8.540  1.00  0.00    -0.000 C 
BRANCH  15  16
ATOM     16  C   UNL     1      -2.761   7.038  -8.857  1.00  0.00    -0.000 C 
BRANCH  16  17
ATOM     17  C   UNL     1      -2.005   6.468  -7.646  1.00  0.00    -0.003 C 
ATOM     18  C   UNL     1      -0.676   5.815  -8.022  1.00  0.00     0.004 C 
ENDBRANCH  16  17
ENDBRANCH  15  16
ENDBRANCH  14  15
ENDBRANCH  13  14
ENDBRANCH  12  13
ENDBRANCH  11  12
ENDBRANCH   1  11
TORSDOF 14
ENDMDL
MODEL 5
REMARK VINA RESULT:    -1.990      3.149      5.468
REMARK INTER + INTRA:          -6.193
REMARK INTER:                  -3.900
REMARK INTRA:                  -2.293
REMARK UNBOUND:                -2.574
REMARK SMILES CCCCCCCCCCCCCCCC(=O)[O-]
REMARK SMILES IDX 9 1 10 2 11 3 12 4 13 5 14 6 15 7 16 8 17 9 18 10 8 11 7 12
REMARK SMILES IDX 6 13 5 14 4 15 3 16 2 17 1 18
REMARK H PARENT
REMARK Flexibility Score: inf
ROOT
ATOM      1  C   UNL     1      -0.517  15.231  -0.377  1.00  0.00     0.000 C 
ENDROOT
BRANCH   1   2
ATOM      2  C   UNL     1      -1.409  14.220   0.367  1.00  0.00     0.000 C 
BRANCH   2   3
ATOM      3  C   UNL     1      -1.965  13.119  -0.553  1.00  0.00     0.000 C 
BRANCH   3   4
ATOM      4  C   UNL     1      -2.045  11.752   0.142  1.00  0.00     0.000 C 
BRANCH   4   5
ATOM      5  C   UNL     1      -1.282  11.723   1.475  1.00  0.00     0.000 C 
BRANCH   5   6
ATOM      6  C   UNL     1      -0.853  10.293   1.832  1.00  0.00     0.006 C 
BRANCH   6   7
ATOM      7  C   UNL     1      -1.006   9.327   0.647  1.00  0.00     0.053 C 
BRANCH   7   8
ATOM      8  C   UNL     1       0.178   8.418   0.515  1.00  0.00     0.041 C 
ATOM      9  O   UNL     1       0.278   7.399   1.248  1.00  0.00    -0.550 OA
ATOM     10  O   UNL     1       1.151   8.678  -0.441  1.00  0.00    -0.550 OA
ENDBRANCH   7   8
ENDBRANCH   6   7
ENDBRANCH   5   6
ENDBRANCH   4   5
ENDBRANCH   3   4
ENDBRANCH   2   3
ENDBRANCH   1   2
BRANCH   1  11
ATOM     11  C   UNL     1      -0.946  15.543  -1.823  1.00  0.00     0.000 C 
BRANCH  11  12
ATOM     12  C   UNL     1       0.240  15.892  -2.738  1.00  0.00    -0.000 C 
BRANCH  12  13
ATOM     13  C   UNL     1       0.358  14.953  -3.953  1.00  0.00    -0.000 C 
BRANCH  13  14
ATOM     14  C   UNL     1       0.184  13.454  -3.646  1.00  0.00    -0.000 C 
BRANCH  14  15
ATOM     15  C   UNL     1       1.519  12.693  -3.583  1.00  0.00    -0.000 C 
BRANCH  15  16
ATOM     16  C   UNL     1       2.200  12.817  -2.202  1.00  0.00    -0.000 C 
BRANCH  16  17
ATOM     17  C   UNL     1       1.495  12.019  -1.093  1.00  0.00    -0.003 C 
ATOM     18  C   UNL     1       2.238  12.062   0.241  1.00  0.00     0.004 C 
ENDBRANCH  16  17
ENDBRANCH  15  16
ENDBRANCH  14  15
ENDBRANCH  13  14
ENDBRANCH  12  13
ENDBRANCH  11  12
ENDBRANCH   1  11
TORSDOF 14
ENDMDL
MODEL 6
REMARK VINA RESULT:    -1.978      1.299      3.630
REMARK INTER + INTRA:          -6.171
REMARK INTER:                  -3.895
REMARK INTRA:                  -2.276
REMARK UNBOUND:                -2.574
REMARK SMILES CCCCCCCCCCCCCCCC(=O)[O-]
REMARK SMILES IDX 9 1 10 2 11 3 12 4 13 5 14 6 15 7 16 8 17 9 18 10 8 11 7 12
REMARK SMILES IDX 6 13 5 14 4 15 3 16 2 17 1 18
REMARK H PARENT
REMARK Flexibility Score: inf
ROOT
ATOM      1  C   UNL     1       0.503  12.818   0.519  1.00  0.00     0.000 C 
ENDROOT
BRANCH   1   2
ATOM      2  C   UNL     1       0.329  12.193  -0.877  1.00  0.00     0.000 C 
BRANCH   2   3
ATOM      3  C   UNL     1       1.652  12.095  -1.658  1.00  0.00     0.000 C 
BRANCH   3   4
ATOM      4  C   UNL     1       1.670  12.992  -2.904  1.00  0.00     0.000 C 
BRANCH   4   5
ATOM      5  C   UNL     1       0.281  13.140  -3.545  1.00  0.00     0.000 C 
BRANCH   5   6
ATOM      6  C   UNL     1       0.220  14.382  -4.444  1.00  0.00     0.006 C 
BRANCH   6   7
ATOM      7  C   UNL     1       1.096  14.238  -5.697  1.00  0.00     0.053 C 
BRANCH   7   8
ATOM      8  C   UNL     1       0.549  13.211  -6.642  1.00  0.00     0.041 C 
ATOM      9  O   UNL     1      -0.632  13.310  -7.068  1.00  0.00    -0.550 OA
ATOM     10  O   UNL     1       1.354  12.167  -7.077  1.00  0.00    -0.550 OA
ENDBRANCH   7   8
ENDBRANCH   6   7
ENDBRANCH   5   6
ENDBRANCH   4   5
ENDBRANCH   3   4
ENDBRANCH   2   3
ENDBRANCH   1   2
BRANCH   1  11
ATOM     11  C   UNL     1       0.971  14.285   0.527  1.00  0.00     0.000 C 
BRANCH  11  12
ATOM     12  C   UNL     1      -0.186  15.285   0.359  1.00  0.00    -0.000 C 
BRANCH  12  13
ATOM     13  C   UNL     1      -0.223  15.931  -1.039  1.00  0.00    -0.000 C 
BRANCH  13  14
ATOM     14  C   UNL     1      -1.601  15.935  -1.725  1.00  0.00    -0.000 C 
BRANCH  14  15
ATOM     15  C   UNL     1      -2.415  14.658  -1.452  1.00  0.00    -0.000 C 
BRANCH  15  16
ATOM     16  C   UNL     1      -3.780  14.963  -0.799  1.00  0.00    -0.000 C 
BRANCH  16  17
ATOM     17  C   UNL     1      -4.205  13.927   0.255  1.00  0.00    -0.003 C 
ATOM     18  C   UNL     1      -3.183  12.807   0.441  1.00  0.00     0.004 C 
ENDBRANCH  16  17
ENDBRANCH  15  16
ENDBRANCH  14  15
ENDBRANCH  13  14
ENDBRANCH  12  13
ENDBRANCH  11  12
ENDBRANCH   1  11
TORSDOF 14
ENDMDL
MODEL 7
REMARK VINA RESULT:    -1.964      7.966     10.229
REMARK INTER + INTRA:          -6.145
REMARK INTER:                  -3.547
REMARK INTRA:                  -2.598
REMARK UNBOUND:                -2.574
REMARK SMILES CCCCCCCCCCCCCCCC(=O)[O-]
REMARK SMILES IDX 9 1 10 2 11 3 12 4 13 5 14 6 15 7 16 8 17 9 18 10 8 11 7 12
REMARK SMILES IDX 6 13 5 14 4 15 3 16 2 17 1 18
REMARK H PARENT
REMARK Flexibility Score: inf
ROOT
ATOM      1  C   UNL     1      -4.345   9.032  -8.834  1.00  0.00     0.000 C 
ENDROOT
BRANCH   1   2
ATOM      2  C   UNL     1      -4.758   7.571  -9.090  1.00  0.00     0.000 C 
BRANCH   2   3
ATOM      3  C   UNL     1      -3.556   6.612  -9.160  1.00  0.00     0.000 C 
BRANCH   3   4
ATOM      4  C   UNL     1      -2.900   6.387  -7.790  1.00  0.00     0.000 C 
BRANCH   4   5
ATOM      5  C   UNL     1      -1.526   5.709  -7.899  1.00  0.00     0.000 C 
BRANCH   5   6
ATOM      6  C   UNL     1      -0.669   6.000  -6.658  1.00  0.00     0.006 C 
BRANCH   6   7
ATOM      7  C   UNL     1       0.832   5.847  -6.939  1.00  0.00     0.053 C 
BRANCH   7   8
ATOM      8  C   UNL     1       1.648   6.823  -6.148  1.00  0.00     0.041 C 
ATOM      9  O   UNL     1       2.034   7.900  -6.675  1.00  0.00    -0.550 OA
ATOM     10  O   UNL     1       1.953   6.559  -4.818  1.00  0.00    -0.550 OA
ENDBRANCH   7   8
ENDBRANCH   6   7
ENDBRANCH   5   6
ENDBRANCH   4   5
ENDBRANCH   3   4
ENDBRANCH   2   3
ENDBRANCH   1   2
BRANCH   1  11
ATOM     11  C   UNL     1      -3.720   9.758 -10.040  1.00  0.00     0.000 C 
BRANCH  11  12
ATOM     12  C   UNL     1      -2.454  10.550  -9.672  1.00  0.00    -0.000 C 
BRANCH  12  13
ATOM     13  C   UNL     1      -1.868  10.146  -8.306  1.00  0.00    -0.000 C 
BRANCH  13  14
ATOM     14  C   UNL     1      -0.603   9.269  -8.366  1.00  0.00    -0.000 C 
BRANCH  14  15
ATOM     15  C   UNL     1       0.057   9.259  -9.756  1.00  0.00    -0.000 C 
BRANCH  15  16
ATOM     16  C   UNL     1       0.154   7.835 -10.348  1.00  0.00    -0.000 C 
BRANCH  16  17
ATOM     17  C   UNL     1      -0.901   7.543 -11.428  1.00  0.00    -0.003 C 
ATOM     18  C   UNL     1      -0.965   8.618 -12.510  1.00  0.00     0.004 C 
ENDBRANCH  16  17
ENDBRANCH  15  16
ENDBRANCH  14  15
ENDBRANCH  13  14
ENDBRANCH  12  13
ENDBRANCH  11  12
ENDBRANCH   1  11
TORSDOF 14
ENDMDL
MODEL 8
REMARK VINA RESULT:    -1.953      7.965     10.765
REMARK INTER + INTRA:          -6.125
REMARK INTER:                  -3.746
REMARK INTRA:                  -2.379
REMARK UNBOUND:                -2.574
REMARK SMILES CCCCCCCCCCCCCCCC(=O)[O-]
REMARK SMILES IDX 9 1 10 2 11 3 12 4 13 5 14 6 15 7 16 8 17 9 18 10 8 11 7 12
REMARK SMILES IDX 6 13 5 14 4 15 3 16 2 17 1 18
REMARK H PARENT
REMARK Flexibility Score: inf
ROOT
ATOM      1  C   UNL     1      -4.406   9.250 -12.879  1.00  0.00     0.000 C 
ENDROOT
BRANCH   1   2
ATOM      2  C   UNL     1      -4.929  10.682 -13.095  1.00  0.00     0.000 C 
BRANCH   2   3
ATOM      3  C   UNL     1      -4.359  11.688 -12.080  1.00  0.00     0.000 C 
BRANCH   3   4
ATOM      4  C   UNL     1      -3.998  13.036 -12.722  1.00  0.00     0.000 C 
BRANCH   4   5
ATOM      5  C   UNL     1      -2.664  13.597 -12.206  1.00  0.00     0.000 C 
BRANCH   5   6
ATOM      6  C   UNL     1      -2.317  13.011 -10.830  1.00  0.00     0.006 C 
BRANCH   6   7
ATOM      7  C   UNL     1      -0.997  13.567 -10.278  1.00  0.00     0.053 C 
BRANCH   7   8
ATOM      8  C   UNL     1      -0.491  12.755  -9.125  1.00  0.00     0.041 C 
ATOM      9  O   UNL     1       0.420  11.904  -9.302  1.00  0.00    -0.550 OA
ATOM     10  O   UNL     1      -1.001  12.963  -7.850  1.00  0.00    -0.550 OA
ENDBRANCH   7   8
ENDBRANCH   6   7
ENDBRANCH   5   6
ENDBRANCH   4   5
ENDBRANCH   3   4
ENDBRANCH   2   3
ENDBRANCH   1   2
BRANCH   1  11
ATOM     11  C   UNL     1      -2.892   9.066 -13.094  1.00  0.00     0.000 C 
BRANCH  11  12
ATOM     12  C   UNL     1      -2.195   8.393 -11.899  1.00  0.00    -0.000 C 
BRANCH  12  13
ATOM     13  C   UNL     1      -1.499   9.401 -10.964  1.00  0.00    -0.000 C 
BRANCH  13  14
ATOM     14  C   UNL     1      -1.824   9.242  -9.467  1.00  0.00    -0.000 C 
BRANCH  14  15
ATOM     15  C   UNL     1      -3.175   9.866  -9.075  1.00  0.00    -0.000 C 
BRANCH  15  16
ATOM     16  C   UNL     1      -4.246   8.797  -8.766  1.00  0.00    -0.000 C 
BRANCH  16  17
ATOM     17  C   UNL     1      -5.595   9.057  -9.457  1.00  0.00    -0.003 C 
ATOM     18  C   UNL     1      -6.229   7.791 -10.031  1.00  0.00     0.004 C 
ENDBRANCH  16  17
ENDBRANCH  15  16
ENDBRANCH  14  15
ENDBRANCH  13  14
ENDBRANCH  12  13
ENDBRANCH  11  12
ENDBRANCH   1  11
TORSDOF 14
ENDMDL
MODEL 9
REMARK VINA RESULT:    -1.900      6.947     10.187
REMARK INTER + INTRA:          -6.029
REMARK INTER:                  -3.497
REMARK INTRA:                  -2.532
REMARK UNBOUND:                -2.574
REMARK SMILES CCCCCCCCCCCCCCCC(=O)[O-]
REMARK SMILES IDX 9 1 10 2 11 3 12 4 13 5 14 6 15 7 16 8 17 9 18 10 8 11 7 12
REMARK SMILES IDX 6 13 5 14 4 15 3 16 2 17 1 18
REMARK H PARENT
REMARK Flexibility Score: inf
ROOT
ATOM      1  C   UNL     1      -1.158  11.008 -13.084  1.00  0.00     0.000 C 
ENDROOT
BRANCH   1   2
ATOM      2  C   UNL     1       0.259  10.483 -12.791  1.00  0.00     0.000 C 
BRANCH   2   3
ATOM      3  C   UNL     1       0.506  10.228 -11.293  1.00  0.00     0.000 C 
BRANCH   3   4
ATOM      4  C   UNL     1      -0.719   9.628 -10.587  1.00  0.00     0.000 C 
BRANCH   4   5
ATOM      5  C   UNL     1      -0.627   9.731  -9.057  1.00  0.00     0.000 C 
BRANCH   5   6
ATOM      6  C   UNL     1      -1.983  10.118  -8.449  1.00  0.00     0.006 C 
BRANCH   6   7
ATOM      7  C   UNL     1      -3.149   9.851  -9.412  1.00  0.00     0.053 C 
BRANCH   7   8
ATOM      8  C   UNL     1      -4.022   8.733  -8.929  1.00  0.00     0.041 C 
ATOM      9  O   UNL     1      -3.533   7.590  -8.726  1.00  0.00    -0.550 OA
ATOM     10  O   UNL     1      -5.367   8.963  -8.671  1.00  0.00    -0.550 OA
ENDBRANCH   7   8
ENDBRANCH   6   7
ENDBRANCH   5   6
ENDBRANCH   4   5
ENDBRANCH   3   4
ENDBRANCH   2   3
ENDBRANCH   1   2
BRANCH   1  11
ATOM     11  C   UNL     1      -1.217  12.396 -13.751  1.00  0.00     0.000 C 
BRANCH  11  12
ATOM     12  C   UNL     1      -1.856  13.466 -12.850  1.00  0.00    -0.000 C 
BRANCH  12  13
ATOM     13  C   UNL     1      -2.419  12.889 -11.537  1.00  0.00    -0.000 C 
BRANCH  13  14
ATOM     14  C   UNL     1      -1.645  13.274 -10.263  1.00  0.00    -0.000 C 
BRANCH  14  15
ATOM     15  C   UNL     1      -0.175  13.635 -10.538  1.00  0.00    -0.000 C 
BRANCH  15  16
ATOM     16  C   UNL     1       0.605  13.943  -9.241  1.00  0.00    -0.000 C 
BRANCH  16  17
ATOM     17  C   UNL     1       0.068  13.200  -8.007  1.00  0.00    -0.003 C 
ATOM     18  C   UNL     1       1.134  12.369  -7.296  1.00  0.00     0.004 C 
ENDBRANCH  16  17
ENDBRANCH  15  16
ENDBRANCH  14  15
ENDBRANCH  13  14
ENDBRANCH  12  13
ENDBRANCH  11  12
ENDBRANCH   1  11
TORSDOF 14
ENDMDL
