MODEL 1
REMARK VINA RESULT:    -4.760      0.000      0.000
REMARK INTER + INTRA:          -9.480
REMARK INTER:                  -8.378
REMARK INTRA:                  -1.102
REMARK UNBOUND:                -1.102
REMARK SMILES CCCCCCCCCCCCCCC(=O)[O-]
REMARK SMILES IDX 9 1 10 2 11 3 12 4 13 5 14 6 15 7 16 8 17 9 8 10 7 11 6 12
REMARK SMILES IDX 5 13 4 14 3 15 2 16 1 17
REMARK H PARENT
REMARK Flexibility Score: inf
ROOT
ATOM      1  C   UNL     1       4.129  -8.991  -3.738  1.00  0.00     0.000 C 
ENDROOT
BRANCH   1   2
ATOM      2  C   UNL     1       2.695  -9.535  -3.772  1.00  0.00     0.000 C 
BRANCH   2   3
ATOM      3  C   UNL     1       2.188  -9.840  -2.358  1.00  0.00     0.000 C 
BRANCH   3   4
ATOM      4  C   UNL     1       1.245  -8.734  -1.862  1.00  0.00     0.000 C 
BRANCH   4   5
ATOM      5  C   UNL     1       0.704  -9.001  -0.446  1.00  0.00     0.006 C 
BRANCH   5   6
ATOM      6  C   UNL     1      -0.532  -9.913  -0.402  1.00  0.00     0.053 C 
BRANCH   6   7
ATOM      7  C   UNL     1      -1.665  -9.287   0.350  1.00  0.00     0.041 C 
ATOM      8  O   UNL     1      -2.295  -8.314  -0.145  1.00  0.00    -0.550 OA
ATOM      9  O   UNL     1      -2.005  -9.756   1.613  1.00  0.00    -0.550 OA
ENDBRANCH   6   7
ENDBRANCH   5   6
ENDBRANCH   4   5
ENDBRANCH   3   4
ENDBRANCH   2   3
ENDBRANCH   1   2
BRANCH   1  10
ATOM     10  C   UNL     1       4.899  -9.386  -5.004  1.00  0.00     0.000 C 
BRANCH  10  11
ATOM     11  C   UNL     1       3.985 -10.124  -5.994  1.00  0.00    -0.000 C 
BRANCH  11  12
ATOM     12  C   UNL     1       3.939  -9.454  -7.378  1.00  0.00    -0.000 C 
BRANCH  12  13
ATOM     13  C   UNL     1       3.750  -7.923  -7.359  1.00  0.00    -0.000 C 
BRANCH  13  14
ATOM     14  C   UNL     1       2.381  -7.437  -6.847  1.00  0.00    -0.000 C 
BRANCH  14  15
ATOM     15  C   UNL     1       2.500  -6.339  -5.777  1.00  0.00    -0.000 C 
BRANCH  15  16
ATOM     16  C   UNL     1       1.692  -5.081  -6.132  1.00  0.00    -0.003 C 
ATOM     17  C   UNL     1       0.739  -4.653  -5.016  1.00  0.00     0.004 C 
ENDBRANCH  15  16
ENDBRANCH  14  15
ENDBRANCH  13  14
ENDBRANCH  12  13
ENDBRANCH  11  12
ENDBRANCH  10  11
ENDBRANCH   1  10
TORSDOF 13
ENDMDL
MODEL 2
REMARK VINA RESULT:    -4.524      2.436      5.987
REMARK INTER + INTRA:          -9.065
REMARK INTER:                  -8.138
REMARK INTRA:                  -0.927
REMARK UNBOUND:                -1.102
REMARK SMILES CCCCCCCCCCCCCCC(=O)[O-]
REMARK SMILES IDX 9 1 10 2 11 3 12 4 13 5 14 6 15 7 16 8 17 9 8 10 7 11 6 12
REMARK SMILES IDX 5 13 4 14 3 15 2 16 1 17
REMARK H PARENT
REMARK Flexibility Score: inf
ROOT
ATOM      1  C   UNL     1       4.600  -8.061  -4.891  1.00  0.00     0.000 C 
ENDROOT
BRANCH   1   2
ATOM      2  C   UNL     1       4.138  -8.669  -6.221  1.00  0.00     0.000 C 
BRANCH   2   3
ATOM      3  C   UNL     1       3.040  -7.815  -6.865  1.00  0.00     0.000 C 
BRANCH   3   4
ATOM      4  C   UNL     1       2.318  -6.962  -5.812  1.00  0.00     0.000 C 
BRANCH   4   5
ATOM      5  C   UNL     1       1.908  -5.577  -6.344  1.00  0.00     0.006 C 
BRANCH   5   6
ATOM      6  C   UNL     1       1.768  -4.498  -5.259  1.00  0.00     0.053 C 
BRANCH   6   7
ATOM      7  C   UNL     1       0.356  -4.365  -4.779  1.00  0.00     0.041 C 
ATOM      8  O   UNL     1       0.085  -4.506  -3.557  1.00  0.00    -0.550 OA
ATOM      9  O   UNL     1      -0.667  -4.118  -5.686  1.00  0.00    -0.550 OA
ENDBRANCH   6   7
ENDBRANCH   5   6
ENDBRANCH   4   5
ENDBRANCH   3   4
ENDBRANCH   2   3
ENDBRANCH   1   2
BRANCH   1  10
ATOM     10  C   UNL     1       4.504  -9.086  -3.754  1.00  0.00     0.000 C 
BRANCH  10  11
ATOM     11  C   UNL     1       3.113  -9.735  -3.716  1.00  0.00    -0.000 C 
BRANCH  11  12
ATOM     12  C   UNL     1       2.445  -9.634  -2.333  1.00  0.00    -0.000 C 
BRANCH  12  13
ATOM     13  C   UNL     1       1.088  -8.901  -2.312  1.00  0.00    -0.000 C 
BRANCH  13  14
ATOM     14  C   UNL     1       0.581  -8.496  -0.916  1.00  0.00    -0.000 C 
BRANCH  14  15
ATOM     15  C   UNL     1       0.089  -9.696  -0.089  1.00  0.00    -0.000 C 
BRANCH  15  16
ATOM     16  C   UNL     1      -1.440  -9.716   0.066  1.00  0.00    -0.003 C 
ATOM     17  C   UNL     1      -2.068  -8.329  -0.066  1.00  0.00     0.004 C 
ENDBRANCH  15  16
ENDBRANCH  14  15
ENDBRANCH  13  14
ENDBRANCH  12  13
ENDBRANCH  11  12
ENDBRANCH  10  11
ENDBRANCH   1  10
TORSDOF 13
ENDMDL
MODEL 3
REMARK VINA RESULT:    -4.465      3.932      6.749
REMARK INTER + INTRA:          -8.959
REMARK INTER:                  -8.054
REMARK INTRA:                  -0.905
REMARK UNBOUND:                -1.102
REMARK SMILES CCCCCCCCCCCCCCC(=O)[O-]
REMARK SMILES IDX 9 1 10 2 11 3 12 4 13 5 14 6 15 7 16 8 17 9 8 10 7 11 6 12
REMARK SMILES IDX 5 13 4 14 3 15 2 16 1 17
REMARK H PARENT
REMARK Flexibility Score: inf
ROOT
ATOM      1  C   UNL     1       0.761  -9.558   0.241  1.00  0.00     0.000 C 
ENDROOT
BRANCH   1   2
ATOM      2  C   UNL     1       1.285 -10.083  -1.101  1.00  0.00     0.000 C 
BRANCH   2   3
ATOM      3  C   UNL     1       2.043  -8.990  -1.863  1.00  0.00     0.000 C 
BRANCH   3   4
ATOM      4  C   UNL     1       2.373  -9.443  -3.293  1.00  0.00     0.000 C 
BRANCH   4   5
ATOM      5  C   UNL     1       3.816  -9.104  -3.709  1.00  0.00     0.006 C 
BRANCH   5   6
ATOM      6  C   UNL     1       3.922  -8.246  -4.979  1.00  0.00     0.053 C 
BRANCH   6   7
ATOM      7  C   UNL     1       4.751  -8.908  -6.036  1.00  0.00     0.041 C 
ATOM      8  O   UNL     1       5.868  -9.411  -5.743  1.00  0.00    -0.550 OA
ATOM      9  O   UNL     1       4.304  -8.943  -7.350  1.00  0.00    -0.550 OA
ENDBRANCH   6   7
ENDBRANCH   5   6
ENDBRANCH   4   5
ENDBRANCH   3   4
ENDBRANCH   2   3
ENDBRANCH   1   2
BRANCH   1  10
ATOM     10  C   UNL     1      -0.631 -10.124   0.548  1.00  0.00     0.000 C 
BRANCH  10  11
ATOM     11  C   UNL     1      -1.707  -9.418  -0.289  1.00  0.00    -0.000 C 
BRANCH  11  12
ATOM     12  C   UNL     1      -1.598  -7.883  -0.230  1.00  0.00    -0.000 C 
BRANCH  12  13
ATOM     13  C   UNL     1      -1.099  -7.212  -1.526  1.00  0.00    -0.000 C 
BRANCH  13  14
ATOM     14  C   UNL     1       0.036  -6.188  -1.340  1.00  0.00    -0.000 C 
BRANCH  14  15
ATOM     15  C   UNL     1       0.041  -5.099  -2.425  1.00  0.00    -0.000 C 
BRANCH  15  16
ATOM     16  C   UNL     1       0.841  -3.855  -2.008  1.00  0.00    -0.003 C 
ATOM     17  C   UNL     1       0.697  -3.530  -0.520  1.00  0.00     0.004 C 
ENDBRANCH  15  16
ENDBRANCH  14  15
ENDBRANCH  13  14
ENDBRANCH  12  13
ENDBRANCH  11  12
ENDBRANCH  10  11
ENDBRANCH   1  10
TORSDOF 13
ENDMDL
MODEL 4
REMARK VINA RESULT:    -4.291      2.016      4.161
REMARK INTER + INTRA:          -8.654
REMARK INTER:                  -7.346
REMARK INTRA:                  -1.308
REMARK UNBOUND:                -1.102
REMARK SMILES CCCCCCCCCCCCCCC(=O)[O-]
REMARK SMILES IDX 9 1 10 2 11 3 12 4 13 5 14 6 15 7 16 8 17 9 8 10 7 11 6 12
REMARK SMILES IDX 5 13 4 14 3 15 2 16 1 17
REMARK H PARENT
REMARK Flexibility Score: inf
ROOT
ATOM      1  C   UNL     1       1.634  -9.764  -0.224  1.00  0.00     0.000 C 
ENDROOT
BRANCH   1   2
ATOM      2  C   UNL     1       0.354  -9.708   0.620  1.00  0.00     0.000 C 
BRANCH   2   3
ATOM      3  C   UNL     1      -0.869 -10.124  -0.205  1.00  0.00     0.000 C 
BRANCH   3   4
ATOM      4  C   UNL     1      -2.107  -9.309   0.197  1.00  0.00     0.000 C 
BRANCH   4   5
ATOM      5  C   UNL     1      -1.953  -7.806  -0.096  1.00  0.00     0.006 C 
BRANCH   5   6
ATOM      6  C   UNL     1      -1.466  -7.485  -1.518  1.00  0.00     0.053 C 
BRANCH   6   7
ATOM      7  C   UNL     1      -0.318  -6.524  -1.514  1.00  0.00     0.041 C 
ATOM      8  O   UNL     1       0.411  -6.411  -0.493  1.00  0.00    -0.550 OA
ATOM      9  O   UNL     1      -0.072  -5.729  -2.626  1.00  0.00    -0.550 OA
ENDBRANCH   6   7
ENDBRANCH   5   6
ENDBRANCH   4   5
ENDBRANCH   3   4
ENDBRANCH   2   3
ENDBRANCH   1   2
BRANCH   1  10
ATOM     10  C   UNL     1       1.306  -9.951  -1.710  1.00  0.00     0.000 C 
BRANCH  10  11
ATOM     11  C   UNL     1       2.006  -8.884  -2.565  1.00  0.00    -0.000 C 
BRANCH  11  12
ATOM     12  C   UNL     1       2.903  -9.491  -3.659  1.00  0.00    -0.000 C 
BRANCH  12  13
ATOM     13  C   UNL     1       4.333  -8.917  -3.726  1.00  0.00    -0.000 C 
BRANCH  13  14
ATOM     14  C   UNL     1       5.136  -9.302  -4.983  1.00  0.00    -0.000 C 
BRANCH  14  15
ATOM     15  C   UNL     1       4.252  -9.867  -6.106  1.00  0.00    -0.000 C 
BRANCH  15  16
ATOM     16  C   UNL     1       4.112  -8.897  -7.290  1.00  0.00    -0.003 C 
ATOM     17  C   UNL     1       3.168  -7.731  -6.993  1.00  0.00     0.004 C 
ENDBRANCH  15  16
ENDBRANCH  14  15
ENDBRANCH  13  14
ENDBRANCH  12  13
ENDBRANCH  11  12
ENDBRANCH  10  11
ENDBRANCH   1  10
TORSDOF 13
ENDMDL
MODEL 5
REMARK VINA RESULT:    -4.215      7.086     10.268
REMARK INTER + INTRA:          -8.520
REMARK INTER:                  -7.862
REMARK INTRA:                  -0.658
REMARK UNBOUND:                -1.102
REMARK SMILES CCCCCCCCCCCCCCC(=O)[O-]
REMARK SMILES IDX 9 1 10 2 11 3 12 4 13 5 14 6 15 7 16 8 17 9 8 10 7 11 6 12
REMARK SMILES IDX 5 13 4 14 3 15 2 16 1 17
REMARK H PARENT
REMARK Flexibility Score: inf
ROOT
ATOM      1  C   UNL     1       0.785  -1.014   1.138  1.00  0.00     0.000 C 
ENDROOT
BRANCH   1   2
ATOM      2  C   UNL     1       0.396   0.470   1.114  1.00  0.00     0.000 C 
BRANCH   2   3
ATOM      3  C   UNL     1      -0.450   0.798  -0.122  1.00  0.00     0.000 C 
BRANCH   3   4
ATOM      4  C   UNL     1      -1.110   2.178   0.015  1.00  0.00     0.000 C 
BRANCH   4   5
ATOM      5  C   UNL     1      -1.405   2.836  -1.345  1.00  0.00     0.006 C 
BRANCH   5   6
ATOM      6  C   UNL     1      -0.671   2.192  -2.532  1.00  0.00     0.053 C 
BRANCH   6   7
ATOM      7  C   UNL     1       0.480   3.029  -2.999  1.00  0.00     0.041 C 
ATOM      8  O   UNL     1       0.722   4.137  -2.451  1.00  0.00    -0.550 OA
ATOM      9  O   UNL     1       1.268   2.598  -4.059  1.00  0.00    -0.550 OA
ENDBRANCH   6   7
ENDBRANCH   5   6
ENDBRANCH   4   5
ENDBRANCH   3   4
ENDBRANCH   2   3
ENDBRANCH   1   2
BRANCH   1  10
ATOM     10  C   UNL     1       0.116  -1.777  -0.012  1.00  0.00     0.000 C 
BRANCH  10  11
ATOM     11  C   UNL     1       0.794  -3.136  -0.236  1.00  0.00    -0.000 C 
BRANCH  11  12
ATOM     12  C   UNL     1       0.891  -3.517  -1.724  1.00  0.00    -0.000 C 
BRANCH  12  13
ATOM     13  C   UNL     1       0.303  -4.897  -2.087  1.00  0.00    -0.000 C 
BRANCH  13  14
ATOM     14  C   UNL     1       0.090  -5.853  -0.898  1.00  0.00    -0.000 C 
BRANCH  14  15
ATOM     15  C   UNL     1      -0.019  -7.325  -1.328  1.00  0.00    -0.000 C 
BRANCH  15  16
ATOM     16  C   UNL     1      -1.457  -7.859  -1.237  1.00  0.00    -0.003 C 
ATOM     17  C   UNL     1      -1.623  -8.933  -0.160  1.00  0.00     0.004 C 
ENDBRANCH  15  16
ENDBRANCH  14  15
ENDBRANCH  13  14
ENDBRANCH  12  13
ENDBRANCH  11  12
ENDBRANCH  10  11
ENDBRANCH   1  10
TORSDOF 13
ENDMDL
MODEL 6
REMARK VINA RESULT:    -4.049      5.907      8.550
REMARK INTER + INTRA:          -8.227
REMARK INTER:                  -7.678
REMARK INTRA:                  -0.550
REMARK UNBOUND:                -1.102
REMARK SMILES CCCCCCCCCCCCCCC(=O)[O-]
REMARK SMILES IDX 9 1 10 2 11 3 12 4 13 5 14 6 15 7 16 8 17 9 8 10 7 11 6 12
REMARK SMILES IDX 5 13 4 14 3 15 2 16 1 17
REMARK H PARENT
REMARK Flexibility Score: inf
ROOT
ATOM      1  C   UNL     1       0.289  -1.913   0.053  1.00  0.00     0.000 C 
ENDROOT
BRANCH   1   2
ATOM      2  C   UNL     1       1.132  -3.189  -0.058  1.00  0.00     0.000 C 
BRANCH   2   3
ATOM      3  C   UNL     1       0.636  -4.081  -1.202  1.00  0.00     0.000 C 
BRANCH   3   4
ATOM      4  C   UNL     1       0.114  -5.422  -0.666  1.00  0.00     0.000 C 
BRANCH   4   5
ATOM      5  C   UNL     1       0.044  -6.512  -1.752  1.00  0.00     0.006 C 
BRANCH   5   6
ATOM      6  C   UNL     1       0.109  -7.949  -1.211  1.00  0.00     0.053 C 
BRANCH   6   7
ATOM      7  C   UNL     1      -1.237  -8.604  -1.198  1.00  0.00     0.041 C 
ATOM      8  O   UNL     1      -1.509  -9.509  -2.030  1.00  0.00    -0.550 OA
ATOM      9  O   UNL     1      -2.202  -8.194  -0.287  1.00  0.00    -0.550 OA
ENDBRANCH   6   7
ENDBRANCH   5   6
ENDBRANCH   4   5
ENDBRANCH   3   4
ENDBRANCH   2   3
ENDBRANCH   1   2
BRANCH   1  10
ATOM     10  C   UNL     1       0.739  -1.057   1.243  1.00  0.00     0.000 C 
BRANCH  10  11
ATOM     11  C   UNL     1       0.589   0.439   0.930  1.00  0.00    -0.000 C 
BRANCH  11  12
ATOM     12  C   UNL     1      -0.516   0.726  -0.102  1.00  0.00    -0.000 C 
BRANCH  12  13
ATOM     13  C   UNL     1      -1.172   2.118   0.010  1.00  0.00    -0.000 C 
BRANCH  13  14
ATOM     14  C   UNL     1      -1.802   2.653  -1.289  1.00  0.00    -0.000 C 
BRANCH  14  15
ATOM     15  C   UNL     1      -1.081   2.154  -2.551  1.00  0.00    -0.000 C 
BRANCH  15  16
ATOM     16  C   UNL     1       0.219   2.924  -2.830  1.00  0.00    -0.003 C 
ATOM     17  C   UNL     1       0.824   2.592  -4.195  1.00  0.00     0.004 C 
ENDBRANCH  15  16
ENDBRANCH  14  15
ENDBRANCH  13  14
ENDBRANCH  12  13
ENDBRANCH  11  12
ENDBRANCH  10  11
ENDBRANCH   1  10
TORSDOF 13
ENDMDL
MODEL 7
REMARK VINA RESULT:    -4.033      1.301      2.389
REMARK INTER + INTRA:          -8.201
REMARK INTER:                  -7.348
REMARK INTRA:                  -0.853
REMARK UNBOUND:                -1.102
REMARK SMILES CCCCCCCCCCCCCCC(=O)[O-]
REMARK SMILES IDX 9 1 10 2 11 3 12 4 13 5 14 6 15 7 16 8 17 9 8 10 7 11 6 12
REMARK SMILES IDX 5 13 4 14 3 15 2 16 1 17
REMARK H PARENT
REMARK Flexibility Score: inf
ROOT
ATOM      1  C   UNL     1       4.367  -8.452  -4.569  1.00  0.00     0.000 C 
ENDROOT
BRANCH   1   2
ATOM      2  C   UNL     1       3.843  -9.543  -3.627  1.00  0.00     0.000 C 
BRANCH   2   3
ATOM      3  C   UNL     1       2.311  -9.532  -3.570  1.00  0.00     0.000 C 
BRANCH   3   4
ATOM      4  C   UNL     1       1.813  -8.868  -2.277  1.00  0.00     0.000 C 
BRANCH   4   5
ATOM      5  C   UNL     1       1.384  -9.890  -1.209  1.00  0.00     0.006 C 
BRANCH   5   6
ATOM      6  C   UNL     1       0.260  -9.401  -0.281  1.00  0.00     0.053 C 
BRANCH   6   7
ATOM      7  C   UNL     1      -1.035  -9.229  -1.012  1.00  0.00     0.041 C 
ATOM      8  O   UNL     1      -1.411 -10.093  -1.849  1.00  0.00    -0.550 OA
ATOM      9  O   UNL     1      -1.813  -8.099  -0.794  1.00  0.00    -0.550 OA
ENDBRANCH   6   7
ENDBRANCH   5   6
ENDBRANCH   4   5
ENDBRANCH   3   4
ENDBRANCH   2   3
ENDBRANCH   1   2
BRANCH   1  10
ATOM     10  C   UNL     1       4.098  -8.814  -6.035  1.00  0.00     0.000 C 
BRANCH  10  11
ATOM     11  C   UNL     1       3.202  -7.761  -6.704  1.00  0.00    -0.000 C 
BRANCH  11  12
ATOM     12  C   UNL     1       2.488  -6.851  -5.688  1.00  0.00    -0.000 C 
BRANCH  12  13
ATOM     13  C   UNL     1       1.834  -5.589  -6.285  1.00  0.00    -0.000 C 
BRANCH  13  14
ATOM     14  C   UNL     1       1.610  -4.433  -5.293  1.00  0.00    -0.000 C 
BRANCH  14  15
ATOM     15  C   UNL     1       0.175  -4.389  -4.743  1.00  0.00    -0.000 C 
BRANCH  15  16
ATOM     16  C   UNL     1       0.125  -4.548  -3.215  1.00  0.00    -0.003 C 
ATOM     17  C   UNL     1       0.964  -3.502  -2.482  1.00  0.00     0.004 C 
ENDBRANCH  15  16
ENDBRANCH  14  15
ENDBRANCH  13  14
ENDBRANCH  12  13
ENDBRANCH  11  12
ENDBRANCH  10  11
ENDBRANCH   1  10
TORSDOF 13
ENDMDL
MODEL 8
REMARK VINA RESULT:    -4.008      6.887      9.715
REMARK INTER + INTRA:          -8.156
REMARK INTER:                  -7.570
REMARK INTRA:                  -0.585
REMARK UNBOUND:                -1.102
REMARK SMILES CCCCCCCCCCCCCCC(=O)[O-]
REMARK SMILES IDX 9 1 10 2 11 3 12 4 13 5 14 6 15 7 16 8 17 9 8 10 7 11 6 12
REMARK SMILES IDX 5 13 4 14 3 15 2 16 1 17
REMARK H PARENT
REMARK Flexibility Score: inf
ROOT
ATOM      1  C   UNL     1       0.381  -2.170  -0.265  1.00  0.00     0.000 C 
ENDROOT
BRANCH   1   2
ATOM      2  C   UNL     1       0.869  -1.684   1.106  1.00  0.00     0.000 C 
BRANCH   2   3
ATOM      3  C   UNL     1       0.769  -0.159   1.217  1.00  0.00     0.000 C 
BRANCH   3   4
ATOM      4  C   UNL     1      -0.115   0.418   0.102  1.00  0.00     0.000 C 
BRANCH   4   5
ATOM      5  C   UNL     1      -0.663   1.817   0.437  1.00  0.00     0.006 C 
BRANCH   5   6
ATOM      6  C   UNL     1      -1.868   2.245  -0.416  1.00  0.00     0.053 C 
BRANCH   6   7
ATOM      7  C   UNL     1      -1.798   3.691  -0.798  1.00  0.00     0.041 C 
ATOM      8  O   UNL     1      -2.566   4.528  -0.254  1.00  0.00    -0.550 OA
ATOM      9  O   UNL     1      -0.906   4.110  -1.777  1.00  0.00    -0.550 OA
ENDBRANCH   6   7
ENDBRANCH   5   6
ENDBRANCH   4   5
ENDBRANCH   3   4
ENDBRANCH   2   3
ENDBRANCH   1   2
BRANCH   1  10
ATOM     10  C   UNL     1       0.750  -3.641  -0.491  1.00  0.00     0.000 C 
BRANCH  10  11
ATOM     11  C   UNL     1       0.711  -3.993  -1.985  1.00  0.00    -0.000 C 
BRANCH  11  12
ATOM     12  C   UNL     1      -0.043  -5.305  -2.271  1.00  0.00    -0.000 C 
BRANCH  12  13
ATOM     13  C   UNL     1       0.012  -6.352  -1.139  1.00  0.00    -0.000 C 
BRANCH  13  14
ATOM     14  C   UNL     1       0.460  -7.761  -1.569  1.00  0.00    -0.000 C 
BRANCH  14  15
ATOM     15  C   UNL     1      -0.512  -8.861  -1.111  1.00  0.00    -0.000 C 
BRANCH  15  16
ATOM     16  C   UNL     1      -1.735  -8.296  -0.372  1.00  0.00    -0.003 C 
ATOM     17  C   UNL     1      -2.176  -9.172   0.801  1.00  0.00     0.004 C 
ENDBRANCH  15  16
ENDBRANCH  14  15
ENDBRANCH  13  14
ENDBRANCH  12  13
ENDBRANCH  11  12
ENDBRANCH  10  11
ENDBRANCH   1  10
TORSDOF 13
ENDMDL
