MODEL 1
REMARK VINA RESULT:    -3.591      0.000      0.000
REMARK INTER + INTRA:          -5.666
REMARK INTER:                  -5.481
REMARK INTRA:                  -0.185
REMARK UNBOUND:                -0.185
REMARK SMILES CC1=CCC[C@@H](C)C(=O)C[C@H](C(C)C)C(=O)C1
REMARK SMILES IDX 8 1 9 2 6 3 7 4 5 5 4 6 3 7 2 8 1 9 10 11 11 12 15 13 16 14
REMARK SMILES IDX 17 15 12 17 13 18 14 19
REMARK H PARENT
REMARK Flexibility Score: 70.00
ROOT
ATOM      1  C   UNL     1      16.028  -2.290  60.075  1.00  0.00     0.136 C 
ATOM      2  O   UNL     1      14.947  -1.825  60.414  1.00  0.00    -0.299 OA
ENDROOT
BRANCH   1   3
ATOM      3  C   UNL     1      16.649  -3.430  60.862  1.00  0.00     0.053 C 
ATOM      4  C   UNL     1      15.857  -4.739  60.713  1.00  0.00     0.016 C 
BRANCH   3   5
ATOM      5  C   UNL     1      16.851  -3.050  62.343  1.00  0.00     0.015 C 
BRANCH   5   6
ATOM      6  C   UNL     1      17.713  -1.788  62.554  1.00  0.00     0.028 C 
BRANCH   6   7
ATOM      7  C   UNL     1      19.099  -1.974  61.989  1.00  0.00    -0.028 C 
ATOM      8  C   UNL     1      19.695  -1.132  61.112  1.00  0.00    -0.070 CG0
ATOM      9  C   UNL     1      21.072  -1.487  60.612  1.00  0.00     0.039 C 
ATOM     10  G   UNL     1      19.045   0.153  60.620  1.00  0.00     0.000 G0
ENDBRANCH   6   7
ENDBRANCH   5   6
ENDBRANCH   3   5
ENDBRANCH   1   3
BRANCH   1  11
ATOM     11  C   UNL     1      16.725  -1.710  58.868  1.00  0.00     0.087 C 
BRANCH  11  12
ATOM     12  C   UNL     1      17.004  -0.192  59.028  1.00  0.00     0.066 C 
BRANCH  12  13
ATOM     13  C   UNL     1      18.493   0.028  59.247  1.00  0.00     0.140 C 
ATOM     14  O   UNL     1      19.225   0.191  58.279  1.00  0.00    -0.299 OA
BRANCH  13  15
ATOM     15  C   UNL     1      19.055   0.156  60.640  1.00  0.00     0.106 CG0
ATOM     16  G   UNL     1      19.680  -1.139  61.139  1.00  0.00     0.000 G0
ENDBRANCH  13  15
ENDBRANCH  12  13
BRANCH  12  17
ATOM     17  C   UNL     1      16.499   0.647  57.809  1.00  0.00    -0.006 C 
ATOM     18  C   UNL     1      16.174  -0.233  56.587  1.00  0.00     0.008 C 
ATOM     19  C   UNL     1      15.244   1.463  58.176  1.00  0.00     0.008 C 
ENDBRANCH  12  17
ENDBRANCH  11  12
ENDBRANCH   1  11
TORSDOF 1
ENDMDL
MODEL 2
REMARK VINA RESULT:    -3.536      9.677     12.004
REMARK INTER + INTRA:          -5.582
REMARK INTER:                  -5.650
REMARK INTRA:                   0.068
REMARK UNBOUND:                -0.185
REMARK SMILES CC1=CCC[C@@H](C)C(=O)C[C@H](C(C)C)C(=O)C1
REMARK SMILES IDX 8 1 9 2 6 3 7 4 5 5 4 6 3 7 2 8 1 9 10 11 11 12 15 13 16 14
REMARK SMILES IDX 17 15 12 17 13 18 14 19
REMARK H PARENT
REMARK Flexibility Score: 70.00
ROOT
ATOM      1  C   UNL     1      25.825  -4.356  52.143  1.00  0.00     0.136 C 
ATOM      2  O   UNL     1      25.750  -4.322  50.922  1.00  0.00    -0.299 OA
ENDROOT
BRANCH   1   3
ATOM      3  C   UNL     1      25.096  -3.322  52.983  1.00  0.00     0.053 C 
ATOM      4  C   UNL     1      25.960  -2.080  53.255  1.00  0.00     0.016 C 
BRANCH   3   5
ATOM      5  C   UNL     1      24.552  -3.936  54.289  1.00  0.00     0.015 C 
BRANCH   5   6
ATOM      6  C   UNL     1      24.774  -3.055  55.536  1.00  0.00     0.028 C 
BRANCH   6   7
ATOM      7  C   UNL     1      25.253  -3.877  56.705  1.00  0.00    -0.028 C 
ATOM      8  C   UNL     1      26.515  -4.346  56.855  1.00  0.00    -0.070 CG0
ATOM      9  C   UNL     1      26.818  -5.189  58.067  1.00  0.00     0.039 C 
ATOM     10  G   UNL     1      27.633  -4.053  55.865  1.00  0.00     0.000 G0
ENDBRANCH   6   7
ENDBRANCH   5   6
ENDBRANCH   3   5
ENDBRANCH   1   3
BRANCH   1  11
ATOM     11  C   UNL     1      26.649  -5.442  52.793  1.00  0.00     0.087 C 
BRANCH  11  12
ATOM     12  C   UNL     1      27.957  -4.887  53.417  1.00  0.00     0.066 C 
BRANCH  12  13
ATOM     13  C   UNL     1      27.952  -5.143  54.916  1.00  0.00     0.140 C 
ATOM     14  O   UNL     1      28.279  -6.244  55.339  1.00  0.00    -0.299 OA
BRANCH  13  15
ATOM     15  C   UNL     1      27.654  -4.028  55.886  1.00  0.00     0.106 CG0
ATOM     16  G   UNL     1      26.519  -4.371  56.840  1.00  0.00     0.000 G0
ENDBRANCH  13  15
ENDBRANCH  12  13
BRANCH  12  17
ATOM     17  C   UNL     1      29.242  -5.493  52.762  1.00  0.00    -0.006 C 
ATOM     18  C   UNL     1      29.168  -5.498  51.223  1.00  0.00     0.008 C 
ATOM     19  C   UNL     1      30.503  -4.719  53.192  1.00  0.00     0.008 C 
ENDBRANCH  12  17
ENDBRANCH  11  12
ENDBRANCH   1  11
TORSDOF 1
ENDMDL
MODEL 3
REMARK VINA RESULT:    -3.444      2.481      3.351
REMARK INTER + INTRA:          -5.442
REMARK INTER:                  -5.254
REMARK INTRA:                  -0.188
REMARK UNBOUND:                -0.185
REMARK SMILES CC1=CCC[C@@H](C)C(=O)C[C@H](C(C)C)C(=O)C1
REMARK SMILES IDX 8 1 9 2 6 3 7 4 5 5 4 6 3 7 2 8 1 9 10 11 11 12 15 13 16 14
REMARK SMILES IDX 17 15 12 17 13 18 14 19
REMARK H PARENT
REMARK Flexibility Score: 70.00
ROOT
ATOM      1  C   UNL     1      16.605  -1.718  60.090  1.00  0.00     0.136 C 
ATOM      2  O   UNL     1      16.456  -2.807  59.552  1.00  0.00    -0.299 OA
ENDROOT
BRANCH   1   3
ATOM      3  C   UNL     1      15.815  -1.367  61.338  1.00  0.00     0.053 C 
ATOM      4  C   UNL     1      15.850  -2.492  62.385  1.00  0.00     0.016 C 
BRANCH   3   5
ATOM      5  C   UNL     1      14.369  -0.953  60.993  1.00  0.00     0.015 C 
BRANCH   5   6
ATOM      6  C   UNL     1      14.059   0.532  61.276  1.00  0.00     0.028 C 
BRANCH   6   7
ATOM      7  C   UNL     1      15.148   1.167  62.103  1.00  0.00    -0.028 C 
ATOM      8  C   UNL     1      16.086   2.018  61.623  1.00  0.00    -0.070 CG0
ATOM      9  C   UNL     1      17.132   2.533  62.579  1.00  0.00     0.039 C 
ATOM     10  G   UNL     1      16.125   2.481  60.174  1.00  0.00     0.000 G0
ENDBRANCH   6   7
ENDBRANCH   5   6
ENDBRANCH   3   5
ENDBRANCH   1   3
BRANCH   1  11
ATOM     11  C   UNL     1      17.585  -0.737  59.491  1.00  0.00     0.087 C 
BRANCH  11  12
ATOM     12  C   UNL     1      16.872   0.405  58.720  1.00  0.00     0.066 C 
BRANCH  12  13
ATOM     13  C   UNL     1      17.193   1.738  59.377  1.00  0.00     0.140 C 
ATOM     14  O   UNL     1      18.285   2.257  59.181  1.00  0.00    -0.299 OA
BRANCH  13  15
ATOM     15  C   UNL     1      16.147   2.475  60.175  1.00  0.00     0.106 CG0
ATOM     16  G   UNL     1      16.087   2.017  61.625  1.00  0.00     0.000 G0
ENDBRANCH  13  15
ENDBRANCH  12  13
BRANCH  12  17
ATOM     17  C   UNL     1      17.249   0.436  57.203  1.00  0.00    -0.006 C 
ATOM     18  C   UNL     1      18.611  -0.227  56.924  1.00  0.00     0.008 C 
ATOM     19  C   UNL     1      16.175  -0.265  56.348  1.00  0.00     0.008 C 
ENDBRANCH  12  17
ENDBRANCH  11  12
ENDBRANCH   1  11
TORSDOF 1
ENDMDL
MODEL 4
REMARK VINA RESULT:    -3.409      2.626      5.017
REMARK INTER + INTRA:          -5.389
REMARK INTER:                  -5.179
REMARK INTRA:                  -0.210
REMARK UNBOUND:                -0.185
REMARK SMILES CC1=CCC[C@@H](C)C(=O)C[C@H](C(C)C)C(=O)C1
REMARK SMILES IDX 8 1 9 2 6 3 7 4 5 5 4 6 3 7 2 8 1 9 10 11 11 12 15 13 16 14
REMARK SMILES IDX 17 15 12 17 13 18 14 19
REMARK H PARENT
REMARK Flexibility Score: 70.00
ROOT
ATOM      1  C   UNL     1      16.039   1.272  61.753  1.00  0.00     0.136 C 
ATOM      2  O   UNL     1      15.031   1.549  62.389  1.00  0.00    -0.299 OA
ENDROOT
BRANCH   1   3
ATOM      3  C   UNL     1      16.886   2.375  61.145  1.00  0.00     0.053 C 
ATOM      4  C   UNL     1      17.645   3.182  62.211  1.00  0.00     0.016 C 
BRANCH   3   5
ATOM      5  C   UNL     1      16.049   3.289  60.226  1.00  0.00     0.015 C 
BRANCH   5   6
ATOM      6  C   UNL     1      15.696   2.654  58.865  1.00  0.00     0.028 C 
BRANCH   6   7
ATOM      7  C   UNL     1      16.893   1.968  58.257  1.00  0.00    -0.028 C 
ATOM      8  C   UNL     1      16.964   0.646  57.972  1.00  0.00    -0.070 CG0
ATOM      9  C   UNL     1      18.254   0.112  57.403  1.00  0.00     0.039 C 
ATOM     10  G   UNL     1      15.805  -0.315  58.191  1.00  0.00     0.000 G0
ENDBRANCH   6   7
ENDBRANCH   5   6
ENDBRANCH   3   5
ENDBRANCH   1   3
BRANCH   1  11
ATOM     11  C   UNL     1      16.422  -0.180  61.589  1.00  0.00     0.087 C 
BRANCH  11  12
ATOM     12  C   UNL     1      15.402  -0.958  60.717  1.00  0.00     0.066 C 
BRANCH  12  13
ATOM     13  C   UNL     1      16.016  -1.249  59.357  1.00  0.00     0.140 C 
ATOM     14  O   UNL     1      16.619  -2.301  59.182  1.00  0.00    -0.299 OA
BRANCH  13  15
ATOM     15  C   UNL     1      15.799  -0.311  58.197  1.00  0.00     0.106 CG0
ATOM     16  G   UNL     1      16.971   0.635  57.982  1.00  0.00     0.000 G0
ENDBRANCH  13  15
ENDBRANCH  12  13
BRANCH  12  17
ATOM     17  C   UNL     1      14.914  -2.281  61.394  1.00  0.00    -0.006 C 
ATOM     18  C   UNL     1      15.853  -2.740  62.525  1.00  0.00     0.008 C 
ATOM     19  C   UNL     1      13.492  -2.122  61.966  1.00  0.00     0.008 C 
ENDBRANCH  12  17
ENDBRANCH  11  12
ENDBRANCH   1  11
TORSDOF 1
ENDMDL
MODEL 5
REMARK VINA RESULT:    -3.408      1.688      2.137
REMARK INTER + INTRA:          -5.387
REMARK INTER:                  -5.396
REMARK INTRA:                   0.009
REMARK UNBOUND:                -0.185
REMARK SMILES CC1=CCC[C@@H](C)C(=O)C[C@H](C(C)C)C(=O)C1
REMARK SMILES IDX 8 1 9 2 6 3 7 4 5 5 4 6 3 7 2 8 1 9 10 11 11 12 15 13 16 14
REMARK SMILES IDX 17 15 12 17 13 18 14 19
REMARK H PARENT
REMARK Flexibility Score: 70.00
ROOT
ATOM      1  C   UNL     1      15.121  -2.920  60.673  1.00  0.00     0.136 C 
ATOM      2  O   UNL     1      14.252  -2.420  61.375  1.00  0.00    -0.299 OA
ENDROOT
BRANCH   1   3
ATOM      3  C   UNL     1      15.186  -4.427  60.496  1.00  0.00     0.053 C 
ATOM      4  C   UNL     1      14.029  -5.148  61.207  1.00  0.00     0.016 C 
BRANCH   3   5
ATOM      5  C   UNL     1      16.558  -4.987  60.925  1.00  0.00     0.015 C 
BRANCH   5   6
ATOM      6  C   UNL     1      17.106  -4.370  62.228  1.00  0.00     0.028 C 
BRANCH   6   7
ATOM      7  C   UNL     1      18.530  -3.904  62.052  1.00  0.00    -0.028 C 
ATOM      8  C   UNL     1      18.941  -2.618  62.166  1.00  0.00    -0.070 CG0
ATOM      9  C   UNL     1      20.397  -2.316  61.919  1.00  0.00     0.039 C 
ATOM     10  G   UNL     1      18.007  -1.477  62.540  1.00  0.00     0.000 G0
ENDBRANCH   6   7
ENDBRANCH   5   6
ENDBRANCH   3   5
ENDBRANCH   1   3
BRANCH   1  11
ATOM     11  C   UNL     1      16.119  -2.015  59.991  1.00  0.00     0.087 C 
BRANCH  11  12
ATOM     12  C   UNL     1      16.268  -0.655  60.722  1.00  0.00     0.066 C 
BRANCH  12  13
ATOM     13  C   UNL     1      17.640  -0.578  61.374  1.00  0.00     0.140 C 
ATOM     14  O   UNL     1      18.438   0.270  60.997  1.00  0.00    -0.299 OA
BRANCH  13  15
ATOM     15  C   UNL     1      17.985  -1.461  62.547  1.00  0.00     0.106 CG0
ATOM     16  G   UNL     1      18.931  -2.592  62.169  1.00  0.00     0.000 G0
ENDBRANCH  13  15
ENDBRANCH  12  13
BRANCH  12  17
ATOM     17  C   UNL     1      16.042   0.568  59.774  1.00  0.00    -0.006 C 
ATOM     18  C   UNL     1      15.123   0.226  58.586  1.00  0.00     0.008 C 
ATOM     19  C   UNL     1      15.436   1.761  60.539  1.00  0.00     0.008 C 
ENDBRANCH  12  17
ENDBRANCH  11  12
ENDBRANCH   1  11
TORSDOF 1
ENDMDL
MODEL 6
REMARK VINA RESULT:    -3.372      9.788     11.802
REMARK INTER + INTRA:          -5.332
REMARK INTER:                  -4.994
REMARK INTRA:                  -0.337
REMARK UNBOUND:                -0.185
REMARK SMILES CC1=CCC[C@@H](C)C(=O)C[C@H](C(C)C)C(=O)C1
REMARK SMILES IDX 8 1 9 2 6 3 7 4 5 5 4 6 3 7 2 8 1 9 10 11 11 12 15 13 16 14
REMARK SMILES IDX 17 15 12 17 13 18 14 19
REMARK H PARENT
REMARK Flexibility Score: 70.00
ROOT
ATOM      1  C   UNL     1      25.519  -4.069  55.254  1.00  0.00     0.136 C 
ATOM      2  O   UNL     1      24.732  -3.153  55.058  1.00  0.00    -0.299 OA
ENDROOT
BRANCH   1   3
ATOM      3  C   UNL     1      25.934  -4.432  56.668  1.00  0.00     0.053 C 
ATOM      4  C   UNL     1      24.744  -4.894  57.524  1.00  0.00     0.016 C 
BRANCH   3   5
ATOM      5  C   UNL     1      26.709  -3.280  57.342  1.00  0.00     0.015 C 
BRANCH   5   6
ATOM      6  C   UNL     1      28.209  -3.240  56.982  1.00  0.00     0.028 C 
BRANCH   6   7
ATOM      7  C   UNL     1      28.808  -4.623  56.990  1.00  0.00    -0.028 C 
ATOM      8  C   UNL     1      29.395  -5.217  55.924  1.00  0.00    -0.070 CG0
ATOM      9  C   UNL     1      29.909  -6.625  56.091  1.00  0.00     0.039 C 
ATOM     10  G   UNL     1      29.565  -4.529  54.578  1.00  0.00     0.000 G0
ENDBRANCH   6   7
ENDBRANCH   5   6
ENDBRANCH   3   5
ENDBRANCH   1   3
BRANCH   1  11
ATOM     11  C   UNL     1      26.066  -4.827  54.067  1.00  0.00     0.087 C 
BRANCH  11  12
ATOM     12  C   UNL     1      27.255  -4.089  53.400  1.00  0.00     0.066 C 
BRANCH  12  13
ATOM     13  C   UNL     1      28.520  -4.917  53.563  1.00  0.00     0.140 C 
ATOM     14  O   UNL     1      28.726  -5.857  52.805  1.00  0.00    -0.299 OA
BRANCH  13  15
ATOM     15  C   UNL     1      29.571  -4.527  54.572  1.00  0.00     0.106 CG0
ATOM     16  G   UNL     1      29.380  -5.220  55.913  1.00  0.00     0.000 G0
ENDBRANCH  13  15
ENDBRANCH  12  13
BRANCH  12  17
ATOM     17  C   UNL     1      26.999  -3.771  51.890  1.00  0.00    -0.006 C 
ATOM     18  C   UNL     1      25.750  -4.489  51.345  1.00  0.00     0.008 C 
ATOM     19  C   UNL     1      26.835  -2.256  51.661  1.00  0.00     0.008 C 
ENDBRANCH  12  17
ENDBRANCH  11  12
ENDBRANCH   1  11
TORSDOF 1
ENDMDL
MODEL 7
REMARK VINA RESULT:    -3.282      1.868      4.355
REMARK INTER + INTRA:          -5.194
REMARK INTER:                  -4.949
REMARK INTRA:                  -0.245
REMARK UNBOUND:                -0.185
REMARK SMILES CC1=CCC[C@@H](C)C(=O)C[C@H](C(C)C)C(=O)C1
REMARK SMILES IDX 8 1 9 2 6 3 7 4 5 5 4 6 3 7 2 8 1 9 10 11 11 12 15 13 16 14
REMARK SMILES IDX 17 15 12 17 13 18 14 19
REMARK H PARENT
REMARK Flexibility Score: 70.00
ROOT
ATOM      1  C   UNL     1      15.760   0.592  58.043  1.00  0.00     0.136 C 
ATOM      2  O   UNL     1      14.842   0.171  57.351  1.00  0.00    -0.299 OA
ENDROOT
BRANCH   1   3
ATOM      3  C   UNL     1      16.901   1.367  57.410  1.00  0.00     0.053 C 
ATOM      4  C   UNL     1      16.423   2.665  56.739  1.00  0.00     0.016 C 
BRANCH   3   5
ATOM      5  C   UNL     1      17.710   0.486  56.436  1.00  0.00     0.015 C 
BRANCH   5   6
ATOM      6  C   UNL     1      19.007  -0.089  57.042  1.00  0.00     0.028 C 
BRANCH   6   7
ATOM      7  C   UNL     1      19.701   0.931  57.910  1.00  0.00    -0.028 C 
ATOM      8  C   UNL     1      19.833   0.839  59.255  1.00  0.00    -0.070 CG0
ATOM      9  C   UNL     1      20.520   1.969  59.978  1.00  0.00     0.039 C 
ATOM     10  G   UNL     1      19.329  -0.350  60.060  1.00  0.00     0.000 G0
ENDBRANCH   6   7
ENDBRANCH   5   6
ENDBRANCH   3   5
ENDBRANCH   1   3
BRANCH   1  11
ATOM     11  C   UNL     1      15.733   0.328  59.530  1.00  0.00     0.087 C 
BRANCH  11  12
ATOM     12  C   UNL     1      16.740  -0.777  59.945  1.00  0.00     0.066 C 
BRANCH  12  13
ATOM     13  C   UNL     1      17.943  -0.137  60.620  1.00  0.00     0.140 C 
ATOM     14  O   UNL     1      17.787   0.485  61.663  1.00  0.00    -0.299 OA
BRANCH  13  15
ATOM     15  C   UNL     1      19.334  -0.354  60.079  1.00  0.00     0.106 CG0
ATOM     16  G   UNL     1      19.831   0.826  59.257  1.00  0.00     0.000 G0
ENDBRANCH  13  15
ENDBRANCH  12  13
BRANCH  12  17
ATOM     17  C   UNL     1      16.099  -1.858  60.876  1.00  0.00    -0.006 C 
ATOM     18  C   UNL     1      14.570  -1.941  60.712  1.00  0.00     0.008 C 
ATOM     19  C   UNL     1      16.700  -3.251  60.605  1.00  0.00     0.008 C 
ENDBRANCH  12  17
ENDBRANCH  11  12
ENDBRANCH   1  11
TORSDOF 1
ENDMDL
MODEL 8
REMARK VINA RESULT:    -3.265      2.007      4.099
REMARK INTER + INTRA:          -5.168
REMARK INTER:                  -5.135
REMARK INTRA:                  -0.034
REMARK UNBOUND:                -0.185
REMARK SMILES CC1=CCC[C@@H](C)C(=O)C[C@H](C(C)C)C(=O)C1
REMARK SMILES IDX 8 1 9 2 6 3 7 4 5 5 4 6 3 7 2 8 1 9 10 11 11 12 15 13 16 14
REMARK SMILES IDX 17 15 12 17 13 18 14 19
REMARK H PARENT
REMARK Flexibility Score: 70.00
ROOT
ATOM      1  C   UNL     1      17.000  -3.129  61.749  1.00  0.00     0.136 C 
ATOM      2  O   UNL     1      17.516  -3.945  60.996  1.00  0.00    -0.299 OA
ENDROOT
BRANCH   1   3
ATOM      3  C   UNL     1      15.575  -3.331  62.232  1.00  0.00     0.053 C 
ATOM      4  C   UNL     1      14.838  -4.421  61.436  1.00  0.00     0.016 C 
BRANCH   3   5
ATOM      5  C   UNL     1      14.789  -2.003  62.243  1.00  0.00     0.015 C 
BRANCH   5   6
ATOM      6  C   UNL     1      14.536  -1.413  60.840  1.00  0.00     0.028 C 
BRANCH   6   7
ATOM      7  C   UNL     1      14.613   0.093  60.861  1.00  0.00    -0.028 C 
ATOM      8  C   UNL     1      15.660   0.818  60.399  1.00  0.00    -0.070 CG0
ATOM      9  C   UNL     1      15.595   2.319  60.532  1.00  0.00     0.039 C 
ATOM     10  G   UNL     1      16.884   0.191  59.749  1.00  0.00     0.000 G0
ENDBRANCH   6   7
ENDBRANCH   5   6
ENDBRANCH   3   5
ENDBRANCH   1   3
BRANCH   1  11
ATOM     11  C   UNL     1      17.804  -1.928  62.185  1.00  0.00     0.087 C 
BRANCH  11  12
ATOM     12  C   UNL     1      18.619  -1.316  61.015  1.00  0.00     0.066 C 
BRANCH  12  13
ATOM     13  C   UNL     1      18.061   0.057  60.674  1.00  0.00     0.140 C 
ATOM     14  O   UNL     1      18.623   1.058  61.101  1.00  0.00    -0.299 OA
BRANCH  13  15
ATOM     15  C   UNL     1      16.894   0.201  59.731  1.00  0.00     0.106 CG0
ATOM     16  G   UNL     1      15.675   0.819  60.400  1.00  0.00     0.000 G0
ENDBRANCH  13  15
ENDBRANCH  12  13
BRANCH  12  17
ATOM     17  C   UNL     1      20.149  -1.224  61.329  1.00  0.00    -0.006 C 
ATOM     18  C   UNL     1      20.677  -2.482  62.044  1.00  0.00     0.008 C 
ATOM     19  C   UNL     1      20.968  -1.008  60.042  1.00  0.00     0.008 C 
ENDBRANCH  12  17
ENDBRANCH  11  12
ENDBRANCH   1  11
TORSDOF 1
ENDMDL
MODEL 9
REMARK VINA RESULT:    -3.199      1.854      3.105
REMARK INTER + INTRA:          -5.068
REMARK INTER:                  -5.021
REMARK INTRA:                  -0.047
REMARK UNBOUND:                -0.185
REMARK SMILES CC1=CCC[C@@H](C)C(=O)C[C@H](C(C)C)C(=O)C1
REMARK SMILES IDX 8 1 9 2 6 3 7 4 5 5 4 6 3 7 2 8 1 9 10 11 11 12 15 13 16 14
REMARK SMILES IDX 17 15 12 17 13 18 14 19
REMARK H PARENT
REMARK Flexibility Score: 70.00
ROOT
ATOM      1  C   UNL     1      17.236  -2.967  61.679  1.00  0.00     0.136 C 
ATOM      2  O   UNL     1      16.722  -3.241  62.756  1.00  0.00    -0.299 OA
ENDROOT
BRANCH   1   3
ATOM      3  C   UNL     1      18.742  -3.051  61.508  1.00  0.00     0.053 C 
ATOM      4  C   UNL     1      19.351  -4.234  62.278  1.00  0.00     0.016 C 
BRANCH   3   5
ATOM      5  C   UNL     1      19.428  -1.718  61.874  1.00  0.00     0.015 C 
BRANCH   5   6
ATOM      6  C   UNL     1      20.294  -1.128  60.742  1.00  0.00     0.028 C 
BRANCH   6   7
ATOM      7  C   UNL     1      19.853   0.270  60.391  1.00  0.00    -0.028 C 
ATOM      8  C   UNL     1      18.906   0.572  59.471  1.00  0.00    -0.070 CG0
ATOM      9  C   UNL     1      18.611   2.028  59.210  1.00  0.00     0.039 C 
ATOM     10  G   UNL     1      18.125  -0.484  58.703  1.00  0.00     0.000 G0
ENDBRANCH   6   7
ENDBRANCH   5   6
ENDBRANCH   3   5
ENDBRANCH   1   3
BRANCH   1  11
ATOM     11  C   UNL     1      16.347  -2.547  60.533  1.00  0.00     0.087 C 
BRANCH  11  12
ATOM     12  C   UNL     1      16.210  -1.005  60.435  1.00  0.00     0.066 C 
BRANCH  12  13
ATOM     13  C   UNL     1      16.658  -0.542  59.058  1.00  0.00     0.140 C 
ATOM     14  O   UNL     1      15.827  -0.114  58.267  1.00  0.00    -0.299 OA
BRANCH  13  15
ATOM     15  C   UNL     1      18.121  -0.504  58.697  1.00  0.00     0.106 CG0
ATOM     16  G   UNL     1      18.885   0.564  59.465  1.00  0.00     0.000 G0
ENDBRANCH  13  15
ENDBRANCH  12  13
BRANCH  12  17
ATOM     17  C   UNL     1      14.757  -0.508  60.735  1.00  0.00    -0.006 C 
ATOM     18  C   UNL     1      13.982  -1.480  61.645  1.00  0.00     0.008 C 
ATOM     19  C   UNL     1      14.770   0.883  61.397  1.00  0.00     0.008 C 
ENDBRANCH  12  17
ENDBRANCH  11  12
ENDBRANCH   1  11
TORSDOF 1
ENDMDL
