MODEL 1
REMARK VINA RESULT:    -4.010      0.000      0.000
REMARK INTER + INTRA:          -9.027
REMARK INTER:                  -6.823
REMARK INTRA:                  -2.204
REMARK UNBOUND:                -2.204
REMARK SMILES CCCCCCCCCCCCCC(=O)[O-]
REMARK SMILES IDX 8 1 9 2 10 3 11 4 12 5 13 6 14 7 15 8 16 9 7 10 6 11 5 12
REMARK SMILES IDX 4 13 3 14 2 15 1 16
REMARK H PARENT
REMARK Flexibility Score: inf
ROOT
ATOM      1  C   UNL     1      21.419  33.553  44.411  1.00  0.00     0.000 C 
ENDROOT
BRANCH   1   2
ATOM      2  C   UNL     1      20.998  32.112  44.737  1.00  0.00     0.000 C 
BRANCH   2   3
ATOM      3  C   UNL     1      19.793  31.644  43.904  1.00  0.00     0.000 C 
BRANCH   3   4
ATOM      4  C   UNL     1      18.759  30.877  44.740  1.00  0.00     0.000 C 
BRANCH   4   5
ATOM      5  C   UNL     1      19.262  30.663  46.173  1.00  0.00     0.006 C 
BRANCH   5   6
ATOM      6  C   UNL     1      18.094  30.606  47.163  1.00  0.00     0.053 C 
BRANCH   6   7
ATOM      7  C   UNL     1      18.596  30.360  48.551  1.00  0.00     0.041 C 
ATOM      8  O   UNL     1      18.404  31.214  49.455  1.00  0.00    -0.550 OA
ATOM      9  O   UNL     1      19.319  29.208  48.834  1.00  0.00    -0.550 OA
ENDBRANCH   6   7
ENDBRANCH   5   6
ENDBRANCH   4   5
ENDBRANCH   3   4
ENDBRANCH   2   3
ENDBRANCH   1   2
BRANCH   1  10
ATOM     10  C   UNL     1      20.188  34.452  44.214  1.00  0.00     0.000 C 
BRANCH  10  11
ATOM     11  C   UNL     1      19.821  35.242  45.481  1.00  0.00    -0.000 C 
BRANCH  11  12
ATOM     12  C   UNL     1      18.709  34.564  46.298  1.00  0.00    -0.000 C 
BRANCH  12  13
ATOM     13  C   UNL     1      19.176  34.123  47.697  1.00  0.00    -0.000 C 
BRANCH  13  14
ATOM     14  C   UNL     1      20.676  34.324  47.979  1.00  0.00    -0.000 C 
BRANCH  14  15
ATOM     15  C   UNL     1      21.400  33.017  48.335  1.00  0.00    -0.003 C 
ATOM     16  C   UNL     1      22.910  33.161  48.168  1.00  0.00     0.004 C 
ENDBRANCH  14  15
ENDBRANCH  13  14
ENDBRANCH  12  13
ENDBRANCH  11  12
ENDBRANCH  10  11
ENDBRANCH   1  10
TORSDOF 12
ENDMDL
MODEL 2
REMARK VINA RESULT:    -3.912      1.218      2.201
REMARK INTER + INTRA:          -8.861
REMARK INTER:                  -7.105
REMARK INTRA:                  -1.756
REMARK UNBOUND:                -2.204
REMARK SMILES CCCCCCCCCCCCCC(=O)[O-]
REMARK SMILES IDX 8 1 9 2 10 3 11 4 12 5 13 6 14 7 15 8 16 9 7 10 6 11 5 12
REMARK SMILES IDX 4 13 3 14 2 15 1 16
REMARK H PARENT
REMARK Flexibility Score: inf
ROOT
ATOM      1  C   UNL     1      19.202  32.014  44.018  1.00  0.00     0.000 C 
ENDROOT
BRANCH   1   2
ATOM      2  C   UNL     1      18.853  30.519  43.948  1.00  0.00     0.000 C 
BRANCH   2   3
ATOM      3  C   UNL     1      18.655  29.890  45.336  1.00  0.00     0.000 C 
BRANCH   3   4
ATOM      4  C   UNL     1      18.070  30.879  46.355  1.00  0.00     0.000 C 
BRANCH   4   5
ATOM      5  C   UNL     1      18.689  30.668  47.742  1.00  0.00     0.006 C 
BRANCH   5   6
ATOM      6  C   UNL     1      20.198  30.430  47.640  1.00  0.00     0.053 C 
BRANCH   6   7
ATOM      7  C   UNL     1      20.666  29.550  48.755  1.00  0.00     0.041 C 
ATOM      8  O   UNL     1      20.330  29.798  49.943  1.00  0.00    -0.550 OA
ATOM      9  O   UNL     1      21.514  28.482  48.489  1.00  0.00    -0.550 OA
ENDBRANCH   6   7
ENDBRANCH   5   6
ENDBRANCH   4   5
ENDBRANCH   3   4
ENDBRANCH   2   3
ENDBRANCH   1   2
BRANCH   1  10
ATOM     10  C   UNL     1      20.723  32.217  44.110  1.00  0.00     0.000 C 
BRANCH  10  11
ATOM     11  C   UNL     1      21.109  33.442  44.954  1.00  0.00    -0.000 C 
BRANCH  11  12
ATOM     12  C   UNL     1      20.203  34.655  44.684  1.00  0.00    -0.000 C 
BRANCH  12  13
ATOM     13  C   UNL     1      19.498  35.171  45.951  1.00  0.00    -0.000 C 
BRANCH  13  14
ATOM     14  C   UNL     1      19.530  34.210  47.154  1.00  0.00    -0.000 C 
BRANCH  14  15
ATOM     15  C   UNL     1      20.262  34.796  48.371  1.00  0.00    -0.003 C 
ATOM     16  C   UNL     1      21.544  34.022  48.667  1.00  0.00     0.004 C 
ENDBRANCH  14  15
ENDBRANCH  13  14
ENDBRANCH  12  13
ENDBRANCH  11  12
ENDBRANCH  10  11
ENDBRANCH   1  10
TORSDOF 12
ENDMDL
MODEL 3
REMARK VINA RESULT:    -3.814      1.556      3.741
REMARK INTER + INTRA:          -8.694
REMARK INTER:                  -6.809
REMARK INTRA:                  -1.884
REMARK UNBOUND:                -2.204
REMARK SMILES CCCCCCCCCCCCCC(=O)[O-]
REMARK SMILES IDX 8 1 9 2 10 3 11 4 12 5 13 6 14 7 15 8 16 9 7 10 6 11 5 12
REMARK SMILES IDX 4 13 3 14 2 15 1 16
REMARK H PARENT
REMARK Flexibility Score: inf
ROOT
ATOM      1  C   UNL     1      20.439  34.375  44.805  1.00  0.00     0.000 C 
ENDROOT
BRANCH   1   2
ATOM      2  C   UNL     1      19.490  35.133  45.747  1.00  0.00     0.000 C 
BRANCH   2   3
ATOM      3  C   UNL     1      19.665  34.725  47.218  1.00  0.00     0.000 C 
BRANCH   3   4
ATOM      4  C   UNL     1      20.860  33.784  47.433  1.00  0.00     0.000 C 
BRANCH   4   5
ATOM      5  C   UNL     1      20.627  32.869  48.642  1.00  0.00     0.006 C 
BRANCH   5   6
ATOM      6  C   UNL     1      19.272  33.156  49.296  1.00  0.00     0.053 C 
BRANCH   6   7
ATOM      7  C   UNL     1      19.240  32.618  50.692  1.00  0.00     0.041 C 
ATOM      8  O   UNL     1      18.771  31.472  50.919  1.00  0.00    -0.550 OA
ATOM      9  O   UNL     1      19.684  33.403  51.749  1.00  0.00    -0.550 OA
ENDBRANCH   6   7
ENDBRANCH   5   6
ENDBRANCH   4   5
ENDBRANCH   3   4
ENDBRANCH   2   3
ENDBRANCH   1   2
BRANCH   1  10
ATOM     10  C   UNL     1      19.655  33.419  43.892  1.00  0.00     0.000 C 
BRANCH  10  11
ATOM     11  C   UNL     1      20.123  31.960  44.016  1.00  0.00    -0.000 C 
BRANCH  11  12
ATOM     12  C   UNL     1      19.002  31.019  44.486  1.00  0.00    -0.000 C 
BRANCH  12  13
ATOM     13  C   UNL     1      18.336  31.483  45.794  1.00  0.00    -0.000 C 
BRANCH  13  14
ATOM     14  C   UNL     1      18.271  30.420  46.906  1.00  0.00    -0.000 C 
BRANCH  14  15
ATOM     15  C   UNL     1      19.573  29.615  47.044  1.00  0.00    -0.003 C 
ATOM     16  C   UNL     1      19.845  29.254  48.501  1.00  0.00     0.004 C 
ENDBRANCH  14  15
ENDBRANCH  13  14
ENDBRANCH  12  13
ENDBRANCH  11  12
ENDBRANCH  10  11
ENDBRANCH   1  10
TORSDOF 12
ENDMDL
MODEL 4
REMARK VINA RESULT:    -3.746      1.302      3.216
REMARK INTER + INTRA:          -8.578
REMARK INTER:                  -6.481
REMARK INTRA:                  -2.097
REMARK UNBOUND:                -2.204
REMARK SMILES CCCCCCCCCCCCCC(=O)[O-]
REMARK SMILES IDX 8 1 9 2 10 3 11 4 12 5 13 6 14 7 15 8 16 9 7 10 6 11 5 12
REMARK SMILES IDX 4 13 3 14 2 15 1 16
REMARK H PARENT
REMARK Flexibility Score: inf
ROOT
ATOM      1  C   UNL     1      21.790  33.515  44.442  1.00  0.00     0.000 C 
ENDROOT
BRANCH   1   2
ATOM      2  C   UNL     1      21.828  32.225  45.275  1.00  0.00     0.000 C 
BRANCH   2   3
ATOM      3  C   UNL     1      22.489  32.425  46.649  1.00  0.00     0.000 C 
BRANCH   3   4
ATOM      4  C   UNL     1      21.467  32.692  47.763  1.00  0.00     0.000 C 
BRANCH   4   5
ATOM      5  C   UNL     1      21.634  31.690  48.913  1.00  0.00     0.006 C 
BRANCH   5   6
ATOM      6  C   UNL     1      20.294  31.048  49.282  1.00  0.00     0.053 C 
BRANCH   6   7
ATOM      7  C   UNL     1      20.266  29.613  48.859  1.00  0.00     0.041 C 
ATOM      8  O   UNL     1      21.121  29.176  48.045  1.00  0.00    -0.550 OA
ATOM      9  O   UNL     1      19.264  28.771  49.324  1.00  0.00    -0.550 OA
ENDBRANCH   6   7
ENDBRANCH   5   6
ENDBRANCH   4   5
ENDBRANCH   3   4
ENDBRANCH   2   3
ENDBRANCH   1   2
BRANCH   1  10
ATOM     10  C   UNL     1      20.341  33.960  44.188  1.00  0.00     0.000 C 
BRANCH  10  11
ATOM     11  C   UNL     1      19.786  34.850  45.312  1.00  0.00    -0.000 C 
BRANCH  11  12
ATOM     12  C   UNL     1      18.601  34.203  46.048  1.00  0.00    -0.000 C 
BRANCH  12  13
ATOM     13  C   UNL     1      18.117  32.903  45.380  1.00  0.00    -0.000 C 
BRANCH  13  14
ATOM     14  C   UNL     1      18.194  31.646  46.266  1.00  0.00    -0.000 C 
BRANCH  14  15
ATOM     15  C   UNL     1      18.719  30.413  45.513  1.00  0.00    -0.003 C 
ATOM     16  C   UNL     1      18.718  30.648  44.005  1.00  0.00     0.004 C 
ENDBRANCH  14  15
ENDBRANCH  13  14
ENDBRANCH  12  13
ENDBRANCH  11  12
ENDBRANCH  10  11
ENDBRANCH   1  10
TORSDOF 12
ENDMDL
MODEL 5
REMARK VINA RESULT:    -3.716      1.495      3.172
REMARK INTER + INTRA:          -8.528
REMARK INTER:                  -6.902
REMARK INTRA:                  -1.625
REMARK UNBOUND:                -2.204
REMARK SMILES CCCCCCCCCCCCCC(=O)[O-]
REMARK SMILES IDX 8 1 9 2 10 3 11 4 12 5 13 6 14 7 15 8 16 9 7 10 6 11 5 12
REMARK SMILES IDX 4 13 3 14 2 15 1 16
REMARK H PARENT
REMARK Flexibility Score: inf
ROOT
ATOM      1  C   UNL     1      18.626  30.367  44.135  1.00  0.00     0.000 C 
ENDROOT
BRANCH   1   2
ATOM      2  C   UNL     1      18.917  29.927  45.578  1.00  0.00     0.000 C 
BRANCH   2   3
ATOM      3  C   UNL     1      17.983  30.593  46.601  1.00  0.00     0.000 C 
BRANCH   3   4
ATOM      4  C   UNL     1      18.379  30.284  48.052  1.00  0.00     0.000 C 
BRANCH   4   5
ATOM      5  C   UNL     1      19.855  29.876  48.143  1.00  0.00     0.006 C 
BRANCH   5   6
ATOM      6  C   UNL     1      20.669  30.925  48.906  1.00  0.00     0.053 C 
BRANCH   6   7
ATOM      7  C   UNL     1      20.542  30.714  50.381  1.00  0.00     0.041 C 
ATOM      8  O   UNL     1      21.099  29.727  50.931  1.00  0.00    -0.550 OA
ATOM      9  O   UNL     1      19.769  31.581  51.143  1.00  0.00    -0.550 OA
ENDBRANCH   6   7
ENDBRANCH   5   6
ENDBRANCH   4   5
ENDBRANCH   3   4
ENDBRANCH   2   3
ENDBRANCH   1   2
BRANCH   1  10
ATOM     10  C   UNL     1      19.125  31.800  43.888  1.00  0.00     0.000 C 
BRANCH  10  11
ATOM     11  C   UNL     1      20.644  31.942  44.079  1.00  0.00    -0.000 C 
BRANCH  11  12
ATOM     12  C   UNL     1      21.009  32.942  45.188  1.00  0.00    -0.000 C 
BRANCH  12  13
ATOM     13  C   UNL     1      20.552  34.378  44.876  1.00  0.00    -0.000 C 
BRANCH  13  14
ATOM     14  C   UNL     1      19.522  34.965  45.858  1.00  0.00    -0.000 C 
BRANCH  14  15
ATOM     15  C   UNL     1      19.304  34.082  47.097  1.00  0.00    -0.003 C 
ATOM     16  C   UNL     1      19.950  34.701  48.333  1.00  0.00     0.004 C 
ENDBRANCH  14  15
ENDBRANCH  13  14
ENDBRANCH  12  13
ENDBRANCH  11  12
ENDBRANCH  10  11
ENDBRANCH   1  10
TORSDOF 12
ENDMDL
MODEL 6
REMARK VINA RESULT:    -3.703      1.588      3.791
REMARK INTER + INTRA:          -8.504
REMARK INTER:                  -6.683
REMARK INTRA:                  -1.821
REMARK UNBOUND:                -2.204
REMARK SMILES CCCCCCCCCCCCCC(=O)[O-]
REMARK SMILES IDX 8 1 9 2 10 3 11 4 12 5 13 6 14 7 15 8 16 9 7 10 6 11 5 12
REMARK SMILES IDX 4 13 3 14 2 15 1 16
REMARK H PARENT
REMARK Flexibility Score: inf
ROOT
ATOM      1  C   UNL     1      18.702  29.873  45.595  1.00  0.00     0.000 C 
ENDROOT
BRANCH   1   2
ATOM      2  C   UNL     1      18.016  30.934  46.469  1.00  0.00     0.000 C 
BRANCH   2   3
ATOM      3  C   UNL     1      18.845  31.310  47.707  1.00  0.00     0.000 C 
BRANCH   3   4
ATOM      4  C   UNL     1      20.280  30.767  47.645  1.00  0.00     0.000 C 
BRANCH   4   5
ATOM      5  C   UNL     1      21.220  31.596  48.528  1.00  0.00     0.006 C 
BRANCH   5   6
ATOM      6  C   UNL     1      20.435  32.609  49.367  1.00  0.00     0.053 C 
BRANCH   6   7
ATOM      7  C   UNL     1      20.242  32.098  50.760  1.00  0.00     0.041 C 
ATOM      8  O   UNL     1      21.228  31.680  51.424  1.00  0.00    -0.550 OA
ATOM      9  O   UNL     1      18.967  32.037  51.308  1.00  0.00    -0.550 OA
ENDBRANCH   6   7
ENDBRANCH   5   6
ENDBRANCH   4   5
ENDBRANCH   3   4
ENDBRANCH   2   3
ENDBRANCH   1   2
BRANCH   1  10
ATOM     10  C   UNL     1      18.666  30.278  44.113  1.00  0.00     0.000 C 
BRANCH  10  11
ATOM     11  C   UNL     1      19.121  31.727  43.881  1.00  0.00    -0.000 C 
BRANCH  11  12
ATOM     12  C   UNL     1      20.650  31.883  43.939  1.00  0.00    -0.000 C 
BRANCH  12  13
ATOM     13  C   UNL     1      21.096  33.314  44.287  1.00  0.00    -0.000 C 
BRANCH  13  14
ATOM     14  C   UNL     1      19.995  34.216  44.874  1.00  0.00    -0.000 C 
BRANCH  14  15
ATOM     15  C   UNL     1      20.240  34.579  46.347  1.00  0.00    -0.003 C 
ATOM     16  C   UNL     1      19.017  35.259  46.957  1.00  0.00     0.004 C 
ENDBRANCH  14  15
ENDBRANCH  13  14
ENDBRANCH  12  13
ENDBRANCH  11  12
ENDBRANCH  10  11
ENDBRANCH   1  10
TORSDOF 12
ENDMDL
MODEL 7
REMARK VINA RESULT:    -3.614      2.025      4.173
REMARK INTER + INTRA:          -8.352
REMARK INTER:                  -6.615
REMARK INTRA:                  -1.737
REMARK UNBOUND:                -2.204
REMARK SMILES CCCCCCCCCCCCCC(=O)[O-]
REMARK SMILES IDX 8 1 9 2 10 3 11 4 12 5 13 6 14 7 15 8 16 9 7 10 6 11 5 12
REMARK SMILES IDX 4 13 3 14 2 15 1 16
REMARK H PARENT
REMARK Flexibility Score: inf
ROOT
ATOM      1  C   UNL     1      20.205  32.130  44.699  1.00  0.00     0.000 C 
ENDROOT
BRANCH   1   2
ATOM      2  C   UNL     1      20.180  33.464  43.937  1.00  0.00     0.000 C 
BRANCH   2   3
ATOM      3  C   UNL     1      20.128  34.681  44.875  1.00  0.00     0.000 C 
BRANCH   3   4
ATOM      4  C   UNL     1      19.071  34.532  45.979  1.00  0.00     0.000 C 
BRANCH   4   5
ATOM      5  C   UNL     1      19.640  34.946  47.342  1.00  0.00     0.006 C 
BRANCH   5   6
ATOM      6  C   UNL     1      20.818  34.051  47.741  1.00  0.00     0.053 C 
BRANCH   6   7
ATOM      7  C   UNL     1      21.246  34.344  49.144  1.00  0.00     0.041 C 
ATOM      8  O   UNL     1      22.257  33.773  49.631  1.00  0.00    -0.550 OA
ATOM      9  O   UNL     1      20.500  35.212  49.932  1.00  0.00    -0.550 OA
ENDBRANCH   6   7
ENDBRANCH   5   6
ENDBRANCH   4   5
ENDBRANCH   3   4
ENDBRANCH   2   3
ENDBRANCH   1   2
BRANCH   1  10
ATOM     10  C   UNL     1      19.034  31.232  44.268  1.00  0.00     0.000 C 
BRANCH  10  11
ATOM     11  C   UNL     1      18.649  30.201  45.341  1.00  0.00    -0.000 C 
BRANCH  11  12
ATOM     12  C   UNL     1      19.481  30.348  46.626  1.00  0.00    -0.000 C 
BRANCH  12  13
ATOM     13  C   UNL     1      18.614  30.441  47.895  1.00  0.00    -0.000 C 
BRANCH  13  14
ATOM     14  C   UNL     1      17.875  31.779  48.084  1.00  0.00    -0.000 C 
BRANCH  14  15
ATOM     15  C   UNL     1      17.962  32.314  49.522  1.00  0.00    -0.003 C 
ATOM     16  C   UNL     1      18.809  31.397  50.400  1.00  0.00     0.004 C 
ENDBRANCH  14  15
ENDBRANCH  13  14
ENDBRANCH  12  13
ENDBRANCH  11  12
ENDBRANCH  10  11
ENDBRANCH   1  10
TORSDOF 12
ENDMDL
MODEL 8
REMARK VINA RESULT:    -3.599      1.544      2.361
REMARK INTER + INTRA:          -8.329
REMARK INTER:                  -6.847
REMARK INTRA:                  -1.481
REMARK UNBOUND:                -2.204
REMARK SMILES CCCCCCCCCCCCCC(=O)[O-]
REMARK SMILES IDX 8 1 9 2 10 3 11 4 12 5 13 6 14 7 15 8 16 9 7 10 6 11 5 12
REMARK SMILES IDX 4 13 3 14 2 15 1 16
REMARK H PARENT
REMARK Flexibility Score: inf
ROOT
ATOM      1  C   UNL     1      20.165  34.692  45.251  1.00  0.00     0.000 C 
ENDROOT
BRANCH   1   2
ATOM      2  C   UNL     1      19.800  33.911  43.980  1.00  0.00     0.000 C 
BRANCH   2   3
ATOM      3  C   UNL     1      18.806  32.770  44.249  1.00  0.00     0.000 C 
BRANCH   3   4
ATOM      4  C   UNL     1      19.446  31.381  44.107  1.00  0.00     0.000 C 
BRANCH   4   5
ATOM      5  C   UNL     1      18.830  30.389  45.101  1.00  0.00     0.006 C 
BRANCH   5   6
ATOM      6  C   UNL     1      18.256  31.116  46.321  1.00  0.00     0.053 C 
BRANCH   6   7
ATOM      7  C   UNL     1      18.743  30.482  47.585  1.00  0.00     0.041 C 
ATOM      8  O   UNL     1      19.471  29.455  47.540  1.00  0.00    -0.550 OA
ATOM      9  O   UNL     1      18.353  30.995  48.815  1.00  0.00    -0.550 OA
ENDBRANCH   6   7
ENDBRANCH   5   6
ENDBRANCH   4   5
ENDBRANCH   3   4
ENDBRANCH   2   3
ENDBRANCH   1   2
BRANCH   1  10
ATOM     10  C   UNL     1      18.942  34.841  46.171  1.00  0.00     0.000 C 
BRANCH  10  11
ATOM     11  C   UNL     1      19.263  34.530  47.642  1.00  0.00    -0.000 C 
BRANCH  11  12
ATOM     12  C   UNL     1      20.578  33.751  47.807  1.00  0.00    -0.000 C 
BRANCH  12  13
ATOM     13  C   UNL     1      21.497  34.348  48.889  1.00  0.00    -0.000 C 
BRANCH  13  14
ATOM     14  C   UNL     1      20.787  34.776  50.186  1.00  0.00    -0.000 C 
BRANCH  14  15
ATOM     15  C   UNL     1      20.880  33.719  51.298  1.00  0.00    -0.003 C 
ATOM     16  C   UNL     1      19.538  33.023  51.508  1.00  0.00     0.004 C 
ENDBRANCH  14  15
ENDBRANCH  13  14
ENDBRANCH  12  13
ENDBRANCH  11  12
ENDBRANCH  10  11
ENDBRANCH   1  10
TORSDOF 12
ENDMDL
MODEL 9
REMARK VINA RESULT:    -3.523      1.664      3.834
REMARK INTER + INTRA:          -8.199
REMARK INTER:                  -6.547
REMARK INTRA:                  -1.652
REMARK UNBOUND:                -2.204
REMARK SMILES CCCCCCCCCCCCCC(=O)[O-]
REMARK SMILES IDX 8 1 9 2 10 3 11 4 12 5 13 6 14 7 15 8 16 9 7 10 6 11 5 12
REMARK SMILES IDX 4 13 3 14 2 15 1 16
REMARK H PARENT
REMARK Flexibility Score: inf
ROOT
ATOM      1  C   UNL     1      18.964  32.822  44.163  1.00  0.00     0.000 C 
ENDROOT
BRANCH   1   2
ATOM      2  C   UNL     1      20.136  33.808  44.036  1.00  0.00     0.000 C 
BRANCH   2   3
ATOM      3  C   UNL     1      20.213  34.792  45.215  1.00  0.00     0.000 C 
BRANCH   3   4
ATOM      4  C   UNL     1      18.967  34.742  46.110  1.00  0.00     0.000 C 
BRANCH   4   5
ATOM      5  C   UNL     1      19.342  34.381  47.553  1.00  0.00     0.006 C 
BRANCH   5   6
ATOM      6  C   UNL     1      20.847  34.134  47.685  1.00  0.00     0.053 C 
BRANCH   6   7
ATOM      7  C   UNL     1      21.110  32.965  48.580  1.00  0.00     0.041 C 
ATOM      8  O   UNL     1      20.407  32.783  49.608  1.00  0.00    -0.550 OA
ATOM      9  O   UNL     1      22.164  32.102  48.305  1.00  0.00    -0.550 OA
ENDBRANCH   6   7
ENDBRANCH   5   6
ENDBRANCH   4   5
ENDBRANCH   3   4
ENDBRANCH   2   3
ENDBRANCH   1   2
BRANCH   1  10
ATOM     10  C   UNL     1      19.457  31.370  44.061  1.00  0.00     0.000 C 
BRANCH  10  11
ATOM     11  C   UNL     1      18.723  30.424  45.025  1.00  0.00    -0.000 C 
BRANCH  11  12
ATOM     12  C   UNL     1      17.999  31.175  46.154  1.00  0.00    -0.000 C 
BRANCH  12  13
ATOM     13  C   UNL     1      18.418  30.700  47.557  1.00  0.00    -0.000 C 
BRANCH  13  14
ATOM     14  C   UNL     1      19.548  29.654  47.582  1.00  0.00    -0.000 C 
BRANCH  14  15
ATOM     15  C   UNL     1      19.829  29.108  48.991  1.00  0.00    -0.003 C 
ATOM     16  C   UNL     1      21.304  28.758  49.161  1.00  0.00     0.004 C 
ENDBRANCH  14  15
ENDBRANCH  13  14
ENDBRANCH  12  13
ENDBRANCH  11  12
ENDBRANCH  10  11
ENDBRANCH   1  10
TORSDOF 12
ENDMDL
