MODEL 1
REMARK VINA RESULT:    -3.387      0.000      0.000
REMARK INTER + INTRA:          -4.731
REMARK INTER:                  -4.377
REMARK INTRA:                  -0.354
REMARK UNBOUND:                -0.354
REMARK SMILES CCO[C@@H]1O[C@@H](CO)[C@@H](O)[C@@H](O)[C@H]1O
REMARK SMILES IDX 4 1 13 2 11 3 9 4 6 5 5 6 3 7 2 8 1 9 14 10 12 12 7 14 8 15
REMARK SMILES IDX 10 17
REMARK H PARENT 14 11 12 13 8 16 10 18
REMARK Flexibility Score: inf
ROOT
ATOM      1  C   UNL     1      30.014  12.862  21.739  1.00  0.00     0.281 C 
ATOM      2  C   UNL     1      31.268  13.468  22.410  1.00  0.00     0.202 C 
ATOM      3  C   UNL     1      32.435  13.539  21.401  1.00  0.00     0.179 C 
ATOM      4  C   UNL     1      32.000  14.154  20.052  1.00  0.00     0.177 C 
ATOM      5  C   UNL     1      30.698  13.469  19.567  1.00  0.00     0.178 C 
ATOM      6  O   UNL     1      29.677  13.565  20.551  1.00  0.00    -0.341 OA
ENDROOT
BRANCH   1   7
ATOM      7  O   UNL     1      30.213  11.482  21.456  1.00  0.00    -0.350 OA
BRANCH   7   8
ATOM      8  C   UNL     1      29.798  10.673  22.538  1.00  0.00     0.160 C 
ATOM      9  C   UNL     1      28.758   9.679  22.047  1.00  0.00     0.035 C 
ENDBRANCH   7   8
ENDBRANCH   1   7
BRANCH   2  10
ATOM     10  O   UNL     1      30.949  14.744  22.907  1.00  0.00    -0.385 OA
ATOM     11  H   UNL     1      31.454  15.405  22.365  1.00  0.00     0.211 HD
ENDBRANCH   2  10
BRANCH   3  12
ATOM     12  O   UNL     1      33.559  14.192  21.939  1.00  0.00    -0.387 OA
ATOM     13  H   UNL     1      34.014  13.566  22.559  1.00  0.00     0.211 HD
ENDBRANCH   3  12
BRANCH   5  14
ATOM     14  C   UNL     1      30.197  14.095  18.257  1.00  0.00     0.191 C 
BRANCH  14  15
ATOM     15  O   UNL     1      31.262  14.682  17.559  1.00  0.00    -0.394 OA
ATOM     16  H   UNL     1      32.096  14.276  17.914  1.00  0.00     0.210 HD
ENDBRANCH  14  15
ENDBRANCH   5  14
BRANCH   4  17
ATOM     17  O   UNL     1      31.864  15.554  20.133  1.00  0.00    -0.387 OA
ATOM     18  H   UNL     1      32.661  15.920  20.597  1.00  0.00     0.211 HD
ENDBRANCH   4  17
TORSDOF 7
ENDMDL
MODEL 2
REMARK VINA RESULT:    -3.335      1.236      1.369
REMARK INTER + INTRA:          -4.664
REMARK INTER:                  -4.259
REMARK INTRA:                  -0.405
REMARK UNBOUND:                -0.354
REMARK SMILES CCO[C@@H]1O[C@@H](CO)[C@@H](O)[C@@H](O)[C@H]1O
REMARK SMILES IDX 4 1 13 2 11 3 9 4 6 5 5 6 3 7 2 8 1 9 14 10 12 12 7 14 8 15
REMARK SMILES IDX 10 17
REMARK H PARENT 14 11 12 13 8 16 10 18
REMARK Flexibility Score: inf
ROOT
ATOM      1  C   UNL     1      28.656  13.062  21.080  1.00  0.00     0.281 C 
ATOM      2  C   UNL     1      29.962  13.042  21.906  1.00  0.00     0.202 C 
ATOM      3  C   UNL     1      31.157  12.643  21.012  1.00  0.00     0.179 C 
ATOM      4  C   UNL     1      31.182  13.439  19.687  1.00  0.00     0.177 C 
ATOM      5  C   UNL     1      29.777  13.401  19.035  1.00  0.00     0.178 C 
ATOM      6  O   UNL     1      28.787  13.888  19.931  1.00  0.00    -0.341 OA
ENDROOT
BRANCH   1   7
ATOM      7  O   UNL     1      28.282  11.743  20.699  1.00  0.00    -0.350 OA
BRANCH   7   8
ATOM      8  C   UNL     1      27.778  11.017  21.801  1.00  0.00     0.160 C 
ATOM      9  C   UNL     1      28.516   9.692  21.904  1.00  0.00     0.035 C 
ENDBRANCH   7   8
ENDBRANCH   1   7
BRANCH   2  10
ATOM     10  O   UNL     1      30.160  14.310  22.480  1.00  0.00    -0.385 OA
ATOM     11  H   UNL     1      29.730  14.299  23.374  1.00  0.00     0.211 HD
ENDBRANCH   2  10
BRANCH   3  12
ATOM     12  O   UNL     1      32.381  12.726  21.699  1.00  0.00    -0.387 OA
ATOM     13  H   UNL     1      33.103  12.435  21.086  1.00  0.00     0.211 HD
ENDBRANCH   3  12
BRANCH   5  14
ATOM     14  C   UNL     1      29.743  14.233  17.744  1.00  0.00     0.191 C 
BRANCH  14  15
ATOM     15  O   UNL     1      31.004  14.233  17.131  1.00  0.00    -0.394 OA
ATOM     16  H   UNL     1      31.556  13.561  17.611  1.00  0.00     0.210 HD
ENDBRANCH  14  15
ENDBRANCH   5  14
BRANCH   4  17
ATOM     17  O   UNL     1      31.644  14.756  19.875  1.00  0.00    -0.387 OA
ATOM     18  H   UNL     1      31.137  15.356  19.270  1.00  0.00     0.211 HD
ENDBRANCH   4  17
TORSDOF 7
ENDMDL
MODEL 3
REMARK VINA RESULT:    -3.274      1.541      4.138
REMARK INTER + INTRA:          -4.584
REMARK INTER:                  -4.214
REMARK INTRA:                  -0.370
REMARK UNBOUND:                -0.354
REMARK SMILES CCO[C@@H]1O[C@@H](CO)[C@@H](O)[C@@H](O)[C@H]1O
REMARK SMILES IDX 4 1 13 2 11 3 9 4 6 5 5 6 3 7 2 8 1 9 14 10 12 12 7 14 8 15
REMARK SMILES IDX 10 17
REMARK H PARENT 14 11 12 13 8 16 10 18
REMARK Flexibility Score: inf
ROOT
ATOM      1  C   UNL     1      30.083  14.207  19.257  1.00  0.00     0.281 C 
ATOM      2  C   UNL     1      29.702  13.016  20.164  1.00  0.00     0.202 C 
ATOM      3  C   UNL     1      30.965  12.414  20.820  1.00  0.00     0.179 C 
ATOM      4  C   UNL     1      31.871  13.500  21.440  1.00  0.00     0.177 C 
ATOM      5  C   UNL     1      32.091  14.638  20.412  1.00  0.00     0.178 C 
ATOM      6  O   UNL     1      30.850  15.170  19.968  1.00  0.00    -0.341 OA
ENDROOT
BRANCH   1   7
ATOM      7  O   UNL     1      30.797  13.758  18.111  1.00  0.00    -0.350 OA
BRANCH   7   8
ATOM      8  C   UNL     1      30.147  14.150  16.919  1.00  0.00     0.160 C 
ATOM      9  C   UNL     1      30.947  15.261  16.258  1.00  0.00     0.035 C 
ENDBRANCH   7   8
ENDBRANCH   1   7
BRANCH   2  10
ATOM     10  O   UNL     1      28.787  13.456  21.137  1.00  0.00    -0.385 OA
ATOM     11  H   UNL     1      27.995  12.860  21.088  1.00  0.00     0.211 HD
ENDBRANCH   2  10
BRANCH   3  12
ATOM     12  O   UNL     1      30.647  11.401  21.743  1.00  0.00    -0.387 OA
ATOM     13  H   UNL     1      30.267  11.827  22.553  1.00  0.00     0.211 HD
ENDBRANCH   3  12
BRANCH   5  14
ATOM     14  C   UNL     1      32.939  15.770  21.013  1.00  0.00     0.191 C 
BRANCH  14  15
ATOM     15  O   UNL     1      33.725  15.284  22.068  1.00  0.00    -0.394 OA
ATOM     16  H   UNL     1      33.230  14.520  22.465  1.00  0.00     0.210 HD
ENDBRANCH  14  15
ENDBRANCH   5  14
BRANCH   4  17
ATOM     17  O   UNL     1      31.354  13.980  22.661  1.00  0.00    -0.387 OA
ATOM     18  H   UNL     1      31.529  13.302  23.363  1.00  0.00     0.211 HD
ENDBRANCH   4  17
TORSDOF 7
ENDMDL
MODEL 4
REMARK VINA RESULT:    -3.108      1.540      3.490
REMARK INTER + INTRA:          -4.370
REMARK INTER:                  -4.192
REMARK INTRA:                  -0.178
REMARK UNBOUND:                -0.354
REMARK SMILES CCO[C@@H]1O[C@@H](CO)[C@@H](O)[C@@H](O)[C@H]1O
REMARK SMILES IDX 4 1 13 2 11 3 9 4 6 5 5 6 3 7 2 8 1 9 14 10 12 12 7 14 8 15
REMARK SMILES IDX 10 17
REMARK H PARENT 14 11 12 13 8 16 10 18
REMARK Flexibility Score: inf
ROOT
ATOM      1  C   UNL     1      30.960  12.982  20.012  1.00  0.00     0.281 C 
ATOM      2  C   UNL     1      30.060  13.591  18.913  1.00  0.00     0.202 C 
ATOM      3  C   UNL     1      29.739  15.067  19.238  1.00  0.00     0.179 C 
ATOM      4  C   UNL     1      31.005  15.864  19.624  1.00  0.00     0.177 C 
ATOM      5  C   UNL     1      31.810  15.074  20.685  1.00  0.00     0.178 C 
ATOM      6  O   UNL     1      32.125  13.770  20.217  1.00  0.00    -0.341 OA
ENDROOT
BRANCH   1   7
ATOM      7  O   UNL     1      30.239  12.841  21.231  1.00  0.00    -0.350 OA
BRANCH   7   8
ATOM      8  C   UNL     1      29.230  11.858  21.117  1.00  0.00     0.160 C 
ATOM      9  C   UNL     1      29.646  10.625  21.903  1.00  0.00     0.035 C 
ENDBRANCH   7   8
ENDBRANCH   1   7
BRANCH   2  10
ATOM     10  O   UNL     1      30.711  13.476  17.672  1.00  0.00    -0.385 OA
ATOM     11  H   UNL     1      30.991  14.388  17.400  1.00  0.00     0.211 HD
ENDBRANCH   2  10
BRANCH   3  12
ATOM     12  O   UNL     1      29.019  15.690  18.203  1.00  0.00    -0.387 OA
ATOM     13  H   UNL     1      29.291  16.642  18.164  1.00  0.00     0.211 HD
ENDBRANCH   3  12
BRANCH   5  14
ATOM     14  C   UNL     1      33.110  15.806  21.052  1.00  0.00     0.191 C 
BRANCH  14  15
ATOM     15  O   UNL     1      33.668  15.257  22.216  1.00  0.00    -0.394 OA
ATOM     16  H   UNL     1      33.164  14.423  22.408  1.00  0.00     0.210 HD
ENDBRANCH  14  15
ENDBRANCH   5  14
BRANCH   4  17
ATOM     17  O   UNL     1      31.786  16.187  18.496  1.00  0.00    -0.387 OA
ATOM     18  H   UNL     1      32.741  16.178  18.763  1.00  0.00     0.211 HD
ENDBRANCH   4  17
TORSDOF 7
ENDMDL
MODEL 5
REMARK VINA RESULT:    -3.023      1.824      4.710
REMARK INTER + INTRA:          -4.260
REMARK INTER:                  -3.839
REMARK INTRA:                  -0.421
REMARK UNBOUND:                -0.354
REMARK SMILES CCO[C@@H]1O[C@@H](CO)[C@@H](O)[C@@H](O)[C@H]1O
REMARK SMILES IDX 4 1 13 2 11 3 9 4 6 5 5 6 3 7 2 8 1 9 14 10 12 12 7 14 8 15
REMARK SMILES IDX 10 17
REMARK H PARENT 14 11 12 13 8 16 10 18
REMARK Flexibility Score: inf
ROOT
ATOM      1  C   UNL     1      30.124  14.230  19.131  1.00  0.00     0.281 C 
ATOM      2  C   UNL     1      28.681  13.789  19.464  1.00  0.00     0.202 C 
ATOM      3  C   UNL     1      28.691  12.426  20.193  1.00  0.00     0.179 C 
ATOM      4  C   UNL     1      29.715  12.394  21.350  1.00  0.00     0.177 C 
ATOM      5  C   UNL     1      31.080  12.928  20.847  1.00  0.00     0.178 C 
ATOM      6  O   UNL     1      30.943  14.230  20.293  1.00  0.00    -0.341 OA
ENDROOT
BRANCH   1   7
ATOM      7  O   UNL     1      30.688  13.390  18.130  1.00  0.00    -0.350 OA
BRANCH   7   8
ATOM      8  C   UNL     1      30.367  13.854  16.834  1.00  0.00     0.160 C 
ATOM      9  C   UNL     1      30.880  15.275  16.672  1.00  0.00     0.035 C 
ENDBRANCH   7   8
ENDBRANCH   1   7
BRANCH   2  10
ATOM     10  O   UNL     1      28.070  14.780  20.252  1.00  0.00    -0.385 OA
ATOM     11  H   UNL     1      27.980  15.591  19.687  1.00  0.00     0.211 HD
ENDBRANCH   2  10
BRANCH   3  12
ATOM     12  O   UNL     1      27.405  12.046  20.616  1.00  0.00    -0.387 OA
ATOM     13  H   UNL     1      27.371  11.056  20.657  1.00  0.00     0.211 HD
ENDBRANCH   3  12
BRANCH   5  14
ATOM     14  C   UNL     1      32.110  12.970  21.985  1.00  0.00     0.191 C 
BRANCH  14  15
ATOM     15  O   UNL     1      31.973  11.843  22.809  1.00  0.00    -0.394 OA
ATOM     16  H   UNL     1      31.678  12.173  23.698  1.00  0.00     0.210 HD
ENDBRANCH  14  15
ENDBRANCH   5  14
BRANCH   4  17
ATOM     17  O   UNL     1      29.252  13.098  22.479  1.00  0.00    -0.387 OA
ATOM     18  H   UNL     1      28.298  13.329  22.336  1.00  0.00     0.211 HD
ENDBRANCH   4  17
TORSDOF 7
ENDMDL
MODEL 6
REMARK VINA RESULT:    -2.959      2.937      4.660
REMARK INTER + INTRA:          -4.178
REMARK INTER:                  -3.753
REMARK INTRA:                  -0.425
REMARK UNBOUND:                -0.354
REMARK SMILES CCO[C@@H]1O[C@@H](CO)[C@@H](O)[C@@H](O)[C@H]1O
REMARK SMILES IDX 4 1 13 2 11 3 9 4 6 5 5 6 3 7 2 8 1 9 14 10 12 12 7 14 8 15
REMARK SMILES IDX 10 17
REMARK H PARENT 14 11 12 13 8 16 10 18
REMARK Flexibility Score: inf
ROOT
ATOM      1  C   UNL     1      30.978  14.625  18.971  1.00  0.00     0.281 C 
ATOM      2  C   UNL     1      29.504  14.932  19.320  1.00  0.00     0.202 C 
ATOM      3  C   UNL     1      29.026  16.195  18.568  1.00  0.00     0.179 C 
ATOM      4  C   UNL     1      29.393  16.151  17.068  1.00  0.00     0.177 C 
ATOM      5  C   UNL     1      30.886  15.768  16.912  1.00  0.00     0.178 C 
ATOM      6  O   UNL     1      31.165  14.537  17.565  1.00  0.00    -0.341 OA
ENDROOT
BRANCH   1   7
ATOM      7  O   UNL     1      31.841  15.613  19.522  1.00  0.00    -0.350 OA
BRANCH   7   8
ATOM      8  C   UNL     1      31.939  15.480  20.926  1.00  0.00     0.160 C 
ATOM      9  C   UNL     1      32.795  14.266  21.252  1.00  0.00     0.035 C 
ENDBRANCH   7   8
ENDBRANCH   1   7
BRANCH   2  10
ATOM     10  O   UNL     1      28.714  13.817  18.990  1.00  0.00    -0.385 OA
ATOM     11  H   UNL     1      28.139  13.621  19.775  1.00  0.00     0.211 HD
ENDBRANCH   2  10
BRANCH   3  12
ATOM     12  O   UNL     1      27.656  16.440  18.769  1.00  0.00    -0.387 OA
ATOM     13  H   UNL     1      27.561  17.079  19.521  1.00  0.00     0.211 HD
ENDBRANCH   3  12
BRANCH   5  14
ATOM     14  C   UNL     1      31.276  15.653  15.431  1.00  0.00     0.191 C 
BRANCH  14  15
ATOM     15  O   UNL     1      31.065  14.345  14.970  1.00  0.00    -0.394 OA
ATOM     16  H   UNL     1      31.518  13.739  15.613  1.00  0.00     0.210 HD
ENDBRANCH  14  15
ENDBRANCH   5  14
BRANCH   4  17
ATOM     17  O   UNL     1      28.545  15.288  16.346  1.00  0.00    -0.387 OA
ATOM     18  H   UNL     1      27.965  15.837  15.758  1.00  0.00     0.211 HD
ENDBRANCH   4  17
TORSDOF 7
ENDMDL
MODEL 7
REMARK VINA RESULT:    -2.957      1.321      4.021
REMARK INTER + INTRA:          -4.175
REMARK INTER:                  -3.795
REMARK INTRA:                  -0.380
REMARK UNBOUND:                -0.354
REMARK SMILES CCO[C@@H]1O[C@@H](CO)[C@@H](O)[C@@H](O)[C@H]1O
REMARK SMILES IDX 4 1 13 2 11 3 9 4 6 5 5 6 3 7 2 8 1 9 14 10 12 12 7 14 8 15
REMARK SMILES IDX 10 17
REMARK H PARENT 14 11 12 13 8 16 10 18
REMARK Flexibility Score: inf
ROOT
ATOM      1  C   UNL     1      31.346  13.857  19.668  1.00  0.00     0.281 C 
ATOM      2  C   UNL     1      31.973  14.707  20.795  1.00  0.00     0.202 C 
ATOM      3  C   UNL     1      30.980  14.860  21.969  1.00  0.00     0.179 C 
ATOM      4  C   UNL     1      30.356  13.508  22.381  1.00  0.00     0.177 C 
ATOM      5  C   UNL     1      29.840  12.771  21.119  1.00  0.00     0.178 C 
ATOM      6  O   UNL     1      30.880  12.609  20.164  1.00  0.00    -0.341 OA
ENDROOT
BRANCH   1   7
ATOM      7  O   UNL     1      30.284  14.563  19.036  1.00  0.00    -0.350 OA
BRANCH   7   8
ATOM      8  C   UNL     1      30.691  15.086  17.788  1.00  0.00     0.160 C 
ATOM      9  C   UNL     1      30.501  14.024  16.717  1.00  0.00     0.035 C 
ENDBRANCH   7   8
ENDBRANCH   1   7
BRANCH   2  10
ATOM     10  O   UNL     1      33.167  14.098  21.218  1.00  0.00    -0.385 OA
ATOM     11  H   UNL     1      32.918  13.331  21.796  1.00  0.00     0.211 HD
ENDBRANCH   2  10
BRANCH   3  12
ATOM     12  O   UNL     1      31.556  15.530  23.063  1.00  0.00    -0.387 OA
ATOM     13  H   UNL     1      30.835  15.756  23.705  1.00  0.00     0.211 HD
ENDBRANCH   3  12
BRANCH   5  14
ATOM     14  C   UNL     1      29.266  11.392  21.480  1.00  0.00     0.191 C 
BRANCH  14  15
ATOM     15  O   UNL     1      30.304  10.488  21.753  1.00  0.00    -0.394 OA
ATOM     16  H   UNL     1      31.155  10.983  21.626  1.00  0.00     0.210 HD
ENDBRANCH  14  15
ENDBRANCH   5  14
BRANCH   4  17
ATOM     17  O   UNL     1      31.257  12.720  23.125  1.00  0.00    -0.387 OA
ATOM     18  H   UNL     1      30.769  12.327  23.893  1.00  0.00     0.211 HD
ENDBRANCH   4  17
TORSDOF 7
ENDMDL
MODEL 8
REMARK VINA RESULT:    -2.892      2.671      4.487
REMARK INTER + INTRA:          -4.092
REMARK INTER:                  -3.718
REMARK INTRA:                  -0.373
REMARK UNBOUND:                -0.354
REMARK SMILES CCO[C@@H]1O[C@@H](CO)[C@@H](O)[C@@H](O)[C@H]1O
REMARK SMILES IDX 4 1 13 2 11 3 9 4 6 5 5 6 3 7 2 8 1 9 14 10 12 12 7 14 8 15
REMARK SMILES IDX 10 17
REMARK H PARENT 14 11 12 13 8 16 10 18
REMARK Flexibility Score: inf
ROOT
ATOM      1  C   UNL     1      31.473  15.407  19.735  1.00  0.00     0.281 C 
ATOM      2  C   UNL     1      30.686  14.114  20.044  1.00  0.00     0.202 C 
ATOM      3  C   UNL     1      29.397  14.055  19.195  1.00  0.00     0.179 C 
ATOM      4  C   UNL     1      29.667  14.368  17.706  1.00  0.00     0.177 C 
ATOM      5  C   UNL     1      30.518  15.657  17.595  1.00  0.00     0.178 C 
ATOM      6  O   UNL     1      31.722  15.537  18.341  1.00  0.00    -0.341 OA
ENDROOT
BRANCH   1   7
ATOM      7  O   UNL     1      30.776  16.549  20.220  1.00  0.00    -0.350 OA
BRANCH   7   8
ATOM      8  C   UNL     1      31.404  17.082  21.367  1.00  0.00     0.160 C 
ATOM      9  C   UNL     1      32.897  16.802  21.294  1.00  0.00     0.035 C 
ENDBRANCH   7   8
ENDBRANCH   1   7
BRANCH   2  10
ATOM     10  O   UNL     1      31.511  13.004  19.791  1.00  0.00    -0.385 OA
ATOM     11  H   UNL     1      32.159  13.273  19.090  1.00  0.00     0.211 HD
ENDBRANCH   2  10
BRANCH   3  12
ATOM     12  O   UNL     1      28.711  12.838  19.362  1.00  0.00    -0.387 OA
ATOM     13  H   UNL     1      27.869  13.020  19.852  1.00  0.00     0.211 HD
ENDBRANCH   3  12
BRANCH   5  14
ATOM     14  C   UNL     1      30.862  15.969  16.131  1.00  0.00     0.191 C 
BRANCH  14  15
ATOM     15  O   UNL     1      31.891  15.129  15.681  1.00  0.00    -0.394 OA
ATOM     16  H   UNL     1      31.617  14.200  15.899  1.00  0.00     0.210 HD
ENDBRANCH  14  15
ENDBRANCH   5  14
BRANCH   4  17
ATOM     17  O   UNL     1      30.264  13.278  17.042  1.00  0.00    -0.387 OA
ATOM     18  H   UNL     1      30.971  12.902  17.628  1.00  0.00     0.211 HD
ENDBRANCH   4  17
TORSDOF 7
ENDMDL
MODEL 9
REMARK VINA RESULT:    -2.884      2.150      4.014
REMARK INTER + INTRA:          -4.081
REMARK INTER:                  -3.721
REMARK INTRA:                  -0.360
REMARK UNBOUND:                -0.354
REMARK SMILES CCO[C@@H]1O[C@@H](CO)[C@@H](O)[C@@H](O)[C@H]1O
REMARK SMILES IDX 4 1 13 2 11 3 9 4 6 5 5 6 3 7 2 8 1 9 14 10 12 12 7 14 8 15
REMARK SMILES IDX 10 17
REMARK H PARENT 14 11 12 13 8 16 10 18
REMARK Flexibility Score: inf
ROOT
ATOM      1  C   UNL     1      30.518  13.772  19.365  1.00  0.00     0.281 C 
ATOM      2  C   UNL     1      31.775  13.265  20.107  1.00  0.00     0.202 C 
ATOM      3  C   UNL     1      32.462  14.429  20.855  1.00  0.00     0.179 C 
ATOM      4  C   UNL     1      31.456  15.265  21.678  1.00  0.00     0.177 C 
ATOM      5  C   UNL     1      30.237  15.625  20.792  1.00  0.00     0.178 C 
ATOM      6  O   UNL     1      29.640  14.456  20.248  1.00  0.00    -0.341 OA
ENDROOT
BRANCH   1   7
ATOM      7  O   UNL     1      30.881  14.616  18.279  1.00  0.00    -0.350 OA
BRANCH   7   8
ATOM      8  C   UNL     1      30.312  14.164  17.067  1.00  0.00     0.160 C 
ATOM      9  C   UNL     1      30.975  14.885  15.905  1.00  0.00     0.035 C 
ENDBRANCH   7   8
ENDBRANCH   1   7
BRANCH   2  10
ATOM     10  O   UNL     1      31.401  12.242  20.996  1.00  0.00    -0.385 OA
ATOM     11  H   UNL     1      31.035  11.498  20.451  1.00  0.00     0.211 HD
ENDBRANCH   2  10
BRANCH   3  12
ATOM     12  O   UNL     1      33.544  13.987  21.638  1.00  0.00    -0.387 OA
ATOM     13  H   UNL     1      33.265  13.998  22.589  1.00  0.00     0.211 HD
ENDBRANCH   3  12
BRANCH   5  14
ATOM     14  C   UNL     1      29.183  16.405  21.592  1.00  0.00     0.191 C 
BRANCH  14  15
ATOM     15  O   UNL     1      28.339  15.521  22.279  1.00  0.00    -0.394 OA
ATOM     16  H   UNL     1      28.622  14.603  22.028  1.00  0.00     0.210 HD
ENDBRANCH  14  15
ENDBRANCH   5  14
BRANCH   4  17
ATOM     17  O   UNL     1      31.074  14.606  22.864  1.00  0.00    -0.387 OA
ATOM     18  H   UNL     1      31.730  14.830  23.573  1.00  0.00     0.211 HD
ENDBRANCH   4  17
TORSDOF 7
ENDMDL
