MODEL 1
REMARK VINA RESULT:    -5.342      0.000      0.000
REMARK INTER + INTRA:          -9.018
REMARK INTER:                  -8.308
REMARK INTRA:                  -0.709
REMARK UNBOUND:                -0.709
REMARK SMILES COc1cc(CNC(=O)CCCCC=CC(C)C)ccc1O
REMARK SMILES IDX 11 1 12 2 13 3 14 4 15 5 16 6 17 7 18 8 10 9 8 10 9 11 7 12
REMARK SMILES IDX 6 14 5 15 4 16 19 17 3 18 20 19 21 20 2 21 1 22 22 23
REMARK H PARENT 7 13 22 24
REMARK Flexibility Score: inf
ROOT
ATOM      1  C   UNL     1      43.901  22.667   7.914  1.00  0.00     0.010 C 
ENDROOT
BRANCH   1   2
ATOM      2  C   UNL     1      45.230  21.906   8.064  1.00  0.00     0.005 C 
BRANCH   2   3
ATOM      3  C   UNL     1      46.094  21.990   6.798  1.00  0.00     0.027 C 
BRANCH   3   4
ATOM      4  C   UNL     1      47.430  21.325   6.992  1.00  0.00    -0.031 C 
ATOM      5  C   UNL     1      48.380  21.364   6.042  1.00  0.00    -0.028 C 
BRANCH   5   6
ATOM      6  C   UNL     1      49.750  20.755   6.232  1.00  0.00     0.005 C 
ATOM      7  C   UNL     1      49.817  19.341   5.643  1.00  0.00     0.012 C 
ATOM      8  C   UNL     1      50.166  20.763   7.709  1.00  0.00     0.012 C 
ENDBRANCH   5   6
ENDBRANCH   3   4
ENDBRANCH   2   3
ENDBRANCH   1   2
BRANCH   1   9
ATOM      9  C   UNL     1      43.015  22.077   6.809  1.00  0.00     0.100 C 
BRANCH   9  10
ATOM     10  C   UNL     1      42.655  20.647   7.086  1.00  0.00     0.220 C 
ATOM     11  O   UNL     1      41.730  20.389   7.904  1.00  0.00    -0.275 OA
ATOM     12  N   UNL     1      43.329  19.584   6.398  1.00  0.00    -0.352 N 
ATOM     13  H   UNL     1      44.058  19.821   5.688  1.00  0.00     0.163 HD
BRANCH  12  14
ATOM     14  C   UNL     1      43.014  18.176   6.626  1.00  0.00     0.151 C 
BRANCH  14  15
ATOM     15  C   UNL     1      42.205  17.630   5.479  1.00  0.00    -0.025 A 
ATOM     16  C   UNL     1      40.852  17.304   5.667  1.00  0.00     0.056 A 
ATOM     17  C   UNL     1      42.784  17.465   4.213  1.00  0.00     0.009 A 
ATOM     18  C   UNL     1      40.078  16.807   4.599  1.00  0.00     0.160 A 
ATOM     19  C   UNL     1      42.023  16.974   3.151  1.00  0.00     0.050 A 
ATOM     20  C   UNL     1      40.676  16.644   3.336  1.00  0.00     0.157 A 
BRANCH  18  21
ATOM     21  O   UNL     1      38.724  16.469   4.756  1.00  0.00    -0.493 OA
ATOM     22  C   UNL     1      37.650  17.403   4.729  1.00  0.00     0.278 C 
ENDBRANCH  18  21
BRANCH  20  23
ATOM     23  O   UNL     1      39.948  16.160   2.249  1.00  0.00    -0.504 OA
ATOM     24  H   UNL     1      40.256  15.366   1.702  1.00  0.00     0.293 HD
ENDBRANCH  20  23
ENDBRANCH  14  15
ENDBRANCH  12  14
ENDBRANCH   9  10
ENDBRANCH   1   9
TORSDOF 10
ENDMDL
MODEL 2
REMARK VINA RESULT:    -4.802      1.305      2.349
REMARK INTER + INTRA:          -8.178
REMARK INTER:                  -7.593
REMARK INTRA:                  -0.586
REMARK UNBOUND:                -0.709
REMARK SMILES COc1cc(CNC(=O)CCCCC=CC(C)C)ccc1O
REMARK SMILES IDX 11 1 12 2 13 3 14 4 15 5 16 6 17 7 18 8 10 9 8 10 9 11 7 12
REMARK SMILES IDX 6 14 5 15 4 16 19 17 3 18 20 19 21 20 2 21 1 22 22 23
REMARK H PARENT 7 13 22 24
REMARK Flexibility Score: inf
ROOT
ATOM      1  C   UNL     1      43.405  22.202   6.931  1.00  0.00     0.010 C 
ENDROOT
BRANCH   1   2
ATOM      2  C   UNL     1      44.496  22.333   8.007  1.00  0.00     0.005 C 
BRANCH   2   3
ATOM      3  C   UNL     1      45.376  21.079   8.098  1.00  0.00     0.027 C 
BRANCH   3   4
ATOM      4  C   UNL     1      46.822  21.396   7.828  1.00  0.00    -0.031 C 
ATOM      5  C   UNL     1      47.573  20.626   7.022  1.00  0.00    -0.028 C 
BRANCH   5   6
ATOM      6  C   UNL     1      49.011  20.951   6.688  1.00  0.00     0.005 C 
ATOM      7  C   UNL     1      49.546  20.038   5.579  1.00  0.00     0.012 C 
ATOM      8  C   UNL     1      49.902  20.894   7.936  1.00  0.00     0.012 C 
ENDBRANCH   5   6
ENDBRANCH   3   4
ENDBRANCH   2   3
ENDBRANCH   1   2
BRANCH   1   9
ATOM      9  C   UNL     1      42.139  21.520   7.466  1.00  0.00     0.100 C 
BRANCH   9  10
ATOM     10  C   UNL     1      42.135  20.047   7.178  1.00  0.00     0.220 C 
ATOM     11  O   UNL     1      42.853  19.597   6.245  1.00  0.00    -0.275 OA
ATOM     12  N   UNL     1      41.353  19.154   7.984  1.00  0.00    -0.352 N 
ATOM     13  H   UNL     1      40.803  19.542   8.784  1.00  0.00     0.163 HD
BRANCH  12  14
ATOM     14  C   UNL     1      41.317  17.713   7.752  1.00  0.00     0.151 C 
BRANCH  14  15
ATOM     15  C   UNL     1      40.290  17.377   6.703  1.00  0.00    -0.025 A 
ATOM     16  C   UNL     1      40.701  17.028   5.406  1.00  0.00     0.056 A 
ATOM     17  C   UNL     1      38.924  17.387   7.014  1.00  0.00     0.009 A 
ATOM     18  C   UNL     1      39.752  16.695   4.419  1.00  0.00     0.160 A 
ATOM     19  C   UNL     1      37.979  17.058   6.041  1.00  0.00     0.050 A 
ATOM     20  C   UNL     1      38.384  16.713   4.747  1.00  0.00     0.157 A 
BRANCH  18  21
ATOM     21  O   UNL     1      40.129  16.345   3.112  1.00  0.00    -0.493 OA
ATOM     22  C   UNL     1      41.449  16.468   2.592  1.00  0.00     0.278 C 
ENDBRANCH  18  21
BRANCH  20  23
ATOM     23  O   UNL     1      37.410  16.387   3.803  1.00  0.00    -0.504 OA
ATOM     24  H   UNL     1      36.730  17.061   3.473  1.00  0.00     0.293 HD
ENDBRANCH  20  23
ENDBRANCH  14  15
ENDBRANCH  12  14
ENDBRANCH   9  10
ENDBRANCH   1   9
TORSDOF 10
ENDMDL
MODEL 3
REMARK VINA RESULT:    -4.723      2.891      9.087
REMARK INTER + INTRA:          -8.055
REMARK INTER:                  -7.363
REMARK INTRA:                  -0.692
REMARK UNBOUND:                -0.709
REMARK SMILES COc1cc(CNC(=O)CCCCC=CC(C)C)ccc1O
REMARK SMILES IDX 11 1 12 2 13 3 14 4 15 5 16 6 17 7 18 8 10 9 8 10 9 11 7 12
REMARK SMILES IDX 6 14 5 15 4 16 19 17 3 18 20 19 21 20 2 21 1 22 22 23
REMARK H PARENT 7 13 22 24
REMARK Flexibility Score: inf
ROOT
ATOM      1  C   UNL     1      41.413  17.384   5.029  1.00  0.00     0.010 C 
ENDROOT
BRANCH   1   2
ATOM      2  C   UNL     1      41.013  16.934   3.613  1.00  0.00     0.005 C 
BRANCH   2   3
ATOM      3  C   UNL     1      39.611  16.311   3.576  1.00  0.00     0.027 C 
BRANCH   3   4
ATOM      4  C   UNL     1      38.781  16.742   4.755  1.00  0.00    -0.031 C 
ATOM      5  C   UNL     1      37.581  17.328   4.594  1.00  0.00    -0.028 C 
BRANCH   5   6
ATOM      6  C   UNL     1      36.701  17.719   5.760  1.00  0.00     0.005 C 
ATOM      7  C   UNL     1      36.706  16.640   6.849  1.00  0.00     0.012 C 
ATOM      8  C   UNL     1      35.274  18.040   5.300  1.00  0.00     0.012 C 
ENDBRANCH   5   6
ENDBRANCH   3   4
ENDBRANCH   2   3
ENDBRANCH   1   2
BRANCH   1   9
ATOM      9  C   UNL     1      42.441  18.523   5.008  1.00  0.00     0.100 C 
BRANCH   9  10
ATOM     10  C   UNL     1      43.249  18.567   6.272  1.00  0.00     0.220 C 
ATOM     11  O   UNL     1      43.638  17.489   6.796  1.00  0.00    -0.275 OA
ATOM     12  N   UNL     1      43.611  19.827   6.855  1.00  0.00    -0.352 N 
ATOM     13  H   UNL     1      43.321  20.710   6.377  1.00  0.00     0.163 HD
BRANCH  12  14
ATOM     14  C   UNL     1      44.401  19.928   8.080  1.00  0.00     0.151 C 
BRANCH  14  15
ATOM     15  C   UNL     1      45.842  20.215   7.750  1.00  0.00    -0.025 A 
ATOM     16  C   UNL     1      46.798  19.190   7.835  1.00  0.00     0.056 A 
ATOM     17  C   UNL     1      46.237  21.493   7.334  1.00  0.00     0.009 A 
ATOM     18  C   UNL     1      48.147  19.438   7.513  1.00  0.00     0.160 A 
ATOM     19  C   UNL     1      47.572  21.747   7.014  1.00  0.00     0.050 A 
ATOM     20  C   UNL     1      48.528  20.729   7.101  1.00  0.00     0.157 A 
BRANCH  18  21
ATOM     21  O   UNL     1      49.128  18.436   7.591  1.00  0.00    -0.493 OA
ATOM     22  C   UNL     1      49.497  17.581   6.513  1.00  0.00     0.278 C 
ENDBRANCH  18  21
BRANCH  20  23
ATOM     23  O   UNL     1      49.851  21.019   6.769  1.00  0.00    -0.504 OA
ATOM     24  H   UNL     1      50.130  21.275   5.829  1.00  0.00     0.293 HD
ENDBRANCH  20  23
ENDBRANCH  14  15
ENDBRANCH  12  14
ENDBRANCH   9  10
ENDBRANCH   1   9
TORSDOF 10
ENDMDL
MODEL 4
REMARK VINA RESULT:    -4.686      1.630      2.113
REMARK INTER + INTRA:          -7.999
REMARK INTER:                  -7.452
REMARK INTRA:                  -0.547
REMARK UNBOUND:                -0.709
REMARK SMILES COc1cc(CNC(=O)CCCCC=CC(C)C)ccc1O
REMARK SMILES IDX 11 1 12 2 13 3 14 4 15 5 16 6 17 7 18 8 10 9 8 10 9 11 7 12
REMARK SMILES IDX 6 14 5 15 4 16 19 17 3 18 20 19 21 20 2 21 1 22 22 23
REMARK H PARENT 7 13 22 24
REMARK Flexibility Score: inf
ROOT
ATOM      1  C   UNL     1      43.353  22.006   6.812  1.00  0.00     0.010 C 
ENDROOT
BRANCH   1   2
ATOM      2  C   UNL     1      44.472  22.288   7.829  1.00  0.00     0.005 C 
BRANCH   2   3
ATOM      3  C   UNL     1      45.423  21.094   7.992  1.00  0.00     0.027 C 
BRANCH   3   4
ATOM      4  C   UNL     1      46.837  21.456   7.626  1.00  0.00    -0.031 C 
ATOM      5  C   UNL     1      47.679  20.554   7.093  1.00  0.00    -0.028 C 
BRANCH   5   6
ATOM      6  C   UNL     1      49.085  20.904   6.663  1.00  0.00     0.005 C 
ATOM      7  C   UNL     1      49.556  20.005   5.514  1.00  0.00     0.012 C 
ATOM      8  C   UNL     1      50.060  20.854   7.846  1.00  0.00     0.012 C 
ENDBRANCH   5   6
ENDBRANCH   3   4
ENDBRANCH   2   3
ENDBRANCH   1   2
BRANCH   1   9
ATOM      9  C   UNL     1      42.117  21.374   7.467  1.00  0.00     0.100 C 
BRANCH   9  10
ATOM     10  C   UNL     1      42.081  19.887   7.271  1.00  0.00     0.220 C 
ATOM     11  O   UNL     1      42.887  19.349   6.464  1.00  0.00    -0.275 OA
ATOM     12  N   UNL     1      41.164  19.080   8.023  1.00  0.00    -0.352 N 
ATOM     13  H   UNL     1      40.538  19.540   8.723  1.00  0.00     0.163 HD
BRANCH  12  14
ATOM     14  C   UNL     1      41.090  17.629   7.876  1.00  0.00     0.151 C 
BRANCH  14  15
ATOM     15  C   UNL     1      40.090  17.261   6.812  1.00  0.00    -0.025 A 
ATOM     16  C   UNL     1      38.715  17.357   7.079  1.00  0.00     0.056 A 
ATOM     17  C   UNL     1      40.518  16.846   5.544  1.00  0.00     0.009 A 
ATOM     18  C   UNL     1      37.767  17.033   6.088  1.00  0.00     0.160 A 
ATOM     19  C   UNL     1      39.585  16.524   4.557  1.00  0.00     0.050 A 
ATOM     20  C   UNL     1      38.214  16.614   4.821  1.00  0.00     0.157 A 
BRANCH  18  21
ATOM     21  O   UNL     1      36.385  17.115   6.325  1.00  0.00    -0.493 OA
ATOM     22  C   UNL     1      35.544  18.161   5.849  1.00  0.00     0.278 C 
ENDBRANCH  18  21
BRANCH  20  23
ATOM     23  O   UNL     1      37.312  16.287   3.809  1.00  0.00    -0.504 OA
ATOM     24  H   UNL     1      36.624  15.552   3.914  1.00  0.00     0.293 HD
ENDBRANCH  20  23
ENDBRANCH  14  15
ENDBRANCH  12  14
ENDBRANCH   9  10
ENDBRANCH   1   9
TORSDOF 10
ENDMDL
MODEL 5
REMARK VINA RESULT:    -4.574      2.457      8.898
REMARK INTER + INTRA:          -7.824
REMARK INTER:                  -7.143
REMARK INTRA:                  -0.682
REMARK UNBOUND:                -0.709
REMARK SMILES COc1cc(CNC(=O)CCCCC=CC(C)C)ccc1O
REMARK SMILES IDX 11 1 12 2 13 3 14 4 15 5 16 6 17 7 18 8 10 9 8 10 9 11 7 12
REMARK SMILES IDX 6 14 5 15 4 16 19 17 3 18 20 19 21 20 2 21 1 22 22 23
REMARK H PARENT 7 13 22 24
REMARK Flexibility Score: inf
ROOT
ATOM      1  C   UNL     1      42.054  16.551   3.225  1.00  0.00     0.010 C 
ENDROOT
BRANCH   1   2
ATOM      2  C   UNL     1      40.704  16.050   3.767  1.00  0.00     0.005 C 
BRANCH   2   3
ATOM      3  C   UNL     1      39.592  17.096   3.615  1.00  0.00     0.027 C 
BRANCH   3   4
ATOM      4  C   UNL     1      38.474  16.865   4.596  1.00  0.00    -0.031 C 
ATOM      5  C   UNL     1      37.298  17.507   4.487  1.00  0.00    -0.028 C 
BRANCH   5   6
ATOM      6  C   UNL     1      36.139  17.252   5.423  1.00  0.00     0.005 C 
ATOM      7  C   UNL     1      35.314  18.525   5.648  1.00  0.00     0.012 C 
ATOM      8  C   UNL     1      36.616  16.655   6.754  1.00  0.00     0.012 C 
ENDBRANCH   5   6
ENDBRANCH   3   4
ENDBRANCH   2   3
ENDBRANCH   1   2
BRANCH   1   9
ATOM      9  C   UNL     1      43.122  16.646   4.322  1.00  0.00     0.100 C 
BRANCH   9  10
ATOM     10  C   UNL     1      42.866  17.795   5.253  1.00  0.00     0.220 C 
ATOM     11  O   UNL     1      42.422  18.880   4.789  1.00  0.00    -0.275 OA
ATOM     12  N   UNL     1      43.086  17.646   6.663  1.00  0.00    -0.352 N 
ATOM     13  H   UNL     1      43.407  16.723   7.032  1.00  0.00     0.163 HD
BRANCH  12  14
ATOM     14  C   UNL     1      42.847  18.729   7.613  1.00  0.00     0.151 C 
BRANCH  14  15
ATOM     15  C   UNL     1      44.054  19.625   7.699  1.00  0.00    -0.025 A 
ATOM     16  C   UNL     1      45.336  19.065   7.826  1.00  0.00     0.056 A 
ATOM     17  C   UNL     1      43.915  21.018   7.629  1.00  0.00     0.009 A 
ATOM     18  C   UNL     1      46.476  19.891   7.890  1.00  0.00     0.160 A 
ATOM     19  C   UNL     1      45.040  21.841   7.691  1.00  0.00     0.050 A 
ATOM     20  C   UNL     1      46.318  21.287   7.821  1.00  0.00     0.157 A 
BRANCH  18  21
ATOM     21  O   UNL     1      47.771  19.362   8.020  1.00  0.00    -0.493 OA
ATOM     22  C   UNL     1      48.689  19.197   6.944  1.00  0.00     0.278 C 
ENDBRANCH  18  21
BRANCH  20  23
ATOM     23  O   UNL     1      47.418  22.142   7.877  1.00  0.00    -0.504 OA
ATOM     24  H   UNL     1      48.080  22.123   8.644  1.00  0.00     0.293 HD
ENDBRANCH  20  23
ENDBRANCH  14  15
ENDBRANCH  12  14
ENDBRANCH   9  10
ENDBRANCH   1   9
TORSDOF 10
ENDMDL
MODEL 6
REMARK VINA RESULT:    -4.437      2.554      8.882
REMARK INTER + INTRA:          -7.611
REMARK INTER:                  -7.155
REMARK INTRA:                  -0.456
REMARK UNBOUND:                -0.709
REMARK SMILES COc1cc(CNC(=O)CCCCC=CC(C)C)ccc1O
REMARK SMILES IDX 11 1 12 2 13 3 14 4 15 5 16 6 17 7 18 8 10 9 8 10 9 11 7 12
REMARK SMILES IDX 6 14 5 15 4 16 19 17 3 18 20 19 21 20 2 21 1 22 22 23
REMARK H PARENT 7 13 22 24
REMARK Flexibility Score: inf
ROOT
ATOM      1  C   UNL     1      40.483  17.202   3.470  1.00  0.00     0.010 C 
ENDROOT
BRANCH   1   2
ATOM      2  C   UNL     1      39.676  16.040   4.076  1.00  0.00     0.005 C 
BRANCH   2   3
ATOM      3  C   UNL     1      39.296  16.298   5.540  1.00  0.00     0.027 C 
BRANCH   3   4
ATOM      4  C   UNL     1      37.812  16.477   5.705  1.00  0.00    -0.031 C 
ATOM      5  C   UNL     1      37.130  17.395   4.998  1.00  0.00    -0.028 C 
BRANCH   5   6
ATOM      6  C   UNL     1      35.631  17.557   5.102  1.00  0.00     0.005 C 
ATOM      7  C   UNL     1      35.260  18.874   5.794  1.00  0.00     0.012 C 
ATOM      8  C   UNL     1      34.985  16.357   5.806  1.00  0.00     0.012 C 
ENDBRANCH   5   6
ENDBRANCH   3   4
ENDBRANCH   2   3
ENDBRANCH   1   2
BRANCH   1   9
ATOM      9  C   UNL     1      41.981  17.095   3.784  1.00  0.00     0.100 C 
BRANCH   9  10
ATOM     10  C   UNL     1      42.261  17.295   5.244  1.00  0.00     0.220 C 
ATOM     11  O   UNL     1      42.822  16.375   5.899  1.00  0.00    -0.275 OA
ATOM     12  N   UNL     1      41.930  18.538   5.880  1.00  0.00    -0.352 N 
ATOM     13  H   UNL     1      41.510  19.305   5.308  1.00  0.00     0.163 HD
BRANCH  12  14
ATOM     14  C   UNL     1      42.186  18.788   7.296  1.00  0.00     0.151 C 
BRANCH  14  15
ATOM     15  C   UNL     1      43.393  19.673   7.461  1.00  0.00    -0.025 A 
ATOM     16  C   UNL     1      43.232  21.060   7.604  1.00  0.00     0.056 A 
ATOM     17  C   UNL     1      44.681  19.121   7.496  1.00  0.00     0.009 A 
ATOM     18  C   UNL     1      44.352  21.899   7.775  1.00  0.00     0.160 A 
ATOM     19  C   UNL     1      45.795  19.946   7.666  1.00  0.00     0.050 A 
ATOM     20  C   UNL     1      45.638  21.329   7.805  1.00  0.00     0.157 A 
BRANCH  18  21
ATOM     21  O   UNL     1      44.225  23.290   7.918  1.00  0.00    -0.493 OA
ATOM     22  C   UNL     1      42.992  23.972   8.125  1.00  0.00     0.278 C 
ENDBRANCH  18  21
BRANCH  20  23
ATOM     23  O   UNL     1      46.774  22.120   7.977  1.00  0.00    -0.504 OA
ATOM     24  H   UNL     1      47.071  22.451   8.887  1.00  0.00     0.293 HD
ENDBRANCH  20  23
ENDBRANCH  14  15
ENDBRANCH  12  14
ENDBRANCH   9  10
ENDBRANCH   1   9
TORSDOF 10
ENDMDL
MODEL 7
REMARK VINA RESULT:    -4.039      2.123      3.586
REMARK INTER + INTRA:          -6.992
REMARK INTER:                  -6.361
REMARK INTRA:                  -0.631
REMARK UNBOUND:                -0.709
REMARK SMILES COc1cc(CNC(=O)CCCCC=CC(C)C)ccc1O
REMARK SMILES IDX 11 1 12 2 13 3 14 4 15 5 16 6 17 7 18 8 10 9 8 10 9 11 7 12
REMARK SMILES IDX 6 14 5 15 4 16 19 17 3 18 20 19 21 20 2 21 1 22 22 23
REMARK H PARENT 7 13 22 24
REMARK Flexibility Score: inf
ROOT
ATOM      1  C   UNL     1      42.194  20.684   6.903  1.00  0.00     0.010 C 
ENDROOT
BRANCH   1   2
ATOM      2  C   UNL     1      42.952  22.014   6.745  1.00  0.00     0.005 C 
BRANCH   2   3
ATOM      3  C   UNL     1      43.617  22.462   8.054  1.00  0.00     0.027 C 
BRANCH   3   4
ATOM      4  C   UNL     1      45.118  22.415   7.958  1.00  0.00    -0.031 C 
ATOM      5  C   UNL     1      45.777  21.255   7.802  1.00  0.00    -0.028 C 
BRANCH   5   6
ATOM      6  C   UNL     1      47.279  21.183   7.646  1.00  0.00     0.005 C 
ATOM      7  C   UNL     1      47.726  21.745   6.292  1.00  0.00     0.012 C 
ATOM      8  C   UNL     1      47.796  19.754   7.855  1.00  0.00     0.012 C 
ENDBRANCH   5   6
ENDBRANCH   3   4
ENDBRANCH   2   3
ENDBRANCH   1   2
BRANCH   1   9
ATOM      9  C   UNL     1      43.137  19.473   6.890  1.00  0.00     0.100 C 
BRANCH   9  10
ATOM     10  C   UNL     1      42.477  18.259   6.304  1.00  0.00     0.220 C 
ATOM     11  O   UNL     1      42.920  17.115   6.592  1.00  0.00    -0.275 OA
ATOM     12  N   UNL     1      41.328  18.398   5.457  1.00  0.00    -0.352 N 
ATOM     13  H   UNL     1      40.946  19.354   5.271  1.00  0.00     0.163 HD
BRANCH  12  14
ATOM     14  C   UNL     1      40.644  17.251   4.866  1.00  0.00     0.151 C 
BRANCH  14  15
ATOM     15  C   UNL     1      39.417  16.904   5.668  1.00  0.00    -0.025 A 
ATOM     16  C   UNL     1      38.141  17.196   5.159  1.00  0.00     0.056 A 
ATOM     17  C   UNL     1      39.534  16.268   6.911  1.00  0.00     0.009 A 
ATOM     18  C   UNL     1      36.984  16.862   5.890  1.00  0.00     0.160 A 
ATOM     19  C   UNL     1      38.392  15.934   7.640  1.00  0.00     0.050 A 
ATOM     20  C   UNL     1      37.119  16.227   7.138  1.00  0.00     0.157 A 
BRANCH  18  21
ATOM     21  O   UNL     1      35.694  17.144   5.411  1.00  0.00    -0.493 OA
ATOM     22  C   UNL     1      35.013  18.380   5.600  1.00  0.00     0.278 C 
ENDBRANCH  18  21
BRANCH  20  23
ATOM     23  O   UNL     1      36.001  15.875   7.895  1.00  0.00    -0.504 OA
ATOM     24  H   UNL     1      35.056  16.074   7.589  1.00  0.00     0.293 HD
ENDBRANCH  20  23
ENDBRANCH  14  15
ENDBRANCH  12  14
ENDBRANCH   9  10
ENDBRANCH   1   9
TORSDOF 10
ENDMDL
MODEL 8
REMARK VINA RESULT:    -3.948      1.981      8.838
REMARK INTER + INTRA:          -6.849
REMARK INTER:                  -6.624
REMARK INTRA:                  -0.226
REMARK UNBOUND:                -0.709
REMARK SMILES COc1cc(CNC(=O)CCCCC=CC(C)C)ccc1O
REMARK SMILES IDX 11 1 12 2 13 3 14 4 15 5 16 6 17 7 18 8 10 9 8 10 9 11 7 12
REMARK SMILES IDX 6 14 5 15 4 16 19 17 3 18 20 19 21 20 2 21 1 22 22 23
REMARK H PARENT 7 13 22 24
REMARK Flexibility Score: inf
ROOT
ATOM      1  C   UNL     1      41.441  16.669   2.976  1.00  0.00     0.010 C 
ENDROOT
BRANCH   1   2
ATOM      2  C   UNL     1      40.488  15.876   3.886  1.00  0.00     0.005 C 
BRANCH   2   3
ATOM      3  C   UNL     1      39.013  16.124   3.539  1.00  0.00     0.027 C 
BRANCH   3   4
ATOM      4  C   UNL     1      38.195  16.413   4.768  1.00  0.00    -0.031 C 
ATOM      5  C   UNL     1      37.228  17.347   4.766  1.00  0.00    -0.028 C 
BRANCH   5   6
ATOM      6  C   UNL     1      36.353  17.619   5.968  1.00  0.00     0.005 C 
ATOM      7  C   UNL     1      36.058  16.331   6.745  1.00  0.00     0.012 C 
ATOM      8  C   UNL     1      35.059  18.338   5.567  1.00  0.00     0.012 C 
ENDBRANCH   5   6
ENDBRANCH   3   4
ENDBRANCH   2   3
ENDBRANCH   1   2
BRANCH   1   9
ATOM      9  C   UNL     1      42.666  17.197   3.736  1.00  0.00     0.100 C 
BRANCH   9  10
ATOM     10  C   UNL     1      42.296  17.723   5.091  1.00  0.00     0.220 C 
ATOM     11  O   UNL     1      41.160  18.241   5.266  1.00  0.00    -0.275 OA
ATOM     12  N   UNL     1      43.213  17.604   6.188  1.00  0.00    -0.352 N 
ATOM     13  H   UNL     1      44.131  17.127   6.034  1.00  0.00     0.163 HD
BRANCH  12  14
ATOM     14  C   UNL     1      42.903  18.094   7.529  1.00  0.00     0.151 C 
BRANCH  14  15
ATOM     15  C   UNL     1      43.233  19.559   7.640  1.00  0.00    -0.025 A 
ATOM     16  C   UNL     1      44.565  19.965   7.823  1.00  0.00     0.056 A 
ATOM     17  C   UNL     1      42.225  20.527   7.538  1.00  0.00     0.009 A 
ATOM     18  C   UNL     1      44.892  21.333   7.911  1.00  0.00     0.160 A 
ATOM     19  C   UNL     1      42.542  21.883   7.624  1.00  0.00     0.050 A 
ATOM     20  C   UNL     1      43.867  22.291   7.810  1.00  0.00     0.157 A 
BRANCH  18  21
ATOM     21  O   UNL     1      46.213  21.772   8.098  1.00  0.00    -0.493 OA
ATOM     22  C   UNL     1      47.353  21.191   7.473  1.00  0.00     0.278 C 
ENDBRANCH  18  21
BRANCH  20  23
ATOM     23  O   UNL     1      44.145  23.656   7.888  1.00  0.00    -0.504 OA
ATOM     24  H   UNL     1      45.037  24.044   7.606  1.00  0.00     0.293 HD
ENDBRANCH  20  23
ENDBRANCH  14  15
ENDBRANCH  12  14
ENDBRANCH   9  10
ENDBRANCH   1   9
TORSDOF 10
ENDMDL
MODEL 9
REMARK VINA RESULT:    -3.933      3.046      7.875
REMARK INTER + INTRA:          -6.827
REMARK INTER:                  -6.797
REMARK INTRA:                  -0.030
REMARK UNBOUND:                -0.709
REMARK SMILES COc1cc(CNC(=O)CCCCC=CC(C)C)ccc1O
REMARK SMILES IDX 11 1 12 2 13 3 14 4 15 5 16 6 17 7 18 8 10 9 8 10 9 11 7 12
REMARK SMILES IDX 6 14 5 15 4 16 19 17 3 18 20 19 21 20 2 21 1 22 22 23
REMARK H PARENT 7 13 22 24
REMARK Flexibility Score: inf
ROOT
ATOM      1  C   UNL     1      42.377  19.830   6.675  1.00  0.00     0.010 C 
ENDROOT
BRANCH   1   2
ATOM      2  C   UNL     1      42.295  18.437   7.323  1.00  0.00     0.005 C 
BRANCH   2   3
ATOM      3  C   UNL     1      42.912  17.347   6.436  1.00  0.00     0.027 C 
BRANCH   3   4
ATOM      4  C   UNL     1      41.920  16.818   5.436  1.00  0.00    -0.031 C 
ATOM      5  C   UNL     1      41.777  17.379   4.223  1.00  0.00    -0.028 C 
BRANCH   5   6
ATOM      6  C   UNL     1      40.830  16.834   3.178  1.00  0.00     0.005 C 
ATOM      7  C   UNL     1      39.720  15.993   3.818  1.00  0.00     0.012 C 
ATOM      8  C   UNL     1      41.581  16.040   2.101  1.00  0.00     0.012 C 
ENDBRANCH   5   6
ENDBRANCH   3   4
ENDBRANCH   2   3
ENDBRANCH   1   2
BRANCH   1   9
ATOM      9  C   UNL     1      42.285  20.959   7.710  1.00  0.00     0.100 C 
BRANCH   9  10
ATOM     10  C   UNL     1      43.533  21.791   7.740  1.00  0.00     0.220 C 
ATOM     11  O   UNL     1      43.459  23.027   7.502  1.00  0.00    -0.275 OA
ATOM     12  N   UNL     1      44.794  21.193   8.075  1.00  0.00    -0.352 N 
ATOM     13  H   UNL     1      44.825  20.177   8.317  1.00  0.00     0.163 HD
BRANCH  12  14
ATOM     14  C   UNL     1      46.037  21.957   8.124  1.00  0.00     0.151 C 
BRANCH  14  15
ATOM     15  C   UNL     1      47.152  21.185   7.470  1.00  0.00    -0.025 A 
ATOM     16  C   UNL     1      47.630  20.005   8.063  1.00  0.00     0.056 A 
ATOM     17  C   UNL     1      47.704  21.619   6.257  1.00  0.00     0.009 A 
ATOM     18  C   UNL     1      48.661  19.262   7.453  1.00  0.00     0.160 A 
ATOM     19  C   UNL     1      48.725  20.888   5.647  1.00  0.00     0.050 A 
ATOM     20  C   UNL     1      49.206  19.714   6.238  1.00  0.00     0.157 A 
BRANCH  18  21
ATOM     21  O   UNL     1      49.163  18.080   8.022  1.00  0.00    -0.493 OA
ATOM     22  C   UNL     1      49.589  16.943   7.279  1.00  0.00     0.278 C 
ENDBRANCH  18  21
BRANCH  20  23
ATOM     23  O   UNL     1      50.225  19.009   5.597  1.00  0.00    -0.504 OA
ATOM     24  H   UNL     1      51.034  18.657   6.093  1.00  0.00     0.293 HD
ENDBRANCH  20  23
ENDBRANCH  14  15
ENDBRANCH  12  14
ENDBRANCH   9  10
ENDBRANCH   1   9
TORSDOF 10
ENDMDL
