MODEL 1
REMARK VINA RESULT:    -4.154      0.000      0.000
REMARK INTER + INTRA:          -6.056
REMARK INTER:                  -5.611
REMARK INTRA:                  -0.446
REMARK UNBOUND:                -0.446
REMARK SMILES CCCCCCCC(=O)[O-]
REMARK SMILES IDX 5 1 6 2 7 3 8 4 9 5 10 6 4 7 3 8 2 9 1 10
REMARK H PARENT
REMARK Flexibility Score: inf
ROOT
ATOM      1  C   UNL     1      13.173  -7.104  14.083  1.00  0.00     0.000 C 
ENDROOT
BRANCH   1   2
ATOM      2  C   UNL     1      13.787  -6.747  15.445  1.00  0.00     0.006 C 
BRANCH   2   3
ATOM      3  C   UNL     1      13.491  -7.835  16.482  1.00  0.00     0.053 C 
BRANCH   3   4
ATOM      4  C   UNL     1      12.238  -7.515  17.233  1.00  0.00     0.041 C 
ATOM      5  O   UNL     1      11.728  -6.367  17.155  1.00  0.00    -0.550 OA
ATOM      6  O   UNL     1      11.660  -8.470  18.060  1.00  0.00    -0.550 OA
ENDBRANCH   3   4
ENDBRANCH   2   3
ENDBRANCH   1   2
BRANCH   1   7
ATOM      7  C   UNL     1      14.161  -6.934  12.915  1.00  0.00     0.000 C 
BRANCH   7   8
ATOM      8  C   UNL     1      15.614  -7.333  13.230  1.00  0.00    -0.000 C 
BRANCH   8   9
ATOM      9  C   UNL     1      15.908  -8.809  12.930  1.00  0.00    -0.003 C 
ATOM     10  C   UNL     1      15.816  -9.657  14.195  1.00  0.00     0.004 C 
ENDBRANCH   8   9
ENDBRANCH   7   8
ENDBRANCH   1   7
TORSDOF 6
ENDMDL
MODEL 2
REMARK VINA RESULT:    -4.021     13.921     17.014
REMARK INTER + INTRA:          -5.877
REMARK INTER:                  -5.624
REMARK INTRA:                  -0.252
REMARK UNBOUND:                -0.446
REMARK SMILES CCCCCCCC(=O)[O-]
REMARK SMILES IDX 5 1 6 2 7 3 8 4 9 5 10 6 4 7 3 8 2 9 1 10
REMARK H PARENT
REMARK Flexibility Score: inf
ROOT
ATOM      1  C   UNL     1       6.819  -5.621  30.220  1.00  0.00     0.000 C 
ENDROOT
BRANCH   1   2
ATOM      2  C   UNL     1       7.817  -5.260  29.111  1.00  0.00     0.006 C 
BRANCH   2   3
ATOM      3  C   UNL     1       8.807  -6.405  28.871  1.00  0.00     0.053 C 
BRANCH   3   4
ATOM      4  C   UNL     1       8.361  -7.250  27.720  1.00  0.00     0.041 C 
ATOM      5  O   UNL     1       7.407  -6.874  26.990  1.00  0.00    -0.550 OA
ATOM      6  O   UNL     1       8.967  -8.478  27.483  1.00  0.00    -0.550 OA
ENDBRANCH   3   4
ENDBRANCH   2   3
ENDBRANCH   1   2
BRANCH   1   7
ATOM      7  C   UNL     1       7.505  -6.027  31.537  1.00  0.00     0.000 C 
BRANCH   7   8
ATOM      8  C   UNL     1       6.804  -5.531  32.814  1.00  0.00    -0.000 C 
BRANCH   8   9
ATOM      9  C   UNL     1       5.274  -5.530  32.696  1.00  0.00    -0.003 C 
ATOM     10  C   UNL     1       4.702  -6.924  32.937  1.00  0.00     0.004 C 
ENDBRANCH   8   9
ENDBRANCH   7   8
ENDBRANCH   1   7
TORSDOF 6
ENDMDL
MODEL 3
REMARK VINA RESULT:    -3.969      1.294      2.393
REMARK INTER + INTRA:          -5.807
REMARK INTER:                  -5.241
REMARK INTRA:                  -0.566
REMARK UNBOUND:                -0.446
REMARK SMILES CCCCCCCC(=O)[O-]
REMARK SMILES IDX 5 1 6 2 7 3 8 4 9 5 10 6 4 7 3 8 2 9 1 10
REMARK H PARENT
REMARK Flexibility Score: inf
ROOT
ATOM      1  C   UNL     1      14.744  -9.688  15.817  1.00  0.00     0.000 C 
ENDROOT
BRANCH   1   2
ATOM      2  C   UNL     1      13.967  -8.835  16.831  1.00  0.00     0.006 C 
BRANCH   2   3
ATOM      3  C   UNL     1      14.501  -7.399  16.862  1.00  0.00     0.053 C 
BRANCH   3   4
ATOM      4  C   UNL     1      13.370  -6.420  16.878  1.00  0.00     0.041 C 
ATOM      5  O   UNL     1      13.556  -5.244  17.287  1.00  0.00    -0.550 OA
ATOM      6  O   UNL     1      12.099  -6.820  16.487  1.00  0.00    -0.550 OA
ENDBRANCH   3   4
ENDBRANCH   2   3
ENDBRANCH   1   2
BRANCH   1   7
ATOM      7  C   UNL     1      14.400  -9.347  14.356  1.00  0.00     0.000 C 
BRANCH   7   8
ATOM      8  C   UNL     1      15.578  -8.818  13.518  1.00  0.00    -0.000 C 
BRANCH   8   9
ATOM      9  C   UNL     1      15.471  -7.317  13.214  1.00  0.00    -0.003 C 
ATOM     10  C   UNL     1      14.013  -6.869  13.161  1.00  0.00     0.004 C 
ENDBRANCH   8   9
ENDBRANCH   7   8
ENDBRANCH   1   7
TORSDOF 6
ENDMDL
MODEL 4
REMARK VINA RESULT:    -3.963     13.982     16.317
REMARK INTER + INTRA:          -5.798
REMARK INTER:                  -5.272
REMARK INTRA:                  -0.526
REMARK UNBOUND:                -0.446
REMARK SMILES CCCCCCCC(=O)[O-]
REMARK SMILES IDX 5 1 6 2 7 3 8 4 9 5 10 6 4 7 3 8 2 9 1 10
REMARK H PARENT
REMARK Flexibility Score: inf
ROOT
ATOM      1  C   UNL     1       7.505  -5.830  31.060  1.00  0.00     0.000 C 
ENDROOT
BRANCH   1   2
ATOM      2  C   UNL     1       7.722  -5.525  29.571  1.00  0.00     0.006 C 
BRANCH   2   3
ATOM      3  C   UNL     1       8.848  -6.390  28.993  1.00  0.00     0.053 C 
BRANCH   3   4
ATOM      4  C   UNL     1       8.335  -7.237  27.872  1.00  0.00     0.041 C 
ATOM      5  O   UNL     1       8.975  -8.258  27.505  1.00  0.00    -0.550 OA
ATOM      6  O   UNL     1       7.175  -6.874  27.199  1.00  0.00    -0.550 OA
ENDBRANCH   3   4
ENDBRANCH   2   3
ENDBRANCH   1   2
BRANCH   1   7
ATOM      7  C   UNL     1       6.086  -6.342  31.368  1.00  0.00     0.000 C 
BRANCH   7   8
ATOM      8  C   UNL     1       5.926  -7.872  31.334  1.00  0.00    -0.000 C 
BRANCH   8   9
ATOM      9  C   UNL     1       5.125  -8.364  30.120  1.00  0.00    -0.003 C 
ATOM     10  C   UNL     1       5.868  -9.476  29.385  1.00  0.00     0.004 C 
ENDBRANCH   8   9
ENDBRANCH   7   8
ENDBRANCH   1   7
TORSDOF 6
ENDMDL
MODEL 5
REMARK VINA RESULT:    -3.911      2.193      2.504
REMARK INTER + INTRA:          -5.728
REMARK INTER:                  -5.491
REMARK INTRA:                  -0.237
REMARK UNBOUND:                -0.446
REMARK SMILES CCCCCCCC(=O)[O-]
REMARK SMILES IDX 5 1 6 2 7 3 8 4 9 5 10 6 4 7 3 8 2 9 1 10
REMARK H PARENT
REMARK Flexibility Score: inf
ROOT
ATOM      1  C   UNL     1      13.734  -7.529  15.522  1.00  0.00     0.000 C 
ENDROOT
BRANCH   1   2
ATOM      2  C   UNL     1      13.649  -6.407  16.567  1.00  0.00     0.006 C 
BRANCH   2   3
ATOM      3  C   UNL     1      14.583  -6.688  17.749  1.00  0.00     0.053 C 
BRANCH   3   4
ATOM      4  C   UNL     1      14.564  -5.544  18.714  1.00  0.00     0.041 C 
ATOM      5  O   UNL     1      14.559  -4.358  18.291  1.00  0.00    -0.550 OA
ATOM      6  O   UNL     1      14.602  -5.788  20.081  1.00  0.00    -0.550 OA
ENDBRANCH   3   4
ENDBRANCH   2   3
ENDBRANCH   1   2
BRANCH   1   7
ATOM      7  C   UNL     1      13.145  -7.125  14.158  1.00  0.00     0.000 C 
BRANCH   7   8
ATOM      8  C   UNL     1      14.183  -6.857  13.055  1.00  0.00    -0.000 C 
BRANCH   8   9
ATOM      9  C   UNL     1      15.587  -7.363  13.417  1.00  0.00    -0.003 C 
ATOM     10  C   UNL     1      15.822  -8.770  12.875  1.00  0.00     0.004 C 
ENDBRANCH   8   9
ENDBRANCH   7   8
ENDBRANCH   1   7
TORSDOF 6
ENDMDL
MODEL 6
REMARK VINA RESULT:    -3.911     15.386     17.493
REMARK INTER + INTRA:          -5.728
REMARK INTER:                  -5.170
REMARK INTRA:                  -0.558
REMARK UNBOUND:                -0.446
REMARK SMILES CCCCCCCC(=O)[O-]
REMARK SMILES IDX 5 1 6 2 7 3 8 4 9 5 10 6 4 7 3 8 2 9 1 10
REMARK H PARENT
REMARK Flexibility Score: inf
ROOT
ATOM      1  C   UNL     1       5.551  -8.352  30.145  1.00  0.00     0.000 C 
ENDROOT
BRANCH   1   2
ATOM      2  C   UNL     1       6.422  -7.781  29.017  1.00  0.00     0.006 C 
BRANCH   2   3
ATOM      3  C   UNL     1       6.352  -6.250  28.992  1.00  0.00     0.053 C 
BRANCH   3   4
ATOM      4  C   UNL     1       7.729  -5.663  28.991  1.00  0.00     0.041 C 
ATOM      5  O   UNL     1       7.928  -4.516  28.511  1.00  0.00    -0.550 OA
ATOM      6  O   UNL     1       8.800  -6.402  29.476  1.00  0.00    -0.550 OA
ENDBRANCH   3   4
ENDBRANCH   2   3
ENDBRANCH   1   2
BRANCH   1   7
ATOM      7  C   UNL     1       5.989  -7.877  31.542  1.00  0.00     0.000 C 
BRANCH   7   8
ATOM      8  C   UNL     1       4.924  -7.087  32.323  1.00  0.00    -0.000 C 
BRANCH   8   9
ATOM      9  C   UNL     1       5.394  -5.682  32.723  1.00  0.00    -0.003 C 
ATOM     10  C   UNL     1       6.912  -5.562  32.626  1.00  0.00     0.004 C 
ENDBRANCH   8   9
ENDBRANCH   7   8
ENDBRANCH   1   7
TORSDOF 6
ENDMDL
MODEL 7
REMARK VINA RESULT:    -3.889     16.045     17.958
REMARK INTER + INTRA:          -5.698
REMARK INTER:                  -5.137
REMARK INTRA:                  -0.561
REMARK UNBOUND:                -0.446
REMARK SMILES CCCCCCCC(=O)[O-]
REMARK SMILES IDX 5 1 6 2 7 3 8 4 9 5 10 6 4 7 3 8 2 9 1 10
REMARK H PARENT
REMARK Flexibility Score: inf
ROOT
ATOM      1  C   UNL     1       7.133  -5.634  30.228  1.00  0.00     0.000 C 
ENDROOT
BRANCH   1   2
ATOM      2  C   UNL     1       6.891  -6.777  29.232  1.00  0.00     0.006 C 
BRANCH   2   3
ATOM      3  C   UNL     1       5.393  -7.040  29.053  1.00  0.00     0.053 C 
BRANCH   3   4
ATOM      4  C   UNL     1       5.023  -8.373  29.624  1.00  0.00     0.041 C 
ATOM      5  O   UNL     1       3.849  -8.585  30.027  1.00  0.00    -0.550 OA
ATOM      6  O   UNL     1       5.986  -9.364  29.756  1.00  0.00    -0.550 OA
ENDBRANCH   3   4
ENDBRANCH   2   3
ENDBRANCH   1   2
BRANCH   1   7
ATOM      7  C   UNL     1       7.564  -6.132  31.620  1.00  0.00     0.000 C 
BRANCH   7   8
ATOM      8  C   UNL     1       6.801  -5.503  32.800  1.00  0.00    -0.000 C 
BRANCH   8   9
ATOM      9  C   UNL     1       5.279  -5.510  32.601  1.00  0.00    -0.003 C 
ATOM     10  C   UNL     1       4.677  -6.849  33.016  1.00  0.00     0.004 C 
ENDBRANCH   8   9
ENDBRANCH   7   8
ENDBRANCH   1   7
TORSDOF 6
ENDMDL
MODEL 8
REMARK VINA RESULT:    -3.835     15.107     16.883
REMARK INTER + INTRA:          -5.626
REMARK INTER:                  -5.172
REMARK INTRA:                  -0.453
REMARK UNBOUND:                -0.446
REMARK SMILES CCCCCCCC(=O)[O-]
REMARK SMILES IDX 5 1 6 2 7 3 8 4 9 5 10 6 4 7 3 8 2 9 1 10
REMARK H PARENT
REMARK Flexibility Score: inf
ROOT
ATOM      1  C   UNL     1       6.005  -8.165  29.856  1.00  0.00     0.000 C 
ENDROOT
BRANCH   1   2
ATOM      2  C   UNL     1       5.988  -7.763  31.338  1.00  0.00     0.006 C 
BRANCH   2   3
ATOM      3  C   UNL     1       7.072  -6.721  31.635  1.00  0.00     0.053 C 
BRANCH   3   4
ATOM      4  C   UNL     1       6.515  -5.608  32.465  1.00  0.00     0.041 C 
ATOM      5  O   UNL     1       7.281  -4.732  32.946  1.00  0.00    -0.550 OA
ATOM      6  O   UNL     1       5.156  -5.566  32.750  1.00  0.00    -0.550 OA
ENDBRANCH   3   4
ENDBRANCH   2   3
ENDBRANCH   1   2
BRANCH   1   7
ATOM      7  C   UNL     1       6.092  -6.957  28.907  1.00  0.00     0.000 C 
BRANCH   7   8
ATOM      8  C   UNL     1       6.971  -7.171  27.661  1.00  0.00    -0.000 C 
BRANCH   8   9
ATOM      9  C   UNL     1       8.456  -7.359  28.001  1.00  0.00    -0.003 C 
ATOM     10  C   UNL     1       9.038  -6.101  28.637  1.00  0.00     0.004 C 
ENDBRANCH   8   9
ENDBRANCH   7   8
ENDBRANCH   1   7
TORSDOF 6
ENDMDL
MODEL 9
REMARK VINA RESULT:    -3.830     14.179     16.753
REMARK INTER + INTRA:          -5.619
REMARK INTER:                  -5.262
REMARK INTRA:                  -0.357
REMARK UNBOUND:                -0.446
REMARK SMILES CCCCCCCC(=O)[O-]
REMARK SMILES IDX 5 1 6 2 7 3 8 4 9 5 10 6 4 7 3 8 2 9 1 10
REMARK H PARENT
REMARK Flexibility Score: inf
ROOT
ATOM      1  C   UNL     1       6.650  -6.881  29.458  1.00  0.00     0.000 C 
ENDROOT
BRANCH   1   2
ATOM      2  C   UNL     1       6.555  -5.404  29.045  1.00  0.00     0.006 C 
BRANCH   2   3
ATOM      3  C   UNL     1       7.635  -5.052  28.017  1.00  0.00     0.053 C 
BRANCH   3   4
ATOM      4  C   UNL     1       7.110  -4.062  27.025  1.00  0.00     0.041 C 
ATOM      5  O   UNL     1       6.625  -4.456  25.932  1.00  0.00    -0.550 OA
ATOM      6  O   UNL     1       7.201  -2.701  27.287  1.00  0.00    -0.550 OA
ENDBRANCH   3   4
ENDBRANCH   2   3
ENDBRANCH   1   2
BRANCH   1   7
ATOM      7  C   UNL     1       6.869  -7.069  30.970  1.00  0.00     0.000 C 
BRANCH   7   8
ATOM      8  C   UNL     1       7.746  -5.995  31.638  1.00  0.00    -0.000 C 
BRANCH   8   9
ATOM      9  C   UNL     1       7.010  -5.221  32.740  1.00  0.00    -0.003 C 
ATOM     10  C   UNL     1       5.536  -5.611  32.795  1.00  0.00     0.004 C 
ENDBRANCH   8   9
ENDBRANCH   7   8
ENDBRANCH   1   7
TORSDOF 6
ENDMDL
