MODEL 1
REMARK VINA RESULT:    -3.240      0.000      0.000
REMARK INTER + INTRA:          -4.505
REMARK INTER:                  -4.187
REMARK INTRA:                  -0.318
REMARK UNBOUND:                -0.318
REMARK SMILES CCCCCCC(=O)[O-]
REMARK SMILES IDX 5 1 6 2 7 3 8 4 9 5 4 6 3 7 2 8 1 9
REMARK H PARENT
REMARK Flexibility Score: inf
ROOT
ATOM      1  C   UNL     1      18.567 128.787  63.239  1.00  0.00     0.006 C 
ENDROOT
BRANCH   1   2
ATOM      2  C   UNL     1      19.273 128.666  61.883  1.00  0.00     0.053 C 
BRANCH   2   3
ATOM      3  C   UNL     1      18.641 129.581  60.883  1.00  0.00     0.041 C 
ATOM      4  O   UNL     1      19.305 129.999  59.897  1.00  0.00    -0.550 OA
ATOM      5  O   UNL     1      17.304 129.934  61.011  1.00  0.00    -0.550 OA
ENDBRANCH   2   3
ENDBRANCH   1   2
BRANCH   1   6
ATOM      6  C   UNL     1      18.260 127.420  63.869  1.00  0.00     0.000 C 
BRANCH   6   7
ATOM      7  C   UNL     1      17.087 126.701  63.177  1.00  0.00    -0.000 C 
BRANCH   7   8
ATOM      8  C   UNL     1      17.463 125.291  62.696  1.00  0.00    -0.003 C 
ATOM      9  C   UNL     1      18.961 125.008  62.810  1.00  0.00     0.004 C 
ENDBRANCH   7   8
ENDBRANCH   6   7
ENDBRANCH   1   6
TORSDOF 5
ENDMDL
MODEL 2
REMARK VINA RESULT:    -3.080      7.163      8.565
REMARK INTER + INTRA:          -4.299
REMARK INTER:                  -3.972
REMARK INTRA:                  -0.327
REMARK UNBOUND:                -0.318
REMARK SMILES CCCCCCC(=O)[O-]
REMARK SMILES IDX 5 1 6 2 7 3 8 4 9 5 4 6 3 7 2 8 1 9
REMARK H PARENT
REMARK Flexibility Score: inf
ROOT
ATOM      1  C   UNL     1      15.112 128.658  53.742  1.00  0.00     0.006 C 
ENDROOT
BRANCH   1   2
ATOM      2  C   UNL     1      16.181 127.721  53.165  1.00  0.00     0.053 C 
BRANCH   2   3
ATOM      3  C   UNL     1      17.161 128.494  52.341  1.00  0.00     0.041 C 
ATOM      4  O   UNL     1      17.090 128.470  51.084  1.00  0.00    -0.550 OA
ATOM      5  O   UNL     1      18.124 129.279  52.961  1.00  0.00    -0.550 OA
ENDBRANCH   2   3
ENDBRANCH   1   2
BRANCH   1   6
ATOM      6  C   UNL     1      15.087 128.651  55.278  1.00  0.00     0.000 C 
BRANCH   6   7
ATOM      7  C   UNL     1      16.261 127.860  55.884  1.00  0.00    -0.000 C 
BRANCH   7   8
ATOM      8  C   UNL     1      16.999 128.647  56.979  1.00  0.00    -0.003 C 
ATOM      9  C   UNL     1      18.257 129.343  56.459  1.00  0.00     0.004 C 
ENDBRANCH   7   8
ENDBRANCH   6   7
ENDBRANCH   1   6
TORSDOF 5
ENDMDL
MODEL 3
REMARK VINA RESULT:    -3.070      6.117      7.120
REMARK INTER + INTRA:          -4.286
REMARK INTER:                  -4.015
REMARK INTRA:                  -0.271
REMARK UNBOUND:                -0.318
REMARK SMILES CCCCCCC(=O)[O-]
REMARK SMILES IDX 5 1 6 2 7 3 8 4 9 5 4 6 3 7 2 8 1 9
REMARK H PARENT
REMARK Flexibility Score: inf
ROOT
ATOM      1  C   UNL     1      17.611 129.729  56.442  1.00  0.00     0.006 C 
ENDROOT
BRANCH   1   2
ATOM      2  C   UNL     1      19.040 129.719  57.000  1.00  0.00     0.053 C 
BRANCH   2   3
ATOM      3  C   UNL     1      20.035 129.679  55.885  1.00  0.00     0.041 C 
ATOM      4  O   UNL     1      20.471 128.575  55.463  1.00  0.00    -0.550 OA
ATOM      5  O   UNL     1      20.446 130.859  55.277  1.00  0.00    -0.550 OA
ENDBRANCH   2   3
ENDBRANCH   1   2
BRANCH   1   6
ATOM      6  C   UNL     1      16.786 128.520  56.909  1.00  0.00     0.000 C 
BRANCH   6   7
ATOM      7  C   UNL     1      16.179 127.731  55.735  1.00  0.00    -0.000 C 
BRANCH   7   8
ATOM      8  C   UNL     1      17.083 127.735  54.493  1.00  0.00    -0.003 C 
ATOM      9  C   UNL     1      16.291 127.731  53.185  1.00  0.00     0.004 C 
ENDBRANCH   7   8
ENDBRANCH   6   7
ENDBRANCH   1   6
TORSDOF 5
ENDMDL
MODEL 4
REMARK VINA RESULT:    -3.007      6.716      8.246
REMARK INTER + INTRA:          -4.205
REMARK INTER:                  -3.805
REMARK INTRA:                  -0.399
REMARK UNBOUND:                -0.318
REMARK SMILES CCCCCCC(=O)[O-]
REMARK SMILES IDX 5 1 6 2 7 3 8 4 9 5 4 6 3 7 2 8 1 9
REMARK H PARENT
REMARK Flexibility Score: inf
ROOT
ATOM      1  C   UNL     1      16.812 127.917  55.637  1.00  0.00     0.006 C 
ENDROOT
BRANCH   1   2
ATOM      2  C   UNL     1      17.759 128.938  56.280  1.00  0.00     0.053 C 
BRANCH   2   3
ATOM      3  C   UNL     1      18.841 129.323  55.322  1.00  0.00     0.041 C 
ATOM      4  O   UNL     1      19.921 128.677  55.294  1.00  0.00    -0.550 OA
ATOM      5  O   UNL     1      18.638 130.365  54.426  1.00  0.00    -0.550 OA
ENDBRANCH   2   3
ENDBRANCH   1   2
BRANCH   1   6
ATOM      6  C   UNL     1      15.498 128.550  55.155  1.00  0.00     0.000 C 
BRANCH   6   7
ATOM      7  C   UNL     1      15.231 128.290  53.661  1.00  0.00    -0.000 C 
BRANCH   7   8
ATOM      8  C   UNL     1      16.410 127.592  52.965  1.00  0.00    -0.003 C 
ATOM      9  C   UNL     1      17.072 128.471  51.904  1.00  0.00     0.004 C 
ENDBRANCH   7   8
ENDBRANCH   6   7
ENDBRANCH   1   6
TORSDOF 5
ENDMDL
MODEL 5
REMARK VINA RESULT:    -2.982      2.766      4.550
REMARK INTER + INTRA:          -4.172
REMARK INTER:                  -3.966
REMARK INTRA:                  -0.205
REMARK UNBOUND:                -0.318
REMARK SMILES CCCCCCC(=O)[O-]
REMARK SMILES IDX 5 1 6 2 7 3 8 4 9 5 4 6 3 7 2 8 1 9
REMARK H PARENT
REMARK Flexibility Score: inf
ROOT
ATOM      1  C   UNL     1      17.189 127.772  62.650  1.00  0.00     0.006 C 
ENDROOT
BRANCH   1   2
ATOM      2  C   UNL     1      18.266 126.909  63.321  1.00  0.00     0.053 C 
BRANCH   2   3
ATOM      3  C   UNL     1      18.178 125.496  62.840  1.00  0.00     0.041 C 
ATOM      4  O   UNL     1      17.056 124.981  62.589  1.00  0.00    -0.550 OA
ATOM      5  O   UNL     1      19.336 124.762  62.623  1.00  0.00    -0.550 OA
ENDBRANCH   2   3
ENDBRANCH   1   2
BRANCH   1   6
ATOM      6  C   UNL     1      17.731 129.127  62.170  1.00  0.00     0.000 C 
BRANCH   6   7
ATOM      7  C   UNL     1      19.119 129.009  61.515  1.00  0.00    -0.000 C 
BRANCH   7   8
ATOM      8  C   UNL     1      19.243 129.863  60.242  1.00  0.00    -0.003 C 
ATOM      9  C   UNL     1      17.928 129.965  59.470  1.00  0.00     0.004 C 
ENDBRANCH   7   8
ENDBRANCH   6   7
ENDBRANCH   1   6
TORSDOF 5
ENDMDL
MODEL 6
REMARK VINA RESULT:    -2.949      3.301      3.849
REMARK INTER + INTRA:          -4.129
REMARK INTER:                  -3.853
REMARK INTRA:                  -0.276
REMARK UNBOUND:                -0.318
REMARK SMILES CCCCCCC(=O)[O-]
REMARK SMILES IDX 5 1 6 2 7 3 8 4 9 5 4 6 3 7 2 8 1 9
REMARK H PARENT
REMARK Flexibility Score: inf
ROOT
ATOM      1  C   UNL     1      18.280 128.714  63.978  1.00  0.00     0.006 C 
ENDROOT
BRANCH   1   2
ATOM      2  C   UNL     1      18.278 128.289  65.452  1.00  0.00     0.053 C 
BRANCH   2   3
ATOM      3  C   UNL     1      17.022 128.744  66.123  1.00  0.00     0.041 C 
ATOM      4  O   UNL     1      15.998 128.011  66.116  1.00  0.00    -0.550 OA
ATOM      5  O   UNL     1      16.995 129.956  66.801  1.00  0.00    -0.550 OA
ENDBRANCH   2   3
ENDBRANCH   1   2
BRANCH   1   6
ATOM      6  C   UNL     1      18.450 127.525  63.020  1.00  0.00     0.000 C 
BRANCH   6   7
ATOM      7  C   UNL     1      17.196 126.633  62.959  1.00  0.00    -0.000 C 
BRANCH   7   8
ATOM      8  C   UNL     1      17.539 125.150  62.743  1.00  0.00    -0.003 C 
ATOM      9  C   UNL     1      19.045 124.885  62.755  1.00  0.00     0.004 C 
ENDBRANCH   7   8
ENDBRANCH   6   7
ENDBRANCH   1   6
TORSDOF 5
ENDMDL
MODEL 7
REMARK VINA RESULT:    -2.827     10.565     11.947
REMARK INTER + INTRA:          -3.971
REMARK INTER:                  -3.841
REMARK INTRA:                  -0.130
REMARK UNBOUND:                -0.318
REMARK SMILES CCCCCCC(=O)[O-]
REMARK SMILES IDX 5 1 6 2 7 3 8 4 9 5 4 6 3 7 2 8 1 9
REMARK H PARENT
REMARK Flexibility Score: inf
ROOT
ATOM      1  C   UNL     1      16.629 129.772  50.459  1.00  0.00     0.006 C 
ENDROOT
BRANCH   1   2
ATOM      2  C   UNL     1      17.312 129.840  49.087  1.00  0.00     0.053 C 
BRANCH   2   3
ATOM      3  C   UNL     1      16.791 128.762  48.190  1.00  0.00     0.041 C 
ATOM      4  O   UNL     1      15.561 128.697  47.927  1.00  0.00    -0.550 OA
ATOM      5  O   UNL     1      17.669 127.858  47.606  1.00  0.00    -0.550 OA
ENDBRANCH   2   3
ENDBRANCH   1   2
BRANCH   1   6
ATOM      6  C   UNL     1      17.160 128.621  51.327  1.00  0.00     0.000 C 
BRANCH   6   7
ATOM      7  C   UNL     1      16.978 128.885  52.833  1.00  0.00    -0.000 C 
BRANCH   7   8
ATOM      8  C   UNL     1      16.688 127.600  53.625  1.00  0.00    -0.003 C 
ATOM      9  C   UNL     1      15.957 127.870  54.940  1.00  0.00     0.004 C 
ENDBRANCH   7   8
ENDBRANCH   6   7
ENDBRANCH   1   6
TORSDOF 5
ENDMDL
MODEL 8
REMARK VINA RESULT:    -2.789      1.577      2.886
REMARK INTER + INTRA:          -3.922
REMARK INTER:                  -3.675
REMARK INTRA:                  -0.247
REMARK UNBOUND:                -0.318
REMARK SMILES CCCCCCC(=O)[O-]
REMARK SMILES IDX 5 1 6 2 7 3 8 4 9 5 4 6 3 7 2 8 1 9
REMARK H PARENT
REMARK Flexibility Score: inf
ROOT
ATOM      1  C   UNL     1      18.216 127.562  62.621  1.00  0.00     0.006 C 
ENDROOT
BRANCH   1   2
ATOM      2  C   UNL     1      19.224 128.642  62.209  1.00  0.00     0.053 C 
BRANCH   2   3
ATOM      3  C   UNL     1      18.633 129.537  61.167  1.00  0.00     0.041 C 
ATOM      4  O   UNL     1      17.518 130.089  61.363  1.00  0.00    -0.550 OA
ATOM      5  O   UNL     1      19.335 129.800  59.997  1.00  0.00    -0.550 OA
ENDBRANCH   2   3
ENDBRANCH   1   2
BRANCH   1   6
ATOM      6  C   UNL     1      18.035 127.472  64.144  1.00  0.00     0.000 C 
BRANCH   6   7
ATOM      7  C   UNL     1      18.440 128.771  64.865  1.00  0.00    -0.000 C 
BRANCH   7   8
ATOM      8  C   UNL     1      17.563 129.060  66.093  1.00  0.00    -0.003 C 
ATOM      9  C   UNL     1      16.468 128.013  66.297  1.00  0.00     0.004 C 
ENDBRANCH   7   8
ENDBRANCH   6   7
ENDBRANCH   1   6
TORSDOF 5
ENDMDL
MODEL 9
REMARK VINA RESULT:    -2.784      6.343      7.879
REMARK INTER + INTRA:          -3.917
REMARK INTER:                  -3.730
REMARK INTRA:                  -0.186
REMARK UNBOUND:                -0.318
REMARK SMILES CCCCCCC(=O)[O-]
REMARK SMILES IDX 5 1 6 2 7 3 8 4 9 5 4 6 3 7 2 8 1 9
REMARK H PARENT
REMARK Flexibility Score: inf
ROOT
ATOM      1  C   UNL     1      15.824 127.890  55.489  1.00  0.00     0.006 C 
ENDROOT
BRANCH   1   2
ATOM      2  C   UNL     1      16.601 127.437  54.246  1.00  0.00     0.053 C 
BRANCH   2   3
ATOM      3  C   UNL     1      16.187 128.237  53.052  1.00  0.00     0.041 C 
ATOM      4  O   UNL     1      15.214 129.033  53.128  1.00  0.00    -0.550 OA
ATOM      5  O   UNL     1      16.906 128.140  51.867  1.00  0.00    -0.550 OA
ENDBRANCH   2   3
ENDBRANCH   1   2
BRANCH   1   6
ATOM      6  C   UNL     1      16.747 128.304  56.645  1.00  0.00     0.000 C 
BRANCH   6   7
ATOM      7  C   UNL     1      17.638 129.508  56.287  1.00  0.00    -0.000 C 
BRANCH   7   8
ATOM      8  C   UNL     1      18.756 129.739  57.316  1.00  0.00    -0.003 C 
ATOM      9  C   UNL     1      18.217 130.013  58.720  1.00  0.00     0.004 C 
ENDBRANCH   7   8
ENDBRANCH   6   7
ENDBRANCH   1   6
TORSDOF 5
ENDMDL
