MODEL 1
REMARK VINA RESULT:    -3.009      0.000      0.000
REMARK INTER + INTRA:          -7.404
REMARK INTER:                  -5.296
REMARK INTRA:                  -2.108
REMARK UNBOUND:                -2.108
REMARK SMILES CCCCCCCCCCCCCCC(=O)[O-]
REMARK SMILES IDX 9 1 10 2 11 3 12 4 13 5 14 6 15 7 16 8 17 9 8 10 7 11 6 12
REMARK SMILES IDX 5 13 4 14 3 15 2 16 1 17
REMARK H PARENT
REMARK Flexibility Score: inf
ROOT
ATOM      1  C   UNL     1      15.345  19.768  48.958  1.00  0.00     0.000 C 
ENDROOT
BRANCH   1   2
ATOM      2  C   UNL     1      16.857  19.720  49.235  1.00  0.00     0.000 C 
BRANCH   2   3
ATOM      3  C   UNL     1      17.386  18.287  49.434  1.00  0.00     0.000 C 
BRANCH   3   4
ATOM      4  C   UNL     1      18.331  18.097  50.634  1.00  0.00     0.000 C 
BRANCH   4   5
ATOM      5  C   UNL     1      17.791  17.096  51.670  1.00  0.00     0.006 C 
BRANCH   5   6
ATOM      6  C   UNL     1      16.262  17.154  51.787  1.00  0.00     0.053 C 
BRANCH   6   7
ATOM      7  C   UNL     1      15.819  18.186  52.778  1.00  0.00     0.041 C 
ATOM      8  O   UNL     1      15.076  19.136  52.416  1.00  0.00    -0.550 OA
ATOM      9  O   UNL     1      16.249  18.113  54.097  1.00  0.00    -0.550 OA
ENDBRANCH   6   7
ENDBRANCH   5   6
ENDBRANCH   4   5
ENDBRANCH   3   4
ENDBRANCH   2   3
ENDBRANCH   1   2
BRANCH   1  10
ATOM     10  C   UNL     1      14.790  18.416  48.478  1.00  0.00     0.000 C 
BRANCH  10  11
ATOM     11  C   UNL     1      13.998  18.537  47.164  1.00  0.00    -0.000 C 
BRANCH  11  12
ATOM     12  C   UNL     1      14.630  17.730  46.018  1.00  0.00    -0.000 C 
BRANCH  12  13
ATOM     13  C   UNL     1      16.139  17.512  46.203  1.00  0.00    -0.000 C 
BRANCH  13  14
ATOM     14  C   UNL     1      16.938  18.282  45.140  1.00  0.00    -0.000 C 
BRANCH  14  15
ATOM     15  C   UNL     1      17.331  19.694  45.601  1.00  0.00    -0.000 C 
BRANCH  15  16
ATOM     16  C   UNL     1      16.637  20.796  44.787  1.00  0.00    -0.003 C 
ATOM     17  C   UNL     1      15.544  21.478  45.604  1.00  0.00     0.004 C 
ENDBRANCH  15  16
ENDBRANCH  14  15
ENDBRANCH  13  14
ENDBRANCH  12  13
ENDBRANCH  11  12
ENDBRANCH  10  11
ENDBRANCH   1  10
TORSDOF 13
ENDMDL
MODEL 2
REMARK VINA RESULT:    -2.996     11.596     13.085
REMARK INTER + INTRA:          -7.381
REMARK INTER:                  -5.079
REMARK INTRA:                  -2.301
REMARK UNBOUND:                -2.108
REMARK SMILES CCCCCCCCCCCCCCC(=O)[O-]
REMARK SMILES IDX 9 1 10 2 11 3 12 4 13 5 14 6 15 7 16 8 17 9 8 10 7 11 6 12
REMARK SMILES IDX 5 13 4 14 3 15 2 16 1 17
REMARK H PARENT
REMARK Flexibility Score: inf
ROOT
ATOM      1  C   UNL     1      17.581  26.942  56.658  1.00  0.00     0.000 C 
ENDROOT
BRANCH   1   2
ATOM      2  C   UNL     1      18.966  26.272  56.677  1.00  0.00     0.000 C 
BRANCH   2   3
ATOM      3  C   UNL     1      19.969  26.993  57.597  1.00  0.00     0.000 C 
BRANCH   3   4
ATOM      4  C   UNL     1      19.611  28.451  57.942  1.00  0.00     0.000 C 
BRANCH   4   5
ATOM      5  C   UNL     1      20.807  29.246  58.494  1.00  0.00     0.006 C 
BRANCH   5   6
ATOM      6  C   UNL     1      21.317  30.292  57.493  1.00  0.00     0.053 C 
BRANCH   6   7
ATOM      7  C   UNL     1      22.613  29.875  56.867  1.00  0.00     0.041 C 
ATOM      8  O   UNL     1      23.277  30.693  56.178  1.00  0.00    -0.550 OA
ATOM      9  O   UNL     1      23.075  28.574  57.024  1.00  0.00    -0.550 OA
ENDBRANCH   6   7
ENDBRANCH   5   6
ENDBRANCH   4   5
ENDBRANCH   3   4
ENDBRANCH   2   3
ENDBRANCH   1   2
BRANCH   1  10
ATOM     10  C   UNL     1      16.713  26.469  55.480  1.00  0.00     0.000 C 
BRANCH  10  11
ATOM     11  C   UNL     1      15.908  27.615  54.843  1.00  0.00    -0.000 C 
BRANCH  11  12
ATOM     12  C   UNL     1      16.511  28.997  55.141  1.00  0.00    -0.000 C 
BRANCH  12  13
ATOM     13  C   UNL     1      16.603  29.889  53.893  1.00  0.00    -0.000 C 
BRANCH  13  14
ATOM     14  C   UNL     1      18.068  30.147  53.511  1.00  0.00    -0.000 C 
BRANCH  14  15
ATOM     15  C   UNL     1      19.048  29.782  54.637  1.00  0.00    -0.000 C 
BRANCH  15  16
ATOM     16  C   UNL     1      20.168  28.843  54.164  1.00  0.00    -0.003 C 
ATOM     17  C   UNL     1      19.605  27.679  53.354  1.00  0.00     0.004 C 
ENDBRANCH  15  16
ENDBRANCH  14  15
ENDBRANCH  13  14
ENDBRANCH  12  13
ENDBRANCH  11  12
ENDBRANCH  10  11
ENDBRANCH   1  10
TORSDOF 13
ENDMDL
MODEL 3
REMARK VINA RESULT:    -2.861     18.428     20.313
REMARK INTER + INTRA:          -7.144
REMARK INTER:                  -5.176
REMARK INTRA:                  -1.968
REMARK UNBOUND:                -2.108
REMARK SMILES CCCCCCCCCCCCCCC(=O)[O-]
REMARK SMILES IDX 9 1 10 2 11 3 12 4 13 5 14 6 15 7 16 8 17 9 8 10 7 11 6 12
REMARK SMILES IDX 5 13 4 14 3 15 2 16 1 17
REMARK H PARENT
REMARK Flexibility Score: inf
ROOT
ATOM      1  C   UNL     1      31.862  30.463  52.792  1.00  0.00     0.000 C 
ENDROOT
BRANCH   1   2
ATOM      2  C   UNL     1      30.669  31.257  52.231  1.00  0.00     0.000 C 
BRANCH   2   3
ATOM      3  C   UNL     1      30.839  32.780  52.378  1.00  0.00     0.000 C 
BRANCH   3   4
ATOM      4  C   UNL     1      29.731  33.630  51.731  1.00  0.00     0.000 C 
BRANCH   4   5
ATOM      5  C   UNL     1      28.518  33.837  52.654  1.00  0.00     0.006 C 
BRANCH   5   6
ATOM      6  C   UNL     1      27.210  33.360  52.007  1.00  0.00     0.053 C 
BRANCH   6   7
ATOM      7  C   UNL     1      26.026  33.631  52.884  1.00  0.00     0.041 C 
ATOM      8  O   UNL     1      25.342  32.676  53.339  1.00  0.00    -0.550 OA
ATOM      9  O   UNL     1      25.661  34.939  53.177  1.00  0.00    -0.550 OA
ENDBRANCH   6   7
ENDBRANCH   5   6
ENDBRANCH   4   5
ENDBRANCH   3   4
ENDBRANCH   2   3
ENDBRANCH   1   2
BRANCH   1  10
ATOM     10  C   UNL     1      32.718  31.294  53.763  1.00  0.00     0.000 C 
BRANCH  10  11
ATOM     11  C   UNL     1      32.626  30.787  55.213  1.00  0.00    -0.000 C 
BRANCH  11  12
ATOM     12  C   UNL     1      32.383  31.921  56.221  1.00  0.00    -0.000 C 
BRANCH  12  13
ATOM     13  C   UNL     1      31.018  32.600  56.036  1.00  0.00    -0.000 C 
BRANCH  13  14
ATOM     14  C   UNL     1      29.874  31.631  56.373  1.00  0.00    -0.000 C 
BRANCH  14  15
ATOM     15  C   UNL     1      28.713  31.715  55.370  1.00  0.00    -0.000 C 
BRANCH  15  16
ATOM     16  C   UNL     1      27.873  30.429  55.329  1.00  0.00    -0.003 C 
ATOM     17  C   UNL     1      28.519  29.379  54.430  1.00  0.00     0.004 C 
ENDBRANCH  15  16
ENDBRANCH  14  15
ENDBRANCH  13  14
ENDBRANCH  12  13
ENDBRANCH  11  12
ENDBRANCH  10  11
ENDBRANCH   1  10
TORSDOF 13
ENDMDL
MODEL 4
REMARK VINA RESULT:    -2.846     16.900     18.528
REMARK INTER + INTRA:          -7.117
REMARK INTER:                  -4.697
REMARK INTRA:                  -2.420
REMARK UNBOUND:                -2.108
REMARK SMILES CCCCCCCCCCCCCCC(=O)[O-]
REMARK SMILES IDX 9 1 10 2 11 3 12 4 13 5 14 6 15 7 16 8 17 9 8 10 7 11 6 12
REMARK SMILES IDX 5 13 4 14 3 15 2 16 1 17
REMARK H PARENT
REMARK Flexibility Score: inf
ROOT
ATOM      1  C   UNL     1      28.995  34.120  53.448  1.00  0.00     0.000 C 
ENDROOT
BRANCH   1   2
ATOM      2  C   UNL     1      27.476  34.180  53.205  1.00  0.00     0.000 C 
BRANCH   2   3
ATOM      3  C   UNL     1      27.032  33.359  51.980  1.00  0.00     0.000 C 
BRANCH   3   4
ATOM      4  C   UNL     1      25.616  32.763  52.068  1.00  0.00     0.000 C 
BRANCH   4   5
ATOM      5  C   UNL     1      25.271  32.245  53.475  1.00  0.00     0.006 C 
BRANCH   5   6
ATOM      6  C   UNL     1      24.845  30.770  53.460  1.00  0.00     0.053 C 
BRANCH   6   7
ATOM      7  C   UNL     1      24.459  30.289  54.825  1.00  0.00     0.041 C 
ATOM      8  O   UNL     1      23.557  30.880  55.475  1.00  0.00    -0.550 OA
ATOM      9  O   UNL     1      25.115  29.203  55.392  1.00  0.00    -0.550 OA
ENDBRANCH   6   7
ENDBRANCH   5   6
ENDBRANCH   4   5
ENDBRANCH   3   4
ENDBRANCH   2   3
ENDBRANCH   1   2
BRANCH   1  10
ATOM     10  C   UNL     1      29.760  33.522  52.255  1.00  0.00     0.000 C 
BRANCH  10  11
ATOM     11  C   UNL     1      31.043  32.791  52.684  1.00  0.00    -0.000 C 
BRANCH  11  12
ATOM     12  C   UNL     1      30.823  31.283  52.888  1.00  0.00    -0.000 C 
BRANCH  12  13
ATOM     13  C   UNL     1      29.649  30.735  52.064  1.00  0.00    -0.000 C 
BRANCH  13  14
ATOM     14  C   UNL     1      28.574  30.127  52.978  1.00  0.00    -0.000 C 
BRANCH  14  15
ATOM     15  C   UNL     1      29.023  30.041  54.444  1.00  0.00    -0.000 C 
BRANCH  15  16
ATOM     16  C   UNL     1      28.238  30.992  55.360  1.00  0.00    -0.003 C 
ATOM     17  C   UNL     1      29.172  31.732  56.313  1.00  0.00     0.004 C 
ENDBRANCH  15  16
ENDBRANCH  14  15
ENDBRANCH  13  14
ENDBRANCH  12  13
ENDBRANCH  11  12
ENDBRANCH  10  11
ENDBRANCH   1  10
TORSDOF 13
ENDMDL
MODEL 5
REMARK VINA RESULT:    -2.841     17.984     19.394
REMARK INTER + INTRA:          -7.108
REMARK INTER:                  -4.816
REMARK INTRA:                  -2.292
REMARK UNBOUND:                -2.108
REMARK SMILES CCCCCCCCCCCCCCC(=O)[O-]
REMARK SMILES IDX 9 1 10 2 11 3 12 4 13 5 14 6 15 7 16 8 17 9 8 10 7 11 6 12
REMARK SMILES IDX 5 13 4 14 3 15 2 16 1 17
REMARK H PARENT
REMARK Flexibility Score: inf
ROOT
ATOM      1  C   UNL     1      28.317  32.252  50.378  1.00  0.00     0.000 C 
ENDROOT
BRANCH   1   2
ATOM      2  C   UNL     1      29.620  33.070  50.372  1.00  0.00     0.000 C 
BRANCH   2   3
ATOM      3  C   UNL     1      30.176  33.323  51.786  1.00  0.00     0.000 C 
BRANCH   3   4
ATOM      4  C   UNL     1      29.196  33.994  52.766  1.00  0.00     0.000 C 
BRANCH   4   5
ATOM      5  C   UNL     1      29.716  34.016  54.213  1.00  0.00     0.006 C 
BRANCH   5   6
ATOM      6  C   UNL     1      31.002  33.194  54.378  1.00  0.00     0.053 C 
BRANCH   6   7
ATOM      7  C   UNL     1      31.050  32.497  55.703  1.00  0.00     0.041 C 
ATOM      8  O   UNL     1      29.988  32.274  56.341  1.00  0.00    -0.550 OA
ATOM      9  O   UNL     1      32.271  32.116  56.245  1.00  0.00    -0.550 OA
ENDBRANCH   6   7
ENDBRANCH   5   6
ENDBRANCH   4   5
ENDBRANCH   3   4
ENDBRANCH   2   3
ENDBRANCH   1   2
BRANCH   1  10
ATOM     10  C   UNL     1      27.117  33.051  49.843  1.00  0.00     0.000 C 
BRANCH  10  11
ATOM     11  C   UNL     1      25.800  32.679  50.545  1.00  0.00    -0.000 C 
BRANCH  11  12
ATOM     12  C   UNL     1      25.369  33.725  51.585  1.00  0.00    -0.000 C 
BRANCH  12  13
ATOM     13  C   UNL     1      25.678  33.296  53.027  1.00  0.00    -0.000 C 
BRANCH  13  14
ATOM     14  C   UNL     1      25.728  31.765  53.144  1.00  0.00    -0.000 C 
BRANCH  14  15
ATOM     15  C   UNL     1      26.939  31.271  53.950  1.00  0.00    -0.000 C 
BRANCH  15  16
ATOM     16  C   UNL     1      27.610  30.043  53.317  1.00  0.00    -0.003 C 
ATOM     17  C   UNL     1      29.130  30.145  53.396  1.00  0.00     0.004 C 
ENDBRANCH  15  16
ENDBRANCH  14  15
ENDBRANCH  13  14
ENDBRANCH  12  13
ENDBRANCH  11  12
ENDBRANCH  10  11
ENDBRANCH   1  10
TORSDOF 13
ENDMDL
MODEL 6
REMARK VINA RESULT:    -2.836     11.428     13.369
REMARK INTER + INTRA:          -7.099
REMARK INTER:                  -4.928
REMARK INTRA:                  -2.171
REMARK UNBOUND:                -2.108
REMARK SMILES CCCCCCCCCCCCCCC(=O)[O-]
REMARK SMILES IDX 9 1 10 2 11 3 12 4 13 5 14 6 15 7 16 8 17 9 8 10 7 11 6 12
REMARK SMILES IDX 5 13 4 14 3 15 2 16 1 17
REMARK H PARENT
REMARK Flexibility Score: inf
ROOT
ATOM      1  C   UNL     1      19.582  27.701  55.408  1.00  0.00     0.000 C 
ENDROOT
BRANCH   1   2
ATOM      2  C   UNL     1      19.450  28.535  54.121  1.00  0.00     0.000 C 
BRANCH   2   3
ATOM      3  C   UNL     1      18.807  29.913  54.364  1.00  0.00     0.000 C 
BRANCH   3   4
ATOM      4  C   UNL     1      17.518  30.185  53.567  1.00  0.00     0.000 C 
BRANCH   4   5
ATOM      5  C   UNL     1      16.243  29.815  54.345  1.00  0.00     0.006 C 
BRANCH   5   6
ATOM      6  C   UNL     1      15.420  28.737  53.627  1.00  0.00     0.053 C 
BRANCH   6   7
ATOM      7  C   UNL     1      15.931  27.360  53.923  1.00  0.00     0.041 C 
ATOM      8  O   UNL     1      16.524  26.698  53.031  1.00  0.00    -0.550 OA
ATOM      9  O   UNL     1      15.730  26.797  55.177  1.00  0.00    -0.550 OA
ENDBRANCH   6   7
ENDBRANCH   5   6
ENDBRANCH   4   5
ENDBRANCH   3   4
ENDBRANCH   2   3
ENDBRANCH   1   2
BRANCH   1  10
ATOM     10  C   UNL     1      18.700  28.234  56.549  1.00  0.00     0.000 C 
BRANCH  10  11
ATOM     11  C   UNL     1      19.508  28.554  57.819  1.00  0.00    -0.000 C 
BRANCH  11  12
ATOM     12  C   UNL     1      21.025  28.472  57.589  1.00  0.00    -0.000 C 
BRANCH  12  13
ATOM     13  C   UNL     1      21.718  29.840  57.692  1.00  0.00    -0.000 C 
BRANCH  13  14
ATOM     14  C   UNL     1      21.809  30.513  56.314  1.00  0.00    -0.000 C 
BRANCH  14  15
ATOM     15  C   UNL     1      23.167  30.286  55.632  1.00  0.00    -0.000 C 
BRANCH  15  16
ATOM     16  C   UNL     1      23.036  29.578  54.276  1.00  0.00    -0.003 C 
ATOM     17  C   UNL     1      23.175  28.066  54.429  1.00  0.00     0.004 C 
ENDBRANCH  15  16
ENDBRANCH  14  15
ENDBRANCH  13  14
ENDBRANCH  12  13
ENDBRANCH  11  12
ENDBRANCH  10  11
ENDBRANCH   1  10
TORSDOF 13
ENDMDL
MODEL 7
REMARK VINA RESULT:    -2.832     11.572     13.141
REMARK INTER + INTRA:          -7.093
REMARK INTER:                  -4.983
REMARK INTRA:                  -2.110
REMARK UNBOUND:                -2.108
REMARK SMILES CCCCCCCCCCCCCCC(=O)[O-]
REMARK SMILES IDX 9 1 10 2 11 3 12 4 13 5 14 6 15 7 16 8 17 9 8 10 7 11 6 12
REMARK SMILES IDX 5 13 4 14 3 15 2 16 1 17
REMARK H PARENT
REMARK Flexibility Score: inf
ROOT
ATOM      1  C   UNL     1      19.404  27.612  55.314  1.00  0.00     0.000 C 
ENDROOT
BRANCH   1   2
ATOM      2  C   UNL     1      18.761  28.295  56.534  1.00  0.00     0.000 C 
BRANCH   2   3
ATOM      3  C   UNL     1      19.560  28.078  57.833  1.00  0.00     0.000 C 
BRANCH   3   4
ATOM      4  C   UNL     1      20.274  29.327  58.380  1.00  0.00     0.000 C 
BRANCH   4   5
ATOM      5  C   UNL     1      21.741  29.426  57.926  1.00  0.00     0.006 C 
BRANCH   5   6
ATOM      6  C   UNL     1      21.890  30.234  56.629  1.00  0.00     0.053 C 
BRANCH   6   7
ATOM      7  C   UNL     1      22.937  29.651  55.729  1.00  0.00     0.041 C 
ATOM      8  O   UNL     1      23.898  28.999  56.214  1.00  0.00    -0.550 OA
ATOM      9  O   UNL     1      22.864  29.851  54.356  1.00  0.00    -0.550 OA
ENDBRANCH   6   7
ENDBRANCH   5   6
ENDBRANCH   4   5
ENDBRANCH   3   4
ENDBRANCH   2   3
ENDBRANCH   1   2
BRANCH   1  10
ATOM     10  C   UNL     1      19.541  28.561  54.112  1.00  0.00     0.000 C 
BRANCH  10  11
ATOM     11  C   UNL     1      18.953  29.955  54.390  1.00  0.00    -0.000 C 
BRANCH  11  12
ATOM     12  C   UNL     1      17.687  30.237  53.564  1.00  0.00    -0.000 C 
BRANCH  12  13
ATOM     13  C   UNL     1      16.395  29.864  54.308  1.00  0.00    -0.000 C 
BRANCH  13  14
ATOM     14  C   UNL     1      15.752  28.612  53.694  1.00  0.00    -0.000 C 
BRANCH  14  15
ATOM     15  C   UNL     1      15.520  27.498  54.727  1.00  0.00    -0.000 C 
BRANCH  15  16
ATOM     16  C   UNL     1      16.016  26.128  54.241  1.00  0.00    -0.003 C 
ATOM     17  C   UNL     1      16.823  26.260  52.953  1.00  0.00     0.004 C 
ENDBRANCH  15  16
ENDBRANCH  14  15
ENDBRANCH  13  14
ENDBRANCH  12  13
ENDBRANCH  11  12
ENDBRANCH  10  11
ENDBRANCH   1  10
TORSDOF 13
ENDMDL
MODEL 8
REMARK VINA RESULT:    -2.808     18.339     19.720
REMARK INTER + INTRA:          -7.050
REMARK INTER:                  -4.972
REMARK INTRA:                  -2.077
REMARK UNBOUND:                -2.108
REMARK SMILES CCCCCCCCCCCCCCC(=O)[O-]
REMARK SMILES IDX 9 1 10 2 11 3 12 4 13 5 14 6 15 7 16 8 17 9 8 10 7 11 6 12
REMARK SMILES IDX 5 13 4 14 3 15 2 16 1 17
REMARK H PARENT
REMARK Flexibility Score: inf
ROOT
ATOM      1  C   UNL     1      30.121  31.913  50.832  1.00  0.00     0.000 C 
ENDROOT
BRANCH   1   2
ATOM      2  C   UNL     1      29.465  30.714  51.538  1.00  0.00     0.000 C 
BRANCH   2   3
ATOM      3  C   UNL     1      30.322  30.153  52.688  1.00  0.00     0.000 C 
BRANCH   3   4
ATOM      4  C   UNL     1      31.764  30.689  52.753  1.00  0.00     0.000 C 
BRANCH   4   5
ATOM      5  C   UNL     1      32.043  31.504  54.028  1.00  0.00     0.006 C 
BRANCH   5   6
ATOM      6  C   UNL     1      31.218  31.008  55.223  1.00  0.00     0.053 C 
BRANCH   6   7
ATOM      7  C   UNL     1      30.625  32.145  55.998  1.00  0.00     0.041 C 
ATOM      8  O   UNL     1      29.501  32.019  56.549  1.00  0.00    -0.550 OA
ATOM      9  O   UNL     1      31.305  33.353  56.090  1.00  0.00    -0.550 OA
ENDBRANCH   6   7
ENDBRANCH   5   6
ENDBRANCH   4   5
ENDBRANCH   3   4
ENDBRANCH   2   3
ENDBRANCH   1   2
BRANCH   1  10
ATOM     10  C   UNL     1      29.418  33.243  51.152  1.00  0.00     0.000 C 
BRANCH  10  11
ATOM     11  C   UNL     1      30.088  34.002  52.310  1.00  0.00    -0.000 C 
BRANCH  11  12
ATOM     12  C   UNL     1      29.112  34.312  53.456  1.00  0.00    -0.000 C 
BRANCH  12  13
ATOM     13  C   UNL     1      27.861  33.421  53.431  1.00  0.00    -0.000 C 
BRANCH  13  14
ATOM     14  C   UNL     1      26.604  34.248  53.121  1.00  0.00    -0.000 C 
BRANCH  14  15
ATOM     15  C   UNL     1      25.474  33.404  52.513  1.00  0.00    -0.000 C 
BRANCH  15  16
ATOM     16  C   UNL     1      25.663  33.157  51.009  1.00  0.00    -0.003 C 
ATOM     17  C   UNL     1      25.871  31.674  50.717  1.00  0.00     0.004 C 
ENDBRANCH  15  16
ENDBRANCH  14  15
ENDBRANCH  13  14
ENDBRANCH  12  13
ENDBRANCH  11  12
ENDBRANCH  10  11
ENDBRANCH   1  10
TORSDOF 13
ENDMDL
MODEL 9
REMARK VINA RESULT:    -2.798     11.163     12.667
REMARK INTER + INTRA:          -7.033
REMARK INTER:                  -4.743
REMARK INTRA:                  -2.290
REMARK UNBOUND:                -2.108
REMARK SMILES CCCCCCCCCCCCCCC(=O)[O-]
REMARK SMILES IDX 9 1 10 2 11 3 12 4 13 5 14 6 15 7 16 8 17 9 8 10 7 11 6 12
REMARK SMILES IDX 5 13 4 14 3 15 2 16 1 17
REMARK H PARENT
REMARK Flexibility Score: inf
ROOT
ATOM      1  C   UNL     1      19.570  28.606  53.989  1.00  0.00     0.000 C 
ENDROOT
BRANCH   1   2
ATOM      2  C   UNL     1      19.693  27.172  54.534  1.00  0.00     0.000 C 
BRANCH   2   3
ATOM      3  C   UNL     1      19.304  27.060  56.020  1.00  0.00     0.000 C 
BRANCH   3   4
ATOM      4  C   UNL     1      18.893  28.383  56.692  1.00  0.00     0.000 C 
BRANCH   4   5
ATOM      5  C   UNL     1      19.668  28.660  57.992  1.00  0.00     0.006 C 
BRANCH   5   6
ATOM      6  C   UNL     1      21.185  28.715  57.760  1.00  0.00     0.053 C 
BRANCH   6   7
ATOM      7  C   UNL     1      21.709  30.116  57.846  1.00  0.00     0.041 C 
ATOM      8  O   UNL     1      21.212  30.931  58.666  1.00  0.00    -0.550 OA
ATOM      9  O   UNL     1      22.732  30.529  57.000  1.00  0.00    -0.550 OA
ENDBRANCH   6   7
ENDBRANCH   5   6
ENDBRANCH   4   5
ENDBRANCH   3   4
ENDBRANCH   2   3
ENDBRANCH   1   2
BRANCH   1  10
ATOM     10  C   UNL     1      18.972  28.649  52.573  1.00  0.00     0.000 C 
BRANCH  10  11
ATOM     11  C   UNL     1      17.676  29.475  52.505  1.00  0.00    -0.000 C 
BRANCH  11  12
ATOM     12  C   UNL     1      17.369  30.202  53.824  1.00  0.00    -0.000 C 
BRANCH  12  13
ATOM     13  C   UNL     1      16.137  29.633  54.545  1.00  0.00    -0.000 C 
BRANCH  13  14
ATOM     14  C   UNL     1      15.704  28.298  53.920  1.00  0.00    -0.000 C 
BRANCH  14  15
ATOM     15  C   UNL     1      15.714  27.140  54.930  1.00  0.00    -0.000 C 
BRANCH  15  16
ATOM     16  C   UNL     1      16.176  25.815  54.305  1.00  0.00    -0.003 C 
ATOM     17  C   UNL     1      16.432  25.972  52.809  1.00  0.00     0.004 C 
ENDBRANCH  15  16
ENDBRANCH  14  15
ENDBRANCH  13  14
ENDBRANCH  12  13
ENDBRANCH  11  12
ENDBRANCH  10  11
ENDBRANCH   1  10
TORSDOF 13
ENDMDL
