MODEL 1
REMARK VINA RESULT:    -4.468      0.000      0.000
REMARK INTER + INTRA:          -7.523
REMARK INTER:                  -6.035
REMARK INTRA:                  -1.488
REMARK UNBOUND:                -1.488
REMARK SMILES CC(=O)CCC=C(C)CCC=C(C)C
REMARK SMILES IDX 7 1 6 2 8 3 9 4 10 5 11 6 13 7 12 8 14 9 5 10 4 11 2 12 3 13
REMARK SMILES IDX 1 14
REMARK H PARENT
REMARK Flexibility Score: inf
ROOT
ATOM      1  C   UNL     1       7.547 -16.663  23.058  1.00  0.00    -0.077 C 
ATOM      2  C   UNL     1       7.101 -17.434  24.075  1.00  0.00    -0.028 C 
ATOM      3  C   UNL     1       7.665 -17.190  21.647  1.00  0.00     0.039 C 
ENDROOT
BRANCH   1   4
ATOM      4  C   UNL     1       7.964 -15.234  23.346  1.00  0.00     0.034 C 
BRANCH   4   5
ATOM      5  C   UNL     1       9.011 -15.158  24.466  1.00  0.00     0.032 C 
BRANCH   5   6
ATOM      6  C   UNL     1      10.327 -15.772  24.047  1.00  0.00    -0.028 C 
ATOM      7  C   UNL     1      10.370 -17.398  25.952  1.00  0.00     0.039 C 
ATOM      8  C   UNL     1      10.963 -16.756  24.720  1.00  0.00    -0.080 C 
ATOM      9  C   UNL     1      12.297 -17.231  24.203  1.00  0.00     0.039 C 
ENDBRANCH   5   6
ENDBRANCH   4   5
ENDBRANCH   1   4
BRANCH   2  10
ATOM     10  C   UNL     1       6.628 -18.861  23.925  1.00  0.00     0.035 C 
BRANCH  10  11
ATOM     11  C   UNL     1       7.680 -19.871  24.403  1.00  0.00     0.079 C 
BRANCH  11  12
ATOM     12  C   UNL     1       8.512 -20.398  23.262  1.00  0.00     0.130 C 
ATOM     13  O   UNL     1       8.027 -21.196  22.474  1.00  0.00    -0.300 OA
ATOM     14  C   UNL     1       9.919 -19.921  23.066  1.00  0.00     0.087 C 
ENDBRANCH  11  12
ENDBRANCH  10  11
ENDBRANCH   2  10
TORSDOF 6
ENDMDL
MODEL 2
REMARK VINA RESULT:    -4.447      2.083      3.866
REMARK INTER + INTRA:          -7.494
REMARK INTER:                  -6.482
REMARK INTRA:                  -1.013
REMARK UNBOUND:                -1.488
REMARK SMILES CC(=O)CCC=C(C)CCC=C(C)C
REMARK SMILES IDX 7 1 6 2 8 3 9 4 10 5 11 6 13 7 12 8 14 9 5 10 4 11 2 12 3 13
REMARK SMILES IDX 1 14
REMARK H PARENT
REMARK Flexibility Score: inf
ROOT
ATOM      1  C   UNL     1       7.798 -18.813  23.714  1.00  0.00    -0.077 C 
ATOM      2  C   UNL     1       6.851 -19.714  23.369  1.00  0.00    -0.028 C 
ATOM      3  C   UNL     1       9.272 -19.145  23.664  1.00  0.00     0.039 C 
ENDROOT
BRANCH   1   4
ATOM      4  C   UNL     1       7.370 -17.439  24.189  1.00  0.00     0.034 C 
BRANCH   4   5
ATOM      5  C   UNL     1       8.044 -16.320  23.383  1.00  0.00     0.032 C 
BRANCH   5   6
ATOM      6  C   UNL     1       7.182 -15.861  22.230  1.00  0.00    -0.028 C 
ATOM      7  C   UNL     1       8.445 -17.201  20.531  1.00  0.00     0.039 C 
ATOM      8  C   UNL     1       7.368 -16.224  20.942  1.00  0.00    -0.080 C 
ATOM      9  C   UNL     1       6.454 -15.642  19.895  1.00  0.00     0.039 C 
ENDBRANCH   5   6
ENDBRANCH   4   5
ENDBRANCH   1   4
BRANCH   2  10
ATOM     10  C   UNL     1       7.136 -21.105  22.854  1.00  0.00     0.035 C 
BRANCH  10  11
ATOM     11  C   UNL     1       7.061 -21.182  21.324  1.00  0.00     0.079 C 
BRANCH  11  12
ATOM     12  C   UNL     1       8.106 -22.106  20.755  1.00  0.00     0.130 C 
ATOM     13  O   UNL     1       8.346 -22.089  19.557  1.00  0.00    -0.300 OA
ATOM     14  C   UNL     1       8.880 -23.021  21.655  1.00  0.00     0.087 C 
ENDBRANCH  11  12
ENDBRANCH  10  11
ENDBRANCH   2  10
TORSDOF 6
ENDMDL
MODEL 3
REMARK VINA RESULT:    -4.353      2.472      5.173
REMARK INTER + INTRA:          -7.368
REMARK INTER:                  -6.576
REMARK INTRA:                  -0.793
REMARK UNBOUND:                -1.488
REMARK SMILES CC(=O)CCC=C(C)CCC=C(C)C
REMARK SMILES IDX 7 1 6 2 8 3 9 4 10 5 11 6 13 7 12 8 14 9 5 10 4 11 2 12 3 13
REMARK SMILES IDX 1 14
REMARK H PARENT
REMARK Flexibility Score: inf
ROOT
ATOM      1  C   UNL     1       7.791 -17.373  21.064  1.00  0.00    -0.077 C 
ATOM      2  C   UNL     1       7.711 -17.297  22.411  1.00  0.00    -0.028 C 
ATOM      3  C   UNL     1       7.149 -16.342  20.165  1.00  0.00     0.039 C 
ENDROOT
BRANCH   1   4
ATOM      4  C   UNL     1       8.527 -18.539  20.435  1.00  0.00     0.034 C 
BRANCH   4   5
ATOM      5  C   UNL     1       7.561 -19.631  19.950  1.00  0.00     0.032 C 
BRANCH   5   6
ATOM      6  C   UNL     1       8.040 -21.012  20.331  1.00  0.00    -0.028 C 
ATOM      7  C   UNL     1       6.882 -20.986  22.553  1.00  0.00     0.039 C 
ATOM      8  C   UNL     1       7.769 -21.620  21.508  1.00  0.00    -0.080 C 
ATOM      9  C   UNL     1       8.362 -22.982  21.763  1.00  0.00     0.039 C 
ENDBRANCH   5   6
ENDBRANCH   4   5
ENDBRANCH   1   4
BRANCH   2  10
ATOM     10  C   UNL     1       7.035 -16.177  23.168  1.00  0.00     0.035 C 
BRANCH  10  11
ATOM     11  C   UNL     1       7.986 -15.003  23.433  1.00  0.00     0.079 C 
BRANCH  11  12
ATOM     12  C   UNL     1       9.141 -15.403  24.314  1.00  0.00     0.130 C 
ATOM     13  O   UNL     1       8.937 -15.732  25.472  1.00  0.00    -0.300 OA
ATOM     14  C   UNL     1      10.536 -15.436  23.766  1.00  0.00     0.087 C 
ENDBRANCH  11  12
ENDBRANCH  10  11
ENDBRANCH   2  10
TORSDOF 6
ENDMDL
MODEL 4
REMARK VINA RESULT:    -4.348      2.313      4.964
REMARK INTER + INTRA:          -7.362
REMARK INTER:                  -6.336
REMARK INTRA:                  -1.026
REMARK UNBOUND:                -1.488
REMARK SMILES CC(=O)CCC=C(C)CCC=C(C)C
REMARK SMILES IDX 7 1 6 2 8 3 9 4 10 5 11 6 13 7 12 8 14 9 5 10 4 11 2 12 3 13
REMARK SMILES IDX 1 14
REMARK H PARENT
REMARK Flexibility Score: inf
ROOT
ATOM      1  C   UNL     1       6.950 -19.245  24.392  1.00  0.00    -0.077 C 
ATOM      2  C   UNL     1       7.147 -18.312  23.435  1.00  0.00    -0.028 C 
ATOM      3  C   UNL     1       6.934 -18.892  25.862  1.00  0.00     0.039 C 
ENDROOT
BRANCH   1   4
ATOM      4  C   UNL     1       6.762 -20.692  23.983  1.00  0.00     0.034 C 
BRANCH   4   5
ATOM      5  C   UNL     1       6.971 -20.892  22.475  1.00  0.00     0.032 C 
BRANCH   5   6
ATOM      6  C   UNL     1       7.981 -21.978  22.189  1.00  0.00    -0.028 C 
ATOM      7  C   UNL     1       9.936 -20.412  22.251  1.00  0.00     0.039 C 
ATOM      8  C   UNL     1       9.310 -21.773  22.055  1.00  0.00    -0.080 C 
ATOM      9  C   UNL     1      10.187 -22.952  21.718  1.00  0.00     0.039 C 
ENDBRANCH   5   6
ENDBRANCH   4   5
ENDBRANCH   1   4
BRANCH   2  10
ATOM     10  C   UNL     1       7.320 -16.834  23.699  1.00  0.00     0.035 C 
BRANCH  10  11
ATOM     11  C   UNL     1       8.787 -16.397  23.596  1.00  0.00     0.079 C 
BRANCH  11  12
ATOM     12  C   UNL     1       9.467 -16.391  24.941  1.00  0.00     0.130 C 
ATOM     13  O   UNL     1       8.899 -15.902  25.906  1.00  0.00    -0.300 OA
ATOM     14  C   UNL     1      10.819 -17.013  25.110  1.00  0.00     0.087 C 
ENDBRANCH  11  12
ENDBRANCH  10  11
ENDBRANCH   2  10
TORSDOF 6
ENDMDL
MODEL 5
REMARK VINA RESULT:    -4.342      1.980      4.647
REMARK INTER + INTRA:          -7.353
REMARK INTER:                  -6.284
REMARK INTRA:                  -1.069
REMARK UNBOUND:                -1.488
REMARK SMILES CC(=O)CCC=C(C)CCC=C(C)C
REMARK SMILES IDX 7 1 6 2 8 3 9 4 10 5 11 6 13 7 12 8 14 9 5 10 4 11 2 12 3 13
REMARK SMILES IDX 1 14
REMARK H PARENT
REMARK Flexibility Score: inf
ROOT
ATOM      1  C   UNL     1       7.465 -17.484  24.477  1.00  0.00    -0.077 C 
ATOM      2  C   UNL     1       8.281 -17.460  25.554  1.00  0.00    -0.028 C 
ATOM      3  C   UNL     1       7.623 -16.510  23.333  1.00  0.00     0.039 C 
ENDROOT
BRANCH   1   4
ATOM      4  C   UNL     1       6.343 -18.502  24.425  1.00  0.00     0.034 C 
BRANCH   4   5
ATOM      5  C   UNL     1       6.838 -19.917  24.759  1.00  0.00     0.032 C 
BRANCH   5   6
ATOM      6  C   UNL     1       6.823 -20.816  23.545  1.00  0.00    -0.028 C 
ATOM      7  C   UNL     1       9.234 -20.404  23.000  1.00  0.00     0.039 C 
ATOM      8  C   UNL     1       7.881 -21.020  22.730  1.00  0.00    -0.080 C 
ATOM      9  C   UNL     1       7.697 -21.909  21.526  1.00  0.00     0.039 C 
ENDBRANCH   5   6
ENDBRANCH   4   5
ENDBRANCH   1   4
BRANCH   2  10
ATOM     10  C   UNL     1       9.452 -16.520  25.723  1.00  0.00     0.035 C 
BRANCH  10  11
ATOM     11  C   UNL     1      10.791 -17.268  25.768  1.00  0.00     0.079 C 
BRANCH  11  12
ATOM     12  C   UNL     1      11.618 -17.012  24.535  1.00  0.00     0.130 C 
ATOM     13  O   UNL     1      12.582 -17.723  24.292  1.00  0.00    -0.300 OA
ATOM     14  C   UNL     1      11.245 -15.915  23.586  1.00  0.00     0.087 C 
ENDBRANCH  11  12
ENDBRANCH  10  11
ENDBRANCH   2  10
TORSDOF 6
ENDMDL
MODEL 6
REMARK VINA RESULT:    -4.303      2.210      3.907
REMARK INTER + INTRA:          -7.300
REMARK INTER:                  -6.560
REMARK INTRA:                  -0.740
REMARK UNBOUND:                -1.488
REMARK SMILES CC(=O)CCC=C(C)CCC=C(C)C
REMARK SMILES IDX 7 1 6 2 8 3 9 4 10 5 11 6 13 7 12 8 14 9 5 10 4 11 2 12 3 13
REMARK SMILES IDX 1 14
REMARK H PARENT
REMARK Flexibility Score: inf
ROOT
ATOM      1  C   UNL     1       7.366 -20.311  22.689  1.00  0.00    -0.077 C 
ATOM      2  C   UNL     1       7.506 -21.643  22.505  1.00  0.00    -0.028 C 
ATOM      3  C   UNL     1       7.598 -19.321  21.571  1.00  0.00     0.039 C 
ENDROOT
BRANCH   1   4
ATOM      4  C   UNL     1       6.989 -19.794  24.063  1.00  0.00     0.034 C 
BRANCH   4   5
ATOM      5  C   UNL     1       6.559 -18.320  24.021  1.00  0.00     0.032 C 
BRANCH   5   6
ATOM      6  C   UNL     1       7.655 -17.403  24.510  1.00  0.00    -0.028 C 
ATOM      7  C   UNL     1       7.096 -15.585  22.879  1.00  0.00     0.039 C 
ATOM      8  C   UNL     1       7.927 -16.187  23.988  1.00  0.00    -0.080 C 
ATOM      9  C   UNL     1       9.089 -15.408  24.552  1.00  0.00     0.039 C 
ENDBRANCH   5   6
ENDBRANCH   4   5
ENDBRANCH   1   4
BRANCH   2  10
ATOM     10  C   UNL     1       7.850 -22.296  21.187  1.00  0.00     0.035 C 
BRANCH  10  11
ATOM     11  C   UNL     1       8.963 -23.342  21.333  1.00  0.00     0.079 C 
BRANCH  11  12
ATOM     12  C   UNL     1      10.326 -22.704  21.414  1.00  0.00     0.130 C 
ATOM     13  O   UNL     1      11.126 -23.084  22.256  1.00  0.00    -0.300 OA
ATOM     14  C   UNL     1      10.719 -21.631  20.445  1.00  0.00     0.087 C 
ENDBRANCH  11  12
ENDBRANCH  10  11
ENDBRANCH   2  10
TORSDOF 6
ENDMDL
MODEL 7
REMARK VINA RESULT:    -4.291      2.950      5.612
REMARK INTER + INTRA:          -7.284
REMARK INTER:                  -6.403
REMARK INTRA:                  -0.881
REMARK UNBOUND:                -1.488
REMARK SMILES CC(=O)CCC=C(C)CCC=C(C)C
REMARK SMILES IDX 7 1 6 2 8 3 9 4 10 5 11 6 13 7 12 8 14 9 5 10 4 11 2 12 3 13
REMARK SMILES IDX 1 14
REMARK H PARENT
REMARK Flexibility Score: inf
ROOT
ATOM      1  C   UNL     1       7.456 -20.125  21.248  1.00  0.00    -0.077 C 
ATOM      2  C   UNL     1       7.688 -19.442  22.391  1.00  0.00    -0.028 C 
ATOM      3  C   UNL     1       7.706 -19.516  19.888  1.00  0.00     0.039 C 
ENDROOT
BRANCH   1   4
ATOM      4  C   UNL     1       6.906 -21.535  21.331  1.00  0.00     0.034 C 
BRANCH   4   5
ATOM      5  C   UNL     1       7.876 -22.564  20.734  1.00  0.00     0.032 C 
BRANCH   5   6
ATOM      6  C   UNL     1       9.008 -22.883  21.682  1.00  0.00    -0.028 C 
ATOM      7  C   UNL     1      10.736 -21.736  20.276  1.00  0.00     0.039 C 
ATOM      8  C   UNL     1      10.300 -22.545  21.476  1.00  0.00    -0.080 C 
ATOM      9  C   UNL     1      11.325 -22.980  22.491  1.00  0.00     0.039 C 
ENDBRANCH   5   6
ENDBRANCH   4   5
ENDBRANCH   1   4
BRANCH   2  10
ATOM     10  C   UNL     1       8.259 -18.044  22.454  1.00  0.00     0.035 C 
BRANCH  10  11
ATOM     11  C   UNL     1       7.922 -17.342  23.776  1.00  0.00     0.079 C 
BRANCH  11  12
ATOM     12  C   UNL     1       7.922 -15.843  23.632  1.00  0.00     0.130 C 
ATOM     13  O   UNL     1       8.589 -15.158  24.393  1.00  0.00    -0.300 OA
ATOM     14  C   UNL     1       7.137 -15.187  22.537  1.00  0.00     0.087 C 
ENDBRANCH  11  12
ENDBRANCH  10  11
ENDBRANCH   2  10
TORSDOF 6
ENDMDL
MODEL 8
REMARK VINA RESULT:    -4.290      1.425      1.951
REMARK INTER + INTRA:          -7.283
REMARK INTER:                  -6.457
REMARK INTRA:                  -0.826
REMARK UNBOUND:                -1.488
REMARK SMILES CC(=O)CCC=C(C)CCC=C(C)C
REMARK SMILES IDX 7 1 6 2 8 3 9 4 10 5 11 6 13 7 12 8 14 9 5 10 4 11 2 12 3 13
REMARK SMILES IDX 1 14
REMARK H PARENT
REMARK Flexibility Score: inf
ROOT
ATOM      1  C   UNL     1       7.550 -17.538  24.129  1.00  0.00    -0.077 C 
ATOM      2  C   UNL     1       7.404 -18.478  23.169  1.00  0.00    -0.028 C 
ATOM      3  C   UNL     1       7.495 -17.883  25.600  1.00  0.00     0.039 C 
ENDROOT
BRANCH   1   4
ATOM      4  C   UNL     1       7.750 -16.092  23.721  1.00  0.00     0.034 C 
BRANCH   4   5
ATOM      5  C   UNL     1       8.861 -15.415  24.536  1.00  0.00     0.032 C 
BRANCH   5   6
ATOM      6  C   UNL     1      10.171 -15.391  23.785  1.00  0.00    -0.028 C 
ATOM      7  C   UNL     1      11.150 -17.292  25.093  1.00  0.00     0.039 C 
ATOM      8  C   UNL     1      11.218 -16.206  24.044  1.00  0.00    -0.080 C 
ATOM      9  C   UNL     1      12.481 -16.027  23.241  1.00  0.00     0.039 C 
ENDBRANCH   5   6
ENDBRANCH   4   5
ENDBRANCH   1   4
BRANCH   2  10
ATOM     10  C   UNL     1       7.226 -19.955  23.433  1.00  0.00     0.035 C 
BRANCH  10  11
ATOM     11  C   UNL     1       8.349 -20.792  22.808  1.00  0.00     0.079 C 
BRANCH  11  12
ATOM     12  C   UNL     1       7.816 -21.805  21.828  1.00  0.00     0.130 C 
ATOM     13  O   UNL     1       6.767 -21.589  21.241  1.00  0.00    -0.300 OA
ATOM     14  C   UNL     1       8.583 -23.061  21.543  1.00  0.00     0.087 C 
ENDBRANCH  11  12
ENDBRANCH  10  11
ENDBRANCH   2  10
TORSDOF 6
ENDMDL
MODEL 9
REMARK VINA RESULT:    -4.272      2.658      5.151
REMARK INTER + INTRA:          -7.258
REMARK INTER:                  -6.052
REMARK INTRA:                  -1.207
REMARK UNBOUND:                -1.488
REMARK SMILES CC(=O)CCC=C(C)CCC=C(C)C
REMARK SMILES IDX 7 1 6 2 8 3 9 4 10 5 11 6 13 7 12 8 14 9 5 10 4 11 2 12 3 13
REMARK SMILES IDX 1 14
REMARK H PARENT
REMARK Flexibility Score: inf
ROOT
ATOM      1  C   UNL     1       7.566 -21.486  21.961  1.00  0.00    -0.077 C 
ATOM      2  C   UNL     1       7.142 -21.133  23.195  1.00  0.00    -0.028 C 
ATOM      3  C   UNL     1       7.637 -20.490  20.826  1.00  0.00     0.039 C 
ENDROOT
BRANCH   1   4
ATOM      4  C   UNL     1       7.960 -22.925  21.701  1.00  0.00     0.034 C 
BRANCH   4   5
ATOM      5  C   UNL     1       9.367 -23.034  21.096  1.00  0.00     0.032 C 
BRANCH   5   6
ATOM      6  C   UNL     1      10.441 -22.760  22.123  1.00  0.00    -0.028 C 
ATOM      7  C   UNL     1      11.934 -21.576  20.496  1.00  0.00     0.039 C 
ATOM      8  C   UNL     1      11.610 -22.134  21.862  1.00  0.00    -0.080 C 
ATOM      9  C   UNL     1      12.606 -21.979  22.983  1.00  0.00     0.039 C 
ENDBRANCH   5   6
ENDBRANCH   4   5
ENDBRANCH   1   4
BRANCH   2  10
ATOM     10  C   UNL     1       6.746 -19.732  23.599  1.00  0.00     0.035 C 
BRANCH  10  11
ATOM     11  C   UNL     1       7.821 -19.054  24.459  1.00  0.00     0.079 C 
BRANCH  11  12
ATOM     12  C   UNL     1       8.909 -18.441  23.618  1.00  0.00     0.130 C 
ATOM     13  O   UNL     1       8.688 -17.417  22.989  1.00  0.00    -0.300 OA
ATOM     14  C   UNL     1      10.274 -19.059  23.575  1.00  0.00     0.087 C 
ENDBRANCH  11  12
ENDBRANCH  10  11
ENDBRANCH   2  10
TORSDOF 6
ENDMDL
