MODEL 1
REMARK VINA RESULT:    -7.115      0.000      0.000
REMARK INTER + INTRA:         -12.007
REMARK INTER:                 -10.651
REMARK INTRA:                  -1.357
REMARK UNBOUND:                -1.357
REMARK SMILES O=c1c(O[C@H]2O[C@@H](CO)[C@H](O)[C@H](O)[C@@H]2O)c(-c2cc(O)c(O)c(O)c2)oc2cc(O)cc(O)c12
REMARK SMILES IDX 4 1 3 2 16 3 26 4 2 5 27 6 1 7 34 8 28 9 32 10 29 11 31 12
REMARK SMILES IDX 17 13 18 14 19 15 25 16 21 17 23 18 20 19 22 21 24 23 33 25
REMARK SMILES IDX 30 27 5 29 14 30 6 31 12 32 7 33 10 34 15 35 13 37 8 39 9 40
REMARK SMILES IDX 11 42
REMARK H PARENT 20 20 22 22 24 24 33 26 30 28 15 36 13 38 9 41 11 43
REMARK Flexibility Score: inf
ROOT
ATOM      1  O   UNL     1      -5.313   5.912  12.505  1.00  0.00    -0.454 OA
ENDROOT
BRANCH   1   2
ATOM      2  C   UNL     1      -4.315   6.871  12.771  1.00  0.00     0.214 A 
ATOM      3  C   UNL     1      -3.803   6.938  14.079  1.00  0.00     0.181 A 
ATOM      4  O   UNL     1      -2.818   7.779  14.369  1.00  0.00    -0.452 OA
ATOM      5  C   UNL     1      -3.779   7.747  11.796  1.00  0.00     0.239 A 
ATOM      6  C   UNL     1      -2.290   8.620  13.491  1.00  0.00     0.146 A 
ATOM      7  O   UNL     1      -4.171   7.662  10.604  1.00  0.00    -0.285 OA
ATOM      8  C   UNL     1      -2.775   8.678  12.161  1.00  0.00     0.111 A 
ATOM      9  C   UNL     1      -1.237   9.438  13.904  1.00  0.00     0.094 A 
ATOM     10  C   UNL     1      -2.195   9.636  11.270  1.00  0.00     0.134 A 
ATOM     11  C   UNL     1      -0.639  10.324  13.008  1.00  0.00     0.123 A 
ATOM     12  C   UNL     1      -1.117  10.417  11.703  1.00  0.00     0.093 A 
BRANCH   3  13
ATOM     13  C   UNL     1      -4.299   6.051  15.156  1.00  0.00     0.029 A 
ATOM     14  C   UNL     1      -5.264   6.489  16.078  1.00  0.00     0.062 A 
ATOM     15  C   UNL     1      -5.740   5.635  17.079  1.00  0.00     0.162 A 
ATOM     16  C   UNL     1      -3.782   4.755  15.274  1.00  0.00     0.062 A 
ATOM     17  C   UNL     1      -5.242   4.312  17.166  1.00  0.00     0.200 A 
ATOM     18  C   UNL     1      -4.254   3.886  16.260  1.00  0.00     0.162 A 
BRANCH  15  19
ATOM     19  O   UNL     1      -6.696   6.142  17.963  1.00  0.00    -0.504 OA
ATOM     20  H   UNL     1      -6.477   6.708  18.772  1.00  0.00     0.293 HD
ENDBRANCH  15  19
BRANCH  17  21
ATOM     21  O   UNL     1      -5.701   3.405  18.126  1.00  0.00    -0.502 OA
ATOM     22  H   UNL     1      -6.601   3.469  18.580  1.00  0.00     0.293 HD
ENDBRANCH  17  21
BRANCH  18  23
ATOM     23  O   UNL     1      -3.737   2.591  16.315  1.00  0.00    -0.504 OA
ATOM     24  H   UNL     1      -4.016   1.924  17.027  1.00  0.00     0.293 HD
ENDBRANCH  18  23
ENDBRANCH   3  13
BRANCH  10  25
ATOM     25  O   UNL     1      -2.654   9.879   9.971  1.00  0.00    -0.507 OA
ATOM     26  H   UNL     1      -2.794   9.173   9.264  1.00  0.00     0.293 HD
ENDBRANCH  10  25
BRANCH  11  27
ATOM     27  O   UNL     1       0.430  11.125  13.407  1.00  0.00    -0.508 OA
ATOM     28  H   UNL     1       0.559  12.059  13.038  1.00  0.00     0.293 HD
ENDBRANCH  11  27
ENDBRANCH   1   2
BRANCH   1  29
ATOM     29  C   UNL     1      -6.727   6.065  12.625  1.00  0.00     0.339 C 
ATOM     30  C   UNL     1      -7.381   5.657  11.284  1.00  0.00     0.214 C 
ATOM     31  O   UNL     1      -7.024   7.418  12.913  1.00  0.00    -0.332 OA
ATOM     32  C   UNL     1      -8.593   6.557  10.935  1.00  0.00     0.180 C 
ATOM     33  C   UNL     1      -8.382   7.545  13.298  1.00  0.00     0.179 C 
ATOM     34  C   UNL     1      -9.359   7.020  12.193  1.00  0.00     0.177 C 
BRANCH  30  35
ATOM     35  O   UNL     1      -7.721   4.292  11.290  1.00  0.00    -0.384 OA
ATOM     36  H   UNL     1      -6.889   3.771  11.152  1.00  0.00     0.211 HD
ENDBRANCH  30  35
BRANCH  32  37
ATOM     37  O   UNL     1      -9.453   5.891  10.046  1.00  0.00    -0.387 OA
ATOM     38  H   UNL     1      -8.945   5.126   9.673  1.00  0.00     0.211 HD
ENDBRANCH  32  37
BRANCH  33  39
ATOM     39  C   UNL     1      -8.643   9.019  13.630  1.00  0.00     0.191 C 
BRANCH  39  40
ATOM     40  O   UNL     1     -10.020   9.267  13.701  1.00  0.00    -0.394 OA
ATOM     41  H   UNL     1     -10.433   8.723  12.981  1.00  0.00     0.210 HD
ENDBRANCH  39  40
ENDBRANCH  33  39
BRANCH  34  42
ATOM     42  O   UNL     1     -10.125   5.956  12.698  1.00  0.00    -0.387 OA
ATOM     43  H   UNL     1     -11.037   6.056  12.319  1.00  0.00     0.211 HD
ENDBRANCH  34  42
ENDBRANCH   1  29
TORSDOF 13
ENDMDL
MODEL 2
REMARK VINA RESULT:    -7.083      1.598      5.801
REMARK INTER + INTRA:         -11.960
REMARK INTER:                 -10.539
REMARK INTRA:                  -1.420
REMARK UNBOUND:                -1.357
REMARK SMILES O=c1c(O[C@H]2O[C@@H](CO)[C@H](O)[C@H](O)[C@@H]2O)c(-c2cc(O)c(O)c(O)c2)oc2cc(O)cc(O)c12
REMARK SMILES IDX 4 1 3 2 16 3 26 4 2 5 27 6 1 7 34 8 28 9 32 10 29 11 31 12
REMARK SMILES IDX 17 13 18 14 19 15 25 16 21 17 23 18 20 19 22 21 24 23 33 25
REMARK SMILES IDX 30 27 5 29 14 30 6 31 12 32 7 33 10 34 15 35 13 37 8 39 9 40
REMARK SMILES IDX 11 42
REMARK H PARENT 20 20 22 22 24 24 33 26 30 28 15 36 13 38 9 41 11 43
REMARK Flexibility Score: inf
ROOT
ATOM      1  O   UNL     1      -6.157   7.210  14.313  1.00  0.00    -0.454 OA
ENDROOT
BRANCH   1   2
ATOM      2  C   UNL     1      -5.147   6.308  14.705  1.00  0.00     0.214 A 
ATOM      3  C   UNL     1      -3.832   6.574  14.282  1.00  0.00     0.181 A 
ATOM      4  O   UNL     1      -2.833   5.792  14.674  1.00  0.00    -0.452 OA
ATOM      5  C   UNL     1      -5.372   5.172  15.518  1.00  0.00     0.239 A 
ATOM      6  C   UNL     1      -2.998   4.717  15.431  1.00  0.00     0.146 A 
ATOM      7  O   UNL     1      -6.526   4.948  15.965  1.00  0.00    -0.285 OA
ATOM      8  C   UNL     1      -4.289   4.323  15.860  1.00  0.00     0.111 A 
ATOM      9  C   UNL     1      -1.867   3.988  15.804  1.00  0.00     0.094 A 
ATOM     10  C   UNL     1      -4.410   3.129  16.638  1.00  0.00     0.134 A 
ATOM     11  C   UNL     1      -1.992   2.860  16.616  1.00  0.00     0.123 A 
ATOM     12  C   UNL     1      -3.255   2.440  17.028  1.00  0.00     0.093 A 
BRANCH   3  13
ATOM     13  C   UNL     1      -3.506   7.746  13.438  1.00  0.00     0.029 A 
ATOM     14  C   UNL     1      -2.938   8.908  13.987  1.00  0.00     0.062 A 
ATOM     15  C   UNL     1      -2.616  10.002  13.176  1.00  0.00     0.162 A 
ATOM     16  C   UNL     1      -3.790   7.708  12.068  1.00  0.00     0.062 A 
ATOM     17  C   UNL     1      -2.868   9.939  11.784  1.00  0.00     0.200 A 
ATOM     18  C   UNL     1      -3.464   8.786  11.241  1.00  0.00     0.162 A 
BRANCH  15  19
ATOM     19  O   UNL     1      -2.059  11.125  13.794  1.00  0.00    -0.504 OA
ATOM     20  H   UNL     1      -2.513  12.026  13.849  1.00  0.00     0.293 HD
ENDBRANCH  15  19
BRANCH  17  21
ATOM     21  O   UNL     1      -2.540  10.989  10.920  1.00  0.00    -0.502 OA
ATOM     22  H   UNL     1      -2.979  11.143  10.025  1.00  0.00     0.293 HD
ENDBRANCH  17  21
BRANCH  18  23
ATOM     23  O   UNL     1      -3.729   8.688   9.875  1.00  0.00    -0.504 OA
ATOM     24  H   UNL     1      -4.615   8.972   9.472  1.00  0.00     0.293 HD
ENDBRANCH  18  23
ENDBRANCH   3  13
BRANCH  10  25
ATOM     25  O   UNL     1      -5.628   2.565  17.029  1.00  0.00    -0.507 OA
ATOM     26  H   UNL     1      -5.753   1.937  17.808  1.00  0.00     0.293 HD
ENDBRANCH  10  25
BRANCH  11  27
ATOM     27  O   UNL     1      -0.866   2.143  17.014  1.00  0.00    -0.508 OA
ATOM     28  H   UNL     1      -0.866   1.130  17.049  1.00  0.00     0.293 HD
ENDBRANCH  11  27
ENDBRANCH   1   2
BRANCH   1  29
ATOM     29  C   UNL     1      -7.145   7.029  13.300  1.00  0.00     0.339 C 
ATOM     30  C   UNL     1      -6.922   5.649  12.637  1.00  0.00     0.214 C 
ATOM     31  O   UNL     1      -7.013   8.053  12.334  1.00  0.00    -0.332 OA
ATOM     32  C   UNL     1      -7.199   5.689  11.112  1.00  0.00     0.180 C 
ATOM     33  C   UNL     1      -8.138   8.054  11.471  1.00  0.00     0.179 C 
ATOM     34  C   UNL     1      -8.328   6.678  10.749  1.00  0.00     0.177 C 
BRANCH  30  35
ATOM     35  O   UNL     1      -7.679   4.656  13.285  1.00  0.00    -0.384 OA
ATOM     36  H   UNL     1      -8.567   5.042  13.499  1.00  0.00     0.211 HD
ENDBRANCH  30  35
BRANCH  32  37
ATOM     37  O   UNL     1      -7.496   4.401  10.638  1.00  0.00    -0.387 OA
ATOM     38  H   UNL     1      -8.415   4.187  10.943  1.00  0.00     0.211 HD
ENDBRANCH  32  37
BRANCH  33  39
ATOM     39  C   UNL     1      -7.963   9.200  10.468  1.00  0.00     0.191 C 
BRANCH  39  40
ATOM     40  O   UNL     1      -6.631   9.273  10.037  1.00  0.00    -0.394 OA
ATOM     41  H   UNL     1      -6.221  10.022  10.543  1.00  0.00     0.210 HD
ENDBRANCH  39  40
ENDBRANCH  33  39
BRANCH  34  42
ATOM     42  O   UNL     1      -9.572   6.124  11.096  1.00  0.00    -0.387 OA
ATOM     43  H   UNL     1     -10.244   6.847  10.991  1.00  0.00     0.211 HD
ENDBRANCH  34  42
ENDBRANCH   1  29
TORSDOF 13
ENDMDL
MODEL 3
REMARK VINA RESULT:    -6.840      2.179      6.896
REMARK INTER + INTRA:         -11.596
REMARK INTER:                 -10.531
REMARK INTRA:                  -1.064
REMARK UNBOUND:                -1.357
REMARK SMILES O=c1c(O[C@H]2O[C@@H](CO)[C@H](O)[C@H](O)[C@@H]2O)c(-c2cc(O)c(O)c(O)c2)oc2cc(O)cc(O)c12
REMARK SMILES IDX 4 1 3 2 16 3 26 4 2 5 27 6 1 7 34 8 28 9 32 10 29 11 31 12
REMARK SMILES IDX 17 13 18 14 19 15 25 16 21 17 23 18 20 19 22 21 24 23 33 25
REMARK SMILES IDX 30 27 5 29 14 30 6 31 12 32 7 33 10 34 15 35 13 37 8 39 9 40
REMARK SMILES IDX 11 42
REMARK H PARENT 20 20 22 22 24 24 33 26 30 28 15 36 13 38 9 41 11 43
REMARK Flexibility Score: inf
ROOT
ATOM      1  O   UNL     1      -4.161   6.172  13.961  1.00  0.00    -0.454 OA
ENDROOT
BRANCH   1   2
ATOM      2  C   UNL     1      -4.295   5.176  14.949  1.00  0.00     0.214 A 
ATOM      3  C   UNL     1      -5.597   4.810  15.338  1.00  0.00     0.181 A 
ATOM      4  O   UNL     1      -5.782   3.834  16.218  1.00  0.00    -0.452 OA
ATOM      5  C   UNL     1      -3.204   4.504  15.550  1.00  0.00     0.239 A 
ATOM      6  C   UNL     1      -4.791   3.182  16.808  1.00  0.00     0.146 A 
ATOM      7  O   UNL     1      -2.032   4.763  15.173  1.00  0.00    -0.285 OA
ATOM      8  C   UNL     1      -3.441   3.513  16.535  1.00  0.00     0.111 A 
ATOM      9  C   UNL     1      -5.109   2.152  17.696  1.00  0.00     0.094 A 
ATOM     10  C   UNL     1      -2.414   2.804  17.235  1.00  0.00     0.134 A 
ATOM     11  C   UNL     1      -4.096   1.426  18.325  1.00  0.00     0.123 A 
ATOM     12  C   UNL     1      -2.763   1.753  18.092  1.00  0.00     0.093 A 
BRANCH   3  13
ATOM     13  C   UNL     1      -6.795   5.454  14.752  1.00  0.00     0.029 A 
ATOM     14  C   UNL     1      -7.687   6.196  15.543  1.00  0.00     0.062 A 
ATOM     15  C   UNL     1      -8.805   6.818  14.975  1.00  0.00     0.162 A 
ATOM     16  C   UNL     1      -7.058   5.304  13.385  1.00  0.00     0.062 A 
ATOM     17  C   UNL     1      -9.041   6.695  13.584  1.00  0.00     0.200 A 
ATOM     18  C   UNL     1      -8.162   5.928  12.799  1.00  0.00     0.162 A 
BRANCH  15  19
ATOM     19  O   UNL     1      -9.650   7.534  15.826  1.00  0.00    -0.504 OA
ATOM     20  H   UNL     1      -9.483   7.666  16.814  1.00  0.00     0.293 HD
ENDBRANCH  15  19
BRANCH  17  21
ATOM     21  O   UNL     1     -10.124   7.319  12.956  1.00  0.00    -0.502 OA
ATOM     22  H   UNL     1     -10.582   6.961  12.131  1.00  0.00     0.293 HD
ENDBRANCH  17  21
BRANCH  18  23
ATOM     23  O   UNL     1      -8.363   5.782  11.426  1.00  0.00    -0.504 OA
ATOM     24  H   UNL     1      -9.288   5.785  11.009  1.00  0.00     0.293 HD
ENDBRANCH  18  23
ENDBRANCH   3  13
BRANCH  10  25
ATOM     25  O   UNL     1      -1.052   3.107  17.149  1.00  0.00    -0.507 OA
ATOM     26  H   UNL     1      -0.355   2.846  17.831  1.00  0.00     0.293 HD
ENDBRANCH  10  25
BRANCH  11  27
ATOM     27  O   UNL     1      -4.406   0.381  19.193  1.00  0.00    -0.508 OA
ATOM     28  H   UNL     1      -4.618  -0.548  18.849  1.00  0.00     0.293 HD
ENDBRANCH  11  27
ENDBRANCH   1   2
BRANCH   1  29
ATOM     29  C   UNL     1      -3.719   7.518  14.132  1.00  0.00     0.339 C 
ATOM     30  C   UNL     1      -4.955   8.413  14.388  1.00  0.00     0.214 C 
ATOM     31  O   UNL     1      -3.055   7.941  12.957  1.00  0.00    -0.332 OA
ATOM     32  C   UNL     1      -4.816   9.798  13.707  1.00  0.00     0.180 C 
ATOM     33  C   UNL     1      -2.379   9.164  13.195  1.00  0.00     0.179 C 
ATOM     34  C   UNL     1      -3.353  10.291  13.677  1.00  0.00     0.177 C 
BRANCH  30  35
ATOM     35  O   UNL     1      -5.213   8.525  15.766  1.00  0.00    -0.384 OA
ATOM     36  H   UNL     1      -4.524   9.122  16.156  1.00  0.00     0.211 HD
ENDBRANCH  30  35
BRANCH  32  37
ATOM     37  O   UNL     1      -5.644  10.738  14.344  1.00  0.00    -0.387 OA
ATOM     38  H   UNL     1      -6.060  10.277  15.118  1.00  0.00     0.211 HD
ENDBRANCH  32  37
BRANCH  33  39
ATOM     39  C   UNL     1      -1.650   9.559  11.906  1.00  0.00     0.191 C 
BRANCH  39  40
ATOM     40  O   UNL     1      -0.264   9.436  12.071  1.00  0.00    -0.394 OA
ATOM     41  H   UNL     1      -0.084   8.464  12.153  1.00  0.00     0.210 HD
ENDBRANCH  39  40
ENDBRANCH  33  39
BRANCH  34  42
ATOM     42  O   UNL     1      -2.977  10.732  14.957  1.00  0.00    -0.387 OA
ATOM     43  H   UNL     1      -3.538  11.526  15.160  1.00  0.00     0.211 HD
ENDBRANCH  34  42
ENDBRANCH   1  29
TORSDOF 13
ENDMDL
MODEL 4
REMARK VINA RESULT:    -6.792      1.448      6.110
REMARK INTER + INTRA:         -11.524
REMARK INTER:                 -10.403
REMARK INTRA:                  -1.121
REMARK UNBOUND:                -1.357
REMARK SMILES O=c1c(O[C@H]2O[C@@H](CO)[C@H](O)[C@H](O)[C@@H]2O)c(-c2cc(O)c(O)c(O)c2)oc2cc(O)cc(O)c12
REMARK SMILES IDX 4 1 3 2 16 3 26 4 2 5 27 6 1 7 34 8 28 9 32 10 29 11 31 12
REMARK SMILES IDX 17 13 18 14 19 15 25 16 21 17 23 18 20 19 22 21 24 23 33 25
REMARK SMILES IDX 30 27 5 29 14 30 6 31 12 32 7 33 10 34 15 35 13 37 8 39 9 40
REMARK SMILES IDX 11 42
REMARK H PARENT 20 20 22 22 24 24 33 26 30 28 15 36 13 38 9 41 11 43
REMARK Flexibility Score: inf
ROOT
ATOM      1  O   UNL     1      -5.422   7.973  14.372  1.00  0.00    -0.454 OA
ENDROOT
BRANCH   1   2
ATOM      2  C   UNL     1      -4.579   6.903  14.736  1.00  0.00     0.214 A 
ATOM      3  C   UNL     1      -3.245   6.942  14.293  1.00  0.00     0.181 A 
ATOM      4  O   UNL     1      -2.391   5.993  14.658  1.00  0.00    -0.452 OA
ATOM      5  C   UNL     1      -4.987   5.812  15.540  1.00  0.00     0.239 A 
ATOM      6  C   UNL     1      -2.730   4.952  15.406  1.00  0.00     0.146 A 
ATOM      7  O   UNL     1      -6.155   5.786  16.005  1.00  0.00    -0.285 OA
ATOM      8  C   UNL     1      -4.063   4.783  15.853  1.00  0.00     0.111 A 
ATOM      9  C   UNL     1      -1.738   4.032  15.751  1.00  0.00     0.094 A 
ATOM     10  C   UNL     1      -4.378   3.617  16.620  1.00  0.00     0.134 A 
ATOM     11  C   UNL     1      -2.045   2.932  16.552  1.00  0.00     0.123 A 
ATOM     12  C   UNL     1      -3.355   2.732  16.981  1.00  0.00     0.093 A 
BRANCH   3  13
ATOM     13  C   UNL     1      -2.733   8.052  13.457  1.00  0.00     0.029 A 
ATOM     14  C   UNL     1      -1.861   9.021  13.981  1.00  0.00     0.062 A 
ATOM     15  C   UNL     1      -1.368  10.053  13.175  1.00  0.00     0.162 A 
ATOM     16  C   UNL     1      -3.142   8.153  12.122  1.00  0.00     0.062 A 
ATOM     17  C   UNL     1      -1.754  10.125  11.815  1.00  0.00     0.200 A 
ATOM     18  C   UNL     1      -2.650   9.171  11.301  1.00  0.00     0.162 A 
BRANCH  15  19
ATOM     19  O   UNL     1      -0.509  10.983  13.767  1.00  0.00    -0.504 OA
ATOM     20  H   UNL     1      -0.369  11.924  13.426  1.00  0.00     0.293 HD
ENDBRANCH  15  19
BRANCH  17  21
ATOM     21  O   UNL     1      -1.271  11.116  10.955  1.00  0.00    -0.502 OA
ATOM     22  H   UNL     1      -1.843  11.843  10.550  1.00  0.00     0.293 HD
ENDBRANCH  17  21
BRANCH  18  23
ATOM     23  O   UNL     1      -3.056   9.209   9.966  1.00  0.00    -0.504 OA
ATOM     24  H   UNL     1      -2.675   8.584   9.264  1.00  0.00     0.293 HD
ENDBRANCH  18  23
ENDBRANCH   3  13
BRANCH  10  25
ATOM     25  O   UNL     1      -5.670   3.269  17.025  1.00  0.00    -0.507 OA
ATOM     26  H   UNL     1      -6.411   2.972  16.409  1.00  0.00     0.293 HD
ENDBRANCH  10  25
BRANCH  11  27
ATOM     27  O   UNL     1      -1.055   2.024  16.922  1.00  0.00    -0.508 OA
ATOM     28  H   UNL     1      -0.697   1.985  17.869  1.00  0.00     0.293 HD
ENDBRANCH  11  27
ENDBRANCH   1   2
BRANCH   1  29
ATOM     29  C   UNL     1      -6.410   7.996  13.343  1.00  0.00     0.339 C 
ATOM     30  C   UNL     1      -7.742   8.497  13.951  1.00  0.00     0.214 C 
ATOM     31  O   UNL     1      -6.578   6.688  12.831  1.00  0.00    -0.332 OA
ATOM     32  C   UNL     1      -8.965   7.759  13.350  1.00  0.00     0.180 C 
ATOM     33  C   UNL     1      -7.347   6.728  11.641  1.00  0.00     0.179 C 
ATOM     34  C   UNL     1      -8.751   7.382  11.868  1.00  0.00     0.177 C 
BRANCH  30  35
ATOM     35  O   UNL     1      -7.854   9.894  13.825  1.00  0.00    -0.384 OA
ATOM     36  H   UNL     1      -8.397  10.083  13.017  1.00  0.00     0.211 HD
ENDBRANCH  30  35
BRANCH  32  37
ATOM     37  O   UNL     1     -10.125   8.537  13.502  1.00  0.00    -0.387 OA
ATOM     38  H   UNL     1     -10.634   8.464  12.653  1.00  0.00     0.211 HD
ENDBRANCH  32  37
BRANCH  33  39
ATOM     39  C   UNL     1      -7.470   5.295  11.110  1.00  0.00     0.191 C 
BRANCH  39  40
ATOM     40  O   UNL     1      -7.522   4.383  12.173  1.00  0.00    -0.394 OA
ATOM     41  H   UNL     1      -8.461   4.392  12.494  1.00  0.00     0.210 HD
ENDBRANCH  39  40
ENDBRANCH  33  39
BRANCH  34  42
ATOM     42  O   UNL     1      -8.879   8.529  11.065  1.00  0.00    -0.387 OA
ATOM     43  H   UNL     1      -8.971   9.300  11.685  1.00  0.00     0.211 HD
ENDBRANCH  34  42
ENDBRANCH   1  29
TORSDOF 13
ENDMDL
MODEL 5
REMARK VINA RESULT:    -6.775      1.231      1.515
REMARK INTER + INTRA:         -11.499
REMARK INTER:                 -10.384
REMARK INTRA:                  -1.114
REMARK UNBOUND:                -1.357
REMARK SMILES O=c1c(O[C@H]2O[C@@H](CO)[C@H](O)[C@H](O)[C@@H]2O)c(-c2cc(O)c(O)c(O)c2)oc2cc(O)cc(O)c12
REMARK SMILES IDX 4 1 3 2 16 3 26 4 2 5 27 6 1 7 34 8 28 9 32 10 29 11 31 12
REMARK SMILES IDX 17 13 18 14 19 15 25 16 21 17 23 18 20 19 22 21 24 23 33 25
REMARK SMILES IDX 30 27 5 29 14 30 6 31 12 32 7 33 10 34 15 35 13 37 8 39 9 40
REMARK SMILES IDX 11 42
REMARK H PARENT 20 20 22 22 24 24 33 26 30 28 15 36 13 38 9 41 11 43
REMARK Flexibility Score: inf
ROOT
ATOM      1  O   UNL     1      -5.352   5.380  12.835  1.00  0.00    -0.454 OA
ENDROOT
BRANCH   1   2
ATOM      2  C   UNL     1      -4.411   6.417  13.001  1.00  0.00     0.214 A 
ATOM      3  C   UNL     1      -3.593   6.382  14.144  1.00  0.00     0.181 A 
ATOM      4  O   UNL     1      -2.649   7.298  14.319  1.00  0.00    -0.452 OA
ATOM      5  C   UNL     1      -4.222   7.470  12.074  1.00  0.00     0.239 A 
ATOM      6  C   UNL     1      -2.439   8.303  13.481  1.00  0.00     0.146 A 
ATOM      7  O   UNL     1      -4.893   7.489  11.010  1.00  0.00    -0.285 OA
ATOM      8  C   UNL     1      -3.248   8.468  12.329  1.00  0.00     0.111 A 
ATOM      9  C   UNL     1      -1.396   9.189  13.754  1.00  0.00     0.094 A 
ATOM     10  C   UNL     1      -3.003   9.596  11.485  1.00  0.00     0.134 A 
ATOM     11  C   UNL     1      -1.127  10.251  12.889  1.00  0.00     0.123 A 
ATOM     12  C   UNL     1      -1.926  10.447  11.765  1.00  0.00     0.093 A 
BRANCH   3  13
ATOM     13  C   UNL     1      -3.718   5.310  15.159  1.00  0.00     0.029 A 
ATOM     14  C   UNL     1      -4.795   5.276  16.059  1.00  0.00     0.062 A 
ATOM     15  C   UNL     1      -4.913   4.247  17.000  1.00  0.00     0.162 A 
ATOM     16  C   UNL     1      -2.731   4.321  15.238  1.00  0.00     0.062 A 
ATOM     17  C   UNL     1      -3.932   3.227  17.047  1.00  0.00     0.200 A 
ATOM     18  C   UNL     1      -2.838   3.279  16.163  1.00  0.00     0.162 A 
BRANCH  15  19
ATOM     19  O   UNL     1      -6.009   4.282  17.866  1.00  0.00    -0.504 OA
ATOM     20  H   UNL     1      -6.751   4.965  17.814  1.00  0.00     0.293 HD
ENDBRANCH  15  19
BRANCH  17  21
ATOM     21  O   UNL     1      -4.012   2.157  17.944  1.00  0.00    -0.502 OA
ATOM     22  H   UNL     1      -4.879   1.747  18.259  1.00  0.00     0.293 HD
ENDBRANCH  17  21
BRANCH  18  23
ATOM     23  O   UNL     1      -1.851   2.294  16.181  1.00  0.00    -0.504 OA
ATOM     24  H   UNL     1      -1.914   1.450  15.621  1.00  0.00     0.293 HD
ENDBRANCH  18  23
ENDBRANCH   3  13
BRANCH  10  25
ATOM     25  O   UNL     1      -3.795   9.942  10.386  1.00  0.00    -0.507 OA
ATOM     26  H   UNL     1      -4.079   9.308   9.654  1.00  0.00     0.293 HD
ENDBRANCH  10  25
BRANCH  11  27
ATOM     27  O   UNL     1      -0.070  11.124  13.142  1.00  0.00    -0.508 OA
ATOM     28  H   UNL     1       0.426  11.587  12.390  1.00  0.00     0.293 HD
ENDBRANCH  11  27
ENDBRANCH   1   2
BRANCH   1  29
ATOM     29  C   UNL     1      -6.733   5.388  13.194  1.00  0.00     0.339 C 
ATOM     30  C   UNL     1      -7.563   5.768  11.946  1.00  0.00     0.214 C 
ATOM     31  O   UNL     1      -6.941   6.341  14.219  1.00  0.00    -0.332 OA
ATOM     32  C   UNL     1      -8.775   6.664  12.309  1.00  0.00     0.180 C 
ATOM     33  C   UNL     1      -8.235   6.181  14.774  1.00  0.00     0.179 C 
ATOM     34  C   UNL     1      -9.361   6.321  13.696  1.00  0.00     0.177 C 
BRANCH  30  35
ATOM     35  O   UNL     1      -7.952   4.618  11.235  1.00  0.00    -0.384 OA
ATOM     36  H   UNL     1      -8.588   4.899  10.528  1.00  0.00     0.211 HD
ENDBRANCH  30  35
BRANCH  32  37
ATOM     37  O   UNL     1      -9.763   6.571  11.315  1.00  0.00    -0.387 OA
ATOM     38  H   UNL     1     -10.582   6.994  11.683  1.00  0.00     0.211 HD
ENDBRANCH  32  37
BRANCH  33  39
ATOM     39  C   UNL     1      -8.397   7.211  15.899  1.00  0.00     0.191 C 
BRANCH  39  40
ATOM     40  O   UNL     1      -7.886   6.705  17.102  1.00  0.00    -0.394 OA
ATOM     41  H   UNL     1      -6.973   7.081  17.190  1.00  0.00     0.210 HD
ENDBRANCH  39  40
ENDBRANCH  33  39
BRANCH  34  42
ATOM     42  O   UNL     1     -10.097   5.127  13.615  1.00  0.00    -0.387 OA
ATOM     43  H   UNL     1     -11.025   5.381  13.369  1.00  0.00     0.211 HD
ENDBRANCH  34  42
ENDBRANCH   1  29
TORSDOF 13
ENDMDL
MODEL 6
REMARK VINA RESULT:    -6.451      1.703      5.714
REMARK INTER + INTRA:         -11.013
REMARK INTER:                  -9.832
REMARK INTRA:                  -1.182
REMARK UNBOUND:                -1.357
REMARK SMILES O=c1c(O[C@H]2O[C@@H](CO)[C@H](O)[C@H](O)[C@@H]2O)c(-c2cc(O)c(O)c(O)c2)oc2cc(O)cc(O)c12
REMARK SMILES IDX 4 1 3 2 16 3 26 4 2 5 27 6 1 7 34 8 28 9 32 10 29 11 31 12
REMARK SMILES IDX 17 13 18 14 19 15 25 16 21 17 23 18 20 19 22 21 24 23 33 25
REMARK SMILES IDX 30 27 5 29 14 30 6 31 12 32 7 33 10 34 15 35 13 37 8 39 9 40
REMARK SMILES IDX 11 42
REMARK H PARENT 20 20 22 22 24 24 33 26 30 28 15 36 13 38 9 41 11 43
REMARK Flexibility Score: inf
ROOT
ATOM      1  O   UNL     1      -5.949   7.880  14.201  1.00  0.00    -0.454 OA
ENDROOT
BRANCH   1   2
ATOM      2  C   UNL     1      -4.945   8.383  13.349  1.00  0.00     0.214 A 
ATOM      3  C   UNL     1      -5.129   8.238  11.963  1.00  0.00     0.181 A 
ATOM      4  O   UNL     1      -4.246   8.748  11.114  1.00  0.00    -0.452 OA
ATOM      5  C   UNL     1      -3.781   9.048  13.804  1.00  0.00     0.239 A 
ATOM      6  C   UNL     1      -3.142   9.374  11.494  1.00  0.00     0.146 A 
ATOM      7  O   UNL     1      -3.624   9.252  15.035  1.00  0.00    -0.285 OA
ATOM      8  C   UNL     1      -2.828   9.521  12.868  1.00  0.00     0.111 A 
ATOM      9  C   UNL     1      -2.301   9.896  10.509  1.00  0.00     0.094 A 
ATOM     10  C   UNL     1      -1.600  10.167  13.217  1.00  0.00     0.134 A 
ATOM     11  C   UNL     1      -1.137  10.579  10.865  1.00  0.00     0.123 A 
ATOM     12  C   UNL     1      -0.796  10.712  12.209  1.00  0.00     0.093 A 
BRANCH   3  13
ATOM     13  C   UNL     1      -6.323   7.564  11.402  1.00  0.00     0.029 A 
ATOM     14  C   UNL     1      -6.375   6.168  11.257  1.00  0.00     0.062 A 
ATOM     15  C   UNL     1      -7.517   5.541  10.745  1.00  0.00     0.162 A 
ATOM     16  C   UNL     1      -7.416   8.334  10.986  1.00  0.00     0.062 A 
ATOM     17  C   UNL     1      -8.634   6.324  10.365  1.00  0.00     0.200 A 
ATOM     18  C   UNL     1      -8.568   7.724  10.484  1.00  0.00     0.162 A 
BRANCH  15  19
ATOM     19  O   UNL     1      -7.493   4.149  10.625  1.00  0.00    -0.504 OA
ATOM     20  H   UNL     1      -8.301   3.555  10.750  1.00  0.00     0.293 HD
ENDBRANCH  15  19
BRANCH  17  21
ATOM     21  O   UNL     1      -9.812   5.752   9.875  1.00  0.00    -0.502 OA
ATOM     22  H   UNL     1      -9.922   5.399   8.936  1.00  0.00     0.293 HD
ENDBRANCH  17  21
BRANCH  18  23
ATOM     23  O   UNL     1      -9.647   8.529  10.118  1.00  0.00    -0.504 OA
ATOM     24  H   UNL     1      -9.772   8.874   9.172  1.00  0.00     0.293 HD
ENDBRANCH  18  23
ENDBRANCH   3  13
BRANCH  10  25
ATOM     25  O   UNL     1      -1.114  10.276  14.524  1.00  0.00    -0.507 OA
ATOM     26  H   UNL     1      -1.197   9.565  15.235  1.00  0.00     0.293 HD
ENDBRANCH  10  25
BRANCH  11  27
ATOM     27  O   UNL     1      -0.307  11.125   9.888  1.00  0.00    -0.508 OA
ATOM     28  H   UNL     1      -0.486  10.985   8.901  1.00  0.00     0.293 HD
ENDBRANCH  11  27
ENDBRANCH   1   2
BRANCH   1  29
ATOM     29  C   UNL     1      -5.912   6.690  14.989  1.00  0.00     0.339 C 
ATOM     30  C   UNL     1      -6.393   7.033  16.419  1.00  0.00     0.214 C 
ATOM     31  O   UNL     1      -4.585   6.203  15.032  1.00  0.00    -0.332 OA
ATOM     32  C   UNL     1      -5.601   6.251  17.498  1.00  0.00     0.180 C 
ATOM     33  C   UNL     1      -4.565   4.895  15.576  1.00  0.00     0.179 C 
ATOM     34  C   UNL     1      -5.185   4.845  17.013  1.00  0.00     0.177 C 
BRANCH  30  35
ATOM     35  O   UNL     1      -7.781   6.840  16.539  1.00  0.00    -0.384 OA
ATOM     36  H   UNL     1      -7.932   6.147  17.232  1.00  0.00     0.211 HD
ENDBRANCH  30  35
BRANCH  32  37
ATOM     37  O   UNL     1      -6.349   6.166  18.683  1.00  0.00    -0.387 OA
ATOM     38  H   UNL     1      -5.867   5.540  19.284  1.00  0.00     0.211 HD
ENDBRANCH  32  37
BRANCH  33  39
ATOM     39  C   UNL     1      -3.114   4.402  15.568  1.00  0.00     0.191 C 
BRANCH  39  40
ATOM     40  O   UNL     1      -2.830   3.735  14.369  1.00  0.00    -0.394 OA
ATOM     41  H   UNL     1      -3.639   3.835  13.803  1.00  0.00     0.210 HD
ENDBRANCH  39  40
ENDBRANCH  33  39
BRANCH  34  42
ATOM     42  O   UNL     1      -6.302   3.992  17.021  1.00  0.00    -0.387 OA
ATOM     43  H   UNL     1      -7.070   4.527  16.688  1.00  0.00     0.211 HD
ENDBRANCH  34  42
ENDBRANCH   1  29
TORSDOF 13
ENDMDL
MODEL 7
REMARK VINA RESULT:    -5.697      1.934      6.790
REMARK INTER + INTRA:          -9.884
REMARK INTER:                  -9.238
REMARK INTRA:                  -0.646
REMARK UNBOUND:                -1.357
REMARK SMILES O=c1c(O[C@H]2O[C@@H](CO)[C@H](O)[C@H](O)[C@@H]2O)c(-c2cc(O)c(O)c(O)c2)oc2cc(O)cc(O)c12
REMARK SMILES IDX 4 1 3 2 16 3 26 4 2 5 27 6 1 7 34 8 28 9 32 10 29 11 31 12
REMARK SMILES IDX 17 13 18 14 19 15 25 16 21 17 23 18 20 19 22 21 24 23 33 25
REMARK SMILES IDX 30 27 5 29 14 30 6 31 12 32 7 33 10 34 15 35 13 37 8 39 9 40
REMARK SMILES IDX 11 42
REMARK H PARENT 20 20 22 22 24 24 33 26 30 28 15 36 13 38 9 41 11 43
REMARK Flexibility Score: inf
ROOT
ATOM      1  O   UNL     1      -4.465   6.551  13.560  1.00  0.00    -0.454 OA
ENDROOT
BRANCH   1   2
ATOM      2  C   UNL     1      -5.453   7.349  12.949  1.00  0.00     0.214 A 
ATOM      3  C   UNL     1      -5.121   8.682  12.644  1.00  0.00     0.181 A 
ATOM      4  O   UNL     1      -5.991   9.460  12.012  1.00  0.00    -0.452 OA
ATOM      5  C   UNL     1      -6.743   6.884  12.600  1.00  0.00     0.239 A 
ATOM      6  C   UNL     1      -7.210   9.068  11.670  1.00  0.00     0.146 A 
ATOM      7  O   UNL     1      -7.044   5.679  12.799  1.00  0.00    -0.285 OA
ATOM      8  C   UNL     1      -7.669   7.765  11.986  1.00  0.00     0.111 A 
ATOM      9  C   UNL     1      -8.028   9.966  10.982  1.00  0.00     0.094 A 
ATOM     10  C   UNL     1      -9.009   7.414  11.631  1.00  0.00     0.134 A 
ATOM     11  C   UNL     1      -9.312   9.589  10.585  1.00  0.00     0.123 A 
ATOM     12  C   UNL     1      -9.793   8.322  10.909  1.00  0.00     0.093 A 
BRANCH   3  13
ATOM     13  C   UNL     1      -3.790   9.246  12.965  1.00  0.00     0.029 A 
ATOM     14  C   UNL     1      -3.558   9.935  14.167  1.00  0.00     0.062 A 
ATOM     15  C   UNL     1      -2.291  10.446  14.469  1.00  0.00     0.162 A 
ATOM     16  C   UNL     1      -2.745   9.110  12.044  1.00  0.00     0.062 A 
ATOM     17  C   UNL     1      -1.228  10.269  13.549  1.00  0.00     0.200 A 
ATOM     18  C   UNL     1      -1.470   9.604  12.334  1.00  0.00     0.162 A 
BRANCH  15  19
ATOM     19  O   UNL     1      -2.137  11.125  15.680  1.00  0.00    -0.504 OA
ATOM     20  H   UNL     1      -2.430  10.760  16.576  1.00  0.00     0.293 HD
ENDBRANCH  15  19
BRANCH  17  21
ATOM     21  O   UNL     1       0.066  10.731  13.810  1.00  0.00    -0.502 OA
ATOM     22  H   UNL     1       0.867  10.130  13.932  1.00  0.00     0.293 HD
ENDBRANCH  17  21
BRANCH  18  23
ATOM     23  O   UNL     1      -0.449   9.411  11.403  1.00  0.00    -0.504 OA
ATOM     24  H   UNL     1      -0.063   8.495  11.201  1.00  0.00     0.293 HD
ENDBRANCH  18  23
ENDBRANCH   3  13
BRANCH  10  25
ATOM     25  O   UNL     1      -9.625   6.209  11.983  1.00  0.00    -0.507 OA
ATOM     26  H   UNL     1      -9.145   5.388  12.319  1.00  0.00     0.293 HD
ENDBRANCH  10  25
BRANCH  11  27
ATOM     27  O   UNL     1     -10.124  10.472   9.875  1.00  0.00    -0.508 OA
ATOM     28  H   UNL     1      -9.806  10.915   9.022  1.00  0.00     0.293 HD
ENDBRANCH  11  27
ENDBRANCH   1   2
BRANCH   1  29
ATOM     29  C   UNL     1      -4.651   5.522  14.532  1.00  0.00     0.339 C 
ATOM     30  C   UNL     1      -5.461   6.104  15.714  1.00  0.00     0.214 C 
ATOM     31  O   UNL     1      -3.387   5.080  14.987  1.00  0.00    -0.332 OA
ATOM     32  C   UNL     1      -4.978   5.544  17.076  1.00  0.00     0.180 C 
ATOM     33  C   UNL     1      -3.532   3.890  15.742  1.00  0.00     0.179 C 
ATOM     34  C   UNL     1      -4.488   4.083  16.967  1.00  0.00     0.177 C 
BRANCH  30  35
ATOM     35  O   UNL     1      -6.840   5.904  15.520  1.00  0.00    -0.384 OA
ATOM     36  H   UNL     1      -7.183   6.660  14.977  1.00  0.00     0.211 HD
ENDBRANCH  30  35
BRANCH  32  37
ATOM     37  O   UNL     1      -5.997   5.655  18.037  1.00  0.00    -0.387 OA
ATOM     38  H   UNL     1      -5.794   4.997  18.750  1.00  0.00     0.211 HD
ENDBRANCH  32  37
BRANCH  33  39
ATOM     39  C   UNL     1      -2.135   3.435  16.181  1.00  0.00     0.191 C 
BRANCH  39  40
ATOM     40  O   UNL     1      -1.152   4.050  15.395  1.00  0.00    -0.394 OA
ATOM     41  H   UNL     1      -1.351   5.022  15.420  1.00  0.00     0.210 HD
ENDBRANCH  39  40
ENDBRANCH  33  39
BRANCH  34  42
ATOM     42  O   UNL     1      -5.592   3.222  16.852  1.00  0.00    -0.387 OA
ATOM     43  H   UNL     1      -6.355   3.677  17.295  1.00  0.00     0.211 HD
ENDBRANCH  34  42
ENDBRANCH   1  29
TORSDOF 13
ENDMDL
MODEL 8
REMARK VINA RESULT:    -5.673     12.270     17.062
REMARK INTER + INTRA:          -9.849
REMARK INTER:                  -8.355
REMARK INTRA:                  -1.495
REMARK UNBOUND:                -1.357
REMARK SMILES O=c1c(O[C@H]2O[C@@H](CO)[C@H](O)[C@H](O)[C@@H]2O)c(-c2cc(O)c(O)c(O)c2)oc2cc(O)cc(O)c12
REMARK SMILES IDX 4 1 3 2 16 3 26 4 2 5 27 6 1 7 34 8 28 9 32 10 29 11 31 12
REMARK SMILES IDX 17 13 18 14 19 15 25 16 21 17 23 18 20 19 22 21 24 23 33 25
REMARK SMILES IDX 30 27 5 29 14 30 6 31 12 32 7 33 10 34 15 35 13 37 8 39 9 40
REMARK SMILES IDX 11 42
REMARK H PARENT 20 20 22 22 24 24 33 26 30 28 15 36 13 38 9 41 11 43
REMARK Flexibility Score: inf
ROOT
ATOM      1  O   UNL     1      -7.299  -7.510  23.032  1.00  0.00    -0.454 OA
ENDROOT
BRANCH   1   2
ATOM      2  C   UNL     1      -7.071  -6.385  22.214  1.00  0.00     0.214 A 
ATOM      3  C   UNL     1      -5.875  -5.670  22.402  1.00  0.00     0.181 A 
ATOM      4  O   UNL     1      -5.580  -4.641  21.617  1.00  0.00    -0.452 OA
ATOM      5  C   UNL     1      -7.958  -5.952  21.199  1.00  0.00     0.239 A 
ATOM      6  C   UNL     1      -6.382  -4.198  20.659  1.00  0.00     0.146 A 
ATOM      7  O   UNL     1      -9.002  -6.611  20.964  1.00  0.00    -0.285 OA
ATOM      8  C   UNL     1      -7.640  -4.807  20.426  1.00  0.00     0.111 A 
ATOM      9  C   UNL     1      -5.952  -3.124  19.878  1.00  0.00     0.094 A 
ATOM     10  C   UNL     1      -8.480  -4.257  19.407  1.00  0.00     0.134 A 
ATOM     11  C   UNL     1      -6.755  -2.637  18.845  1.00  0.00     0.123 A 
ATOM     12  C   UNL     1      -8.006  -3.203  18.616  1.00  0.00     0.093 A 
BRANCH   3  13
ATOM     13  C   UNL     1      -4.887  -6.062  23.433  1.00  0.00     0.029 A 
ATOM     14  C   UNL     1      -4.768  -5.352  24.639  1.00  0.00     0.062 A 
ATOM     15  C   UNL     1      -3.844  -5.744  25.615  1.00  0.00     0.162 A 
ATOM     16  C   UNL     1      -4.039  -7.151  23.196  1.00  0.00     0.062 A 
ATOM     17  C   UNL     1      -3.018  -6.871  25.384  1.00  0.00     0.200 A 
ATOM     18  C   UNL     1      -3.120  -7.563  24.164  1.00  0.00     0.162 A 
BRANCH  15  19
ATOM     19  O   UNL     1      -3.778  -4.986  26.787  1.00  0.00    -0.504 OA
ATOM     20  H   UNL     1      -4.049  -4.015  26.850  1.00  0.00     0.293 HD
ENDBRANCH  15  19
BRANCH  17  21
ATOM     21  O   UNL     1      -2.099  -7.327  26.334  1.00  0.00    -0.502 OA
ATOM     22  H   UNL     1      -1.275  -6.817  26.616  1.00  0.00     0.293 HD
ENDBRANCH  17  21
BRANCH  18  23
ATOM     23  O   UNL     1      -2.322  -8.676  23.899  1.00  0.00    -0.504 OA
ATOM     24  H   UNL     1      -1.573  -8.658  23.214  1.00  0.00     0.293 HD
ENDBRANCH  18  23
ENDBRANCH   3  13
BRANCH  10  25
ATOM     25  O   UNL     1      -9.786  -4.685  19.151  1.00  0.00    -0.507 OA
ATOM     26  H   UNL     1     -10.040  -5.424  18.512  1.00  0.00     0.293 HD
ENDBRANCH  10  25
BRANCH  11  27
ATOM     27  O   UNL     1      -6.321  -1.582  18.045  1.00  0.00    -0.508 OA
ATOM     28  H   UNL     1      -6.825  -0.704  18.005  1.00  0.00     0.293 HD
ENDBRANCH  11  27
ENDBRANCH   1   2
BRANCH   1  29
ATOM     29  C   UNL     1      -8.024  -7.566  24.260  1.00  0.00     0.339 C 
ATOM     30  C   UNL     1      -8.579  -6.155  24.566  1.00  0.00     0.214 C 
ATOM     31  O   UNL     1      -7.152  -7.974  25.296  1.00  0.00    -0.332 OA
ATOM     32  C   UNL     1      -8.534  -5.832  26.082  1.00  0.00     0.180 C 
ATOM     33  C   UNL     1      -7.896  -8.293  26.459  1.00  0.00     0.179 C 
ATOM     34  C   UNL     1      -8.763  -7.087  26.953  1.00  0.00     0.177 C 
BRANCH  30  35
ATOM     35  O   UNL     1      -9.871  -6.000  24.032  1.00  0.00    -0.384 OA
ATOM     36  H   UNL     1     -10.498  -6.523  24.596  1.00  0.00     0.211 HD
ENDBRANCH  30  35
BRANCH  32  37
ATOM     37  O   UNL     1      -9.470  -4.833  26.394  1.00  0.00    -0.387 OA
ATOM     38  H   UNL     1      -9.651  -4.336  25.555  1.00  0.00     0.211 HD
ENDBRANCH  32  37
BRANCH  33  39
ATOM     39  C   UNL     1      -6.911  -8.761  27.536  1.00  0.00     0.191 C 
BRANCH  39  40
ATOM     40  O   UNL     1      -5.635  -8.236  27.293  1.00  0.00    -0.394 OA
ATOM     41  H   UNL     1      -5.079  -8.998  26.986  1.00  0.00     0.210 HD
ENDBRANCH  39  40
ENDBRANCH  33  39
BRANCH  34  42
ATOM     42  O   UNL     1     -10.124  -7.435  26.931  1.00  0.00    -0.387 OA
ATOM     43  H   UNL     1     -10.165  -8.424  27.017  1.00  0.00     0.211 HD
ENDBRANCH  34  42
ENDBRANCH   1  29
TORSDOF 13
ENDMDL
