MODEL 1
REMARK VINA RESULT:    -4.601      0.000      0.000
REMARK INTER + INTRA:          -8.684
REMARK INTER:                  -7.964
REMARK INTRA:                  -0.720
REMARK UNBOUND:                -0.720
REMARK SMILES CCCCCCCCCCCCCCO
REMARK SMILES IDX 8 1 7 2 6 3 5 4 4 5 3 6 2 7 1 8 9 9 10 10 11 11 12 12 13 13
REMARK SMILES IDX 14 14 15 15
REMARK H PARENT 15 16
REMARK Flexibility Score: inf
ROOT
ATOM      1  C   UNL     1      -3.304 -12.619  20.127  1.00  0.00     0.000 C 
ENDROOT
BRANCH   1   2
ATOM      2  C   UNL     1      -2.550 -13.916  20.467  1.00  0.00    -0.000 C 
BRANCH   2   3
ATOM      3  C   UNL     1      -2.041 -14.647  19.213  1.00  0.00    -0.000 C 
BRANCH   3   4
ATOM      4  C   UNL     1      -1.459 -16.034  19.537  1.00  0.00    -0.000 C 
BRANCH   4   5
ATOM      5  C   UNL     1      -2.102 -16.675  20.781  1.00  0.00    -0.000 C 
BRANCH   5   6
ATOM      6  C   UNL     1      -3.378 -17.495  20.511  1.00  0.00    -0.000 C 
BRANCH   6   7
ATOM      7  C   UNL     1      -3.599 -18.687  21.459  1.00  0.00    -0.003 C 
ATOM      8  C   UNL     1      -4.714 -19.622  20.991  1.00  0.00     0.004 C 
ENDBRANCH   6   7
ENDBRANCH   5   6
ENDBRANCH   4   5
ENDBRANCH   3   4
ENDBRANCH   2   3
ENDBRANCH   1   2
BRANCH   1   9
ATOM      9  C   UNL     1      -3.040 -11.499  21.147  1.00  0.00     0.000 C 
BRANCH   9  10
ATOM     10  C   UNL     1      -1.575 -11.457  21.617  1.00  0.00     0.000 C 
BRANCH  10  11
ATOM     11  C   UNL     1      -0.717 -10.489  20.788  1.00  0.00     0.000 C 
BRANCH  11  12
ATOM     12  C   UNL     1       0.783 -10.806  20.876  1.00  0.00     0.002 C 
BRANCH  12  13
ATOM     13  C   UNL     1       1.332 -11.244  19.511  1.00  0.00     0.028 C 
BRANCH  13  14
ATOM     14  C   UNL     1       0.924 -12.682  19.170  1.00  0.00     0.156 C 
BRANCH  14  15
ATOM     15  O   UNL     1       2.047 -13.522  19.118  1.00  0.00    -0.396 OA
ATOM     16  H   UNL     1       2.101 -13.978  19.998  1.00  0.00     0.210 HD
ENDBRANCH  14  15
ENDBRANCH  13  14
ENDBRANCH  12  13
ENDBRANCH  11  12
ENDBRANCH  10  11
ENDBRANCH   9  10
ENDBRANCH   1   9
TORSDOF 13
ENDMDL
MODEL 2
REMARK VINA RESULT:    -4.368      3.364      4.543
REMARK INTER + INTRA:          -8.279
REMARK INTER:                  -7.589
REMARK INTRA:                  -0.690
REMARK UNBOUND:                -0.720
REMARK SMILES CCCCCCCCCCCCCCO
REMARK SMILES IDX 8 1 7 2 6 3 5 4 4 5 3 6 2 7 1 8 9 9 10 10 11 11 12 12 13 13
REMARK SMILES IDX 14 14 15 15
REMARK H PARENT 15 16
REMARK Flexibility Score: inf
ROOT
ATOM      1  C   UNL     1      -2.463 -13.776  19.827  1.00  0.00     0.000 C 
ENDROOT
BRANCH   1   2
ATOM      2  C   UNL     1      -1.122 -14.457  19.503  1.00  0.00    -0.000 C 
BRANCH   2   3
ATOM      3  C   UNL     1      -1.150 -15.970  19.776  1.00  0.00    -0.000 C 
BRANCH   3   4
ATOM      4  C   UNL     1      -2.576 -16.547  19.748  1.00  0.00    -0.000 C 
BRANCH   4   5
ATOM      5  C   UNL     1      -2.848 -17.521  20.909  1.00  0.00    -0.000 C 
BRANCH   5   6
ATOM      6  C   UNL     1      -4.068 -18.445  20.720  1.00  0.00    -0.000 C 
BRANCH   6   7
ATOM      7  C   UNL     1      -4.334 -19.419  21.881  1.00  0.00    -0.003 C 
ATOM      8  C   UNL     1      -3.206 -19.438  22.912  1.00  0.00     0.004 C 
ENDBRANCH   6   7
ENDBRANCH   5   6
ENDBRANCH   4   5
ENDBRANCH   3   4
ENDBRANCH   2   3
ENDBRANCH   1   2
BRANCH   1   9
ATOM      9  C   UNL     1      -2.346 -12.757  20.973  1.00  0.00     0.000 C 
BRANCH   9  10
ATOM     10  C   UNL     1      -3.181 -13.150  22.205  1.00  0.00     0.000 C 
BRANCH  10  11
ATOM     11  C   UNL     1      -4.193 -12.064  22.602  1.00  0.00     0.000 C 
BRANCH  11  12
ATOM     12  C   UNL     1      -4.497 -11.091  21.454  1.00  0.00     0.002 C 
BRANCH  12  13
ATOM     13  C   UNL     1      -5.258  -9.860  21.965  1.00  0.00     0.028 C 
BRANCH  13  14
ATOM     14  C   UNL     1      -6.702  -9.831  21.453  1.00  0.00     0.156 C 
BRANCH  14  15
ATOM     15  O   UNL     1      -7.576 -10.411  22.385  1.00  0.00    -0.396 OA
ATOM     16  H   UNL     1      -8.449  -9.951  22.279  1.00  0.00     0.210 HD
ENDBRANCH  14  15
ENDBRANCH  13  14
ENDBRANCH  12  13
ENDBRANCH  11  12
ENDBRANCH  10  11
ENDBRANCH   9  10
ENDBRANCH   1   9
TORSDOF 13
ENDMDL
MODEL 3
REMARK VINA RESULT:    -4.330      3.260      7.180
REMARK INTER + INTRA:          -8.213
REMARK INTER:                  -7.407
REMARK INTRA:                  -0.806
REMARK UNBOUND:                -0.720
REMARK SMILES CCCCCCCCCCCCCCO
REMARK SMILES IDX 8 1 7 2 6 3 5 4 4 5 3 6 2 7 1 8 9 9 10 10 11 11 12 12 13 13
REMARK SMILES IDX 14 14 15 15
REMARK H PARENT 15 16
REMARK Flexibility Score: inf
ROOT
ATOM      1  C   UNL     1      -1.920 -13.884  19.986  1.00  0.00     0.000 C 
ENDROOT
BRANCH   1   2
ATOM      2  C   UNL     1      -3.145 -13.356  20.752  1.00  0.00    -0.000 C 
BRANCH   2   3
ATOM      3  C   UNL     1      -2.757 -12.430  21.917  1.00  0.00    -0.000 C 
BRANCH   3   4
ATOM      4  C   UNL     1      -2.549 -10.973  21.465  1.00  0.00    -0.000 C 
BRANCH   4   5
ATOM      5  C   UNL     1      -3.483  -9.986  22.190  1.00  0.00    -0.000 C 
BRANCH   5   6
ATOM      6  C   UNL     1      -4.600  -9.378  21.319  1.00  0.00    -0.000 C 
BRANCH   6   7
ATOM      7  C   UNL     1      -5.829 -10.279  21.113  1.00  0.00    -0.003 C 
ATOM      8  C   UNL     1      -5.858 -10.941  19.735  1.00  0.00     0.004 C 
ENDBRANCH   6   7
ENDBRANCH   5   6
ENDBRANCH   4   5
ENDBRANCH   3   4
ENDBRANCH   2   3
ENDBRANCH   1   2
BRANCH   1   9
ATOM      9  C   UNL     1      -2.145 -15.293  19.412  1.00  0.00     0.000 C 
BRANCH   9  10
ATOM     10  C   UNL     1      -1.957 -16.400  20.464  1.00  0.00     0.000 C 
BRANCH  10  11
ATOM     11  C   UNL     1      -3.147 -17.372  20.519  1.00  0.00     0.000 C 
BRANCH  11  12
ATOM     12  C   UNL     1      -3.485 -17.811  21.951  1.00  0.00     0.002 C 
BRANCH  12  13
ATOM     13  C   UNL     1      -4.167 -19.186  21.956  1.00  0.00     0.028 C 
BRANCH  13  14
ATOM     14  C   UNL     1      -4.551 -19.634  20.541  1.00  0.00     0.156 C 
BRANCH  14  15
ATOM     15  O   UNL     1      -5.737 -20.382  20.557  1.00  0.00    -0.396 OA
ATOM     16  H   UNL     1      -6.037 -20.419  21.503  1.00  0.00     0.210 HD
ENDBRANCH  14  15
ENDBRANCH  13  14
ENDBRANCH  12  13
ENDBRANCH  11  12
ENDBRANCH  10  11
ENDBRANCH   9  10
ENDBRANCH   1   9
TORSDOF 13
ENDMDL
MODEL 4
REMARK VINA RESULT:    -4.320      2.554      6.618
REMARK INTER + INTRA:          -8.197
REMARK INTER:                  -7.121
REMARK INTRA:                  -1.075
REMARK UNBOUND:                -0.720
REMARK SMILES CCCCCCCCCCCCCCO
REMARK SMILES IDX 8 1 7 2 6 3 5 4 4 5 3 6 2 7 1 8 9 9 10 10 11 11 12 12 13 13
REMARK SMILES IDX 14 14 15 15
REMARK H PARENT 15 16
REMARK Flexibility Score: inf
ROOT
ATOM      1  C   UNL     1      -3.393 -13.039  20.189  1.00  0.00     0.000 C 
ENDROOT
BRANCH   1   2
ATOM      2  C   UNL     1      -3.640 -12.027  21.321  1.00  0.00    -0.000 C 
BRANCH   2   3
ATOM      3  C   UNL     1      -3.278 -10.589  20.914  1.00  0.00    -0.000 C 
BRANCH   3   4
ATOM      4  C   UNL     1      -2.017 -10.075  21.630  1.00  0.00    -0.000 C 
BRANCH   4   5
ATOM      5  C   UNL     1      -0.777 -10.060  20.715  1.00  0.00    -0.000 C 
BRANCH   5   6
ATOM      6  C   UNL     1       0.104 -11.324  20.784  1.00  0.00    -0.000 C 
BRANCH   6   7
ATOM      7  C   UNL     1       0.999 -11.562  19.556  1.00  0.00    -0.003 C 
ATOM      8  C   UNL     1       1.262 -13.043  19.289  1.00  0.00     0.004 C 
ENDBRANCH   6   7
ENDBRANCH   5   6
ENDBRANCH   4   5
ENDBRANCH   3   4
ENDBRANCH   2   3
ENDBRANCH   1   2
BRANCH   1   9
ATOM      9  C   UNL     1      -2.381 -14.129  20.582  1.00  0.00     0.000 C 
BRANCH   9  10
ATOM     10  C   UNL     1      -1.923 -14.975  19.381  1.00  0.00     0.000 C 
BRANCH  10  11
ATOM     11  C   UNL     1      -1.622 -16.432  19.765  1.00  0.00     0.000 C 
BRANCH  11  12
ATOM     12  C   UNL     1      -2.430 -16.900  20.985  1.00  0.00     0.002 C 
BRANCH  12  13
ATOM     13  C   UNL     1      -3.539 -17.874  20.566  1.00  0.00     0.028 C 
BRANCH  13  14
ATOM     14  C   UNL     1      -3.922 -18.824  21.706  1.00  0.00     0.156 C 
BRANCH  14  15
ATOM     15  O   UNL     1      -4.718 -19.878  21.234  1.00  0.00    -0.396 OA
ATOM     16  H   UNL     1      -5.105 -20.322  22.033  1.00  0.00     0.210 HD
ENDBRANCH  14  15
ENDBRANCH  13  14
ENDBRANCH  12  13
ENDBRANCH  11  12
ENDBRANCH  10  11
ENDBRANCH   9  10
ENDBRANCH   1   9
TORSDOF 13
ENDMDL
MODEL 5
REMARK VINA RESULT:    -4.282      1.512      3.046
REMARK INTER + INTRA:          -8.130
REMARK INTER:                  -7.002
REMARK INTRA:                  -1.128
REMARK UNBOUND:                -0.720
REMARK SMILES CCCCCCCCCCCCCCO
REMARK SMILES IDX 8 1 7 2 6 3 5 4 4 5 3 6 2 7 1 8 9 9 10 10 11 11 12 12 13 13
REMARK SMILES IDX 14 14 15 15
REMARK H PARENT 15 16
REMARK Flexibility Score: inf
ROOT
ATOM      1  C   UNL     1      -2.057 -10.047  20.878  1.00  0.00     0.000 C 
ENDROOT
BRANCH   1   2
ATOM      2  C   UNL     1      -3.534 -10.226  21.271  1.00  0.00    -0.000 C 
BRANCH   2   3
ATOM      3  C   UNL     1      -3.926 -11.705  21.430  1.00  0.00    -0.000 C 
BRANCH   3   4
ATOM      4  C   UNL     1      -3.533 -12.553  20.207  1.00  0.00    -0.000 C 
BRANCH   4   5
ATOM      5  C   UNL     1      -2.687 -13.784  20.582  1.00  0.00    -0.000 C 
BRANCH   5   6
ATOM      6  C   UNL     1      -1.985 -14.483  19.400  1.00  0.00    -0.000 C 
BRANCH   6   7
ATOM      7  C   UNL     1      -1.279 -15.804  19.751  1.00  0.00    -0.003 C 
ATOM      8  C   UNL     1      -2.230 -16.854  20.323  1.00  0.00     0.004 C 
ENDBRANCH   6   7
ENDBRANCH   5   6
ENDBRANCH   4   5
ENDBRANCH   3   4
ENDBRANCH   2   3
ENDBRANCH   1   2
BRANCH   1   9
ATOM      9  C   UNL     1      -1.100 -10.300  22.055  1.00  0.00     0.000 C 
BRANCH   9  10
ATOM     10  C   UNL     1       0.278 -10.813  21.599  1.00  0.00     0.000 C 
BRANCH  10  11
ATOM     11  C   UNL     1       0.196 -11.681  20.334  1.00  0.00     0.000 C 
BRANCH  11  12
ATOM     12  C   UNL     1       1.574 -11.949  19.711  1.00  0.00     0.002 C 
BRANCH  12  13
ATOM     13  C   UNL     1       1.651 -11.385  18.286  1.00  0.00     0.028 C 
BRANCH  13  14
ATOM     14  C   UNL     1       3.043 -11.576  17.674  1.00  0.00     0.156 C 
BRANCH  14  15
ATOM     15  O   UNL     1       3.480 -12.900  17.827  1.00  0.00    -0.396 OA
ATOM     16  H   UNL     1       4.228 -13.028  17.187  1.00  0.00     0.210 HD
ENDBRANCH  14  15
ENDBRANCH  13  14
ENDBRANCH  12  13
ENDBRANCH  11  12
ENDBRANCH  10  11
ENDBRANCH   9  10
ENDBRANCH   1   9
TORSDOF 13
ENDMDL
MODEL 6
REMARK VINA RESULT:    -4.270      1.338      2.640
REMARK INTER + INTRA:          -8.110
REMARK INTER:                  -6.706
REMARK INTRA:                  -1.405
REMARK UNBOUND:                -0.720
REMARK SMILES CCCCCCCCCCCCCCO
REMARK SMILES IDX 8 1 7 2 6 3 5 4 4 5 3 6 2 7 1 8 9 9 10 10 11 11 12 12 13 13
REMARK SMILES IDX 14 14 15 15
REMARK H PARENT 15 16
REMARK Flexibility Score: inf
ROOT
ATOM      1  C   UNL     1      -2.478 -10.412  22.446  1.00  0.00     0.000 C 
ENDROOT
BRANCH   1   2
ATOM      2  C   UNL     1      -3.673 -11.353  22.216  1.00  0.00    -0.000 C 
BRANCH   2   3
ATOM      3  C   UNL     1      -3.237 -12.805  21.955  1.00  0.00    -0.000 C 
BRANCH   3   4
ATOM      4  C   UNL     1      -3.089 -13.114  20.455  1.00  0.00    -0.000 C 
BRANCH   4   5
ATOM      5  C   UNL     1      -1.723 -13.733  20.105  1.00  0.00    -0.000 C 
BRANCH   5   6
ATOM      6  C   UNL     1      -1.777 -14.961  19.175  1.00  0.00    -0.000 C 
BRANCH   6   7
ATOM      7  C   UNL     1      -1.360 -16.291  19.827  1.00  0.00    -0.003 C 
ATOM      8  C   UNL     1      -2.520 -17.003  20.522  1.00  0.00     0.004 C 
ENDBRANCH   6   7
ENDBRANCH   5   6
ENDBRANCH   4   5
ENDBRANCH   3   4
ENDBRANCH   2   3
ENDBRANCH   1   2
BRANCH   1   9
ATOM      9  C   UNL     1      -2.176  -9.531  21.222  1.00  0.00     0.000 C 
BRANCH   9  10
ATOM     10  C   UNL     1      -0.750  -9.736  20.681  1.00  0.00     0.000 C 
BRANCH  10  11
ATOM     11  C   UNL     1       0.119 -10.592  21.615  1.00  0.00     0.000 C 
BRANCH  11  12
ATOM     12  C   UNL     1       1.113 -11.478  20.850  1.00  0.00     0.002 C 
BRANCH  12  13
ATOM     13  C   UNL     1       1.045 -11.201  19.342  1.00  0.00     0.028 C 
BRANCH  13  14
ATOM     14  C   UNL     1       1.964 -12.138  18.550  1.00  0.00     0.156 C 
BRANCH  14  15
ATOM     15  O   UNL     1       2.022 -13.406  19.147  1.00  0.00    -0.396 OA
ATOM     16  H   UNL     1       2.969 -13.698  19.102  1.00  0.00     0.210 HD
ENDBRANCH  14  15
ENDBRANCH  13  14
ENDBRANCH  12  13
ENDBRANCH  11  12
ENDBRANCH  10  11
ENDBRANCH   9  10
ENDBRANCH   1   9
TORSDOF 13
ENDMDL
MODEL 7
REMARK VINA RESULT:    -4.207      2.056      5.736
REMARK INTER + INTRA:          -8.001
REMARK INTER:                  -6.626
REMARK INTRA:                  -1.375
REMARK UNBOUND:                -0.720
REMARK SMILES CCCCCCCCCCCCCCO
REMARK SMILES IDX 8 1 7 2 6 3 5 4 4 5 3 6 2 7 1 8 9 9 10 10 11 11 12 12 13 13
REMARK SMILES IDX 14 14 15 15
REMARK H PARENT 15 16
REMARK Flexibility Score: inf
ROOT
ATOM      1  C   UNL     1      -3.870 -11.422  20.594  1.00  0.00     0.000 C 
ENDROOT
BRANCH   1   2
ATOM      2  C   UNL     1      -3.952  -9.952  21.041  1.00  0.00    -0.000 C 
BRANCH   2   3
ATOM      3  C   UNL     1      -2.676  -9.484  21.761  1.00  0.00    -0.000 C 
BRANCH   3   4
ATOM      4  C   UNL     1      -1.426  -9.584  20.869  1.00  0.00    -0.000 C 
BRANCH   4   5
ATOM      5  C   UNL     1      -0.136  -9.820  21.675  1.00  0.00    -0.000 C 
BRANCH   5   6
ATOM      6  C   UNL     1       0.751 -10.975  21.171  1.00  0.00    -0.000 C 
BRANCH   6   7
ATOM      7  C   UNL     1       0.762 -11.170  19.644  1.00  0.00    -0.003 C 
ATOM      8  C   UNL     1       1.622 -12.353  19.201  1.00  0.00     0.004 C 
ENDBRANCH   6   7
ENDBRANCH   5   6
ENDBRANCH   4   5
ENDBRANCH   3   4
ENDBRANCH   2   3
ENDBRANCH   1   2
BRANCH   1   9
ATOM      9  C   UNL     1      -3.612 -12.382  21.767  1.00  0.00     0.000 C 
BRANCH   9  10
ATOM     10  C   UNL     1      -2.742 -13.587  21.368  1.00  0.00     0.000 C 
BRANCH  10  11
ATOM     11  C   UNL     1      -1.862 -13.300  20.142  1.00  0.00     0.000 C 
BRANCH  11  12
ATOM     12  C   UNL     1      -1.972 -14.392  19.067  1.00  0.00     0.002 C 
BRANCH  12  13
ATOM     13  C   UNL     1      -2.460 -15.712  19.677  1.00  0.00     0.028 C 
BRANCH  13  14
ATOM     14  C   UNL     1      -1.309 -16.702  19.887  1.00  0.00     0.156 C 
BRANCH  14  15
ATOM     15  O   UNL     1      -0.205 -16.362  19.090  1.00  0.00    -0.396 OA
ATOM     16  H   UNL     1      -0.200 -15.373  19.018  1.00  0.00     0.210 HD
ENDBRANCH  14  15
ENDBRANCH  13  14
ENDBRANCH  12  13
ENDBRANCH  11  12
ENDBRANCH  10  11
ENDBRANCH   9  10
ENDBRANCH   1   9
TORSDOF 13
ENDMDL
MODEL 8
REMARK VINA RESULT:    -4.183      2.126      4.238
REMARK INTER + INTRA:          -7.959
REMARK INTER:                  -6.770
REMARK INTRA:                  -1.189
REMARK UNBOUND:                -0.720
REMARK SMILES CCCCCCCCCCCCCCO
REMARK SMILES IDX 8 1 7 2 6 3 5 4 4 5 3 6 2 7 1 8 9 9 10 10 11 11 12 12 13 13
REMARK SMILES IDX 14 14 15 15
REMARK H PARENT 15 16
REMARK Flexibility Score: inf
ROOT
ATOM      1  C   UNL     1       0.219 -10.266  21.531  1.00  0.00     0.000 C 
ENDROOT
BRANCH   1   2
ATOM      2  C   UNL     1      -0.875  -9.928  20.503  1.00  0.00    -0.000 C 
BRANCH   2   3
ATOM      3  C   UNL     1      -2.260 -10.446  20.926  1.00  0.00    -0.000 C 
BRANCH   3   4
ATOM      4  C   UNL     1      -2.174 -11.546  21.998  1.00  0.00    -0.000 C 
BRANCH   4   5
ATOM      5  C   UNL     1      -3.081 -12.752  21.687  1.00  0.00    -0.000 C 
BRANCH   5   6
ATOM      6  C   UNL     1      -3.159 -13.149  20.199  1.00  0.00    -0.000 C 
BRANCH   6   7
ATOM      7  C   UNL     1      -2.083 -14.145  19.733  1.00  0.00    -0.003 C 
ATOM      8  C   UNL     1      -2.139 -15.475  20.482  1.00  0.00     0.004 C 
ENDBRANCH   6   7
ENDBRANCH   5   6
ENDBRANCH   4   5
ENDBRANCH   3   4
ENDBRANCH   2   3
ENDBRANCH   1   2
BRANCH   1   9
ATOM      9  C   UNL     1       1.366 -11.089  20.921  1.00  0.00     0.000 C 
BRANCH   9  10
ATOM     10  C   UNL     1       0.895 -12.011  19.782  1.00  0.00     0.000 C 
BRANCH  10  11
ATOM     11  C   UNL     1       2.002 -12.291  18.753  1.00  0.00     0.000 C 
BRANCH  11  12
ATOM     12  C   UNL     1       2.278 -11.086  17.841  1.00  0.00     0.002 C 
BRANCH  12  13
ATOM     13  C   UNL     1       3.745 -11.064  17.392  1.00  0.00     0.028 C 
BRANCH  13  14
ATOM     14  C   UNL     1       4.239 -12.459  16.995  1.00  0.00     0.156 C 
BRANCH  14  15
ATOM     15  O   UNL     1       3.814 -12.791  15.700  1.00  0.00    -0.396 OA
ATOM     16  H   UNL     1       3.493 -11.950  15.282  1.00  0.00     0.210 HD
ENDBRANCH  14  15
ENDBRANCH  13  14
ENDBRANCH  12  13
ENDBRANCH  11  12
ENDBRANCH  10  11
ENDBRANCH   9  10
ENDBRANCH   1   9
TORSDOF 13
ENDMDL
MODEL 9
REMARK VINA RESULT:    -4.182      2.068      5.593
REMARK INTER + INTRA:          -7.958
REMARK INTER:                  -6.749
REMARK INTRA:                  -1.209
REMARK UNBOUND:                -0.720
REMARK SMILES CCCCCCCCCCCCCCO
REMARK SMILES IDX 8 1 7 2 6 3 5 4 4 5 3 6 2 7 1 8 9 9 10 10 11 11 12 12 13 13
REMARK SMILES IDX 14 14 15 15
REMARK H PARENT 15 16
REMARK Flexibility Score: inf
ROOT
ATOM      1  C   UNL     1       0.922 -11.008  20.285  1.00  0.00     0.000 C 
ENDROOT
BRANCH   1   2
ATOM      2  C   UNL     1       0.270  -9.672  19.891  1.00  0.00    -0.000 C 
BRANCH   2   3
ATOM      3  C   UNL     1      -0.987  -9.362  20.722  1.00  0.00    -0.000 C 
BRANCH   3   4
ATOM      4  C   UNL     1      -1.170 -10.339  21.897  1.00  0.00    -0.000 C 
BRANCH   4   5
ATOM      5  C   UNL     1      -2.562 -10.999  21.911  1.00  0.00    -0.000 C 
BRANCH   5   6
ATOM      6  C   UNL     1      -3.588 -10.388  20.936  1.00  0.00    -0.000 C 
BRANCH   6   7
ATOM      7  C   UNL     1      -4.356 -11.407  20.076  1.00  0.00    -0.003 C 
ATOM      8  C   UNL     1      -5.801 -10.989  19.807  1.00  0.00     0.004 C 
ENDBRANCH   6   7
ENDBRANCH   5   6
ENDBRANCH   4   5
ENDBRANCH   3   4
ENDBRANCH   2   3
ENDBRANCH   1   2
BRANCH   1   9
ATOM      9  C   UNL     1       1.161 -11.928  19.076  1.00  0.00     0.000 C 
BRANCH   9  10
ATOM     10  C   UNL     1       0.619 -13.351  19.296  1.00  0.00     0.000 C 
BRANCH  10  11
ATOM     11  C   UNL     1      -0.832 -13.359  19.804  1.00  0.00     0.000 C 
BRANCH  11  12
ATOM     12  C   UNL     1      -1.698 -14.414  19.100  1.00  0.00     0.002 C 
BRANCH  12  13
ATOM     13  C   UNL     1      -2.218 -15.453  20.103  1.00  0.00     0.028 C 
BRANCH  13  14
ATOM     14  C   UNL     1      -1.351 -16.717  20.112  1.00  0.00     0.156 C 
BRANCH  14  15
ATOM     15  O   UNL     1      -0.350 -16.645  19.132  1.00  0.00    -0.396 OA
ATOM     16  H   UNL     1       0.219 -15.865  19.363  1.00  0.00     0.210 HD
ENDBRANCH  14  15
ENDBRANCH  13  14
ENDBRANCH  12  13
ENDBRANCH  11  12
ENDBRANCH  10  11
ENDBRANCH   9  10
ENDBRANCH   1   9
TORSDOF 13
ENDMDL
