MODEL 1
REMARK VINA RESULT:    -4.694      0.000      0.000
REMARK INTER + INTRA:          -8.318
REMARK INTER:                  -7.163
REMARK INTRA:                  -1.155
REMARK UNBOUND:                -1.155
REMARK SMILES CCCCCCCCCCC(=O)[O-]
REMARK SMILES IDX 7 1 8 2 9 3 10 4 11 5 12 6 13 7 6 8 5 9 4 10 3 11 2 12 1 13
REMARK H PARENT
REMARK Flexibility Score: inf
ROOT
ATOM      1  C   UNL     1       1.128   9.083  11.028  1.00  0.00     0.000 C 
ENDROOT
BRANCH   1   2
ATOM      2  C   UNL     1       2.342   9.279  10.103  1.00  0.00     0.000 C 
BRANCH   2   3
ATOM      3  C   UNL     1       2.109   8.713   8.690  1.00  0.00     0.006 C 
BRANCH   3   4
ATOM      4  C   UNL     1       2.740   7.331   8.452  1.00  0.00     0.053 C 
BRANCH   4   5
ATOM      5  C   UNL     1       2.468   6.823   7.070  1.00  0.00     0.041 C 
ATOM      6  O   UNL     1       3.241   7.120   6.121  1.00  0.00    -0.550 OA
ATOM      7  O   UNL     1       1.342   6.048   6.823  1.00  0.00    -0.550 OA
ENDBRANCH   4   5
ENDBRANCH   3   4
ENDBRANCH   2   3
ENDBRANCH   1   2
BRANCH   1   8
ATOM      8  C   UNL     1       1.521   8.570  12.422  1.00  0.00     0.000 C 
BRANCH   8   9
ATOM      9  C   UNL     1       0.857   7.226  12.765  1.00  0.00    -0.000 C 
BRANCH   9  10
ATOM     10  C   UNL     1       0.843   6.254  11.574  1.00  0.00    -0.000 C 
BRANCH  10  11
ATOM     11  C   UNL     1      -0.574   5.794  11.199  1.00  0.00    -0.000 C 
BRANCH  11  12
ATOM     12  C   UNL     1      -0.731   5.689   9.677  1.00  0.00    -0.003 C 
ATOM     13  C   UNL     1      -1.315   6.972   9.093  1.00  0.00     0.004 C 
ENDBRANCH  11  12
ENDBRANCH  10  11
ENDBRANCH   9  10
ENDBRANCH   8   9
ENDBRANCH   1   8
TORSDOF 9
ENDMDL
MODEL 2
REMARK VINA RESULT:    -4.625      4.208      6.858
REMARK INTER + INTRA:          -8.214
REMARK INTER:                  -7.269
REMARK INTRA:                  -0.944
REMARK UNBOUND:                -1.155
REMARK SMILES CCCCCCCCCCC(=O)[O-]
REMARK SMILES IDX 7 1 8 2 9 3 10 4 11 5 12 6 13 7 6 8 5 9 4 10 3 11 2 12 1 13
REMARK H PARENT
REMARK Flexibility Score: inf
ROOT
ATOM      1  C   UNL     1       6.473   4.435   7.228  1.00  0.00     0.000 C 
ENDROOT
BRANCH   1   2
ATOM      2  C   UNL     1       5.275   3.838   7.987  1.00  0.00     0.000 C 
BRANCH   2   3
ATOM      3  C   UNL     1       3.924   4.385   7.489  1.00  0.00     0.006 C 
BRANCH   3   4
ATOM      4  C   UNL     1       3.912   5.901   7.237  1.00  0.00     0.053 C 
BRANCH   4   5
ATOM      5  C   UNL     1       2.555   6.390   6.833  1.00  0.00     0.041 C 
ATOM      6  O   UNL     1       2.441   7.327   5.999  1.00  0.00    -0.550 OA
ATOM      7  O   UNL     1       1.418   5.833   7.403  1.00  0.00    -0.550 OA
ENDBRANCH   4   5
ENDBRANCH   3   4
ENDBRANCH   2   3
ENDBRANCH   1   2
BRANCH   1   8
ATOM      8  C   UNL     1       7.718   4.591   8.116  1.00  0.00     0.000 C 
BRANCH   8   9
ATOM      9  C   UNL     1       8.386   5.967   7.958  1.00  0.00    -0.000 C 
BRANCH   9  10
ATOM     10  C   UNL     1       7.418   7.036   7.425  1.00  0.00    -0.000 C 
BRANCH  10  11
ATOM     11  C   UNL     1       7.855   7.612   6.069  1.00  0.00    -0.000 C 
BRANCH  11  12
ATOM     12  C   UNL     1       6.641   7.906   5.181  1.00  0.00    -0.003 C 
ATOM     13  C   UNL     1       6.226   6.671   4.388  1.00  0.00     0.004 C 
ENDBRANCH  11  12
ENDBRANCH  10  11
ENDBRANCH   9  10
ENDBRANCH   8   9
ENDBRANCH   1   8
TORSDOF 9
ENDMDL
MODEL 3
REMARK VINA RESULT:    -4.603      1.978      4.065
REMARK INTER + INTRA:          -8.179
REMARK INTER:                  -6.992
REMARK INTRA:                  -1.187
REMARK UNBOUND:                -1.155
REMARK SMILES CCCCCCCCCCC(=O)[O-]
REMARK SMILES IDX 7 1 8 2 9 3 10 4 11 5 12 6 13 7 6 8 5 9 4 10 3 11 2 12 1 13
REMARK H PARENT
REMARK Flexibility Score: inf
ROOT
ATOM      1  C   UNL     1       1.406   8.724  12.306  1.00  0.00     0.000 C 
ENDROOT
BRANCH   1   2
ATOM      2  C   UNL     1       0.825   7.400  12.833  1.00  0.00     0.000 C 
BRANCH   2   3
ATOM      3  C   UNL     1       0.772   6.303  11.755  1.00  0.00     0.006 C 
BRANCH   3   4
ATOM      4  C   UNL     1      -0.633   5.730  11.506  1.00  0.00     0.053 C 
BRANCH   4   5
ATOM      5  C   UNL     1      -0.958   5.663  10.046  1.00  0.00     0.041 C 
ATOM      6  O   UNL     1      -0.655   4.642   9.374  1.00  0.00    -0.550 OA
ATOM      7  O   UNL     1      -1.568   6.743   9.419  1.00  0.00    -0.550 OA
ENDBRANCH   4   5
ENDBRANCH   3   4
ENDBRANCH   2   3
ENDBRANCH   1   2
BRANCH   1   8
ATOM      8  C   UNL     1       1.057   8.978  10.831  1.00  0.00     0.000 C 
BRANCH   8   9
ATOM      9  C   UNL     1       2.194   9.679  10.068  1.00  0.00    -0.000 C 
BRANCH   9  10
ATOM     10  C   UNL     1       2.581   8.941   8.776  1.00  0.00    -0.000 C 
BRANCH  10  11
ATOM     11  C   UNL     1       1.669   7.740   8.481  1.00  0.00    -0.000 C 
BRANCH  11  12
ATOM     12  C   UNL     1       2.481   6.442   8.403  1.00  0.00    -0.003 C 
ATOM     13  C   UNL     1       3.663   6.472   9.367  1.00  0.00     0.004 C 
ENDBRANCH  11  12
ENDBRANCH  10  11
ENDBRANCH   9  10
ENDBRANCH   8   9
ENDBRANCH   1   8
TORSDOF 9
ENDMDL
MODEL 4
REMARK VINA RESULT:    -4.445      4.148      6.845
REMARK INTER + INTRA:          -7.938
REMARK INTER:                  -6.740
REMARK INTRA:                  -1.198
REMARK UNBOUND:                -1.155
REMARK SMILES CCCCCCCCCCC(=O)[O-]
REMARK SMILES IDX 7 1 8 2 9 3 10 4 11 5 12 6 13 7 6 8 5 9 4 10 3 11 2 12 1 13
REMARK H PARENT
REMARK Flexibility Score: inf
ROOT
ATOM      1  C   UNL     1       5.868   4.280   8.273  1.00  0.00     0.000 C 
ENDROOT
BRANCH   1   2
ATOM      2  C   UNL     1       4.766   5.005   7.481  1.00  0.00     0.000 C 
BRANCH   2   3
ATOM      3  C   UNL     1       3.856   5.863   8.379  1.00  0.00     0.006 C 
BRANCH   3   4
ATOM      4  C   UNL     1       4.285   7.335   8.489  1.00  0.00     0.053 C 
BRANCH   4   5
ATOM      5  C   UNL     1       3.821   8.142   7.316  1.00  0.00     0.041 C 
ATOM      6  O   UNL     1       2.777   7.813   6.692  1.00  0.00    -0.550 OA
ATOM      7  O   UNL     1       4.561   9.238   6.890  1.00  0.00    -0.550 OA
ENDBRANCH   4   5
ENDBRANCH   3   4
ENDBRANCH   2   3
ENDBRANCH   1   2
BRANCH   1   8
ATOM      8  C   UNL     1       7.246   4.379   7.598  1.00  0.00     0.000 C 
BRANCH   8   9
ATOM      9  C   UNL     1       8.247   5.207   8.421  1.00  0.00    -0.000 C 
BRANCH   9  10
ATOM     10  C   UNL     1       8.756   6.443   7.660  1.00  0.00    -0.000 C 
BRANCH  10  11
ATOM     11  C   UNL     1       7.620   7.378   7.218  1.00  0.00    -0.000 C 
BRANCH  11  12
ATOM     12  C   UNL     1       7.744   7.725   5.730  1.00  0.00    -0.003 C 
ATOM     13  C   UNL     1       6.588   7.136   4.928  1.00  0.00     0.004 C 
ENDBRANCH  11  12
ENDBRANCH  10  11
ENDBRANCH   9  10
ENDBRANCH   8   9
ENDBRANCH   1   8
TORSDOF 9
ENDMDL
MODEL 5
REMARK VINA RESULT:    -4.430      1.461      3.257
REMARK INTER + INTRA:          -7.916
REMARK INTER:                  -6.642
REMARK INTRA:                  -1.274
REMARK UNBOUND:                -1.155
REMARK SMILES CCCCCCCCCCC(=O)[O-]
REMARK SMILES IDX 7 1 8 2 9 3 10 4 11 5 12 6 13 7 6 8 5 9 4 10 3 11 2 12 1 13
REMARK H PARENT
REMARK Flexibility Score: inf
ROOT
ATOM      1  C   UNL     1      -0.696   5.598   9.174  1.00  0.00     0.000 C 
ENDROOT
BRANCH   1   2
ATOM      2  C   UNL     1       0.664   6.056   8.621  1.00  0.00     0.000 C 
BRANCH   2   3
ATOM      3  C   UNL     1       1.815   5.111   9.013  1.00  0.00     0.006 C 
BRANCH   3   4
ATOM      4  C   UNL     1       3.068   5.829   9.539  1.00  0.00     0.053 C 
BRANCH   4   5
ATOM      5  C   UNL     1       3.677   6.723   8.502  1.00  0.00     0.041 C 
ATOM      6  O   UNL     1       3.943   7.923   8.777  1.00  0.00    -0.550 OA
ATOM      7  O   UNL     1       3.919   6.239   7.223  1.00  0.00    -0.550 OA
ENDBRANCH   4   5
ENDBRANCH   3   4
ENDBRANCH   2   3
ENDBRANCH   1   2
BRANCH   1   8
ATOM      8  C   UNL     1      -0.575   4.892  10.534  1.00  0.00     0.000 C 
BRANCH   8   9
ATOM      9  C   UNL     1      -0.727   5.863  11.717  1.00  0.00    -0.000 C 
BRANCH   9  10
ATOM     10  C   UNL     1       0.623   6.233  12.354  1.00  0.00    -0.000 C 
BRANCH  10  11
ATOM     11  C   UNL     1       0.675   7.694  12.829  1.00  0.00    -0.000 C 
BRANCH  11  12
ATOM     12  C   UNL     1       1.747   8.480  12.064  1.00  0.00    -0.003 C 
ATOM     13  C   UNL     1       1.199   9.024  10.749  1.00  0.00     0.004 C 
ENDBRANCH  11  12
ENDBRANCH  10  11
ENDBRANCH   9  10
ENDBRANCH   8   9
ENDBRANCH   1   8
TORSDOF 9
ENDMDL
MODEL 6
REMARK VINA RESULT:    -4.410      2.121      4.313
REMARK INTER + INTRA:          -7.885
REMARK INTER:                  -6.682
REMARK INTRA:                  -1.202
REMARK UNBOUND:                -1.155
REMARK SMILES CCCCCCCCCCC(=O)[O-]
REMARK SMILES IDX 7 1 8 2 9 3 10 4 11 5 12 6 13 7 6 8 5 9 4 10 3 11 2 12 1 13
REMARK H PARENT
REMARK Flexibility Score: inf
ROOT
ATOM      1  C   UNL     1       2.522   6.415   8.105  1.00  0.00     0.000 C 
ENDROOT
BRANCH   1   2
ATOM      2  C   UNL     1       2.910   5.902   9.503  1.00  0.00     0.000 C 
BRANCH   2   3
ATOM      3  C   UNL     1       1.899   4.888  10.066  1.00  0.00     0.006 C 
BRANCH   3   4
ATOM      4  C   UNL     1       0.601   4.772   9.250  1.00  0.00     0.053 C 
BRANCH   4   5
ATOM      5  C   UNL     1      -0.580   5.307  10.000  1.00  0.00     0.041 C 
ATOM      6  O   UNL     1      -1.213   6.303   9.560  1.00  0.00    -0.550 OA
ATOM      7  O   UNL     1      -0.962   4.726  11.202  1.00  0.00    -0.550 OA
ENDBRANCH   4   5
ENDBRANCH   3   4
ENDBRANCH   2   3
ENDBRANCH   1   2
BRANCH   1   8
ATOM      8  C   UNL     1       2.090   7.890   8.113  1.00  0.00     0.000 C 
BRANCH   8   9
ATOM      9  C   UNL     1       2.961   8.754   9.041  1.00  0.00    -0.000 C 
BRANCH   9  10
ATOM     10  C   UNL     1       2.125   9.613  10.004  1.00  0.00    -0.000 C 
BRANCH  10  11
ATOM     11  C   UNL     1       1.018   8.813  10.706  1.00  0.00    -0.000 C 
BRANCH  11  12
ATOM     12  C   UNL     1       1.293   8.701  12.210  1.00  0.00    -0.003 C 
ATOM     13  C   UNL     1       0.859   7.341  12.750  1.00  0.00     0.004 C 
ENDBRANCH  11  12
ENDBRANCH  10  11
ENDBRANCH   9  10
ENDBRANCH   8   9
ENDBRANCH   1   8
TORSDOF 9
ENDMDL
MODEL 7
REMARK VINA RESULT:    -4.374      1.471      2.555
REMARK INTER + INTRA:          -7.830
REMARK INTER:                  -6.962
REMARK INTRA:                  -0.867
REMARK UNBOUND:                -1.155
REMARK SMILES CCCCCCCCCCC(=O)[O-]
REMARK SMILES IDX 7 1 8 2 9 3 10 4 11 5 12 6 13 7 6 8 5 9 4 10 3 11 2 12 1 13
REMARK H PARENT
REMARK Flexibility Score: inf
ROOT
ATOM      1  C   UNL     1       2.383   9.345   8.801  1.00  0.00     0.000 C 
ENDROOT
BRANCH   1   2
ATOM      2  C   UNL     1       3.003   7.958   8.559  1.00  0.00     0.000 C 
BRANCH   2   3
ATOM      3  C   UNL     1       2.340   7.207   7.390  1.00  0.00     0.006 C 
BRANCH   3   4
ATOM      4  C   UNL     1       1.370   6.096   7.823  1.00  0.00     0.053 C 
BRANCH   4   5
ATOM      5  C   UNL     1       2.076   4.795   8.054  1.00  0.00     0.041 C 
ATOM      6  O   UNL     1       1.593   3.943   8.845  1.00  0.00    -0.550 OA
ATOM      7  O   UNL     1       3.286   4.539   7.421  1.00  0.00    -0.550 OA
ENDBRANCH   4   5
ENDBRANCH   3   4
ENDBRANCH   2   3
ENDBRANCH   1   2
BRANCH   1   8
ATOM      8  C   UNL     1       2.114   9.623  10.289  1.00  0.00     0.000 C 
BRANCH   8   9
ATOM      9  C   UNL     1       0.993   8.738  10.860  1.00  0.00    -0.000 C 
BRANCH   9  10
ATOM     10  C   UNL     1       1.251   8.328  12.320  1.00  0.00    -0.000 C 
BRANCH  10  11
ATOM     11  C   UNL     1       0.674   6.945  12.659  1.00  0.00    -0.000 C 
BRANCH  11  12
ATOM     12  C   UNL     1       0.375   6.148  11.384  1.00  0.00    -0.003 C 
ATOM     13  C   UNL     1      -1.016   5.522  11.439  1.00  0.00     0.004 C 
ENDBRANCH  11  12
ENDBRANCH  10  11
ENDBRANCH   9  10
ENDBRANCH   8   9
ENDBRANCH   1   8
TORSDOF 9
ENDMDL
MODEL 8
REMARK VINA RESULT:    -4.356      4.013      6.616
REMARK INTER + INTRA:          -7.803
REMARK INTER:                  -7.073
REMARK INTRA:                  -0.730
REMARK UNBOUND:                -1.155
REMARK SMILES CCCCCCCCCCC(=O)[O-]
REMARK SMILES IDX 7 1 8 2 9 3 10 4 11 5 12 6 13 7 6 8 5 9 4 10 3 11 2 12 1 13
REMARK H PARENT
REMARK Flexibility Score: inf
ROOT
ATOM      1  C   UNL     1       4.339   4.850   7.808  1.00  0.00     0.000 C 
ENDROOT
BRANCH   1   2
ATOM      2  C   UNL     1       4.350   6.171   8.596  1.00  0.00     0.000 C 
BRANCH   2   3
ATOM      3  C   UNL     1       3.181   6.278   9.592  1.00  0.00     0.006 C 
BRANCH   3   4
ATOM      4  C   UNL     1       2.346   4.995   9.724  1.00  0.00     0.053 C 
BRANCH   4   5
ATOM      5  C   UNL     1       0.943   5.187   9.234  1.00  0.00     0.041 C 
ATOM      6  O   UNL     1       0.716   5.908   8.227  1.00  0.00    -0.550 OA
ATOM      7  O   UNL     1      -0.116   4.596   9.911  1.00  0.00    -0.550 OA
ENDBRANCH   4   5
ENDBRANCH   3   4
ENDBRANCH   2   3
ENDBRANCH   1   2
BRANCH   1   8
ATOM      8  C   UNL     1       5.601   4.006   8.049  1.00  0.00     0.000 C 
BRANCH   8   9
ATOM      9  C   UNL     1       6.834   4.568   7.321  1.00  0.00    -0.000 C 
BRANCH   9  10
ATOM     10  C   UNL     1       7.872   5.159   8.289  1.00  0.00    -0.000 C 
BRANCH  10  11
ATOM     11  C   UNL     1       8.518   6.447   7.754  1.00  0.00    -0.000 C 
BRANCH  11  12
ATOM     12  C   UNL     1       7.492   7.304   7.005  1.00  0.00    -0.003 C 
ATOM     13  C   UNL     1       8.116   7.968   5.781  1.00  0.00     0.004 C 
ENDBRANCH  11  12
ENDBRANCH  10  11
ENDBRANCH   9  10
ENDBRANCH   8   9
ENDBRANCH   1   8
TORSDOF 9
ENDMDL
MODEL 9
REMARK VINA RESULT:    -4.355      3.823      6.476
REMARK INTER + INTRA:          -7.801
REMARK INTER:                  -6.714
REMARK INTRA:                  -1.087
REMARK UNBOUND:                -1.155
REMARK SMILES CCCCCCCCCCC(=O)[O-]
REMARK SMILES IDX 7 1 8 2 9 3 10 4 11 5 12 6 13 7 6 8 5 9 4 10 3 11 2 12 1 13
REMARK H PARENT
REMARK Flexibility Score: inf
ROOT
ATOM      1  C   UNL     1       3.908   4.481   7.261  1.00  0.00     0.000 C 
ENDROOT
BRANCH   1   2
ATOM      2  C   UNL     1       3.552   5.959   7.023  1.00  0.00     0.000 C 
BRANCH   2   3
ATOM      3  C   UNL     1       3.413   6.755   8.334  1.00  0.00     0.006 C 
BRANCH   3   4
ATOM      4  C   UNL     1       4.328   7.987   8.423  1.00  0.00     0.053 C 
BRANCH   4   5
ATOM      5  C   UNL     1       3.839   9.110   7.560  1.00  0.00     0.041 C 
ATOM      6  O   UNL     1       4.654   9.793   6.885  1.00  0.00    -0.550 OA
ATOM      7  O   UNL     1       2.486   9.422   7.526  1.00  0.00    -0.550 OA
ENDBRANCH   4   5
ENDBRANCH   3   4
ENDBRANCH   2   3
ENDBRANCH   1   2
BRANCH   1   8
ATOM      8  C   UNL     1       5.212   4.306   8.055  1.00  0.00     0.000 C 
BRANCH   8   9
ATOM      9  C   UNL     1       6.462   4.591   7.206  1.00  0.00    -0.000 C 
BRANCH   9  10
ATOM     10  C   UNL     1       7.616   5.182   8.033  1.00  0.00    -0.000 C 
BRANCH  10  11
ATOM     11  C   UNL     1       8.029   6.584   7.560  1.00  0.00    -0.000 C 
BRANCH  11  12
ATOM     12  C   UNL     1       7.186   7.027   6.359  1.00  0.00    -0.003 C 
ATOM     13  C   UNL     1       7.880   8.140   5.579  1.00  0.00     0.004 C 
ENDBRANCH  11  12
ENDBRANCH  10  11
ENDBRANCH   9  10
ENDBRANCH   8   9
ENDBRANCH   1   8
TORSDOF 9
ENDMDL
