MODEL 1
REMARK VINA RESULT:    -5.056      0.000      0.000
REMARK INTER + INTRA:          -5.351
REMARK INTER:                  -5.351
REMARK INTRA:                   0.000
REMARK UNBOUND:                 0.000
REMARK SMILES O=c1ccc2cc(O)c(O)cc2o1
REMARK SMILES IDX 4 1 3 2 2 3 1 4 13 5 12 6 11 7 9 8 7 9 6 10 5 11 8 12 10 14
REMARK H PARENT 8 13 10 15
REMARK Flexibility Score: inf
ROOT
ATOM      1  C   UNL     1      68.843  50.886  18.865  1.00  0.00     0.019 A 
ATOM      2  C   UNL     1      69.249  51.739  17.841  1.00  0.00     0.094 A 
ATOM      3  C   UNL     1      70.234  52.697  18.105  1.00  0.00     0.336 A 
ATOM      4  O   UNL     1      70.613  53.476  17.192  1.00  0.00    -0.246 OA
ATOM      5  O   UNL     1      70.774  52.790  19.317  1.00  0.00    -0.423 OA
ATOM      6  C   UNL     1      70.416  51.995  20.323  1.00  0.00     0.142 A 
ATOM      7  C   UNL     1      71.021  52.139  21.577  1.00  0.00     0.098 A 
ATOM      8  C   UNL     1      70.646  51.305  22.639  1.00  0.00     0.161 A 
ATOM      9  C   UNL     1      69.665  50.321  22.449  1.00  0.00     0.158 A 
ATOM     10  C   UNL     1      69.056  50.172  21.193  1.00  0.00     0.062 A 
ATOM     11  C   UNL     1      69.428  51.005  20.130  1.00  0.00     0.022 A 
ENDROOT
BRANCH   9  12
ATOM     12  O   UNL     1      69.300  49.496  23.511  1.00  0.00    -0.504 OA
ATOM     13  H   UNL     1      69.966  49.224  24.225  1.00  0.00     0.293 HD
ENDBRANCH   9  12
BRANCH   8  14
ATOM     14  O   UNL     1      71.246  51.445  23.890  1.00  0.00    -0.504 OA
ATOM     15  H   UNL     1      71.759  50.684  24.320  1.00  0.00     0.293 HD
ENDBRANCH   8  14
TORSDOF 2
ENDMDL
MODEL 2
REMARK VINA RESULT:    -4.881      1.813      2.745
REMARK INTER + INTRA:          -5.166
REMARK INTER:                  -5.166
REMARK INTRA:                   0.000
REMARK UNBOUND:                 0.000
REMARK SMILES O=c1ccc2cc(O)c(O)cc2o1
REMARK SMILES IDX 4 1 3 2 2 3 1 4 13 5 12 6 11 7 9 8 7 9 6 10 5 11 8 12 10 14
REMARK H PARENT 8 13 10 15
REMARK Flexibility Score: inf
ROOT
ATOM      1  C   UNL     1      69.560  52.816  17.120  1.00  0.00     0.019 A 
ATOM      2  C   UNL     1      70.729  53.573  17.076  1.00  0.00     0.094 A 
ATOM      3  C   UNL     1      71.599  53.543  18.172  1.00  0.00     0.336 A 
ATOM      4  O   UNL     1      72.660  54.220  18.150  1.00  0.00    -0.246 OA
ATOM      5  O   UNL     1      71.311  52.804  19.239  1.00  0.00    -0.423 OA
ATOM      6  C   UNL     1      70.205  52.067  19.323  1.00  0.00     0.142 A 
ATOM      7  C   UNL     1      69.956  51.308  20.471  1.00  0.00     0.098 A 
ATOM      8  C   UNL     1      68.793  50.531  20.564  1.00  0.00     0.161 A 
ATOM      9  C   UNL     1      67.875  50.511  19.504  1.00  0.00     0.158 A 
ATOM     10  C   UNL     1      68.120  51.270  18.349  1.00  0.00     0.062 A 
ATOM     11  C   UNL     1      69.282  52.047  18.255  1.00  0.00     0.022 A 
ENDROOT
BRANCH   9  12
ATOM     12  O   UNL     1      66.722  49.735  19.604  1.00  0.00    -0.504 OA
ATOM     13  H   UNL     1      66.753  48.725  19.524  1.00  0.00     0.293 HD
ENDBRANCH   9  12
BRANCH   8  14
ATOM     14  O   UNL     1      68.541  49.774  21.707  1.00  0.00    -0.504 OA
ATOM     15  H   UNL     1      69.217  49.711  22.460  1.00  0.00     0.293 HD
ENDBRANCH   8  14
TORSDOF 2
ENDMDL
MODEL 3
REMARK VINA RESULT:    -4.790      1.532      4.390
REMARK INTER + INTRA:          -5.070
REMARK INTER:                  -5.070
REMARK INTRA:                   0.000
REMARK UNBOUND:                 0.000
REMARK SMILES O=c1ccc2cc(O)c(O)cc2o1
REMARK SMILES IDX 4 1 3 2 2 3 1 4 13 5 12 6 11 7 9 8 7 9 6 10 5 11 8 12 10 14
REMARK H PARENT 8 13 10 15
REMARK Flexibility Score: inf
ROOT
ATOM      1  C   UNL     1      69.377  50.213  22.330  1.00  0.00     0.019 A 
ATOM      2  C   UNL     1      70.340  50.589  23.265  1.00  0.00     0.094 A 
ATOM      3  C   UNL     1      71.278  51.568  22.918  1.00  0.00     0.336 A 
ATOM      4  O   UNL     1      72.155  51.921  23.749  1.00  0.00    -0.246 OA
ATOM      5  O   UNL     1      71.249  52.130  21.712  1.00  0.00    -0.423 OA
ATOM      6  C   UNL     1      70.347  51.800  20.790  1.00  0.00     0.142 A 
ATOM      7  C   UNL     1      70.366  52.426  19.539  1.00  0.00     0.098 A 
ATOM      8  C   UNL     1      69.418  52.082  18.565  1.00  0.00     0.161 A 
ATOM      9  C   UNL     1      68.448  51.109  18.841  1.00  0.00     0.158 A 
ATOM     10  C   UNL     1      68.424  50.477  20.095  1.00  0.00     0.062 A 
ATOM     11  C   UNL     1      69.370  50.820  21.070  1.00  0.00     0.022 A 
ENDROOT
BRANCH   9  12
ATOM     12  O   UNL     1      67.510  50.773  17.867  1.00  0.00    -0.504 OA
ATOM     13  H   UNL     1      67.554  49.892  17.369  1.00  0.00     0.293 HD
ENDBRANCH   9  12
BRANCH   8  14
ATOM     14  O   UNL     1      69.434  52.703  17.317  1.00  0.00    -0.504 OA
ATOM     15  H   UNL     1      69.926  52.297  16.529  1.00  0.00     0.293 HD
ENDBRANCH   8  14
TORSDOF 2
ENDMDL
MODEL 4
REMARK VINA RESULT:    -4.709      1.842      2.633
REMARK INTER + INTRA:          -4.984
REMARK INTER:                  -4.984
REMARK INTRA:                   0.000
REMARK UNBOUND:                 0.000
REMARK SMILES O=c1ccc2cc(O)c(O)cc2o1
REMARK SMILES IDX 4 1 3 2 2 3 1 4 13 5 12 6 11 7 9 8 7 9 6 10 5 11 8 12 10 14
REMARK H PARENT 8 13 10 15
REMARK Flexibility Score: inf
ROOT
ATOM      1  C   UNL     1      69.358  53.090  20.263  1.00  0.00     0.019 A 
ATOM      2  C   UNL     1      68.582  52.647  19.193  1.00  0.00     0.094 A 
ATOM      3  C   UNL     1      68.216  51.298  19.133  1.00  0.00     0.336 A 
ATOM      4  O   UNL     1      67.515  50.879  18.175  1.00  0.00    -0.246 OA
ATOM      5  O   UNL     1      68.605  50.452  20.083  1.00  0.00    -0.423 OA
ATOM      6  C   UNL     1      69.347  50.833  21.121  1.00  0.00     0.142 A 
ATOM      7  C   UNL     1      69.725  49.898  22.090  1.00  0.00     0.098 A 
ATOM      8  C   UNL     1      70.507  50.294  23.184  1.00  0.00     0.161 A 
ATOM      9  C   UNL     1      70.911  51.631  23.311  1.00  0.00     0.158 A 
ATOM     10  C   UNL     1      70.535  52.573  22.342  1.00  0.00     0.062 A 
ATOM     11  C   UNL     1      69.754  52.179  21.248  1.00  0.00     0.022 A 
ENDROOT
BRANCH   9  12
ATOM     12  O   UNL     1      71.688  52.016  24.403  1.00  0.00    -0.504 OA
ATOM     13  H   UNL     1      71.666  51.503  25.277  1.00  0.00     0.293 HD
ENDBRANCH   9  12
BRANCH   8  14
ATOM     14  O   UNL     1      70.886  49.365  24.152  1.00  0.00    -0.504 OA
ATOM     15  H   UNL     1      70.730  48.372  24.022  1.00  0.00     0.293 HD
ENDBRANCH   8  14
TORSDOF 2
ENDMDL
MODEL 5
REMARK VINA RESULT:    -4.676      4.040      5.757
REMARK INTER + INTRA:          -4.949
REMARK INTER:                  -4.949
REMARK INTRA:                   0.000
REMARK UNBOUND:                 0.000
REMARK SMILES O=c1ccc2cc(O)c(O)cc2o1
REMARK SMILES IDX 4 1 3 2 2 3 1 4 13 5 12 6 11 7 9 8 7 9 6 10 5 11 8 12 10 14
REMARK H PARENT 8 13 10 15
REMARK Flexibility Score: inf
ROOT
ATOM      1  C   UNL     1      70.816  53.688  24.148  1.00  0.00     0.019 A 
ATOM      2  C   UNL     1      71.319  54.607  25.068  1.00  0.00     0.094 A 
ATOM      3  C   UNL     1      72.096  54.143  26.135  1.00  0.00     0.336 A 
ATOM      4  O   UNL     1      72.560  54.958  26.975  1.00  0.00    -0.246 OA
ATOM      5  O   UNL     1      72.349  52.844  26.269  1.00  0.00    -0.423 OA
ATOM      6  C   UNL     1      71.887  51.933  25.414  1.00  0.00     0.142 A 
ATOM      7  C   UNL     1      72.187  50.580  25.606  1.00  0.00     0.098 A 
ATOM      8  C   UNL     1      71.702  49.618  24.709  1.00  0.00     0.161 A 
ATOM      9  C   UNL     1      70.917  50.008  23.615  1.00  0.00     0.158 A 
ATOM     10  C   UNL     1      70.614  51.365  23.418  1.00  0.00     0.062 A 
ATOM     11  C   UNL     1      71.096  52.328  24.313  1.00  0.00     0.022 A 
ENDROOT
BRANCH   9  12
ATOM     12  O   UNL     1      70.440  49.045  22.728  1.00  0.00    -0.504 OA
ATOM     13  H   UNL     1      70.858  48.912  21.814  1.00  0.00     0.293 HD
ENDBRANCH   9  12
BRANCH   8  14
ATOM     14  O   UNL     1      71.998  48.268  24.897  1.00  0.00    -0.504 OA
ATOM     15  H   UNL     1      71.406  47.670  25.460  1.00  0.00     0.293 HD
ENDBRANCH   8  14
TORSDOF 2
ENDMDL
MODEL 6
REMARK VINA RESULT:    -4.640      2.668      4.891
REMARK INTER + INTRA:          -4.912
REMARK INTER:                  -4.912
REMARK INTRA:                   0.000
REMARK UNBOUND:                 0.000
REMARK SMILES O=c1ccc2cc(O)c(O)cc2o1
REMARK SMILES IDX 4 1 3 2 2 3 1 4 13 5 12 6 11 7 9 8 7 9 6 10 5 11 8 12 10 14
REMARK H PARENT 8 13 10 15
REMARK Flexibility Score: inf
ROOT
ATOM      1  C   UNL     1      69.770  51.280  20.557  1.00  0.00     0.019 A 
ATOM      2  C   UNL     1      68.606  50.513  20.512  1.00  0.00     0.094 A 
ATOM      3  C   UNL     1      67.823  50.536  19.353  1.00  0.00     0.336 A 
ATOM      4  O   UNL     1      66.769  49.850  19.294  1.00  0.00    -0.246 OA
ATOM      5  O   UNL     1      68.185  51.279  18.310  1.00  0.00    -0.423 OA
ATOM      6  C   UNL     1      69.287  52.026  18.312  1.00  0.00     0.142 A 
ATOM      7  C   UNL     1      69.616  52.786  17.185  1.00  0.00     0.098 A 
ATOM      8  C   UNL     1      70.776  53.574  17.181  1.00  0.00     0.161 A 
ATOM      9  C   UNL     1      71.610  53.601  18.308  1.00  0.00     0.158 A 
ATOM     10  C   UNL     1      71.285  52.840  19.441  1.00  0.00     0.062 A 
ATOM     11  C   UNL     1      70.126  52.052  19.446  1.00  0.00     0.022 A 
ENDROOT
BRANCH   9  12
ATOM     12  O   UNL     1      72.761  54.387  18.295  1.00  0.00    -0.504 OA
ATOM     13  H   UNL     1      72.791  55.292  18.751  1.00  0.00     0.293 HD
ENDBRANCH   9  12
BRANCH   8  14
ATOM     14  O   UNL     1      71.108  54.334  16.061  1.00  0.00    -0.504 OA
ATOM     15  H   UNL     1      71.955  54.158  15.534  1.00  0.00     0.293 HD
ENDBRANCH   8  14
TORSDOF 2
ENDMDL
MODEL 7
REMARK VINA RESULT:    -4.626      2.576      4.217
REMARK INTER + INTRA:          -4.896
REMARK INTER:                  -4.896
REMARK INTRA:                   0.000
REMARK UNBOUND:                 0.000
REMARK SMILES O=c1ccc2cc(O)c(O)cc2o1
REMARK SMILES IDX 4 1 3 2 2 3 1 4 13 5 12 6 11 7 9 8 7 9 6 10 5 11 8 12 10 14
REMARK H PARENT 8 13 10 15
REMARK Flexibility Score: inf
ROOT
ATOM      1  C   UNL     1      69.882  54.102  20.087  1.00  0.00     0.019 A 
ATOM      2  C   UNL     1      71.073  53.974  20.800  1.00  0.00     0.094 A 
ATOM      3  C   UNL     1      71.422  52.723  21.319  1.00  0.00     0.336 A 
ATOM      4  O   UNL     1      72.495  52.588  21.964  1.00  0.00    -0.246 OA
ATOM      5  O   UNL     1      70.628  51.672  21.134  1.00  0.00    -0.423 OA
ATOM      6  C   UNL     1      69.482  51.750  20.461  1.00  0.00     0.142 A 
ATOM      7  C   UNL     1      68.688  50.610  20.299  1.00  0.00     0.098 A 
ATOM      8  C   UNL     1      67.480  50.688  19.591  1.00  0.00     0.161 A 
ATOM      9  C   UNL     1      67.065  51.909  19.042  1.00  0.00     0.158 A 
ATOM     10  C   UNL     1      67.858  53.056  19.202  1.00  0.00     0.062 A 
ATOM     11  C   UNL     1      69.065  52.980  19.909  1.00  0.00     0.022 A 
ENDROOT
BRANCH   9  12
ATOM     12  O   UNL     1      65.863  51.977  18.339  1.00  0.00    -0.504 OA
ATOM     13  H   UNL     1      65.769  52.540  17.502  1.00  0.00     0.293 HD
ENDBRANCH   9  12
BRANCH   8  14
ATOM     14  O   UNL     1      66.686  49.554  19.427  1.00  0.00    -0.504 OA
ATOM     15  H   UNL     1      66.989  48.773  18.857  1.00  0.00     0.293 HD
ENDBRANCH   8  14
TORSDOF 2
ENDMDL
MODEL 8
REMARK VINA RESULT:    -4.625      1.784      3.127
REMARK INTER + INTRA:          -4.895
REMARK INTER:                  -4.895
REMARK INTRA:                   0.000
REMARK UNBOUND:                 0.000
REMARK SMILES O=c1ccc2cc(O)c(O)cc2o1
REMARK SMILES IDX 4 1 3 2 2 3 1 4 13 5 12 6 11 7 9 8 7 9 6 10 5 11 8 12 10 14
REMARK H PARENT 8 13 10 15
REMARK Flexibility Score: inf
ROOT
ATOM      1  C   UNL     1      71.518  53.120  19.310  1.00  0.00     0.019 A 
ATOM      2  C   UNL     1      71.767  53.816  18.128  1.00  0.00     0.094 A 
ATOM      3  C   UNL     1      70.891  53.655  17.049  1.00  0.00     0.336 A 
ATOM      4  O   UNL     1      71.099  54.276  15.974  1.00  0.00    -0.246 OA
ATOM      5  O   UNL     1      69.838  52.849  17.151  1.00  0.00    -0.423 OA
ATOM      6  C   UNL     1      69.565  52.165  18.260  1.00  0.00     0.142 A 
ATOM      7  C   UNL     1      68.441  51.333  18.308  1.00  0.00     0.098 A 
ATOM      8  C   UNL     1      68.150  50.610  19.474  1.00  0.00     0.161 A 
ATOM      9  C   UNL     1      68.982  50.722  20.596  1.00  0.00     0.158 A 
ATOM     10  C   UNL     1      70.110  51.556  20.554  1.00  0.00     0.062 A 
ATOM     11  C   UNL     1      70.404  52.278  19.389  1.00  0.00     0.022 A 
ENDROOT
BRANCH   9  12
ATOM     12  O   UNL     1      68.684  50.001  21.751  1.00  0.00    -0.504 OA
ATOM     13  H   UNL     1      67.947  49.306  21.767  1.00  0.00     0.293 HD
ENDBRANCH   9  12
BRANCH   8  14
ATOM     14  O   UNL     1      67.032  49.780  19.526  1.00  0.00    -0.504 OA
ATOM     15  H   UNL     1      66.330  49.789  18.794  1.00  0.00     0.293 HD
ENDBRANCH   8  14
TORSDOF 2
ENDMDL
MODEL 9
REMARK VINA RESULT:    -4.587      1.760      4.764
REMARK INTER + INTRA:          -4.855
REMARK INTER:                  -4.855
REMARK INTRA:                   0.000
REMARK UNBOUND:                 0.000
REMARK SMILES O=c1ccc2cc(O)c(O)cc2o1
REMARK SMILES IDX 4 1 3 2 2 3 1 4 13 5 12 6 11 7 9 8 7 9 6 10 5 11 8 12 10 14
REMARK H PARENT 8 13 10 15
REMARK Flexibility Score: inf
ROOT
ATOM      1  C   UNL     1      68.509  51.276  18.384  1.00  0.00     0.019 A 
ATOM      2  C   UNL     1      68.303  50.571  19.569  1.00  0.00     0.094 A 
ATOM      3  C   UNL     1      69.192  50.757  20.633  1.00  0.00     0.336 A 
ATOM      4  O   UNL     1      69.022  50.129  21.711  1.00  0.00    -0.246 OA
ATOM      5  O   UNL     1      70.219  51.594  20.514  1.00  0.00    -0.423 OA
ATOM      6  C   UNL     1      70.453  52.286  19.400  1.00  0.00     0.142 A 
ATOM      7  C   UNL     1      71.549  53.152  19.334  1.00  0.00     0.098 A 
ATOM      8  C   UNL     1      71.799  53.883  18.163  1.00  0.00     0.161 A 
ATOM      9  C   UNL     1      70.950  53.748  17.056  1.00  0.00     0.158 A 
ATOM     10  C   UNL     1      69.849  52.880  17.117  1.00  0.00     0.062 A 
ATOM     11  C   UNL     1      69.597  52.149  18.286  1.00  0.00     0.022 A 
ENDROOT
BRANCH   9  12
ATOM     12  O   UNL     1      71.206  54.479  15.897  1.00  0.00    -0.504 OA
ATOM     13  H   UNL     1      71.509  55.445  15.935  1.00  0.00     0.293 HD
ENDBRANCH   9  12
BRANCH   8  14
ATOM     14  O   UNL     1      72.891  54.747  18.093  1.00  0.00    -0.504 OA
ATOM     15  H   UNL     1      73.775  54.520  18.532  1.00  0.00     0.293 HD
ENDBRANCH   8  14
TORSDOF 2
ENDMDL
