MODEL 1
REMARK VINA RESULT:    -3.635      0.000      0.000
REMARK INTER + INTRA:          -3.857
REMARK INTER:                  -3.848
REMARK INTRA:                  -0.009
REMARK UNBOUND:                -0.009
REMARK SMILES O=Cc1ccccc1
REMARK SMILES IDX 6 1 5 2 4 3 3 4 8 5 7 6 2 7 1 8
REMARK H PARENT
REMARK Flexibility Score: inf
ROOT
ATOM      1  C   UNL     1     -28.672 -20.559 -32.893  1.00  0.00     0.000 A 
ATOM      2  C   UNL     1     -29.847 -21.311 -32.959  1.00  0.00     0.001 A 
ATOM      3  C   UNL     1     -30.689 -21.399 -31.845  1.00  0.00     0.011 A 
ATOM      4  C   UNL     1     -30.356 -20.729 -30.653  1.00  0.00     0.014 A 
ATOM      5  C   UNL     1     -29.174 -19.975 -30.596  1.00  0.00     0.011 A 
ATOM      6  C   UNL     1     -28.335 -19.891 -31.713  1.00  0.00     0.001 A 
ENDROOT
BRANCH   4   7
ATOM      7  C   UNL     1     -31.229 -20.807 -29.467  1.00  0.00     0.260 C 
ATOM      8  O   UNL     1     -32.030 -19.875 -29.187  1.00  0.00    -0.298 OA
ENDBRANCH   4   7
TORSDOF 1
ENDMDL
MODEL 2
REMARK VINA RESULT:    -3.556      2.025      3.063
REMARK INTER + INTRA:          -3.773
REMARK INTER:                  -3.764
REMARK INTRA:                  -0.009
REMARK UNBOUND:                -0.009
REMARK SMILES O=Cc1ccccc1
REMARK SMILES IDX 6 1 5 2 4 3 3 4 8 5 7 6 2 7 1 8
REMARK H PARENT
REMARK Flexibility Score: inf
ROOT
ATOM      1  C   UNL     1     -28.902 -19.878 -30.593  1.00  0.00     0.000 A 
ATOM      2  C   UNL     1     -28.500 -19.875 -31.931  1.00  0.00     0.001 A 
ATOM      3  C   UNL     1     -29.219 -20.606 -32.882  1.00  0.00     0.011 A 
ATOM      4  C   UNL     1     -30.351 -21.348 -32.496  1.00  0.00     0.014 A 
ATOM      5  C   UNL     1     -30.748 -21.344 -31.150  1.00  0.00     0.011 A 
ATOM      6  C   UNL     1     -30.025 -20.612 -30.203  1.00  0.00     0.001 A 
ENDROOT
BRANCH   4   7
ATOM      7  C   UNL     1     -31.125 -22.125 -33.482  1.00  0.00     0.260 C 
ATOM      8  O   UNL     1     -31.950 -21.563 -34.250  1.00  0.00    -0.298 OA
ENDBRANCH   4   7
TORSDOF 1
ENDMDL
MODEL 3
REMARK VINA RESULT:    -3.419      6.248      7.477
REMARK INTER + INTRA:          -3.628
REMARK INTER:                  -3.619
REMARK INTRA:                  -0.009
REMARK UNBOUND:                -0.009
REMARK SMILES O=Cc1ccccc1
REMARK SMILES IDX 6 1 5 2 4 3 3 4 8 5 7 6 2 7 1 8
REMARK H PARENT
REMARK Flexibility Score: inf
ROOT
ATOM      1  C   UNL     1     -33.318 -21.743 -35.788  1.00  0.00     0.000 A 
ATOM      2  C   UNL     1     -33.372 -21.760 -37.184  1.00  0.00     0.001 A 
ATOM      3  C   UNL     1     -32.660 -22.725 -37.904  1.00  0.00     0.011 A 
ATOM      4  C   UNL     1     -31.886 -23.684 -37.225  1.00  0.00     0.014 A 
ATOM      5  C   UNL     1     -31.838 -23.661 -35.823  1.00  0.00     0.011 A 
ATOM      6  C   UNL     1     -32.551 -22.693 -35.108  1.00  0.00     0.001 A 
ENDROOT
BRANCH   4   7
ATOM      7  C   UNL     1     -31.128 -24.712 -37.963  1.00  0.00     0.260 C 
ATOM      8  O   UNL     1     -31.599 -25.867 -38.138  1.00  0.00    -0.298 OA
ENDBRANCH   4   7
TORSDOF 1
ENDMDL
MODEL 4
REMARK VINA RESULT:    -3.317      5.693      7.002
REMARK INTER + INTRA:          -3.520
REMARK INTER:                  -3.509
REMARK INTRA:                  -0.010
REMARK UNBOUND:                -0.009
REMARK SMILES O=Cc1ccccc1
REMARK SMILES IDX 6 1 5 2 4 3 3 4 8 5 7 6 2 7 1 8
REMARK H PARENT
REMARK Flexibility Score: inf
ROOT
ATOM      1  C   UNL     1     -31.561 -24.023 -39.125  1.00  0.00     0.000 A 
ATOM      2  C   UNL     1     -32.263 -22.836 -38.901  1.00  0.00     0.001 A 
ATOM      3  C   UNL     1     -32.590 -22.448 -37.597  1.00  0.00     0.011 A 
ATOM      4  C   UNL     1     -32.212 -23.251 -36.505  1.00  0.00     0.014 A 
ATOM      5  C   UNL     1     -31.506 -24.442 -36.740  1.00  0.00     0.011 A 
ATOM      6  C   UNL     1     -31.182 -24.825 -38.045  1.00  0.00     0.001 A 
ENDROOT
BRANCH   4   7
ATOM      7  C   UNL     1     -32.545 -22.862 -35.122  1.00  0.00     0.260 C 
ATOM      8  O   UNL     1     -31.652 -22.779 -34.237  1.00  0.00    -0.298 OA
ENDBRANCH   4   7
TORSDOF 1
ENDMDL
MODEL 5
REMARK VINA RESULT:    -3.294      5.711      7.025
REMARK INTER + INTRA:          -3.495
REMARK INTER:                  -3.484
REMARK INTRA:                  -0.011
REMARK UNBOUND:                -0.009
REMARK SMILES O=Cc1ccccc1
REMARK SMILES IDX 6 1 5 2 4 3 3 4 8 5 7 6 2 7 1 8
REMARK H PARENT
REMARK Flexibility Score: inf
ROOT
ATOM      1  C   UNL     1     -31.518 -24.091 -39.125  1.00  0.00     0.000 A 
ATOM      2  C   UNL     1     -31.144 -24.821 -37.994  1.00  0.00     0.001 A 
ATOM      3  C   UNL     1     -31.491 -24.366 -36.718  1.00  0.00     0.011 A 
ATOM      4  C   UNL     1     -32.219 -23.171 -36.567  1.00  0.00     0.014 A 
ATOM      5  C   UNL     1     -32.591 -22.445 -37.709  1.00  0.00     0.011 A 
ATOM      6  C   UNL     1     -32.241 -22.904 -38.983  1.00  0.00     0.001 A 
ENDROOT
BRANCH   4   7
ATOM      7  C   UNL     1     -32.596 -22.673 -35.231  1.00  0.00     0.260 C 
ATOM      8  O   UNL     1     -31.832 -22.823 -34.241  1.00  0.00    -0.298 OA
ENDBRANCH   4   7
TORSDOF 1
ENDMDL
MODEL 6
REMARK VINA RESULT:    -3.247      2.038      2.994
REMARK INTER + INTRA:          -3.446
REMARK INTER:                  -3.437
REMARK INTRA:                  -0.009
REMARK UNBOUND:                -0.009
REMARK SMILES O=Cc1ccccc1
REMARK SMILES IDX 6 1 5 2 4 3 3 4 8 5 7 6 2 7 1 8
REMARK H PARENT
REMARK Flexibility Score: inf
ROOT
ATOM      1  C   UNL     1     -28.883 -19.875 -30.727  1.00  0.00     0.000 A 
ATOM      2  C   UNL     1     -29.997 -20.616 -30.323  1.00  0.00     0.001 A 
ATOM      3  C   UNL     1     -30.721 -21.362 -31.258  1.00  0.00     0.011 A 
ATOM      4  C   UNL     1     -30.332 -21.371 -32.611  1.00  0.00     0.014 A 
ATOM      5  C   UNL     1     -29.212 -20.624 -33.008  1.00  0.00     0.011 A 
ATOM      6  C   UNL     1     -28.491 -19.879 -32.069  1.00  0.00     0.001 A 
ENDROOT
BRANCH   4   7
ATOM      7  C   UNL     1     -31.081 -22.150 -33.614  1.00  0.00     0.260 C 
ATOM      8  O   UNL     1     -32.009 -21.626 -34.285  1.00  0.00    -0.298 OA
ENDBRANCH   4   7
TORSDOF 1
ENDMDL
MODEL 7
REMARK VINA RESULT:    -3.211      4.477      5.784
REMARK INTER + INTRA:          -3.407
REMARK INTER:                  -3.395
REMARK INTRA:                  -0.012
REMARK UNBOUND:                -0.009
REMARK SMILES O=Cc1ccccc1
REMARK SMILES IDX 6 1 5 2 4 3 3 4 8 5 7 6 2 7 1 8
REMARK H PARENT
REMARK Flexibility Score: inf
ROOT
ATOM      1  C   UNL     1     -33.741 -22.533 -37.245  1.00  0.00     0.000 A 
ATOM      2  C   UNL     1     -33.767 -21.409 -36.415  1.00  0.00     0.001 A 
ATOM      3  C   UNL     1     -33.000 -21.381 -35.247  1.00  0.00     0.011 A 
ATOM      4  C   UNL     1     -32.197 -22.484 -34.901  1.00  0.00     0.014 A 
ATOM      5  C   UNL     1     -32.176 -23.608 -35.742  1.00  0.00     0.011 A 
ATOM      6  C   UNL     1     -32.945 -23.632 -36.909  1.00  0.00     0.001 A 
ENDROOT
BRANCH   4   7
ATOM      7  C   UNL     1     -31.379 -22.476 -33.674  1.00  0.00     0.260 C 
ATOM      8  O   UNL     1     -31.025 -21.393 -33.135  1.00  0.00    -0.298 OA
ENDBRANCH   4   7
TORSDOF 1
ENDMDL
MODEL 8
REMARK VINA RESULT:    -3.193     22.392     23.214
REMARK INTER + INTRA:          -3.388
REMARK INTER:                  -3.375
REMARK INTRA:                  -0.013
REMARK UNBOUND:                -0.009
REMARK SMILES O=Cc1ccccc1
REMARK SMILES IDX 6 1 5 2 4 3 3 4 8 5 7 6 2 7 1 8
REMARK H PARENT
REMARK Flexibility Score: inf
ROOT
ATOM      1  C   UNL     1     -16.293 -38.238 -38.331  1.00  0.00     0.000 A 
ATOM      2  C   UNL     1     -17.443 -37.573 -37.900  1.00  0.00     0.001 A 
ATOM      3  C   UNL     1     -18.696 -38.181 -38.031  1.00  0.00     0.011 A 
ATOM      4  C   UNL     1     -18.804 -39.465 -38.597  1.00  0.00     0.014 A 
ATOM      5  C   UNL     1     -17.642 -40.125 -39.027  1.00  0.00     0.011 A 
ATOM      6  C   UNL     1     -16.392 -39.513 -38.895  1.00  0.00     0.001 A 
ENDROOT
BRANCH   4   7
ATOM      7  C   UNL     1     -20.114 -40.125 -38.744  1.00  0.00     0.260 C 
ATOM      8  O   UNL     1     -21.176 -39.552 -38.380  1.00  0.00    -0.298 OA
ENDBRANCH   4   7
TORSDOF 1
ENDMDL
