MODEL 1
REMARK VINA RESULT:    -5.192      0.000      0.000
REMARK INTER + INTRA:          -6.237
REMARK INTER:                  -5.951
REMARK INTRA:                  -0.286
REMARK UNBOUND:                -0.286
REMARK SMILES O=C([O-])C=Cc1ccc(O)cc1
REMARK SMILES IDX 6 1 7 2 12 3 8 4 11 5 9 6 5 7 4 8 2 9 1 10 3 11 10 12
REMARK H PARENT 10 13
REMARK Flexibility Score: inf
ROOT
ATOM      1  C   UNL     1     -47.051 -13.195  10.914  1.00  0.00    -0.025 A 
ATOM      2  C   UNL     1     -47.059 -14.470  11.506  1.00  0.00     0.012 A 
ATOM      3  C   UNL     1     -48.232 -12.437  10.899  1.00  0.00     0.012 A 
ATOM      4  C   UNL     1     -48.218 -14.954  12.121  1.00  0.00     0.047 A 
ATOM      5  C   UNL     1     -49.390 -12.924  11.515  1.00  0.00     0.047 A 
ATOM      6  C   UNL     1     -49.385 -14.183  12.129  1.00  0.00     0.115 A 
ENDROOT
BRANCH   1   7
ATOM      7  C   UNL     1     -45.855 -12.684  10.212  1.00  0.00     0.010 C 
ATOM      8  C   UNL     1     -44.790 -12.121  10.802  1.00  0.00     0.025 C 
BRANCH   8   9
ATOM      9  C   UNL     1     -44.702 -11.739  12.223  1.00  0.00     0.064 C 
ATOM     10  O   UNL     1     -45.229 -10.661  12.604  1.00  0.00    -0.545 OA
ATOM     11  O   UNL     1     -44.114 -12.574  13.166  1.00  0.00    -0.545 OA
ENDBRANCH   8   9
ENDBRANCH   1   7
BRANCH   6  12
ATOM     12  O   UNL     1     -50.531 -14.677  12.747  1.00  0.00    -0.508 OA
ATOM     13  H   UNL     1     -50.580 -15.630  13.089  1.00  0.00     0.293 HD
ENDBRANCH   6  12
TORSDOF 3
ENDMDL
MODEL 2
REMARK VINA RESULT:    -5.174      0.256      1.421
REMARK INTER + INTRA:          -6.216
REMARK INTER:                  -5.932
REMARK INTRA:                  -0.284
REMARK UNBOUND:                -0.286
REMARK SMILES O=C([O-])C=Cc1ccc(O)cc1
REMARK SMILES IDX 6 1 7 2 12 3 8 4 11 5 9 6 5 7 4 8 2 9 1 10 3 11 10 12
REMARK H PARENT 10 13
REMARK Flexibility Score: inf
ROOT
ATOM      1  C   UNL     1     -46.852 -13.096  10.751  1.00  0.00    -0.025 A 
ATOM      2  C   UNL     1     -48.037 -12.344  10.828  1.00  0.00     0.012 A 
ATOM      3  C   UNL     1     -46.814 -14.378  11.321  1.00  0.00     0.012 A 
ATOM      4  C   UNL     1     -49.181 -12.889  11.419  1.00  0.00     0.047 A 
ATOM      5  C   UNL     1     -47.959 -14.921  11.913  1.00  0.00     0.047 A 
ATOM      6  C   UNL     1     -49.147 -14.179  11.960  1.00  0.00     0.115 A 
ENDROOT
BRANCH   1   7
ATOM      7  C   UNL     1     -45.616 -12.522  10.180  1.00  0.00     0.010 C 
ATOM      8  C   UNL     1     -44.626 -11.954  10.885  1.00  0.00     0.025 C 
BRANCH   8   9
ATOM      9  C   UNL     1     -44.677 -11.630  12.323  1.00  0.00     0.064 C 
ATOM     10  O   UNL     1     -45.241 -10.568  12.694  1.00  0.00    -0.545 OA
ATOM     11  O   UNL     1     -44.179 -12.504  13.282  1.00  0.00    -0.545 OA
ENDBRANCH   8   9
ENDBRANCH   1   7
BRANCH   6  12
ATOM     12  O   UNL     1     -50.294 -14.710  12.544  1.00  0.00    -0.508 OA
ATOM     13  H   UNL     1     -50.809 -14.204  13.256  1.00  0.00     0.293 HD
ENDBRANCH   6  12
TORSDOF 3
ENDMDL
MODEL 3
REMARK VINA RESULT:    -5.024      1.407      4.776
REMARK INTER + INTRA:          -6.044
REMARK INTER:                  -5.743
REMARK INTRA:                  -0.300
REMARK UNBOUND:                -0.286
REMARK SMILES O=C([O-])C=Cc1ccc(O)cc1
REMARK SMILES IDX 6 1 7 2 12 3 8 4 11 5 9 6 5 7 4 8 2 9 1 10 3 11 10 12
REMARK H PARENT 10 13
REMARK Flexibility Score: inf
ROOT
ATOM      1  C   UNL     1     -46.869 -13.976  11.653  1.00  0.00    -0.025 A 
ATOM      2  C   UNL     1     -46.663 -13.449  10.366  1.00  0.00     0.012 A 
ATOM      3  C   UNL     1     -46.015 -13.591  12.698  1.00  0.00     0.012 A 
ATOM      4  C   UNL     1     -45.652 -12.510  10.142  1.00  0.00     0.047 A 
ATOM      5  C   UNL     1     -45.003 -12.651  12.471  1.00  0.00     0.047 A 
ATOM      6  C   UNL     1     -44.821 -12.107  11.193  1.00  0.00     0.115 A 
ENDROOT
BRANCH   1   7
ATOM      7  C   UNL     1     -47.896 -15.009  11.902  1.00  0.00     0.010 C 
ATOM      8  C   UNL     1     -49.187 -14.769  12.177  1.00  0.00     0.025 C 
BRANCH   8   9
ATOM      9  C   UNL     1     -49.769 -13.445  12.467  1.00  0.00     0.064 C 
ATOM     10  O   UNL     1     -49.751 -13.011  13.648  1.00  0.00    -0.545 OA
ATOM     11  O   UNL     1     -50.272 -12.635  11.456  1.00  0.00    -0.545 OA
ENDBRANCH   8   9
ENDBRANCH   1   7
BRANCH   6  12
ATOM     12  O   UNL     1     -43.819 -11.169  10.957  1.00  0.00    -0.508 OA
ATOM     13  H   UNL     1     -44.013 -10.175  10.957  1.00  0.00     0.293 HD
ENDBRANCH   6  12
TORSDOF 3
ENDMDL
MODEL 4
REMARK VINA RESULT:    -4.986      9.871     10.858
REMARK INTER + INTRA:          -6.001
REMARK INTER:                  -5.737
REMARK INTRA:                  -0.263
REMARK UNBOUND:                -0.286
REMARK SMILES O=C([O-])C=Cc1ccc(O)cc1
REMARK SMILES IDX 6 1 7 2 12 3 8 4 11 5 9 6 5 7 4 8 2 9 1 10 3 11 10 12
REMARK H PARENT 10 13
REMARK Flexibility Score: inf
ROOT
ATOM      1  C   UNL     1     -41.441  -9.734   4.064  1.00  0.00    -0.025 A 
ATOM      2  C   UNL     1     -42.822  -9.838   4.306  1.00  0.00     0.012 A 
ATOM      3  C   UNL     1     -40.948  -9.994   2.776  1.00  0.00     0.012 A 
ATOM      4  C   UNL     1     -43.700 -10.143   3.261  1.00  0.00     0.047 A 
ATOM      5  C   UNL     1     -41.828 -10.300   1.732  1.00  0.00     0.047 A 
ATOM      6  C   UNL     1     -43.207 -10.373   1.972  1.00  0.00     0.115 A 
ENDROOT
BRANCH   1   7
ATOM      7  C   UNL     1     -40.489  -9.466   5.162  1.00  0.00     0.010 C 
ATOM      8  C   UNL     1     -39.995  -8.261   5.483  1.00  0.00     0.025 C 
BRANCH   8   9
ATOM      9  C   UNL     1     -40.159  -7.029   4.688  1.00  0.00     0.064 C 
ATOM     10  O   UNL     1     -41.039  -6.194   5.024  1.00  0.00    -0.545 OA
ATOM     11  O   UNL     1     -39.318  -6.735   3.621  1.00  0.00    -0.545 OA
ENDBRANCH   8   9
ENDBRANCH   1   7
BRANCH   6  12
ATOM     12  O   UNL     1     -44.093 -10.674   0.941  1.00  0.00    -0.508 OA
ATOM     13  H   UNL     1     -44.825 -11.365   1.057  1.00  0.00     0.293 HD
ENDBRANCH   6  12
TORSDOF 3
ENDMDL
MODEL 5
REMARK VINA RESULT:    -4.963      9.340     10.754
REMARK INTER + INTRA:          -5.974
REMARK INTER:                  -5.687
REMARK INTRA:                  -0.287
REMARK UNBOUND:                -0.286
REMARK SMILES O=C([O-])C=Cc1ccc(O)cc1
REMARK SMILES IDX 6 1 7 2 12 3 8 4 11 5 9 6 5 7 4 8 2 9 1 10 3 11 10 12
REMARK H PARENT 10 13
REMARK Flexibility Score: inf
ROOT
ATOM      1  C   UNL     1     -42.049  -9.450   4.145  1.00  0.00    -0.025 A 
ATOM      2  C   UNL     1     -43.256  -9.970   3.645  1.00  0.00     0.012 A 
ATOM      3  C   UNL     1     -40.979  -9.230   3.264  1.00  0.00     0.012 A 
ATOM      4  C   UNL     1     -43.405 -10.213   2.276  1.00  0.00     0.047 A 
ATOM      5  C   UNL     1     -41.130  -9.475   1.895  1.00  0.00     0.047 A 
ATOM      6  C   UNL     1     -42.345  -9.965   1.398  1.00  0.00     0.115 A 
ENDROOT
BRANCH   1   7
ATOM      7  C   UNL     1     -41.850  -9.236   5.594  1.00  0.00     0.010 C 
ATOM      8  C   UNL     1     -42.236  -8.148   6.277  1.00  0.00     0.025 C 
BRANCH   8   9
ATOM      9  C   UNL     1     -42.751  -6.901   5.682  1.00  0.00     0.064 C 
ATOM     10  O   UNL     1     -41.962  -5.940   5.490  1.00  0.00    -0.545 OA
ATOM     11  O   UNL     1     -44.071  -6.788   5.262  1.00  0.00    -0.545 OA
ENDBRANCH   8   9
ENDBRANCH   1   7
BRANCH   6  12
ATOM     12  O   UNL     1     -42.508 -10.210   0.036  1.00  0.00    -0.508 OA
ATOM     13  H   UNL     1     -43.054  -9.590  -0.552  1.00  0.00     0.293 HD
ENDBRANCH   6  12
TORSDOF 3
ENDMDL
MODEL 6
REMARK VINA RESULT:    -4.950      1.306      1.547
REMARK INTER + INTRA:          -5.960
REMARK INTER:                  -5.661
REMARK INTRA:                  -0.299
REMARK UNBOUND:                -0.286
REMARK SMILES O=C([O-])C=Cc1ccc(O)cc1
REMARK SMILES IDX 6 1 7 2 12 3 8 4 11 5 9 6 5 7 4 8 2 9 1 10 3 11 10 12
REMARK H PARENT 10 13
REMARK Flexibility Score: inf
ROOT
ATOM      1  C   UNL     1     -46.240 -13.207  11.703  1.00  0.00    -0.025 A 
ATOM      2  C   UNL     1     -46.860 -14.402  12.109  1.00  0.00     0.012 A 
ATOM      3  C   UNL     1     -47.011 -12.207  11.092  1.00  0.00     0.012 A 
ATOM      4  C   UNL     1     -48.239 -14.569  11.954  1.00  0.00     0.047 A 
ATOM      5  C   UNL     1     -48.391 -12.376  10.937  1.00  0.00     0.047 A 
ATOM      6  C   UNL     1     -49.009 -13.557  11.371  1.00  0.00     0.115 A 
ENDROOT
BRANCH   1   7
ATOM      7  C   UNL     1     -44.777 -13.029  11.808  1.00  0.00     0.010 C 
ATOM      8  C   UNL     1     -44.128 -12.548  12.879  1.00  0.00     0.025 C 
BRANCH   8   9
ATOM      9  C   UNL     1     -44.763 -11.936  14.060  1.00  0.00     0.064 C 
ATOM     10  O   UNL     1     -45.063 -10.714  14.034  1.00  0.00    -0.545 OA
ATOM     11  O   UNL     1     -45.105 -12.693  15.175  1.00  0.00    -0.545 OA
ENDBRANCH   8   9
ENDBRANCH   1   7
BRANCH   6  12
ATOM     12  O   UNL     1     -50.382 -13.735  11.224  1.00  0.00    -0.508 OA
ATOM     13  H   UNL     1     -51.005 -13.734  12.023  1.00  0.00     0.293 HD
ENDBRANCH   6  12
TORSDOF 3
ENDMDL
MODEL 7
REMARK VINA RESULT:    -4.875      1.676      2.466
REMARK INTER + INTRA:          -5.873
REMARK INTER:                  -5.630
REMARK INTRA:                  -0.243
REMARK UNBOUND:                -0.286
REMARK SMILES O=C([O-])C=Cc1ccc(O)cc1
REMARK SMILES IDX 6 1 7 2 12 3 8 4 11 5 9 6 5 7 4 8 2 9 1 10 3 11 10 12
REMARK H PARENT 10 13
REMARK Flexibility Score: inf
ROOT
ATOM      1  C   UNL     1     -46.677 -11.837  12.382  1.00  0.00    -0.025 A 
ATOM      2  C   UNL     1     -47.288 -11.666  11.128  1.00  0.00     0.012 A 
ATOM      3  C   UNL     1     -47.031 -12.940  13.174  1.00  0.00     0.012 A 
ATOM      4  C   UNL     1     -48.199 -12.615  10.652  1.00  0.00     0.047 A 
ATOM      5  C   UNL     1     -47.943 -13.887  12.697  1.00  0.00     0.047 A 
ATOM      6  C   UNL     1     -48.527 -13.728  11.433  1.00  0.00     0.115 A 
ENDROOT
BRANCH   1   7
ATOM      7  C   UNL     1     -45.753 -10.821  12.928  1.00  0.00     0.010 C 
ATOM      8  C   UNL     1     -44.488 -10.627  12.526  1.00  0.00     0.025 C 
BRANCH   8   9
ATOM      9  C   UNL     1     -43.736 -11.507  11.613  1.00  0.00     0.064 C 
ATOM     10  O   UNL     1     -43.317 -12.617  12.034  1.00  0.00    -0.545 OA
ATOM     11  O   UNL     1     -43.539 -11.171  10.278  1.00  0.00    -0.545 OA
ENDBRANCH   8   9
ENDBRANCH   1   7
BRANCH   6  12
ATOM     12  O   UNL     1     -49.434 -14.666  10.947  1.00  0.00    -0.508 OA
ATOM     13  H   UNL     1     -49.330 -15.655  11.142  1.00  0.00     0.293 HD
ENDBRANCH   6  12
TORSDOF 3
ENDMDL
MODEL 8
REMARK VINA RESULT:    -4.870      1.455      2.387
REMARK INTER + INTRA:          -5.868
REMARK INTER:                  -5.585
REMARK INTRA:                  -0.282
REMARK UNBOUND:                -0.286
REMARK SMILES O=C([O-])C=Cc1ccc(O)cc1
REMARK SMILES IDX 6 1 7 2 12 3 8 4 11 5 9 6 5 7 4 8 2 9 1 10 3 11 10 12
REMARK H PARENT 10 13
REMARK Flexibility Score: inf
ROOT
ATOM      1  C   UNL     1     -45.879 -12.982  11.802  1.00  0.00    -0.025 A 
ATOM      2  C   UNL     1     -46.604 -12.422  10.736  1.00  0.00     0.012 A 
ATOM      3  C   UNL     1     -46.464 -14.000  12.570  1.00  0.00     0.012 A 
ATOM      4  C   UNL     1     -47.873 -12.912  10.411  1.00  0.00     0.047 A 
ATOM      5  C   UNL     1     -47.733 -14.489  12.244  1.00  0.00     0.047 A 
ATOM      6  C   UNL     1     -48.440 -13.948  11.162  1.00  0.00     0.115 A 
ENDROOT
BRANCH   1   7
ATOM      7  C   UNL     1     -44.560 -12.444  12.197  1.00  0.00     0.010 C 
ATOM      8  C   UNL     1     -44.357 -11.470  13.096  1.00  0.00     0.025 C 
BRANCH   8   9
ATOM      9  C   UNL     1     -45.409 -10.636  13.706  1.00  0.00     0.064 C 
ATOM     10  O   UNL     1     -45.748 -10.848  14.899  1.00  0.00    -0.545 OA
ATOM     11  O   UNL     1     -45.984  -9.574  13.018  1.00  0.00    -0.545 OA
ENDBRANCH   8   9
ENDBRANCH   1   7
BRANCH   6  12
ATOM     12  O   UNL     1     -49.704 -14.428  10.827  1.00  0.00    -0.508 OA
ATOM     13  H   UNL     1     -50.087 -14.306   9.897  1.00  0.00     0.293 HD
ENDBRANCH   6  12
TORSDOF 3
ENDMDL
MODEL 9
REMARK VINA RESULT:    -4.717     15.256     17.837
REMARK INTER + INTRA:          -5.693
REMARK INTER:                  -5.404
REMARK INTRA:                  -0.288
REMARK UNBOUND:                -0.286
REMARK SMILES O=C([O-])C=Cc1ccc(O)cc1
REMARK SMILES IDX 6 1 7 2 12 3 8 4 11 5 9 6 5 7 4 8 2 9 1 10 3 11 10 12
REMARK H PARENT 10 13
REMARK Flexibility Score: inf
ROOT
ATOM      1  C   UNL     1     -36.678  -1.337   3.965  1.00  0.00    -0.025 A 
ATOM      2  C   UNL     1     -35.981  -1.782   2.829  1.00  0.00     0.012 A 
ATOM      3  C   UNL     1     -37.219  -0.042   3.975  1.00  0.00     0.012 A 
ATOM      4  C   UNL     1     -35.875  -0.964   1.700  1.00  0.00     0.047 A 
ATOM      5  C   UNL     1     -37.112   0.776   2.845  1.00  0.00     0.047 A 
ATOM      6  C   UNL     1     -36.441   0.315   1.703  1.00  0.00     0.115 A 
ENDROOT
BRANCH   1   7
ATOM      7  C   UNL     1     -36.757  -2.163   5.188  1.00  0.00     0.010 C 
ATOM      8  C   UNL     1     -37.704  -3.076   5.448  1.00  0.00     0.025 C 
BRANCH   8   9
ATOM      9  C   UNL     1     -38.933  -3.283   4.658  1.00  0.00     0.064 C 
ATOM     10  O   UNL     1     -40.007  -2.752   5.041  1.00  0.00    -0.545 OA
ATOM     11  O   UNL     1     -38.917  -3.992   3.463  1.00  0.00    -0.545 OA
ENDBRANCH   8   9
ENDBRANCH   1   7
BRANCH   6  12
ATOM     12  O   UNL     1     -36.330   1.120   0.572  1.00  0.00    -0.508 OA
ATOM     13  H   UNL     1     -35.599   1.816   0.487  1.00  0.00     0.293 HD
ENDBRANCH   6  12
TORSDOF 3
ENDMDL
