MODEL 1
REMARK VINA RESULT:    -7.854      0.000      0.000
REMARK INTER + INTRA:          -7.854
REMARK INTER:                  -7.854
REMARK INTRA:                   0.000
REMARK UNBOUND:                 0.000
REMARK SMILES C=C1CCC[C@]2(C)CC(=O)C(=C(C)C)C[C@@H]12
REMARK SMILES IDX 13 1 12 2 11 3 15 4 16 5 2 6 1 7 3 8 4 9 5 10 6 11 8 12 9 13
REMARK SMILES IDX 10 14 7 15 14 16
REMARK H PARENT
REMARK Flexibility Score: inf
ROOT
ATOM      1  C   UNL     1     109.496  47.505  66.176  1.00  0.00     0.039 C 
ATOM      2  C   UNL     1     109.336  47.063  64.739  1.00  0.00    -0.070 C 
ATOM      3  C   UNL     1     109.179  47.971  63.731  1.00  0.00    -0.006 C 
ATOM      4  C   UNL     1     109.134  49.466  64.017  1.00  0.00     0.047 C 
ATOM      5  C   UNL     1     108.256  50.245  63.005  1.00  0.00     0.025 C 
ATOM      6  C   UNL     1     108.206  51.758  63.218  1.00  0.00    -0.073 C 
ATOM      7  C   UNL     1     108.872  52.404  64.195  1.00  0.00     0.008 C 
ATOM      8  C   UNL     1     107.310  52.534  62.283  1.00  0.00     0.031 C 
ATOM      9  C   UNL     1     107.650  52.210  60.827  1.00  0.00     0.005 C 
ATOM     10  C   UNL     1     107.664  50.693  60.572  1.00  0.00     0.008 C 
ATOM     11  C   UNL     1     108.627  49.921  61.524  1.00  0.00    -0.018 C 
ATOM     12  C   UNL     1     108.429  48.404  61.284  1.00  0.00     0.088 C 
ATOM     13  C   UNL     1     109.165  47.571  62.294  1.00  0.00     0.159 C 
ATOM     14  O   UNL     1     109.775  46.543  61.896  1.00  0.00    -0.295 OA
ATOM     15  C   UNL     1     110.097  50.305  61.199  1.00  0.00     0.012 C 
ATOM     16  C   UNL     1     109.322  45.573  64.480  1.00  0.00     0.039 C 
ENDROOT
TORSDOF 0
ENDMDL
MODEL 2
REMARK VINA RESULT:    -5.170      1.556      4.824
REMARK INTER + INTRA:          -5.170
REMARK INTER:                  -5.170
REMARK INTRA:                   0.000
REMARK UNBOUND:                 0.000
REMARK SMILES C=C1CCC[C@]2(C)CC(=O)C(=C(C)C)C[C@@H]12
REMARK SMILES IDX 13 1 12 2 11 3 15 4 16 5 2 6 1 7 3 8 4 9 5 10 6 11 8 12 9 13
REMARK SMILES IDX 10 14 7 15 14 16
REMARK H PARENT
REMARK Flexibility Score: inf
ROOT
ATOM      1  C   UNL     1     108.750  53.107  63.911  1.00  0.00     0.039 C 
ATOM      2  C   UNL     1     108.716  52.326  62.617  1.00  0.00    -0.070 C 
ATOM      3  C   UNL     1     108.660  50.961  62.613  1.00  0.00    -0.006 C 
ATOM      4  C   UNL     1     108.653  50.169  63.913  1.00  0.00     0.047 C 
ATOM      5  C   UNL     1     109.316  48.776  63.771  1.00  0.00     0.025 C 
ATOM      6  C   UNL     1     109.302  47.917  65.036  1.00  0.00    -0.073 C 
ATOM      7  C   UNL     1     108.753  48.305  66.204  1.00  0.00     0.008 C 
ATOM      8  C   UNL     1     109.995  46.579  64.942  1.00  0.00     0.031 C 
ATOM      9  C   UNL     1     109.457  45.783  63.750  1.00  0.00     0.005 C 
ATOM     10  C   UNL     1     109.500  46.608  62.452  1.00  0.00     0.008 C 
ATOM     11  C   UNL     1     108.744  47.966  62.565  1.00  0.00    -0.018 C 
ATOM     12  C   UNL     1     108.999  48.769  61.265  1.00  0.00     0.088 C 
ATOM     13  C   UNL     1     108.480  50.175  61.357  1.00  0.00     0.159 C 
ATOM     14  O   UNL     1     107.882  50.663  60.361  1.00  0.00    -0.295 OA
ATOM     15  C   UNL     1     107.221  47.703  62.716  1.00  0.00     0.012 C 
ATOM     16  C   UNL     1     108.784  53.125  61.335  1.00  0.00     0.039 C 
ENDROOT
TORSDOF 0
ENDMDL
