MODEL 1
REMARK VINA RESULT:    -2.572      0.000      0.000
REMARK INTER + INTRA:          -3.926
REMARK INTER:                  -3.475
REMARK INTRA:                  -0.452
REMARK UNBOUND:                -0.452
REMARK SMILES [NH3+]CCCC[C@H]([NH3+])C(=O)[O-]
REMARK SMILES IDX 4 1 3 2 2 3 1 4 5 8 6 9 7 10 8 14 9 15 10 16
REMARK H PARENT 1 5 1 6 1 7 7 11 7 12 7 13
REMARK Flexibility Score: inf
ROOT
ATOM      1  C   UNL     1      -6.662  -3.014  -0.673  1.00  0.00     0.012 C 
ENDROOT
BRANCH   1   2
ATOM      2  C   UNL     1      -5.147  -2.780  -0.546  1.00  0.00     0.061 C 
BRANCH   2   3
ATOM      3  C   UNL     1      -4.433  -3.711   0.452  1.00  0.00     0.258 C 
BRANCH   3   4
ATOM      4  N   UNL     1      -4.821  -3.446   1.838  1.00  0.00    -0.358 N 
ATOM      5  H   UNL     1      -5.704  -2.886   1.843  1.00  0.00     0.344 HD
ATOM      6  H   UNL     1      -4.075  -2.901   2.329  1.00  0.00     0.344 HD
ATOM      7  H   UNL     1      -4.999  -4.343   2.342  1.00  0.00     0.344 HD
ENDBRANCH   3   4
ENDBRANCH   2   3
ENDBRANCH   1   2
BRANCH   1   8
ATOM      8  C   UNL     1      -7.497  -1.857  -0.095  1.00  0.00     0.072 C 
BRANCH   8   9
ATOM      9  C   UNL     1      -8.256  -2.266   1.185  1.00  0.00     0.227 C 
BRANCH   9  10
ATOM     10  N   UNL     1      -9.705  -2.244   0.952  1.00  0.00    -0.350 N 
ATOM     11  H   UNL     1      -9.922  -2.666   0.020  1.00  0.00     0.345 HD
ATOM     12  H   UNL     1     -10.208  -2.778   1.698  1.00  0.00     0.345 HD
ATOM     13  H   UNL     1     -10.047  -1.255   0.949  1.00  0.00     0.345 HD
ENDBRANCH   9  10
BRANCH   9  14
ATOM     14  C   UNL     1      -7.905  -1.358   2.335  1.00  0.00     0.099 C 
ATOM     15  O   UNL     1      -6.807  -1.493   2.937  1.00  0.00    -0.544 OA
ATOM     16  O   UNL     1      -8.789  -0.363   2.736  1.00  0.00    -0.544 OA
ENDBRANCH   9  14
ENDBRANCH   8   9
ENDBRANCH   1   8
TORSDOF 7
ENDMDL
MODEL 2
REMARK VINA RESULT:    -2.572      2.717      3.211
REMARK INTER + INTRA:          -3.925
REMARK INTER:                  -3.356
REMARK INTRA:                  -0.570
REMARK UNBOUND:                -0.452
REMARK SMILES [NH3+]CCCC[C@H]([NH3+])C(=O)[O-]
REMARK SMILES IDX 4 1 3 2 2 3 1 4 5 8 6 9 7 10 8 14 9 15 10 16
REMARK H PARENT 1 5 1 6 1 7 7 11 7 12 7 13
REMARK Flexibility Score: inf
ROOT
ATOM      1  C   UNL     1      -7.043  -2.448  -0.551  1.00  0.00     0.012 C 
ENDROOT
BRANCH   1   2
ATOM      2  C   UNL     1      -6.337  -3.065  -1.770  1.00  0.00     0.061 C 
BRANCH   2   3
ATOM      3  C   UNL     1      -4.800  -2.958  -1.747  1.00  0.00     0.258 C 
BRANCH   3   4
ATOM      4  N   UNL     1      -4.326  -1.945  -0.803  1.00  0.00    -0.358 N 
ATOM      5  H   UNL     1      -4.382  -2.331   0.167  1.00  0.00     0.344 HD
ATOM      6  H   UNL     1      -4.922  -1.086  -0.858  1.00  0.00     0.344 HD
ATOM      7  H   UNL     1      -3.329  -1.702  -1.002  1.00  0.00     0.344 HD
ENDBRANCH   3   4
ENDBRANCH   2   3
ENDBRANCH   1   2
BRANCH   1   8
ATOM      8  C   UNL     1      -7.519  -3.504   0.462  1.00  0.00     0.072 C 
BRANCH   8   9
ATOM      9  C   UNL     1      -6.752  -3.418   1.799  1.00  0.00     0.227 C 
BRANCH   9  10
ATOM     10  N   UNL     1      -6.453  -2.019   2.130  1.00  0.00    -0.350 N 
ATOM     11  H   UNL     1      -6.371  -1.456   1.252  1.00  0.00     0.345 HD
ATOM     12  H   UNL     1      -7.206  -1.612   2.731  1.00  0.00     0.345 HD
ATOM     13  H   UNL     1      -5.541  -1.964   2.639  1.00  0.00     0.345 HD
ENDBRANCH   9  10
BRANCH   9  14
ATOM     14  C   UNL     1      -5.475  -4.216   1.743  1.00  0.00     0.099 C 
ATOM     15  O   UNL     1      -4.364  -3.647   1.910  1.00  0.00    -0.544 OA
ATOM     16  O   UNL     1      -5.515  -5.586   1.510  1.00  0.00    -0.544 OA
ENDBRANCH   9  14
ENDBRANCH   8   9
ENDBRANCH   1   8
TORSDOF 7
ENDMDL
MODEL 3
REMARK VINA RESULT:    -2.548     11.993     12.831
REMARK INTER + INTRA:          -3.894
REMARK INTER:                  -3.816
REMARK INTRA:                  -0.078
REMARK UNBOUND:                -0.452
REMARK SMILES [NH3+]CCCC[C@H]([NH3+])C(=O)[O-]
REMARK SMILES IDX 4 1 3 2 2 3 1 4 5 8 6 9 7 10 8 14 9 15 10 16
REMARK H PARENT 1 5 1 6 1 7 7 11 7 12 7 13
REMARK Flexibility Score: inf
ROOT
ATOM      1  C   UNL     1       3.669   3.372   5.863  1.00  0.00     0.012 C 
ENDROOT
BRANCH   1   2
ATOM      2  C   UNL     1       3.393   2.245   6.873  1.00  0.00     0.061 C 
BRANCH   2   3
ATOM      3  C   UNL     1       2.940   2.724   8.265  1.00  0.00     0.258 C 
BRANCH   3   4
ATOM      4  N   UNL     1       2.022   1.781   8.907  1.00  0.00    -0.358 N 
ATOM      5  H   UNL     1       1.073   1.888   8.483  1.00  0.00     0.344 HD
ATOM      6  H   UNL     1       1.957   1.976   9.933  1.00  0.00     0.344 HD
ATOM      7  H   UNL     1       2.343   0.799   8.749  1.00  0.00     0.344 HD
ENDBRANCH   3   4
ENDBRANCH   2   3
ENDBRANCH   1   2
BRANCH   1   8
ATOM      8  C   UNL     1       3.827   2.857   4.421  1.00  0.00     0.072 C 
BRANCH   8   9
ATOM      9  C   UNL     1       3.866   4.007   3.392  1.00  0.00     0.227 C 
BRANCH   9  10
ATOM     10  N   UNL     1       3.040   5.131   3.847  1.00  0.00    -0.350 N 
ATOM     11  H   UNL     1       3.511   5.619   4.644  1.00  0.00     0.345 HD
ATOM     12  H   UNL     1       2.883   5.814   3.070  1.00  0.00     0.345 HD
ATOM     13  H   UNL     1       2.114   4.777   4.183  1.00  0.00     0.345 HD
ENDBRANCH   9  10
BRANCH   9  14
ATOM     14  C   UNL     1       3.394   3.538   2.039  1.00  0.00     0.099 C 
ATOM     15  O   UNL     1       3.937   3.979   0.992  1.00  0.00    -0.544 OA
ATOM     16  O   UNL     1       2.361   2.614   1.939  1.00  0.00    -0.544 OA
ENDBRANCH   9  14
ENDBRANCH   8   9
ENDBRANCH   1   8
TORSDOF 7
ENDMDL
MODEL 4
REMARK VINA RESULT:    -2.542      1.697      3.241
REMARK INTER + INTRA:          -3.885
REMARK INTER:                  -3.362
REMARK INTRA:                  -0.523
REMARK UNBOUND:                -0.452
REMARK SMILES [NH3+]CCCC[C@H]([NH3+])C(=O)[O-]
REMARK SMILES IDX 4 1 3 2 2 3 1 4 5 8 6 9 7 10 8 14 9 15 10 16
REMARK H PARENT 1 5 1 6 1 7 7 11 7 12 7 13
REMARK Flexibility Score: inf
ROOT
ATOM      1  C   UNL     1      -8.451  -3.898  -0.156  1.00  0.00     0.012 C 
ENDROOT
BRANCH   1   2
ATOM      2  C   UNL     1      -7.906  -2.863  -1.155  1.00  0.00     0.061 C 
BRANCH   2   3
ATOM      3  C   UNL     1      -8.982  -2.003  -1.843  1.00  0.00     0.258 C 
BRANCH   3   4
ATOM      4  N   UNL     1      -9.441  -0.900  -0.997  1.00  0.00    -0.358 N 
ATOM      5  H   UNL     1      -8.784  -0.795  -0.191  1.00  0.00     0.344 HD
ATOM      6  H   UNL     1     -10.399  -1.098  -0.625  1.00  0.00     0.344 HD
ATOM      7  H   UNL     1      -9.443  -0.005  -1.537  1.00  0.00     0.344 HD
ENDBRANCH   3   4
ENDBRANCH   2   3
ENDBRANCH   1   2
BRANCH   1   8
ATOM      8  C   UNL     1      -7.809  -3.779   1.239  1.00  0.00     0.072 C 
BRANCH   8   9
ATOM      9  C   UNL     1      -6.856  -2.570   1.341  1.00  0.00     0.227 C 
BRANCH   9  10
ATOM     10  N   UNL     1      -5.545  -2.991   1.849  1.00  0.00    -0.350 N 
ATOM     11  H   UNL     1      -5.593  -3.130   2.885  1.00  0.00     0.345 HD
ATOM     12  H   UNL     1      -5.241  -3.884   1.395  1.00  0.00     0.345 HD
ATOM     13  H   UNL     1      -4.834  -2.249   1.652  1.00  0.00     0.345 HD
ENDBRANCH   9  10
BRANCH   9  14
ATOM     14  C   UNL     1      -7.433  -1.500   2.232  1.00  0.00     0.099 C 
ATOM     15  O   UNL     1      -7.026  -1.377   3.418  1.00  0.00    -0.544 OA
ATOM     16  O   UNL     1      -8.413  -0.640   1.752  1.00  0.00    -0.544 OA
ENDBRANCH   9  14
ENDBRANCH   8   9
ENDBRANCH   1   8
TORSDOF 7
ENDMDL
MODEL 5
REMARK VINA RESULT:    -2.527      2.629      4.116
REMARK INTER + INTRA:          -3.865
REMARK INTER:                  -3.653
REMARK INTRA:                  -0.212
REMARK UNBOUND:                -0.452
REMARK SMILES [NH3+]CCCC[C@H]([NH3+])C(=O)[O-]
REMARK SMILES IDX 4 1 3 2 2 3 1 4 5 8 6 9 7 10 8 14 9 15 10 16
REMARK H PARENT 1 5 1 6 1 7 7 11 7 12 7 13
REMARK Flexibility Score: inf
ROOT
ATOM      1  C   UNL     1      -7.598  -2.817  -0.935  1.00  0.00     0.012 C 
ENDROOT
BRANCH   1   2
ATOM      2  C   UNL     1      -8.705  -1.752  -1.021  1.00  0.00     0.061 C 
BRANCH   2   3
ATOM      3  C   UNL     1      -9.549  -1.596   0.258  1.00  0.00     0.258 C 
BRANCH   3   4
ATOM      4  N   UNL     1      -9.585  -0.213   0.737  1.00  0.00    -0.358 N 
ATOM      5  H   UNL     1     -10.553   0.163   0.618  1.00  0.00     0.344 HD
ATOM      6  H   UNL     1      -8.924   0.382   0.186  1.00  0.00     0.344 HD
ATOM      7  H   UNL     1      -9.340  -0.175   1.752  1.00  0.00     0.344 HD
ENDBRANCH   3   4
ENDBRANCH   2   3
ENDBRANCH   1   2
BRANCH   1   8
ATOM      8  C   UNL     1      -6.356  -2.328  -0.168  1.00  0.00     0.072 C 
BRANCH   8   9
ATOM      9  C   UNL     1      -6.167  -3.071   1.171  1.00  0.00     0.227 C 
BRANCH   9  10
ATOM     10  N   UNL     1      -6.432  -2.172   2.300  1.00  0.00    -0.350 N 
ATOM     11  H   UNL     1      -6.266  -2.675   3.202  1.00  0.00     0.345 HD
ATOM     12  H   UNL     1      -5.811  -1.330   2.256  1.00  0.00     0.345 HD
ATOM     13  H   UNL     1      -7.431  -1.861   2.279  1.00  0.00     0.345 HD
ENDBRANCH   9  10
BRANCH   9  14
ATOM     14  C   UNL     1      -4.776  -3.640   1.282  1.00  0.00     0.099 C 
ATOM     15  O   UNL     1      -4.298  -3.927   2.412  1.00  0.00    -0.544 OA
ATOM     16  O   UNL     1      -4.013  -3.855   0.140  1.00  0.00    -0.544 OA
ENDBRANCH   9  14
ENDBRANCH   8   9
ENDBRANCH   1   8
TORSDOF 7
ENDMDL
MODEL 6
REMARK VINA RESULT:    -2.502     10.125     10.916
REMARK INTER + INTRA:          -3.831
REMARK INTER:                  -3.654
REMARK INTRA:                  -0.177
REMARK UNBOUND:                -0.452
REMARK SMILES [NH3+]CCCC[C@H]([NH3+])C(=O)[O-]
REMARK SMILES IDX 4 1 3 2 2 3 1 4 5 8 6 9 7 10 8 14 9 15 10 16
REMARK H PARENT 1 5 1 6 1 7 7 11 7 12 7 13
REMARK Flexibility Score: inf
ROOT
ATOM      1  C   UNL     1      -3.291   8.308   5.143  1.00  0.00     0.012 C 
ENDROOT
BRANCH   1   2
ATOM      2  C   UNL     1      -2.230   7.445   4.440  1.00  0.00     0.061 C 
BRANCH   2   3
ATOM      3  C   UNL     1      -1.285   8.221   3.503  1.00  0.00     0.258 C 
BRANCH   3   4
ATOM      4  N   UNL     1       0.108   7.790   3.633  1.00  0.00    -0.358 N 
ATOM      5  H   UNL     1       0.652   8.147   2.815  1.00  0.00     0.344 HD
ATOM      6  H   UNL     1       0.167   6.746   3.646  1.00  0.00     0.344 HD
ATOM      7  H   UNL     1       0.529   8.184   4.505  1.00  0.00     0.344 HD
ENDBRANCH   3   4
ENDBRANCH   2   3
ENDBRANCH   1   2
BRANCH   1   8
ATOM      8  C   UNL     1      -4.360   7.470   5.867  1.00  0.00     0.072 C 
BRANCH   8   9
ATOM      9  C   UNL     1      -4.136   5.954   5.682  1.00  0.00     0.227 C 
BRANCH   9  10
ATOM     10  N   UNL     1      -5.293   5.342   5.018  1.00  0.00    -0.350 N 
ATOM     11  H   UNL     1      -6.174   5.802   5.342  1.00  0.00     0.345 HD
ATOM     12  H   UNL     1      -5.216   5.438   3.978  1.00  0.00     0.345 HD
ATOM     13  H   UNL     1      -5.346   4.326   5.264  1.00  0.00     0.345 HD
ENDBRANCH   9  10
BRANCH   9  14
ATOM     14  C   UNL     1      -3.888   5.279   7.007  1.00  0.00     0.099 C 
ATOM     15  O   UNL     1      -3.621   5.967   8.028  1.00  0.00    -0.544 OA
ATOM     16  O   UNL     1      -3.957   3.895   7.112  1.00  0.00    -0.544 OA
ENDBRANCH   9  14
ENDBRANCH   8   9
ENDBRANCH   1   8
TORSDOF 7
ENDMDL
MODEL 7
REMARK VINA RESULT:    -2.487      2.514      4.320
REMARK INTER + INTRA:          -3.811
REMARK INTER:                  -3.350
REMARK INTRA:                  -0.461
REMARK UNBOUND:                -0.452
REMARK SMILES [NH3+]CCCC[C@H]([NH3+])C(=O)[O-]
REMARK SMILES IDX 4 1 3 2 2 3 1 4 5 8 6 9 7 10 8 14 9 15 10 16
REMARK H PARENT 1 5 1 6 1 7 7 11 7 12 7 13
REMARK Flexibility Score: inf
ROOT
ATOM      1  C   UNL     1      -6.990  -3.211  -0.274  1.00  0.00     0.012 C 
ENDROOT
BRANCH   1   2
ATOM      2  C   UNL     1      -7.567  -1.805  -0.040  1.00  0.00     0.061 C 
BRANCH   2   3
ATOM      3  C   UNL     1      -7.812  -1.447   1.438  1.00  0.00     0.258 C 
BRANCH   3   4
ATOM      4  N   UNL     1      -6.672  -1.787   2.291  1.00  0.00    -0.358 N 
ATOM      5  H   UNL     1      -6.154  -2.587   1.862  1.00  0.00     0.344 HD
ATOM      6  H   UNL     1      -6.999  -2.071   3.243  1.00  0.00     0.344 HD
ATOM      7  H   UNL     1      -6.019  -0.974   2.364  1.00  0.00     0.344 HD
ENDBRANCH   3   4
ENDBRANCH   2   3
ENDBRANCH   1   2
BRANCH   1   8
ATOM      8  C   UNL     1      -5.753  -3.205  -1.190  1.00  0.00     0.072 C 
BRANCH   8   9
ATOM      9  C   UNL     1      -4.437  -3.085  -0.393  1.00  0.00     0.227 C 
BRANCH   9  10
ATOM     10  N   UNL     1      -3.282  -3.286  -1.276  1.00  0.00    -0.350 N 
ATOM     11  H   UNL     1      -2.433  -2.838  -0.859  1.00  0.00     0.345 HD
ATOM     12  H   UNL     1      -3.098  -4.307  -1.417  1.00  0.00     0.345 HD
ATOM     13  H   UNL     1      -3.464  -2.839  -2.204  1.00  0.00     0.345 HD
ENDBRANCH   9  10
BRANCH   9  14
ATOM     14  C   UNL     1      -4.398  -4.079   0.739  1.00  0.00     0.099 C 
ATOM     15  O   UNL     1      -4.384  -3.678   1.933  1.00  0.00    -0.544 OA
ATOM     16  O   UNL     1      -4.381  -5.443   0.474  1.00  0.00    -0.544 OA
ENDBRANCH   9  14
ENDBRANCH   8   9
ENDBRANCH   1   8
TORSDOF 7
ENDMDL
MODEL 8
REMARK VINA RESULT:    -2.434      1.839      2.310
REMARK INTER + INTRA:          -3.740
REMARK INTER:                  -3.543
REMARK INTRA:                  -0.197
REMARK UNBOUND:                -0.452
REMARK SMILES [NH3+]CCCC[C@H]([NH3+])C(=O)[O-]
REMARK SMILES IDX 4 1 3 2 2 3 1 4 5 8 6 9 7 10 8 14 9 15 10 16
REMARK H PARENT 1 5 1 6 1 7 7 11 7 12 7 13
REMARK Flexibility Score: inf
ROOT
ATOM      1  C   UNL     1      -7.058  -3.878  -0.721  1.00  0.00     0.012 C 
ENDROOT
BRANCH   1   2
ATOM      2  C   UNL     1      -6.349  -2.781  -1.533  1.00  0.00     0.061 C 
BRANCH   2   3
ATOM      3  C   UNL     1      -4.833  -2.989  -1.711  1.00  0.00     0.258 C 
BRANCH   3   4
ATOM      4  N   UNL     1      -4.049  -1.890  -1.146  1.00  0.00    -0.358 N 
ATOM      5  H   UNL     1      -3.258  -2.287  -0.590  1.00  0.00     0.344 HD
ATOM      6  H   UNL     1      -4.643  -1.305  -0.514  1.00  0.00     0.344 HD
ATOM      7  H   UNL     1      -3.650  -1.299  -1.910  1.00  0.00     0.344 HD
ENDBRANCH   3   4
ENDBRANCH   2   3
ENDBRANCH   1   2
BRANCH   1   8
ATOM      8  C   UNL     1      -7.620  -3.363   0.617  1.00  0.00     0.072 C 
BRANCH   8   9
ATOM      9  C   UNL     1      -6.676  -2.348   1.294  1.00  0.00     0.227 C 
BRANCH   9  10
ATOM     10  N   UNL     1      -5.644  -3.045   2.072  1.00  0.00    -0.350 N 
ATOM     11  H   UNL     1      -5.973  -4.007   2.316  1.00  0.00     0.345 HD
ATOM     12  H   UNL     1      -4.754  -3.114   1.526  1.00  0.00     0.345 HD
ATOM     13  H   UNL     1      -5.461  -2.527   2.962  1.00  0.00     0.345 HD
ENDBRANCH   9  10
BRANCH   9  14
ATOM     14  C   UNL     1      -7.444  -1.408   2.187  1.00  0.00     0.099 C 
ATOM     15  O   UNL     1      -8.369  -0.698   1.712  1.00  0.00    -0.544 OA
ATOM     16  O   UNL     1      -7.140  -1.321   3.541  1.00  0.00    -0.544 OA
ENDBRANCH   9  14
ENDBRANCH   8   9
ENDBRANCH   1   8
TORSDOF 7
ENDMDL
MODEL 9
REMARK VINA RESULT:    -2.363      2.552      3.568
REMARK INTER + INTRA:          -3.643
REMARK INTER:                  -3.097
REMARK INTRA:                  -0.546
REMARK UNBOUND:                -0.452
REMARK SMILES [NH3+]CCCC[C@H]([NH3+])C(=O)[O-]
REMARK SMILES IDX 4 1 3 2 2 3 1 4 5 8 6 9 7 10 8 14 9 15 10 16
REMARK H PARENT 1 5 1 6 1 7 7 11 7 12 7 13
REMARK Flexibility Score: inf
ROOT
ATOM      1  C   UNL     1      -7.407  -4.901   2.297  1.00  0.00     0.012 C 
ENDROOT
BRANCH   1   2
ATOM      2  C   UNL     1      -8.225  -4.721   3.587  1.00  0.00     0.061 C 
BRANCH   2   3
ATOM      3  C   UNL     1      -7.384  -4.501   4.858  1.00  0.00     0.258 C 
BRANCH   3   4
ATOM      4  N   UNL     1      -7.410  -3.109   5.310  1.00  0.00    -0.358 N 
ATOM      5  H   UNL     1      -6.827  -3.021   6.174  1.00  0.00     0.344 HD
ATOM      6  H   UNL     1      -8.389  -2.815   5.534  1.00  0.00     0.344 HD
ATOM      7  H   UNL     1      -7.006  -2.482   4.577  1.00  0.00     0.344 HD
ENDBRANCH   3   4
ENDBRANCH   2   3
ENDBRANCH   1   2
BRANCH   1   8
ATOM      8  C   UNL     1      -7.780  -3.882   1.205  1.00  0.00     0.072 C 
BRANCH   8   9
ATOM      9  C   UNL     1      -6.825  -2.670   1.187  1.00  0.00     0.227 C 
BRANCH   9  10
ATOM     10  N   UNL     1      -5.555  -3.007   1.842  1.00  0.00    -0.350 N 
ATOM     11  H   UNL     1      -4.866  -3.345   1.130  1.00  0.00     0.345 HD
ATOM     12  H   UNL     1      -5.160  -2.173   2.334  1.00  0.00     0.345 HD
ATOM     13  H   UNL     1      -5.708  -3.774   2.537  1.00  0.00     0.345 HD
ENDBRANCH   9  10
BRANCH   9  14
ATOM     14  C   UNL     1      -7.451  -1.478   1.863  1.00  0.00     0.099 C 
ATOM     15  O   UNL     1      -8.332  -0.803   1.267  1.00  0.00    -0.544 OA
ATOM     16  O   UNL     1      -7.065  -1.119   3.149  1.00  0.00    -0.544 OA
ENDBRANCH   9  14
ENDBRANCH   8   9
ENDBRANCH   1   8
TORSDOF 7
ENDMDL
