MODEL 1
REMARK VINA RESULT:    -4.148      0.000      0.000
REMARK INTER + INTRA:          -4.504
REMARK INTER:                  -4.391
REMARK INTRA:                  -0.113
REMARK UNBOUND:                -0.113
REMARK SMILES CC(C)[C@H]1CC[C@@H](C)CC1=O
REMARK SMILES IDX 8 1 7 2 6 3 5 4 4 5 10 6 11 7 9 8 2 9 1 10 3 11
REMARK H PARENT
REMARK Flexibility Score: inf
ROOT
ATOM      1  C   UNL     1     -11.487  -9.885  93.413  1.00  0.00     0.008 C 
ATOM      2  C   UNL     1     -12.070 -11.251  93.806  1.00  0.00    -0.007 C 
ATOM      3  C   UNL     1     -13.604 -11.191  93.988  1.00  0.00     0.004 C 
ATOM      4  C   UNL     1     -14.033 -10.437  95.264  1.00  0.00     0.012 C 
ATOM      5  C   UNL     1     -13.371 -11.025  96.534  1.00  0.00     0.058 C 
ATOM      6  C   UNL     1     -11.874 -11.082  96.284  1.00  0.00     0.136 C 
ATOM      7  O   UNL     1     -11.076 -10.480  96.989  1.00  0.00    -0.299 OA
ATOM      8  C   UNL     1     -11.388 -11.814  95.067  1.00  0.00     0.079 C 
ENDROOT
BRANCH   5   9
ATOM      9  C   UNL     1     -13.741 -10.247  97.840  1.00  0.00    -0.007 C 
ATOM     10  C   UNL     1     -15.137  -9.602  97.773  1.00  0.00     0.008 C 
ATOM     11  C   UNL     1     -13.692 -11.179  99.066  1.00  0.00     0.008 C 
ENDBRANCH   5   9
TORSDOF 1
ENDMDL
MODEL 2
REMARK VINA RESULT:    -4.019      1.626      4.456
REMARK INTER + INTRA:          -4.367
REMARK INTER:                  -4.213
REMARK INTRA:                  -0.155
REMARK UNBOUND:                -0.113
REMARK SMILES CC(C)[C@H]1CC[C@@H](C)CC1=O
REMARK SMILES IDX 8 1 7 2 6 3 5 4 4 5 10 6 11 7 9 8 2 9 1 10 3 11
REMARK H PARENT
REMARK Flexibility Score: inf
ROOT
ATOM      1  C   UNL     1     -13.788  -8.215  99.010  1.00  0.00     0.008 C 
ATOM      2  C   UNL     1     -14.662  -9.458  98.777  1.00  0.00    -0.007 C 
ATOM      3  C   UNL     1     -13.838 -10.764  98.853  1.00  0.00     0.004 C 
ATOM      4  C   UNL     1     -12.910 -10.965  97.637  1.00  0.00     0.012 C 
ATOM      5  C   UNL     1     -13.688 -10.907  96.300  1.00  0.00     0.058 C 
ATOM      6  C   UNL     1     -14.494  -9.620  96.297  1.00  0.00     0.136 C 
ATOM      7  O   UNL     1     -14.337  -8.758  95.444  1.00  0.00    -0.299 OA
ATOM      8  C   UNL     1     -15.429  -9.368  97.445  1.00  0.00     0.079 C 
ENDROOT
BRANCH   5   9
ATOM      9  C   UNL     1     -12.767 -11.051  95.044  1.00  0.00    -0.007 C 
ATOM     10  C   UNL     1     -11.407 -11.692  95.373  1.00  0.00     0.008 C 
ATOM     11  C   UNL     1     -13.455 -11.897  93.954  1.00  0.00     0.008 C 
ENDBRANCH   5   9
TORSDOF 1
ENDMDL
MODEL 3
REMARK VINA RESULT:    -4.000      1.731      2.646
REMARK INTER + INTRA:          -4.347
REMARK INTER:                  -4.208
REMARK INTRA:                  -0.140
REMARK UNBOUND:                -0.113
REMARK SMILES CC(C)[C@H]1CC[C@@H](C)CC1=O
REMARK SMILES IDX 8 1 7 2 6 3 5 4 4 5 10 6 11 7 9 8 2 9 1 10 3 11
REMARK H PARENT
REMARK Flexibility Score: inf
ROOT
ATOM      1  C   UNL     1     -13.865 -11.811  93.879  1.00  0.00     0.008 C 
ATOM      2  C   UNL     1     -12.911 -10.710  94.368  1.00  0.00    -0.007 C 
ATOM      3  C   UNL     1     -11.972 -11.217  95.487  1.00  0.00     0.004 C 
ATOM      4  C   UNL     1     -12.697 -11.438  96.831  1.00  0.00     0.012 C 
ATOM      5  C   UNL     1     -13.445 -10.166  97.301  1.00  0.00     0.058 C 
ATOM      6  C   UNL     1     -14.327  -9.704  96.154  1.00  0.00     0.136 C 
ATOM      7  O   UNL     1     -15.542  -9.619  96.265  1.00  0.00    -0.299 OA
ATOM      8  C   UNL     1     -13.682  -9.456  94.822  1.00  0.00     0.079 C 
ENDROOT
BRANCH   5   9
ATOM      9  C   UNL     1     -14.238 -10.373  98.634  1.00  0.00    -0.007 C 
ATOM     10  C   UNL     1     -13.656 -11.503  99.503  1.00  0.00     0.008 C 
ATOM     11  C   UNL     1     -14.259  -9.077  99.467  1.00  0.00     0.008 C 
ENDBRANCH   5   9
TORSDOF 1
ENDMDL
MODEL 4
REMARK VINA RESULT:    -3.896      1.798      2.848
REMARK INTER + INTRA:          -4.237
REMARK INTER:                  -4.069
REMARK INTRA:                  -0.168
REMARK UNBOUND:                -0.113
REMARK SMILES CC(C)[C@H]1CC[C@@H](C)CC1=O
REMARK SMILES IDX 8 1 7 2 6 3 5 4 4 5 10 6 11 7 9 8 2 9 1 10 3 11
REMARK H PARENT
REMARK Flexibility Score: inf
ROOT
ATOM      1  C   UNL     1     -13.885  -8.224  95.616  1.00  0.00     0.008 C 
ATOM      2  C   UNL     1     -14.600  -9.567  95.836  1.00  0.00    -0.007 C 
ATOM      3  C   UNL     1     -15.541  -9.523  97.063  1.00  0.00     0.004 C 
ATOM      4  C   UNL     1     -14.783  -9.499  98.406  1.00  0.00     0.012 C 
ATOM      5  C   UNL     1     -13.797 -10.686  98.537  1.00  0.00     0.058 C 
ATOM      6  C   UNL     1     -12.921 -10.689  97.296  1.00  0.00     0.136 C 
ATOM      7  O   UNL     1     -11.706 -10.573  97.360  1.00  0.00    -0.299 OA
ATOM      8  C   UNL     1     -13.595 -10.728  95.955  1.00  0.00     0.079 C 
ENDROOT
BRANCH   5   9
ATOM      9  C   UNL     1     -12.971 -10.658  99.864  1.00  0.00    -0.007 C 
ATOM     10  C   UNL     1     -12.758  -9.233 100.404  1.00  0.00     0.008 C 
ATOM     11  C   UNL     1     -13.662 -11.496 100.958  1.00  0.00     0.008 C 
ENDBRANCH   5   9
TORSDOF 1
ENDMDL
MODEL 5
REMARK VINA RESULT:    -3.819      1.753      3.901
REMARK INTER + INTRA:          -4.156
REMARK INTER:                  -3.979
REMARK INTRA:                  -0.177
REMARK UNBOUND:                -0.113
REMARK SMILES CC(C)[C@H]1CC[C@@H](C)CC1=O
REMARK SMILES IDX 8 1 7 2 6 3 5 4 4 5 10 6 11 7 9 8 2 9 1 10 3 11
REMARK H PARENT
REMARK Flexibility Score: inf
ROOT
ATOM      1  C   UNL     1     -11.336  -9.152  97.025  1.00  0.00     0.008 C 
ATOM      2  C   UNL     1     -11.871 -10.589  97.129  1.00  0.00    -0.007 C 
ATOM      3  C   UNL     1     -11.413 -11.461  95.937  1.00  0.00     0.004 C 
ATOM      4  C   UNL     1     -12.121 -11.100  94.615  1.00  0.00     0.012 C 
ATOM      5  C   UNL     1     -13.662 -11.154  94.750  1.00  0.00     0.058 C 
ATOM      6  C   UNL     1     -14.046 -10.303  95.948  1.00  0.00     0.136 C 
ATOM      7  O   UNL     1     -14.783  -9.333  95.844  1.00  0.00    -0.299 OA
ATOM      8  C   UNL     1     -13.404 -10.611  97.270  1.00  0.00     0.079 C 
ENDROOT
BRANCH   5   9
ATOM      9  C   UNL     1     -14.412 -10.738  93.442  1.00  0.00    -0.007 C 
ATOM     10  C   UNL     1     -13.508  -9.976  92.455  1.00  0.00     0.008 C 
ATOM     11  C   UNL     1     -14.987 -11.973  92.723  1.00  0.00     0.008 C 
ENDBRANCH   5   9
TORSDOF 1
ENDMDL
MODEL 6
REMARK VINA RESULT:    -3.713      6.748      8.131
REMARK INTER + INTRA:          -4.043
REMARK INTER:                  -3.872
REMARK INTRA:                  -0.170
REMARK UNBOUND:                -0.113
REMARK SMILES CC(C)[C@H]1CC[C@@H](C)CC1=O
REMARK SMILES IDX 8 1 7 2 6 3 5 4 4 5 10 6 11 7 9 8 2 9 1 10 3 11
REMARK H PARENT
REMARK Flexibility Score: inf
ROOT
ATOM      1  C   UNL     1      -7.885  -5.789  94.406  1.00  0.00     0.008 C 
ATOM      2  C   UNL     1      -6.632  -6.484  93.851  1.00  0.00    -0.007 C 
ATOM      3  C   UNL     1      -6.312  -6.029  92.408  1.00  0.00     0.004 C 
ATOM      4  C   UNL     1      -7.305  -6.583  91.365  1.00  0.00     0.012 C 
ATOM      5  C   UNL     1      -7.403  -8.128  91.423  1.00  0.00     0.058 C 
ATOM      6  C   UNL     1      -7.691  -8.512  92.864  1.00  0.00     0.136 C 
ATOM      7  O   UNL     1      -8.698  -9.128  93.181  1.00  0.00    -0.299 OA
ATOM      8  C   UNL     1      -6.755  -8.017  93.929  1.00  0.00     0.079 C 
ENDROOT
BRANCH   5   9
ATOM      9  C   UNL     1      -8.443  -8.718  90.416  1.00  0.00    -0.007 C 
ATOM     10  C   UNL     1      -9.269  -7.630  89.706  1.00  0.00     0.008 C 
ATOM     11  C   UNL     1      -7.743  -9.576  89.344  1.00  0.00     0.008 C 
ENDBRANCH   5   9
TORSDOF 1
ENDMDL
MODEL 7
REMARK VINA RESULT:    -3.658      6.856      8.091
REMARK INTER + INTRA:          -3.985
REMARK INTER:                  -3.817
REMARK INTRA:                  -0.168
REMARK UNBOUND:                -0.113
REMARK SMILES CC(C)[C@H]1CC[C@@H](C)CC1=O
REMARK SMILES IDX 8 1 7 2 6 3 5 4 4 5 10 6 11 7 9 8 2 9 1 10 3 11
REMARK H PARENT
REMARK Flexibility Score: inf
ROOT
ATOM      1  C   UNL     1      -9.684  -5.597  92.061  1.00  0.00     0.008 C 
ATOM      2  C   UNL     1      -8.712  -5.673  90.872  1.00  0.00    -0.007 C 
ATOM      3  C   UNL     1      -9.423  -6.129  89.577  1.00  0.00     0.004 C 
ATOM      4  C   UNL     1      -9.808  -7.622  89.591  1.00  0.00     0.012 C 
ATOM      5  C   UNL     1      -8.587  -8.532  89.874  1.00  0.00     0.058 C 
ATOM      6  C   UNL     1      -7.920  -8.020  91.139  1.00  0.00     0.136 C 
ATOM      7  O   UNL     1      -7.796  -8.719  92.134  1.00  0.00    -0.299 OA
ATOM      8  C   UNL     1      -7.506  -6.578  91.186  1.00  0.00     0.079 C 
ENDROOT
BRANCH   5   9
ATOM      9  C   UNL     1      -8.954 -10.051  89.952  1.00  0.00    -0.007 C 
ATOM     10  C   UNL     1     -10.466 -10.306  89.812  1.00  0.00     0.008 C 
ATOM     11  C   UNL     1      -8.222 -10.848  88.855  1.00  0.00     0.008 C 
ENDBRANCH   5   9
TORSDOF 1
ENDMDL
MODEL 8
REMARK VINA RESULT:    -3.657      7.577      9.292
REMARK INTER + INTRA:          -3.984
REMARK INTER:                  -3.823
REMARK INTRA:                  -0.161
REMARK UNBOUND:                -0.113
REMARK SMILES CC(C)[C@H]1CC[C@@H](C)CC1=O
REMARK SMILES IDX 8 1 7 2 6 3 5 4 4 5 10 6 11 7 9 8 2 9 1 10 3 11
REMARK H PARENT
REMARK Flexibility Score: inf
ROOT
ATOM      1  C   UNL     1      -5.667  -3.482  93.917  1.00  0.00     0.008 C 
ATOM      2  C   UNL     1      -4.905  -4.281  92.847  1.00  0.00    -0.007 C 
ATOM      3  C   UNL     1      -5.565  -4.150  91.454  1.00  0.00     0.004 C 
ATOM      4  C   UNL     1      -6.897  -4.919  91.341  1.00  0.00     0.012 C 
ATOM      5  C   UNL     1      -6.735  -6.414  91.713  1.00  0.00     0.058 C 
ATOM      6  C   UNL     1      -6.062  -6.476  93.073  1.00  0.00     0.136 C 
ATOM      7  O   UNL     1      -6.595  -7.009  94.036  1.00  0.00    -0.299 OA
ATOM      8  C   UNL     1      -4.754  -5.760  93.247  1.00  0.00     0.079 C 
ENDROOT
BRANCH   5   9
ATOM      9  C   UNL     1      -8.080  -7.211  91.662  1.00  0.00    -0.007 C 
ATOM     10  C   UNL     1      -9.221  -6.412  91.007  1.00  0.00     0.008 C 
ATOM     11  C   UNL     1      -7.905  -8.534  90.892  1.00  0.00     0.008 C 
ENDBRANCH   5   9
TORSDOF 1
ENDMDL
MODEL 9
REMARK VINA RESULT:    -3.652      2.170      5.073
REMARK INTER + INTRA:          -3.979
REMARK INTER:                  -3.830
REMARK INTRA:                  -0.149
REMARK UNBOUND:                -0.113
REMARK SMILES CC(C)[C@H]1CC[C@@H](C)CC1=O
REMARK SMILES IDX 8 1 7 2 6 3 5 4 4 5 10 6 11 7 9 8 2 9 1 10 3 11
REMARK H PARENT
REMARK Flexibility Score: inf
ROOT
ATOM      1  C   UNL     1     -13.472 -10.303  96.167  1.00  0.00     0.008 C 
ATOM      2  C   UNL     1     -13.165 -11.571  95.353  1.00  0.00    -0.007 C 
ATOM      3  C   UNL     1     -11.644 -11.788  95.178  1.00  0.00     0.004 C 
ATOM      4  C   UNL     1     -10.998 -10.784  94.201  1.00  0.00     0.012 C 
ATOM      5  C   UNL     1     -11.697 -10.790  92.819  1.00  0.00     0.058 C 
ATOM      6  C   UNL     1     -13.185 -10.599  93.059  1.00  0.00     0.136 C 
ATOM      7  O   UNL     1     -13.800  -9.651  92.593  1.00  0.00    -0.299 OA
ATOM      8  C   UNL     1     -13.879 -11.551  93.989  1.00  0.00     0.079 C 
ENDROOT
BRANCH   5   9
ATOM      9  C   UNL     1     -11.102  -9.742  91.822  1.00  0.00    -0.007 C 
ATOM     10  C   UNL     1      -9.660  -9.335  92.177  1.00  0.00     0.008 C 
ATOM     11  C   UNL     1     -11.114 -10.288  90.381  1.00  0.00     0.008 C 
ENDBRANCH   5   9
TORSDOF 1
ENDMDL
