MODEL 1
REMARK VINA RESULT:    -4.105      0.000      0.000
REMARK INTER + INTRA:          -5.119
REMARK INTER:                  -4.825
REMARK INTRA:                  -0.294
REMARK UNBOUND:                -0.294
REMARK SMILES O=c1cc(-c2ccc(O)c(O)c2)oc2cc(O)cc(O)c12
REMARK SMILES IDX 4 1 3 2 2 3 1 4 21 5 19 6 18 7 16 8 15 9 14 10 13 11 5 12
REMARK SMILES IDX 6 13 7 14 8 15 12 16 10 17 9 18 11 20 20 22 17 24
REMARK H PARENT 9 19 11 21 20 23 17 25
REMARK Flexibility Score: inf
ROOT
ATOM      1  C   UNL     1      -1.873  54.969  32.750  1.00  0.00     0.138 A 
ATOM      2  C   UNL     1      -2.229  54.261  31.593  1.00  0.00     0.100 A 
ATOM      3  C   UNL     1      -3.576  54.016  31.321  1.00  0.00     0.197 A 
ATOM      4  O   UNL     1      -3.867  53.434  30.245  1.00  0.00    -0.289 OA
ATOM      5  C   UNL     1      -4.568  54.453  32.231  1.00  0.00     0.107 A 
ATOM      6  C   UNL     1      -5.968  54.222  32.078  1.00  0.00     0.134 A 
ATOM      7  C   UNL     1      -6.866  54.804  32.983  1.00  0.00     0.093 A 
ATOM      8  C   UNL     1      -6.412  55.555  34.067  1.00  0.00     0.123 A 
ATOM      9  C   UNL     1      -5.042  55.742  34.256  1.00  0.00     0.094 A 
ATOM     10  C   UNL     1      -4.123  55.203  33.351  1.00  0.00     0.146 A 
ATOM     11  O   UNL     1      -2.828  55.415  33.559  1.00  0.00    -0.456 OA
ENDROOT
BRANCH   1  12
ATOM     12  C   UNL     1      -0.456  55.257  33.088  1.00  0.00     0.021 A 
ATOM     13  C   UNL     1      -0.095  55.855  34.311  1.00  0.00     0.016 A 
ATOM     14  C   UNL     1       1.247  56.125  34.597  1.00  0.00     0.051 A 
ATOM     15  C   UNL     1       2.246  55.810  33.670  1.00  0.00     0.157 A 
ATOM     16  C   UNL     1       0.552  54.956  32.156  1.00  0.00     0.062 A 
ATOM     17  C   UNL     1       1.896  55.225  32.442  1.00  0.00     0.158 A 
BRANCH  15  18
ATOM     18  O   UNL     1       3.583  56.079  33.960  1.00  0.00    -0.504 OA
ATOM     19  H   UNL     1       4.038  56.922  33.631  1.00  0.00     0.293 HD
ENDBRANCH  15  18
BRANCH  17  20
ATOM     20  O   UNL     1       2.867  54.902  31.495  1.00  0.00    -0.504 OA
ATOM     21  H   UNL     1       3.546  54.165  31.648  1.00  0.00     0.293 HD
ENDBRANCH  17  20
ENDBRANCH   1  12
BRANCH   6  22
ATOM     22  O   UNL     1      -6.524  53.418  31.079  1.00  0.00    -0.507 OA
ATOM     23  H   UNL     1      -6.116  52.561  30.735  1.00  0.00     0.293 HD
ENDBRANCH   6  22
BRANCH   8  24
ATOM     24  O   UNL     1      -7.334  56.106  34.955  1.00  0.00    -0.508 OA
ATOM     25  H   UNL     1      -7.196  57.025  35.357  1.00  0.00     0.293 HD
ENDBRANCH   8  24
TORSDOF 5
ENDMDL
MODEL 2
REMARK VINA RESULT:    -4.073     21.827     24.648
REMARK INTER + INTRA:          -5.082
REMARK INTER:                  -4.794
REMARK INTRA:                  -0.287
REMARK UNBOUND:                -0.294
REMARK SMILES O=c1cc(-c2ccc(O)c(O)c2)oc2cc(O)cc(O)c12
REMARK SMILES IDX 4 1 3 2 2 3 1 4 21 5 19 6 18 7 16 8 15 9 14 10 13 11 5 12
REMARK SMILES IDX 6 13 7 14 8 15 12 16 10 17 9 18 11 20 20 22 17 24
REMARK H PARENT 9 19 11 21 20 23 17 25
REMARK Flexibility Score: inf
ROOT
ATOM      1  C   UNL     1     -13.141  37.488  20.043  1.00  0.00     0.138 A 
ATOM      2  C   UNL     1     -12.447  36.615  19.192  1.00  0.00     0.100 A 
ATOM      3  C   UNL     1     -12.436  36.856  17.817  1.00  0.00     0.197 A 
ATOM      4  O   UNL     1     -11.754  36.092  17.087  1.00  0.00    -0.289 OA
ATOM      5  C   UNL     1     -13.150  37.958  17.291  1.00  0.00     0.107 A 
ATOM      6  C   UNL     1     -13.244  38.276  15.902  1.00  0.00     0.134 A 
ATOM      7  C   UNL     1     -13.883  39.459  15.508  1.00  0.00     0.093 A 
ATOM      8  C   UNL     1     -14.483  40.301  16.443  1.00  0.00     0.123 A 
ATOM      9  C   UNL     1     -14.444  39.972  17.799  1.00  0.00     0.094 A 
ATOM     10  C   UNL     1     -13.785  38.816  18.227  1.00  0.00     0.146 A 
ATOM     11  O   UNL     1     -13.758  38.545  19.528  1.00  0.00    -0.456 OA
ENDROOT
BRANCH   1  12
ATOM     12  C   UNL     1     -13.186  37.278  21.512  1.00  0.00     0.021 A 
ATOM     13  C   UNL     1     -13.580  36.047  22.072  1.00  0.00     0.016 A 
ATOM     14  C   UNL     1     -13.623  35.883  23.460  1.00  0.00     0.051 A 
ATOM     15  C   UNL     1     -13.283  36.942  24.310  1.00  0.00     0.157 A 
ATOM     16  C   UNL     1     -12.860  38.341  22.373  1.00  0.00     0.062 A 
ATOM     17  C   UNL     1     -12.902  38.177  23.763  1.00  0.00     0.158 A 
BRANCH  15  18
ATOM     18  O   UNL     1     -13.326  36.772  25.693  1.00  0.00    -0.504 OA
ATOM     19  H   UNL     1     -12.552  36.363  26.202  1.00  0.00     0.293 HD
ENDBRANCH  15  18
BRANCH  17  20
ATOM     20  O   UNL     1     -12.561  39.253  24.581  1.00  0.00    -0.504 OA
ATOM     21  H   UNL     1     -12.800  39.278  25.566  1.00  0.00     0.293 HD
ENDBRANCH  17  20
ENDBRANCH   1  12
BRANCH   6  22
ATOM     22  O   UNL     1     -12.752  37.462  14.878  1.00  0.00    -0.507 OA
ATOM     23  H   UNL     1     -13.285  36.748  14.404  1.00  0.00     0.293 HD
ENDBRANCH   6  22
BRANCH   8  24
ATOM     24  O   UNL     1     -15.122  41.462  16.012  1.00  0.00    -0.508 OA
ATOM     25  H   UNL     1     -15.700  41.469  15.180  1.00  0.00     0.293 HD
ENDBRANCH   8  24
TORSDOF 5
ENDMDL
MODEL 3
REMARK VINA RESULT:    -3.825     19.660     22.436
REMARK INTER + INTRA:          -4.789
REMARK INTER:                  -4.525
REMARK INTRA:                  -0.264
REMARK UNBOUND:                -0.294
REMARK SMILES O=c1cc(-c2ccc(O)c(O)c2)oc2cc(O)cc(O)c12
REMARK SMILES IDX 4 1 3 2 2 3 1 4 21 5 19 6 18 7 16 8 15 9 14 10 13 11 5 12
REMARK SMILES IDX 6 13 7 14 8 15 12 16 10 17 9 18 11 20 20 22 17 24
REMARK H PARENT 9 19 11 21 20 23 17 25
REMARK Flexibility Score: inf
ROOT
ATOM      1  C   UNL     1     -13.984  38.074  24.028  1.00  0.00     0.138 A 
ATOM      2  C   UNL     1     -14.210  36.931  24.807  1.00  0.00     0.100 A 
ATOM      3  C   UNL     1     -14.557  37.070  26.152  1.00  0.00     0.197 A 
ATOM      4  O   UNL     1     -14.815  36.029  26.808  1.00  0.00    -0.289 OA
ATOM      5  C   UNL     1     -14.646  38.360  26.725  1.00  0.00     0.107 A 
ATOM      6  C   UNL     1     -14.950  38.621  28.095  1.00  0.00     0.134 A 
ATOM      7  C   UNL     1     -15.125  39.943  28.523  1.00  0.00     0.093 A 
ATOM      8  C   UNL     1     -14.947  41.014  27.648  1.00  0.00     0.123 A 
ATOM      9  C   UNL     1     -14.596  40.772  26.319  1.00  0.00     0.094 A 
ATOM     10  C   UNL     1     -14.448  39.463  25.853  1.00  0.00     0.146 A 
ATOM     11  O   UNL     1     -14.127  39.275  24.577  1.00  0.00    -0.456 OA
ENDROOT
BRANCH   1  12
ATOM     12  C   UNL     1     -13.612  37.984  22.593  1.00  0.00     0.021 A 
ATOM     13  C   UNL     1     -14.448  38.491  21.579  1.00  0.00     0.016 A 
ATOM     14  C   UNL     1     -14.077  38.383  20.236  1.00  0.00     0.051 A 
ATOM     15  C   UNL     1     -12.873  37.763  19.881  1.00  0.00     0.157 A 
ATOM     16  C   UNL     1     -12.411  37.350  22.227  1.00  0.00     0.062 A 
ATOM     17  C   UNL     1     -12.038  37.242  20.882  1.00  0.00     0.158 A 
BRANCH  15  18
ATOM     18  O   UNL     1     -12.507  37.658  18.540  1.00  0.00    -0.504 OA
ATOM     19  H   UNL     1     -11.609  37.989  18.208  1.00  0.00     0.293 HD
ENDBRANCH  15  18
BRANCH  17  20
ATOM     20  O   UNL     1     -10.835  36.615  20.563  1.00  0.00    -0.504 OA
ATOM     21  H   UNL     1      -9.983  37.138  20.396  1.00  0.00     0.293 HD
ENDBRANCH  17  20
ENDBRANCH   1  12
BRANCH   6  22
ATOM     22  O   UNL     1     -15.067  37.629  29.073  1.00  0.00    -0.507 OA
ATOM     23  H   UNL     1     -14.994  36.637  28.899  1.00  0.00     0.293 HD
ENDBRANCH   6  22
BRANCH   8  24
ATOM     24  O   UNL     1     -15.114  42.317  28.113  1.00  0.00    -0.508 OA
ATOM     25  H   UNL     1     -14.784  42.598  29.028  1.00  0.00     0.293 HD
ENDBRANCH   8  24
TORSDOF 5
ENDMDL
MODEL 4
REMARK VINA RESULT:    -3.384      1.148      2.677
REMARK INTER + INTRA:          -4.272
REMARK INTER:                  -3.955
REMARK INTRA:                  -0.316
REMARK UNBOUND:                -0.294
REMARK SMILES O=c1cc(-c2ccc(O)c(O)c2)oc2cc(O)cc(O)c12
REMARK SMILES IDX 4 1 3 2 2 3 1 4 21 5 19 6 18 7 16 8 15 9 14 10 13 11 5 12
REMARK SMILES IDX 6 13 7 14 8 15 12 16 10 17 9 18 11 20 20 22 17 24
REMARK H PARENT 9 19 11 21 20 23 17 25
REMARK Flexibility Score: inf
ROOT
ATOM      1  C   UNL     1      -1.492  55.276  33.402  1.00  0.00     0.138 A 
ATOM      2  C   UNL     1      -2.356  55.833  34.356  1.00  0.00     0.100 A 
ATOM      3  C   UNL     1      -3.734  55.662  34.221  1.00  0.00     0.197 A 
ATOM      4  O   UNL     1      -4.480  56.119  35.125  1.00  0.00    -0.289 OA
ATOM      5  C   UNL     1      -4.250  54.958  33.107  1.00  0.00     0.107 A 
ATOM      6  C   UNL     1      -5.639  54.759  32.845  1.00  0.00     0.134 A 
ATOM      7  C   UNL     1      -6.028  53.946  31.772  1.00  0.00     0.093 A 
ATOM      8  C   UNL     1      -5.084  53.376  30.919  1.00  0.00     0.123 A 
ATOM      9  C   UNL     1      -3.724  53.609  31.135  1.00  0.00     0.094 A 
ATOM     10  C   UNL     1      -3.303  54.388  32.216  1.00  0.00     0.146 A 
ATOM     11  O   UNL     1      -1.999  54.574  32.395  1.00  0.00    -0.456 OA
ENDROOT
BRANCH   1  12
ATOM     12  C   UNL     1      -0.018  55.428  33.496  1.00  0.00     0.021 A 
ATOM     13  C   UNL     1       0.599  55.954  34.648  1.00  0.00     0.016 A 
ATOM     14  C   UNL     1       1.989  56.094  34.704  1.00  0.00     0.051 A 
ATOM     15  C   UNL     1       2.784  55.720  33.615  1.00  0.00     0.157 A 
ATOM     16  C   UNL     1       0.787  55.067  32.401  1.00  0.00     0.062 A 
ATOM     17  C   UNL     1       2.179  55.207  32.457  1.00  0.00     0.158 A 
BRANCH  15  18
ATOM     18  O   UNL     1       4.169  55.861  33.676  1.00  0.00    -0.504 OA
ATOM     19  H   UNL     1       4.674  56.444  33.019  1.00  0.00     0.293 HD
ENDBRANCH  15  18
BRANCH  17  20
ATOM     20  O   UNL     1       2.941  54.828  31.353  1.00  0.00    -0.504 OA
ATOM     21  H   UNL     1       3.433  55.505  30.780  1.00  0.00     0.293 HD
ENDBRANCH  17  20
ENDBRANCH   1  12
BRANCH   6  22
ATOM     22  O   UNL     1      -6.667  55.350  33.584  1.00  0.00    -0.507 OA
ATOM     23  H   UNL     1      -6.588  56.221  34.088  1.00  0.00     0.293 HD
ENDBRANCH   6  22
BRANCH   8  24
ATOM     24  O   UNL     1      -5.509  52.585  29.853  1.00  0.00    -0.508 OA
ATOM     25  H   UNL     1      -5.000  51.754  29.576  1.00  0.00     0.293 HD
ENDBRANCH   8  24
TORSDOF 5
ENDMDL
MODEL 5
REMARK VINA RESULT:    -2.049     20.980     22.995
REMARK INTER + INTRA:          -2.703
REMARK INTER:                  -2.411
REMARK INTRA:                  -0.291
REMARK UNBOUND:                -0.294
REMARK SMILES O=c1cc(-c2ccc(O)c(O)c2)oc2cc(O)cc(O)c12
REMARK SMILES IDX 4 1 3 2 2 3 1 4 21 5 19 6 18 7 16 8 15 9 14 10 13 11 5 12
REMARK SMILES IDX 6 13 7 14 8 15 12 16 10 17 9 18 11 20 20 22 17 24
REMARK H PARENT 9 19 11 21 20 23 17 25
REMARK Flexibility Score: inf
ROOT
ATOM      1  C   UNL     1     -13.586  37.903  23.619  1.00  0.00     0.138 A 
ATOM      2  C   UNL     1     -14.103  39.184  23.862  1.00  0.00     0.100 A 
ATOM      3  C   UNL     1     -14.385  39.576  25.172  1.00  0.00     0.197 A 
ATOM      4  O   UNL     1     -14.788  40.752  25.364  1.00  0.00    -0.289 OA
ATOM      5  C   UNL     1     -14.178  38.669  26.238  1.00  0.00     0.107 A 
ATOM      6  C   UNL     1     -14.470  38.945  27.607  1.00  0.00     0.134 A 
ATOM      7  C   UNL     1     -14.116  38.012  28.590  1.00  0.00     0.093 A 
ATOM      8  C   UNL     1     -13.538  36.789  28.248  1.00  0.00     0.123 A 
ATOM      9  C   UNL     1     -13.297  36.487  26.907  1.00  0.00     0.094 A 
ATOM     10  C   UNL     1     -13.608  37.411  25.907  1.00  0.00     0.146 A 
ATOM     11  O   UNL     1     -13.351  37.090  24.643  1.00  0.00    -0.456 OA
ENDROOT
BRANCH   1  12
ATOM     12  C   UNL     1     -13.269  37.433  22.246  1.00  0.00     0.021 A 
ATOM     13  C   UNL     1     -12.400  36.349  22.018  1.00  0.00     0.016 A 
ATOM     14  C   UNL     1     -12.111  35.936  20.714  1.00  0.00     0.051 A 
ATOM     15  C   UNL     1     -12.677  36.599  19.619  1.00  0.00     0.157 A 
ATOM     16  C   UNL     1     -13.822  38.103  21.140  1.00  0.00     0.062 A 
ATOM     17  C   UNL     1     -13.534  37.690  19.834  1.00  0.00     0.158 A 
BRANCH  15  18
ATOM     18  O   UNL     1     -12.387  36.183  18.320  1.00  0.00    -0.504 OA
ATOM     19  H   UNL     1     -12.717  36.696  17.512  1.00  0.00     0.293 HD
ENDBRANCH  15  18
BRANCH  17  20
ATOM     20  O   UNL     1     -14.111  38.375  18.766  1.00  0.00    -0.504 OA
ATOM     21  H   UNL     1     -14.591  39.259  18.889  1.00  0.00     0.293 HD
ENDBRANCH  17  20
ENDBRANCH   1  12
BRANCH   6  22
ATOM     22  O   UNL     1     -15.123  40.099  28.050  1.00  0.00    -0.507 OA
ATOM     23  H   UNL     1     -15.667  40.715  27.464  1.00  0.00     0.293 HD
ENDBRANCH   6  22
BRANCH   8  24
ATOM     24  O   UNL     1     -13.212  35.879  29.252  1.00  0.00    -0.508 OA
ATOM     25  H   UNL     1     -13.456  34.899  29.176  1.00  0.00     0.293 HD
ENDBRANCH   8  24
TORSDOF 5
ENDMDL
MODEL 6
REMARK VINA RESULT:    -1.632     20.074     22.960
REMARK INTER + INTRA:          -2.212
REMARK INTER:                  -1.914
REMARK INTRA:                  -0.299
REMARK UNBOUND:                -0.294
REMARK SMILES O=c1cc(-c2ccc(O)c(O)c2)oc2cc(O)cc(O)c12
REMARK SMILES IDX 4 1 3 2 2 3 1 4 21 5 19 6 18 7 16 8 15 9 14 10 13 11 5 12
REMARK SMILES IDX 6 13 7 14 8 15 12 16 10 17 9 18 11 20 20 22 17 24
REMARK H PARENT 9 19 11 21 20 23 17 25
REMARK Flexibility Score: inf
ROOT
ATOM      1  C   UNL     1     -14.064  38.171  22.768  1.00  0.00     0.138 A 
ATOM      2  C   UNL     1     -14.198  36.971  23.481  1.00  0.00     0.100 A 
ATOM      3  C   UNL     1     -14.471  37.007  24.849  1.00  0.00     0.197 A 
ATOM      4  O   UNL     1     -14.648  35.915  25.448  1.00  0.00    -0.289 OA
ATOM      5  C   UNL     1     -14.578  38.253  25.512  1.00  0.00     0.107 A 
ATOM      6  C   UNL     1     -14.813  38.411  26.911  1.00  0.00     0.134 A 
ATOM      7  C   UNL     1     -15.016  39.694  27.435  1.00  0.00     0.093 A 
ATOM      8  C   UNL     1     -14.932  40.826  26.625  1.00  0.00     0.123 A 
ATOM      9  C   UNL     1     -14.650  40.686  25.265  1.00  0.00     0.094 A 
ATOM     10  C   UNL     1     -14.476  39.418  24.706  1.00  0.00     0.146 A 
ATOM     11  O   UNL     1     -14.223  39.327  23.404  1.00  0.00    -0.456 OA
ENDROOT
BRANCH   1  12
ATOM     12  C   UNL     1     -13.773  38.190  21.312  1.00  0.00     0.021 A 
ATOM     13  C   UNL     1     -12.860  37.290  20.728  1.00  0.00     0.016 A 
ATOM     14  C   UNL     1     -12.598  37.338  19.356  1.00  0.00     0.051 A 
ATOM     15  C   UNL     1     -13.234  38.287  18.547  1.00  0.00     0.157 A 
ATOM     16  C   UNL     1     -14.396  39.149  20.495  1.00  0.00     0.062 A 
ATOM     17  C   UNL     1     -14.135  39.198  19.120  1.00  0.00     0.158 A 
BRANCH  15  18
ATOM     18  O   UNL     1     -12.970  38.330  17.179  1.00  0.00    -0.504 OA
ATOM     19  H   UNL     1     -13.707  38.487  16.501  1.00  0.00     0.293 HD
ENDBRANCH  15  18
BRANCH  17  20
ATOM     20  O   UNL     1     -14.782  40.158  18.343  1.00  0.00    -0.504 OA
ATOM     21  H   UNL     1     -14.665  40.204  17.337  1.00  0.00     0.293 HD
ENDBRANCH  17  20
ENDBRANCH   1  12
BRANCH   6  22
ATOM     22  O   UNL     1     -14.832  37.353  27.825  1.00  0.00    -0.507 OA
ATOM     23  H   UNL     1     -15.557  36.653  27.881  1.00  0.00     0.293 HD
ENDBRANCH   6  22
BRANCH   8  24
ATOM     24  O   UNL     1     -15.125  42.087  27.185  1.00  0.00    -0.508 OA
ATOM     25  H   UNL     1     -14.552  42.878  26.917  1.00  0.00     0.293 HD
ENDBRANCH   8  24
TORSDOF 5
ENDMDL
MODEL 7
REMARK VINA RESULT:    -1.175      1.869      7.860
REMARK INTER + INTRA:          -1.675
REMARK INTER:                  -1.387
REMARK INTRA:                  -0.288
REMARK UNBOUND:                -0.294
REMARK SMILES O=c1cc(-c2ccc(O)c(O)c2)oc2cc(O)cc(O)c12
REMARK SMILES IDX 4 1 3 2 2 3 1 4 21 5 19 6 18 7 16 8 15 9 14 10 13 11 5 12
REMARK SMILES IDX 6 13 7 14 8 15 12 16 10 17 9 18 11 20 20 22 17 24
REMARK H PARENT 9 19 11 21 20 23 17 25
REMARK Flexibility Score: inf
ROOT
ATOM      1  C   UNL     1      -0.253  55.007  32.370  1.00  0.00     0.138 A 
ATOM      2  C   UNL     1       0.092  55.404  33.670  1.00  0.00     0.100 A 
ATOM      3  C   UNL     1       1.421  55.713  33.968  1.00  0.00     0.197 A 
ATOM      4  O   UNL     1       1.689  56.125  35.125  1.00  0.00    -0.289 OA
ATOM      5  C   UNL     1       2.412  55.592  32.965  1.00  0.00     0.107 A 
ATOM      6  C   UNL     1       3.803  55.839  33.165  1.00  0.00     0.134 A 
ATOM      7  C   UNL     1       4.675  55.800  32.069  1.00  0.00     0.093 A 
ATOM      8  C   UNL     1       4.218  55.463  30.795  1.00  0.00     0.123 A 
ATOM      9  C   UNL     1       2.868  55.166  30.599  1.00  0.00     0.094 A 
ATOM     10  C   UNL     1       1.968  55.230  31.666  1.00  0.00     0.146 A 
ATOM     11  O   UNL     1       0.688  54.954  31.434  1.00  0.00    -0.456 OA
ENDROOT
BRANCH   1  12
ATOM     12  C   UNL     1      -1.650  54.667  32.000  1.00  0.00     0.021 A 
ATOM     13  C   UNL     1      -2.119  54.803  30.678  1.00  0.00     0.016 A 
ATOM     14  C   UNL     1      -3.442  54.485  30.361  1.00  0.00     0.051 A 
ATOM     15  C   UNL     1      -4.320  54.034  31.353  1.00  0.00     0.157 A 
ATOM     16  C   UNL     1      -2.542  54.227  32.993  1.00  0.00     0.062 A 
ATOM     17  C   UNL     1      -3.868  53.907  32.676  1.00  0.00     0.158 A 
BRANCH  15  18
ATOM     18  O   UNL     1      -5.639  53.717  31.031  1.00  0.00    -0.504 OA
ATOM     19  H   UNL     1      -6.283  53.355  31.725  1.00  0.00     0.293 HD
ENDBRANCH  15  18
BRANCH  17  20
ATOM     20  O   UNL     1      -4.717  53.464  33.689  1.00  0.00    -0.504 OA
ATOM     21  H   UNL     1      -4.382  52.916  34.473  1.00  0.00     0.293 HD
ENDBRANCH  17  20
ENDBRANCH   1  12
BRANCH   6  22
ATOM     22  O   UNL     1       4.380  56.102  34.411  1.00  0.00    -0.507 OA
ATOM     23  H   UNL     1       3.937  56.625  35.152  1.00  0.00     0.293 HD
ENDBRANCH   6  22
BRANCH   8  24
ATOM     24  O   UNL     1       5.117  55.419  29.732  1.00  0.00    -0.508 OA
ATOM     25  H   UNL     1       4.922  55.888  28.855  1.00  0.00     0.293 HD
ENDBRANCH   8  24
TORSDOF 5
ENDMDL
