MODEL 1
REMARK VINA RESULT:    -4.011      0.000      0.000
REMARK INTER + INTRA:          -4.011
REMARK INTER:                  -4.011
REMARK INTRA:                   0.000
REMARK UNBOUND:                 0.000
REMARK SMILES C=C1CCC[C@]2(C)CC(=O)C(=C(C)C)C[C@H]12
REMARK SMILES IDX 13 1 12 2 11 3 15 4 16 5 2 6 1 7 3 8 4 9 5 10 6 11 8 12 9 13
REMARK SMILES IDX 10 14 7 15 14 16
REMARK H PARENT
REMARK Flexibility Score: inf
ROOT
ATOM      1  C   UNL     1      14.834  16.006  10.283  1.00  0.00     0.039 C 
ATOM      2  C   UNL     1      13.432  15.821  10.814  1.00  0.00    -0.070 C 
ATOM      3  C   UNL     1      13.206  15.366  12.079  1.00  0.00    -0.006 C 
ATOM      4  C   UNL     1      14.339  15.018  13.024  1.00  0.00     0.047 C 
ATOM      5  C   UNL     1      14.021  15.333  14.509  1.00  0.00     0.025 C 
ATOM      6  C   UNL     1      15.111  14.728  15.379  1.00  0.00    -0.073 C 
ATOM      7  C   UNL     1      16.127  15.483  15.825  1.00  0.00     0.008 C 
ATOM      8  C   UNL     1      15.116  13.230  15.601  1.00  0.00     0.031 C 
ATOM      9  C   UNL     1      13.720  12.709  15.970  1.00  0.00     0.005 C 
ATOM     10  C   UNL     1      12.615  13.269  15.056  1.00  0.00     0.008 C 
ATOM     11  C   UNL     1      12.623  14.824  14.980  1.00  0.00    -0.018 C 
ATOM     12  C   UNL     1      11.516  15.316  14.010  1.00  0.00     0.088 C 
ATOM     13  C   UNL     1      11.848  15.052  12.577  1.00  0.00     0.159 C 
ATOM     14  O   UNL     1      10.968  14.565  11.817  1.00  0.00    -0.295 OA
ATOM     15  C   UNL     1      12.293  15.420  16.375  1.00  0.00     0.012 C 
ATOM     16  C   UNL     1      12.291  16.197   9.896  1.00  0.00     0.039 C 
ENDROOT
TORSDOF 0
ENDMDL
MODEL 2
REMARK VINA RESULT:    -2.845      1.894      5.348
REMARK INTER + INTRA:          -2.845
REMARK INTER:                  -2.845
REMARK INTRA:                   0.000
REMARK UNBOUND:                 0.000
REMARK SMILES C=C1CCC[C@]2(C)CC(=O)C(=C(C)C)C[C@H]12
REMARK SMILES IDX 13 1 12 2 11 3 15 4 16 5 2 6 1 7 3 8 4 9 5 10 6 11 8 12 9 13
REMARK SMILES IDX 10 14 7 15 14 16
REMARK H PARENT
REMARK Flexibility Score: inf
ROOT
ATOM      1  C   UNL     1      12.250  15.004  16.324  1.00  0.00     0.039 C 
ATOM      2  C   UNL     1      13.315  14.877  15.260  1.00  0.00    -0.070 C 
ATOM      3  C   UNL     1      13.015  15.014  13.937  1.00  0.00    -0.006 C 
ATOM      4  C   UNL     1      11.605  15.296  13.455  1.00  0.00     0.047 C 
ATOM      5  C   UNL     1      11.555  16.197  12.193  1.00  0.00     0.025 C 
ATOM      6  C   UNL     1      10.130  16.212  11.664  1.00  0.00    -0.073 C 
ATOM      7  C   UNL     1       9.302  17.226  11.962  1.00  0.00     0.008 C 
ATOM      8  C   UNL     1       9.614  14.994  10.928  1.00  0.00     0.031 C 
ATOM      9  C   UNL     1      10.620  14.499   9.879  1.00  0.00     0.005 C 
ATOM     10  C   UNL     1      12.058  14.421  10.423  1.00  0.00     0.008 C 
ATOM     11  C   UNL     1      12.537  15.759  11.062  1.00  0.00    -0.018 C 
ATOM     12  C   UNL     1      13.972  15.596  11.628  1.00  0.00     0.088 C 
ATOM     13  C   UNL     1      14.010  14.766  12.870  1.00  0.00     0.159 C 
ATOM     14  O   UNL     1      14.887  13.867  12.988  1.00  0.00    -0.295 OA
ATOM     15  C   UNL     1      12.607  16.865   9.974  1.00  0.00     0.012 C 
ATOM     16  C   UNL     1      14.731  14.631  15.726  1.00  0.00     0.039 C 
ENDROOT
TORSDOF 0
ENDMDL
MODEL 3
REMARK VINA RESULT:    -2.444      1.390      4.884
REMARK INTER + INTRA:          -2.444
REMARK INTER:                  -2.444
REMARK INTRA:                   0.000
REMARK UNBOUND:                 0.000
REMARK SMILES C=C1CCC[C@]2(C)CC(=O)C(=C(C)C)C[C@H]12
REMARK SMILES IDX 13 1 12 2 11 3 15 4 16 5 2 6 1 7 3 8 4 9 5 10 6 11 8 12 9 13
REMARK SMILES IDX 10 14 7 15 14 16
REMARK H PARENT
REMARK Flexibility Score: inf
ROOT
ATOM      1  C   UNL     1      14.735  14.624  15.584  1.00  0.00     0.039 C 
ATOM      2  C   UNL     1      13.256  14.762  15.309  1.00  0.00    -0.070 C 
ATOM      3  C   UNL     1      12.792  15.074  14.066  1.00  0.00    -0.006 C 
ATOM      4  C   UNL     1      13.723  15.304  12.892  1.00  0.00     0.047 C 
ATOM      5  C   UNL     1      13.137  14.827  11.538  1.00  0.00     0.025 C 
ATOM      6  C   UNL     1      14.036  15.321  10.417  1.00  0.00    -0.073 C 
ATOM      7  C   UNL     1      14.960  14.511   9.875  1.00  0.00     0.008 C 
ATOM      8  C   UNL     1      13.982  16.784  10.031  1.00  0.00     0.031 C 
ATOM      9  C   UNL     1      12.535  17.274   9.875  1.00  0.00     0.005 C 
ATOM     10  C   UNL     1      11.628  16.830  11.037  1.00  0.00     0.008 C 
ATOM     11  C   UNL     1      11.668  15.292  11.284  1.00  0.00    -0.018 C 
ATOM     12  C   UNL     1      10.769  14.923  12.493  1.00  0.00     0.088 C 
ATOM     13  C   UNL     1      11.361  15.343  13.800  1.00  0.00     0.159 C 
ATOM     14  O   UNL     1      10.633  15.920  14.652  1.00  0.00    -0.295 OA
ATOM     15  C   UNL     1      11.090  14.548  10.051  1.00  0.00     0.012 C 
ATOM     16  C   UNL     1      12.312  14.502  16.460  1.00  0.00     0.039 C 
ENDROOT
TORSDOF 0
ENDMDL
MODEL 4
REMARK VINA RESULT:    -1.996      2.505      4.542
REMARK INTER + INTRA:          -1.996
REMARK INTER:                  -1.996
REMARK INTRA:                   0.000
REMARK UNBOUND:                 0.000
REMARK SMILES C=C1CCC[C@]2(C)CC(=O)C(=C(C)C)C[C@H]12
REMARK SMILES IDX 13 1 12 2 11 3 15 4 16 5 2 6 1 7 3 8 4 9 5 10 6 11 8 12 9 13
REMARK SMILES IDX 10 14 7 15 14 16
REMARK H PARENT
REMARK Flexibility Score: inf
ROOT
ATOM      1  C   UNL     1       8.941  18.009  14.367  1.00  0.00     0.039 C 
ATOM      2  C   UNL     1       9.113  17.901  12.870  1.00  0.00    -0.070 C 
ATOM      3  C   UNL     1      10.127  17.172  12.324  1.00  0.00    -0.006 C 
ATOM      4  C   UNL     1      11.140  16.433  13.177  1.00  0.00     0.047 C 
ATOM      5  C   UNL     1      11.624  15.103  12.544  1.00  0.00     0.025 C 
ATOM      6  C   UNL     1      12.798  14.578  13.355  1.00  0.00    -0.073 C 
ATOM      7  C   UNL     1      12.614  13.632  14.290  1.00  0.00     0.008 C 
ATOM      8  C   UNL     1      14.147  15.250  13.202  1.00  0.00     0.031 C 
ATOM      9  C   UNL     1      14.508  15.463  11.725  1.00  0.00     0.005 C 
ATOM     10  C   UNL     1      13.344  16.051  10.906  1.00  0.00     0.008 C 
ATOM     11  C   UNL     1      12.030  15.226  11.042  1.00  0.00    -0.018 C 
ATOM     12  C   UNL     1      10.892  15.899  10.230  1.00  0.00     0.088 C 
ATOM     13  C   UNL     1      10.396  17.156  10.868  1.00  0.00     0.159 C 
ATOM     14  O   UNL     1      10.216  18.182  10.157  1.00  0.00    -0.295 OA
ATOM     15  C   UNL     1      12.235  13.810  10.438  1.00  0.00     0.012 C 
ATOM     16  C   UNL     1       8.092  18.602  12.005  1.00  0.00     0.039 C 
ENDROOT
TORSDOF 0
ENDMDL
MODEL 5
REMARK VINA RESULT:    -1.979      1.494      3.135
REMARK INTER + INTRA:          -1.979
REMARK INTER:                  -1.979
REMARK INTRA:                   0.000
REMARK UNBOUND:                 0.000
REMARK SMILES C=C1CCC[C@]2(C)CC(=O)C(=C(C)C)C[C@H]12
REMARK SMILES IDX 13 1 12 2 11 3 15 4 16 5 2 6 1 7 3 8 4 9 5 10 6 11 8 12 9 13
REMARK SMILES IDX 10 14 7 15 14 16
REMARK H PARENT
REMARK Flexibility Score: inf
ROOT
ATOM      1  C   UNL     1       9.757  16.067  13.004  1.00  0.00     0.039 C 
ATOM      2  C   UNL     1      11.047  15.911  12.234  1.00  0.00    -0.070 C 
ATOM      3  C   UNL     1      12.194  15.502  12.847  1.00  0.00    -0.006 C 
ATOM      4  C   UNL     1      12.247  15.186  14.329  1.00  0.00     0.047 C 
ATOM      5  C   UNL     1      13.227  14.035  14.678  1.00  0.00     0.025 C 
ATOM      6  C   UNL     1      13.381  13.969  16.189  1.00  0.00    -0.073 C 
ATOM      7  C   UNL     1      12.674  13.084  16.909  1.00  0.00     0.008 C 
ATOM      8  C   UNL     1      14.223  15.021  16.881  1.00  0.00     0.031 C 
ATOM      9  C   UNL     1      15.566  15.229  16.168  1.00  0.00     0.005 C 
ATOM     10  C   UNL     1      15.415  15.358  14.641  1.00  0.00     0.008 C 
ATOM     11  C   UNL     1      14.630  14.172  14.007  1.00  0.00    -0.018 C 
ATOM     12  C   UNL     1      14.477  14.389  12.479  1.00  0.00     0.088 C 
ATOM     13  C   UNL     1      13.497  15.468  12.146  1.00  0.00     0.159 C 
ATOM     14  O   UNL     1      13.797  16.330  11.276  1.00  0.00    -0.295 OA
ATOM     15  C   UNL     1      15.429  12.854  14.195  1.00  0.00     0.012 C 
ATOM     16  C   UNL     1      11.003  16.188  10.749  1.00  0.00     0.039 C 
ENDROOT
TORSDOF 0
ENDMDL
