MODEL 1
REMARK VINA RESULT:    -2.950      0.000      0.000
REMARK INTER + INTRA:          -3.308
REMARK INTER:                  -3.295
REMARK INTRA:                  -0.013
REMARK UNBOUND:                -0.013
REMARK SMILES CCCC(=O)[O-]
REMARK SMILES IDX 3 1 4 2 5 3 6 4 2 5 1 6
REMARK H PARENT
REMARK Flexibility Score: inf
ROOT
ATOM      1  C   UNL     1      -1.217   2.712  -3.710  1.00  0.00     0.052 C 
ENDROOT
BRANCH   1   2
ATOM      2  C   UNL     1      -2.209   2.045  -2.807  1.00  0.00     0.041 C 
ATOM      3  O   UNL     1      -2.471   2.537  -1.678  1.00  0.00    -0.550 OA
ATOM      4  O   UNL     1      -2.869   0.897  -3.227  1.00  0.00    -0.550 OA
ENDBRANCH   1   2
BRANCH   1   5
ATOM      5  C   UNL     1      -0.042   3.303  -2.921  1.00  0.00     0.003 C 
ATOM      6  C   UNL     1       1.310   2.810  -3.435  1.00  0.00     0.004 C 
ENDBRANCH   1   5
TORSDOF 2
ENDMDL
MODEL 2
REMARK VINA RESULT:    -2.913      0.081      1.324
REMARK INTER + INTRA:          -3.267
REMARK INTER:                  -3.256
REMARK INTRA:                  -0.010
REMARK UNBOUND:                -0.013
REMARK SMILES CCCC(=O)[O-]
REMARK SMILES IDX 3 1 4 2 5 3 6 4 2 5 1 6
REMARK H PARENT
REMARK Flexibility Score: inf
ROOT
ATOM      1  C   UNL     1      -1.233   2.641  -3.715  1.00  0.00     0.052 C 
ENDROOT
BRANCH   1   2
ATOM      2  C   UNL     1      -2.257   2.002  -2.828  1.00  0.00     0.041 C 
ATOM      3  O   UNL     1      -2.827   0.935  -3.180  1.00  0.00    -0.550 OA
ATOM      4  O   UNL     1      -2.558   2.567  -1.595  1.00  0.00    -0.550 OA
ENDBRANCH   1   2
BRANCH   1   5
ATOM      5  C   UNL     1      -0.099   3.279  -2.904  1.00  0.00     0.003 C 
ATOM      6  C   UNL     1       1.283   2.863  -3.408  1.00  0.00     0.004 C 
ENDBRANCH   1   5
TORSDOF 2
ENDMDL
MODEL 3
REMARK VINA RESULT:    -2.762      1.938      3.442
REMARK INTER + INTRA:          -3.098
REMARK INTER:                  -3.066
REMARK INTRA:                  -0.032
REMARK UNBOUND:                -0.013
REMARK SMILES CCCC(=O)[O-]
REMARK SMILES IDX 3 1 4 2 5 3 6 4 2 5 1 6
REMARK H PARENT
REMARK Flexibility Score: inf
ROOT
ATOM      1  C   UNL     1      -2.634   1.675  -3.921  1.00  0.00     0.052 C 
ENDROOT
BRANCH   1   2
ATOM      2  C   UNL     1      -1.873   2.282  -2.782  1.00  0.00     0.041 C 
ATOM      3  O   UNL     1      -0.650   2.556  -2.910  1.00  0.00    -0.550 OA
ATOM      4  O   UNL     1      -2.522   2.574  -1.589  1.00  0.00    -0.550 OA
ENDBRANCH   1   2
BRANCH   1   5
ATOM      5  C   UNL     1      -3.882   0.928  -3.434  1.00  0.00     0.003 C 
ATOM      6  C   UNL     1      -3.705  -0.589  -3.476  1.00  0.00     0.004 C 
ENDBRANCH   1   5
TORSDOF 2
ENDMDL
MODEL 4
REMARK VINA RESULT:    -2.742      1.292      2.355
REMARK INTER + INTRA:          -3.076
REMARK INTER:                  -3.068
REMARK INTRA:                  -0.008
REMARK UNBOUND:                -0.013
REMARK SMILES CCCC(=O)[O-]
REMARK SMILES IDX 3 1 4 2 5 3 6 4 2 5 1 6
REMARK H PARENT
REMARK Flexibility Score: inf
ROOT
ATOM      1  C   UNL     1      -1.314   2.669  -3.854  1.00  0.00     0.052 C 
ENDROOT
BRANCH   1   2
ATOM      2  C   UNL     1      -2.247   1.995  -2.895  1.00  0.00     0.041 C 
ATOM      3  O   UNL     1      -2.791   0.901  -3.201  1.00  0.00    -0.550 OA
ATOM      4  O   UNL     1      -2.490   2.559  -1.649  1.00  0.00    -0.550 OA
ENDBRANCH   1   2
BRANCH   1   5
ATOM      5  C   UNL     1      -1.874   2.673  -5.282  1.00  0.00     0.003 C 
ATOM      6  C   UNL     1      -0.940   3.368  -6.272  1.00  0.00     0.004 C 
ENDBRANCH   1   5
TORSDOF 2
ENDMDL
MODEL 5
REMARK VINA RESULT:    -2.724      3.212      3.990
REMARK INTER + INTRA:          -3.056
REMARK INTER:                  -3.048
REMARK INTRA:                  -0.008
REMARK UNBOUND:                -0.013
REMARK SMILES CCCC(=O)[O-]
REMARK SMILES IDX 3 1 4 2 5 3 6 4 2 5 1 6
REMARK H PARENT
REMARK Flexibility Score: inf
ROOT
ATOM      1  C   UNL     1       0.695   3.272  -2.948  1.00  0.00     0.052 C 
ENDROOT
BRANCH   1   2
ATOM      2  C   UNL     1       1.899   2.639  -3.574  1.00  0.00     0.041 C 
ATOM      3  O   UNL     1       2.345   3.069  -4.671  1.00  0.00    -0.550 OA
ATOM      4  O   UNL     1       2.549   1.594  -2.930  1.00  0.00    -0.550 OA
ENDBRANCH   1   2
BRANCH   1   5
ATOM      5  C   UNL     1      -0.594   2.895  -3.689  1.00  0.00     0.003 C 
ATOM      6  C   UNL     1      -1.712   2.476  -2.736  1.00  0.00     0.004 C 
ENDBRANCH   1   5
TORSDOF 2
ENDMDL
MODEL 6
REMARK VINA RESULT:    -2.713      3.245      4.002
REMARK INTER + INTRA:          -3.044
REMARK INTER:                  -3.032
REMARK INTRA:                  -0.012
REMARK UNBOUND:                -0.013
REMARK SMILES CCCC(=O)[O-]
REMARK SMILES IDX 3 1 4 2 5 3 6 4 2 5 1 6
REMARK H PARENT
REMARK Flexibility Score: inf
ROOT
ATOM      1  C   UNL     1       0.758   3.056  -3.836  1.00  0.00     0.052 C 
ENDROOT
BRANCH   1   2
ATOM      2  C   UNL     1       2.152   2.898  -3.309  1.00  0.00     0.041 C 
ATOM      3  O   UNL     1       2.887   3.908  -3.144  1.00  0.00    -0.550 OA
ATOM      4  O   UNL     1       2.628   1.638  -2.968  1.00  0.00    -0.550 OA
ENDBRANCH   1   2
BRANCH   1   5
ATOM      5  C   UNL     1      -0.255   3.266  -2.703  1.00  0.00     0.003 C 
ATOM      6  C   UNL     1      -1.508   2.409  -2.878  1.00  0.00     0.004 C 
ENDBRANCH   1   5
TORSDOF 2
ENDMDL
MODEL 7
REMARK VINA RESULT:    -2.688      4.482      5.385
REMARK INTER + INTRA:          -3.016
REMARK INTER:                  -3.008
REMARK INTRA:                  -0.008
REMARK UNBOUND:                -0.013
REMARK SMILES CCCC(=O)[O-]
REMARK SMILES IDX 3 1 4 2 5 3 6 4 2 5 1 6
REMARK H PARENT
REMARK Flexibility Score: inf
ROOT
ATOM      1  C   UNL     1       2.507   1.877  -3.047  1.00  0.00     0.052 C 
ENDROOT
BRANCH   1   2
ATOM      2  C   UNL     1       3.917   1.995  -3.539  1.00  0.00     0.041 C 
ATOM      3  O   UNL     1       4.149   2.265  -4.747  1.00  0.00    -0.550 OA
ATOM      4  O   UNL     1       4.977   1.838  -2.654  1.00  0.00    -0.550 OA
ENDBRANCH   1   2
BRANCH   1   5
ATOM      5  C   UNL     1       1.591   2.918  -3.702  1.00  0.00     0.003 C 
ATOM      6  C   UNL     1       0.206   2.961  -3.058  1.00  0.00     0.004 C 
ENDBRANCH   1   5
TORSDOF 2
ENDMDL
MODEL 8
REMARK VINA RESULT:    -2.664      1.796      2.266
REMARK INTER + INTRA:          -2.988
REMARK INTER:                  -2.983
REMARK INTRA:                  -0.005
REMARK UNBOUND:                -0.013
REMARK SMILES CCCC(=O)[O-]
REMARK SMILES IDX 3 1 4 2 5 3 6 4 2 5 1 6
REMARK H PARENT
REMARK Flexibility Score: inf
ROOT
ATOM      1  C   UNL     1      -2.667   1.616  -3.805  1.00  0.00     0.052 C 
ENDROOT
BRANCH   1   2
ATOM      2  C   UNL     1      -3.769   0.676  -3.422  1.00  0.00     0.041 C 
ATOM      3  O   UNL     1      -4.923   1.117  -3.175  1.00  0.00    -0.550 OA
ATOM      4  O   UNL     1      -3.530  -0.691  -3.370  1.00  0.00    -0.550 OA
ENDBRANCH   1   2
BRANCH   1   5
ATOM      5  C   UNL     1      -2.071   2.319  -2.579  1.00  0.00     0.003 C 
ATOM      6  C   UNL     1      -0.696   2.920  -2.865  1.00  0.00     0.004 C 
ENDBRANCH   1   5
TORSDOF 2
ENDMDL
MODEL 9
REMARK VINA RESULT:    -2.644      1.955      3.490
REMARK INTER + INTRA:          -2.966
REMARK INTER:                  -2.932
REMARK INTRA:                  -0.034
REMARK UNBOUND:                -0.013
REMARK SMILES CCCC(=O)[O-]
REMARK SMILES IDX 3 1 4 2 5 3 6 4 2 5 1 6
REMARK H PARENT
REMARK Flexibility Score: inf
ROOT
ATOM      1  C   UNL     1      -2.339   2.255  -2.415  1.00  0.00     0.052 C 
ENDROOT
BRANCH   1   2
ATOM      2  C   UNL     1      -1.178   2.745  -3.224  1.00  0.00     0.041 C 
ATOM      3  O   UNL     1      -1.187   2.635  -4.479  1.00  0.00    -0.550 OA
ATOM      4  O   UNL     1      -0.101   3.355  -2.595  1.00  0.00    -0.550 OA
ENDBRANCH   1   2
BRANCH   1   5
ATOM      5  C   UNL     1      -3.488   1.770  -3.308  1.00  0.00     0.003 C 
ATOM      6  C   UNL     1      -3.553   0.245  -3.396  1.00  0.00     0.004 C 
ENDBRANCH   1   5
TORSDOF 2
ENDMDL
