MODEL 1
REMARK VINA RESULT:    -4.878      0.000      0.000
REMARK INTER + INTRA:         -10.407
REMARK INTER:                  -9.156
REMARK INTRA:                  -1.251
REMARK UNBOUND:                -1.251
REMARK SMILES O=C([O-])CCCCCCCCCCCCCCC(=O)[O-]
REMARK SMILES IDX 10 1 9 2 8 3 7 4 6 5 5 6 4 7 2 8 1 9 3 10 11 11 12 12 13 13
REMARK SMILES IDX 14 14 15 15 16 16 17 17 18 18 19 19 20 20
REMARK H PARENT
REMARK Flexibility Score: inf
ROOT
ATOM      1  C   UNL     1     191.564   4.525  98.494  1.00  0.00     0.000 C 
ENDROOT
BRANCH   1   2
ATOM      2  C   UNL     1     190.133   4.984  98.169  1.00  0.00     0.000 C 
BRANCH   2   3
ATOM      3  C   UNL     1     189.122   3.823  98.173  1.00  0.00     0.000 C 
BRANCH   3   4
ATOM      4  C   UNL     1     188.610   3.491  96.755  1.00  0.00     0.000 C 
BRANCH   4   5
ATOM      5  C   UNL     1     188.998   4.539  95.694  1.00  0.00     0.000 C 
BRANCH   5   6
ATOM      6  C   UNL     1     189.131   3.992  94.263  1.00  0.00     0.006 C 
BRANCH   6   7
ATOM      7  C   UNL     1     190.551   4.143  93.701  1.00  0.00     0.053 C 
BRANCH   7   8
ATOM      8  C   UNL     1     191.530   3.405  94.556  1.00  0.00     0.041 C 
ATOM      9  O   UNL     1     191.479   2.149  94.636  1.00  0.00    -0.550 OA
ATOM     10  O   UNL     1     192.529   4.097  95.229  1.00  0.00    -0.550 OA
ENDBRANCH   7   8
ENDBRANCH   6   7
ENDBRANCH   5   6
ENDBRANCH   4   5
ENDBRANCH   3   4
ENDBRANCH   2   3
ENDBRANCH   1   2
BRANCH   1  11
ATOM     11  C   UNL     1     191.687   2.992  98.559  1.00  0.00     0.000 C 
BRANCH  11  12
ATOM     12  C   UNL     1     192.607   2.523  99.698  1.00  0.00     0.000 C 
BRANCH  12  13
ATOM     13  C   UNL     1     192.057   1.285 100.427  1.00  0.00     0.000 C 
BRANCH  13  14
ATOM     14  C   UNL     1     192.497   1.214 101.900  1.00  0.00     0.000 C 
BRANCH  14  15
ATOM     15  C   UNL     1     193.763   2.025 102.246  1.00  0.00     0.000 C 
BRANCH  15  16
ATOM     16  C   UNL     1     193.818   2.573 103.687  1.00  0.00     0.006 C 
BRANCH  16  17
ATOM     17  C   UNL     1     192.514   2.400 104.480  1.00  0.00     0.053 C 
BRANCH  17  18
ATOM     18  C   UNL     1     192.723   1.610 105.737  1.00  0.00     0.041 C 
ATOM     19  O   UNL     1     193.104   0.411 105.675  1.00  0.00    -0.550 OA
ATOM     20  O   UNL     1     192.467   2.187 106.973  1.00  0.00    -0.550 OA
ENDBRANCH  17  18
ENDBRANCH  16  17
ENDBRANCH  15  16
ENDBRANCH  14  15
ENDBRANCH  13  14
ENDBRANCH  12  13
ENDBRANCH  11  12
ENDBRANCH   1  11
TORSDOF 15
ENDMDL
MODEL 2
REMARK VINA RESULT:    -4.767      1.708      2.640
REMARK INTER + INTRA:         -10.198
REMARK INTER:                  -9.208
REMARK INTRA:                  -0.990
REMARK UNBOUND:                -1.251
REMARK SMILES O=C([O-])CCCCCCCCCCCCCCC(=O)[O-]
REMARK SMILES IDX 10 1 9 2 8 3 7 4 6 5 5 6 4 7 2 8 1 9 3 10 11 11 12 12 13 13
REMARK SMILES IDX 14 14 15 15 16 16 17 17 18 18 19 19 20 20
REMARK H PARENT
REMARK Flexibility Score: inf
ROOT
ATOM      1  C   UNL     1     192.313   1.579  99.599  1.00  0.00     0.000 C 
ENDROOT
BRANCH   1   2
ATOM      2  C   UNL     1     192.882   2.995  99.785  1.00  0.00     0.000 C 
BRANCH   2   3
ATOM      3  C   UNL     1     192.167   4.041  98.912  1.00  0.00     0.000 C 
BRANCH   3   4
ATOM      4  C   UNL     1     191.050   3.415  98.050  1.00  0.00     0.000 C 
BRANCH   4   5
ATOM      5  C   UNL     1     190.384   4.410  97.079  1.00  0.00     0.000 C 
BRANCH   5   6
ATOM      6  C   UNL     1     190.568   4.080  95.588  1.00  0.00     0.006 C 
BRANCH   6   7
ATOM      7  C   UNL     1     191.988   3.598  95.259  1.00  0.00     0.053 C 
BRANCH   7   8
ATOM      8  C   UNL     1     191.963   2.168  94.824  1.00  0.00     0.041 C 
ATOM      9  O   UNL     1     191.447   1.852  93.719  1.00  0.00    -0.550 OA
ATOM     10  O   UNL     1     192.550   1.189  95.615  1.00  0.00    -0.550 OA
ENDBRANCH   7   8
ENDBRANCH   6   7
ENDBRANCH   5   6
ENDBRANCH   4   5
ENDBRANCH   3   4
ENDBRANCH   2   3
ENDBRANCH   1   2
BRANCH   1  11
ATOM     11  C   UNL     1     192.703   0.635 100.751  1.00  0.00     0.000 C 
BRANCH  11  12
ATOM     12  C   UNL     1     191.484  -0.045 101.394  1.00  0.00     0.000 C 
BRANCH  12  13
ATOM     13  C   UNL     1     191.465   0.105 102.925  1.00  0.00     0.000 C 
BRANCH  13  14
ATOM     14  C   UNL     1     192.743   0.762 103.476  1.00  0.00     0.000 C 
BRANCH  14  15
ATOM     15  C   UNL     1     192.529   2.101 104.210  1.00  0.00     0.000 C 
BRANCH  15  16
ATOM     16  C   UNL     1     192.852   2.082 105.718  1.00  0.00     0.006 C 
BRANCH  16  17
ATOM     17  C   UNL     1     192.024   1.075 106.531  1.00  0.00     0.053 C 
BRANCH  17  18
ATOM     18  C   UNL     1     190.836   1.720 107.178  1.00  0.00     0.041 C 
ATOM     19  O   UNL     1     189.694   1.611 106.658  1.00  0.00    -0.550 OA
ATOM     20  O   UNL     1     190.995   2.468 108.337  1.00  0.00    -0.550 OA
ENDBRANCH  17  18
ENDBRANCH  16  17
ENDBRANCH  15  16
ENDBRANCH  14  15
ENDBRANCH  13  14
ENDBRANCH  12  13
ENDBRANCH  11  12
ENDBRANCH   1  11
TORSDOF 15
ENDMDL
MODEL 3
REMARK VINA RESULT:    -4.665      1.790      9.617
REMARK INTER + INTRA:         -10.006
REMARK INTER:                  -9.120
REMARK INTRA:                  -0.886
REMARK UNBOUND:                -1.251
REMARK SMILES O=C([O-])CCCCCCCCCCCCCCC(=O)[O-]
REMARK SMILES IDX 10 1 9 2 8 3 7 4 6 5 5 6 4 7 2 8 1 9 3 10 11 11 12 12 13 13
REMARK SMILES IDX 14 14 15 15 16 16 17 17 18 18 19 19 20 20
REMARK H PARENT
REMARK Flexibility Score: inf
ROOT
ATOM      1  C   UNL     1     193.399   0.966 101.257  1.00  0.00     0.000 C 
ENDROOT
BRANCH   1   2
ATOM      2  C   UNL     1     193.647   1.772 102.543  1.00  0.00     0.000 C 
BRANCH   2   3
ATOM      3  C   UNL     1     192.650   1.424 103.663  1.00  0.00     0.000 C 
BRANCH   3   4
ATOM      4  C   UNL     1     192.516   2.560 104.698  1.00  0.00     0.000 C 
BRANCH   4   5
ATOM      5  C   UNL     1     192.987   2.170 106.113  1.00  0.00     0.000 C 
BRANCH   5   6
ATOM      6  C   UNL     1     192.005   1.284 106.899  1.00  0.00     0.006 C 
BRANCH   6   7
ATOM      7  C   UNL     1     191.271   2.052 108.007  1.00  0.00     0.053 C 
BRANCH   7   8
ATOM      8  C   UNL     1     189.804   2.095 107.724  1.00  0.00     0.041 C 
ATOM      9  O   UNL     1     189.231   1.103 107.200  1.00  0.00    -0.550 OA
ATOM     10  O   UNL     1     189.058   3.211 108.081  1.00  0.00    -0.550 OA
ENDBRANCH   7   8
ENDBRANCH   6   7
ENDBRANCH   5   6
ENDBRANCH   4   5
ENDBRANCH   3   4
ENDBRANCH   2   3
ENDBRANCH   1   2
BRANCH   1  11
ATOM     11  C   UNL     1     192.038   1.291 100.616  1.00  0.00     0.000 C 
BRANCH  11  12
ATOM     12  C   UNL     1     192.181   1.978  99.247  1.00  0.00     0.000 C 
BRANCH  12  13
ATOM     13  C   UNL     1     192.385   3.498  99.370  1.00  0.00     0.000 C 
BRANCH  13  14
ATOM     14  C   UNL     1     192.036   4.253  98.075  1.00  0.00     0.000 C 
BRANCH  14  15
ATOM     15  C   UNL     1     190.556   4.174  97.648  1.00  0.00     0.000 C 
BRANCH  15  16
ATOM     16  C   UNL     1     190.315   3.705  96.199  1.00  0.00     0.006 C 
BRANCH  16  17
ATOM     17  C   UNL     1     191.579   3.673  95.325  1.00  0.00     0.053 C 
BRANCH  17  18
ATOM     18  C   UNL     1     191.924   2.281  94.890  1.00  0.00     0.041 C 
ATOM     19  O   UNL     1     191.684   1.908  93.712  1.00  0.00    -0.550 OA
ATOM     20  O   UNL     1     192.482   1.386  95.795  1.00  0.00    -0.550 OA
ENDBRANCH  17  18
ENDBRANCH  16  17
ENDBRANCH  15  16
ENDBRANCH  14  15
ENDBRANCH  13  14
ENDBRANCH  12  13
ENDBRANCH  11  12
ENDBRANCH   1  11
TORSDOF 15
ENDMDL
MODEL 4
REMARK VINA RESULT:    -4.598      1.438      8.728
REMARK INTER + INTRA:          -9.881
REMARK INTER:                  -8.694
REMARK INTRA:                  -1.187
REMARK UNBOUND:                -1.251
REMARK SMILES O=C([O-])CCCCCCCCCCCCCCC(=O)[O-]
REMARK SMILES IDX 10 1 9 2 8 3 7 4 6 5 5 6 4 7 2 8 1 9 3 10 11 11 12 12 13 13
REMARK SMILES IDX 14 14 15 15 16 16 17 17 18 18 19 19 20 20
REMARK H PARENT
REMARK Flexibility Score: inf
ROOT
ATOM      1  C   UNL     1     191.885   2.727  98.815  1.00  0.00     0.000 C 
ENDROOT
BRANCH   1   2
ATOM      2  C   UNL     1     192.683   2.272 100.047  1.00  0.00     0.000 C 
BRANCH   2   3
ATOM      3  C   UNL     1     191.940   1.208 100.875  1.00  0.00     0.000 C 
BRANCH   3   4
ATOM      4  C   UNL     1     192.909   0.310 101.675  1.00  0.00     0.000 C 
BRANCH   4   5
ATOM      5  C   UNL     1     192.672   0.345 103.197  1.00  0.00     0.000 C 
BRANCH   5   6
ATOM      6  C   UNL     1     192.157   1.688 103.742  1.00  0.00     0.006 C 
BRANCH   6   7
ATOM      7  C   UNL     1     191.775   1.618 105.227  1.00  0.00     0.053 C 
BRANCH   7   8
ATOM      8  C   UNL     1     190.348   2.022 105.416  1.00  0.00     0.041 C 
ATOM      9  O   UNL     1     189.752   2.676 104.520  1.00  0.00    -0.550 OA
ATOM     10  O   UNL     1     189.661   1.637 106.560  1.00  0.00    -0.550 OA
ENDBRANCH   7   8
ENDBRANCH   6   7
ENDBRANCH   5   6
ENDBRANCH   4   5
ENDBRANCH   3   4
ENDBRANCH   2   3
ENDBRANCH   1   2
BRANCH   1  11
ATOM     11  C   UNL     1     191.991   4.244  98.577  1.00  0.00     0.000 C 
BRANCH  11  12
ATOM     12  C   UNL     1     190.627   4.892  98.287  1.00  0.00     0.000 C 
BRANCH  12  13
ATOM     13  C   UNL     1     189.539   3.853  97.966  1.00  0.00     0.000 C 
BRANCH  13  14
ATOM     14  C   UNL     1     188.393   4.432  97.116  1.00  0.00     0.000 C 
BRANCH  14  15
ATOM     15  C   UNL     1     188.365   3.966  95.646  1.00  0.00     0.000 C 
BRANCH  15  16
ATOM     16  C   UNL     1     189.669   4.204  94.858  1.00  0.00     0.006 C 
BRANCH  16  17
ATOM     17  C   UNL     1     190.446   2.922  94.518  1.00  0.00     0.053 C 
BRANCH  17  18
ATOM     18  C   UNL     1     191.857   2.972  95.020  1.00  0.00     0.041 C 
ATOM     19  O   UNL     1     192.455   1.909  95.333  1.00  0.00    -0.550 OA
ATOM     20  O   UNL     1     192.499   4.194  95.174  1.00  0.00    -0.550 OA
ENDBRANCH  17  18
ENDBRANCH  16  17
ENDBRANCH  15  16
ENDBRANCH  14  15
ENDBRANCH  13  14
ENDBRANCH  12  13
ENDBRANCH  11  12
ENDBRANCH   1  11
TORSDOF 15
ENDMDL
MODEL 5
REMARK VINA RESULT:    -4.598      1.701      2.959
REMARK INTER + INTRA:          -9.881
REMARK INTER:                  -8.581
REMARK INTRA:                  -1.300
REMARK UNBOUND:                -1.251
REMARK SMILES O=C([O-])CCCCCCCCCCCCCCC(=O)[O-]
REMARK SMILES IDX 10 1 9 2 8 3 7 4 6 5 5 6 4 7 2 8 1 9 3 10 11 11 12 12 13 13
REMARK SMILES IDX 14 14 15 15 16 16 17 17 18 18 19 19 20 20
REMARK H PARENT
REMARK Flexibility Score: inf
ROOT
ATOM      1  C   UNL     1     192.129   2.036  99.893  1.00  0.00     0.000 C 
ENDROOT
BRANCH   1   2
ATOM      2  C   UNL     1     192.647   3.334  99.251  1.00  0.00     0.000 C 
BRANCH   2   3
ATOM      3  C   UNL     1     191.563   4.070  98.444  1.00  0.00     0.000 C 
BRANCH   3   4
ATOM      4  C   UNL     1     190.183   3.391  98.567  1.00  0.00     0.000 C 
BRANCH   4   5
ATOM      5  C   UNL     1     189.120   3.967  97.610  1.00  0.00     0.000 C 
BRANCH   5   6
ATOM      6  C   UNL     1     189.680   4.825  96.463  1.00  0.00     0.006 C 
BRANCH   6   7
ATOM      7  C   UNL     1     189.807   4.044  95.148  1.00  0.00     0.053 C 
BRANCH   7   8
ATOM      8  C   UNL     1     191.246   3.876  94.780  1.00  0.00     0.041 C 
ATOM      9  O   UNL     1     191.934   4.876  94.443  1.00  0.00    -0.550 OA
ATOM     10  O   UNL     1     191.843   2.624  94.856  1.00  0.00    -0.550 OA
ENDBRANCH   7   8
ENDBRANCH   6   7
ENDBRANCH   5   6
ENDBRANCH   4   5
ENDBRANCH   3   4
ENDBRANCH   2   3
ENDBRANCH   1   2
BRANCH   1  11
ATOM     11  C   UNL     1     192.975   1.604 101.104  1.00  0.00     0.000 C 
BRANCH  11  12
ATOM     12  C   UNL     1     193.586   2.801 101.853  1.00  0.00     0.000 C 
BRANCH  12  13
ATOM     13  C   UNL     1     193.808   2.508 103.347  1.00  0.00     0.000 C 
BRANCH  13  14
ATOM     14  C   UNL     1     192.547   2.746 104.197  1.00  0.00     0.000 C 
BRANCH  14  15
ATOM     15  C   UNL     1     192.099   1.546 105.057  1.00  0.00     0.000 C 
BRANCH  15  16
ATOM     16  C   UNL     1     193.176   0.466 105.288  1.00  0.00     0.006 C 
BRANCH  16  17
ATOM     17  C   UNL     1     192.713  -0.966 104.981  1.00  0.00     0.053 C 
BRANCH  17  18
ATOM     18  C   UNL     1     192.702  -1.248 103.509  1.00  0.00     0.041 C 
ATOM     19  O   UNL     1     193.781  -1.458 102.896  1.00  0.00    -0.550 OA
ATOM     20  O   UNL     1     191.502  -1.249 102.809  1.00  0.00    -0.550 OA
ENDBRANCH  17  18
ENDBRANCH  16  17
ENDBRANCH  15  16
ENDBRANCH  14  15
ENDBRANCH  13  14
ENDBRANCH  12  13
ENDBRANCH  11  12
ENDBRANCH   1  11
TORSDOF 15
ENDMDL
MODEL 6
REMARK VINA RESULT:    -4.594      1.788      8.888
REMARK INTER + INTRA:          -9.874
REMARK INTER:                  -8.608
REMARK INTRA:                  -1.266
REMARK UNBOUND:                -1.251
REMARK SMILES O=C([O-])CCCCCCCCCCCCCCC(=O)[O-]
REMARK SMILES IDX 10 1 9 2 8 3 7 4 6 5 5 6 4 7 2 8 1 9 3 10 11 11 12 12 13 13
REMARK SMILES IDX 14 14 15 15 16 16 17 17 18 18 19 19 20 20
REMARK H PARENT
REMARK Flexibility Score: inf
ROOT
ATOM      1  C   UNL     1     193.204   1.272 101.470  1.00  0.00     0.000 C 
ENDROOT
BRANCH   1   2
ATOM      2  C   UNL     1     193.678  -0.141 101.848  1.00  0.00     0.000 C 
BRANCH   2   3
ATOM      3  C   UNL     1     192.511  -1.120 102.063  1.00  0.00     0.000 C 
BRANCH   3   4
ATOM      4  C   UNL     1     192.134  -1.260 103.553  1.00  0.00     0.000 C 
BRANCH   4   5
ATOM      5  C   UNL     1     193.308  -0.996 104.517  1.00  0.00     0.000 C 
BRANCH   5   6
ATOM      6  C   UNL     1     193.112   0.203 105.460  1.00  0.00     0.006 C 
BRANCH   6   7
ATOM      7  C   UNL     1     191.647   0.651 105.554  1.00  0.00     0.053 C 
BRANCH   7   8
ATOM      8  C   UNL     1     191.451   1.943 104.828  1.00  0.00     0.041 C 
ATOM      9  O   UNL     1     192.430   2.708 104.623  1.00  0.00    -0.550 OA
ATOM     10  O   UNL     1     190.198   2.281 104.335  1.00  0.00    -0.550 OA
ENDBRANCH   7   8
ENDBRANCH   6   7
ENDBRANCH   5   6
ENDBRANCH   4   5
ENDBRANCH   3   4
ENDBRANCH   2   3
ENDBRANCH   1   2
BRANCH   1  11
ATOM     11  C   UNL     1     191.931   1.251 100.605  1.00  0.00     0.000 C 
BRANCH  11  12
ATOM     12  C   UNL     1     192.105   2.016  99.282  1.00  0.00     0.000 C 
BRANCH  12  13
ATOM     13  C   UNL     1     192.812   3.368  99.473  1.00  0.00     0.000 C 
BRANCH  13  14
ATOM     14  C   UNL     1     192.185   4.495  98.632  1.00  0.00     0.000 C 
BRANCH  14  15
ATOM     15  C   UNL     1     191.056   4.051  97.678  1.00  0.00     0.000 C 
BRANCH  15  16
ATOM     16  C   UNL     1     191.401   4.120  96.177  1.00  0.00     0.006 C 
BRANCH  16  17
ATOM     17  C   UNL     1     190.665   3.087  95.310  1.00  0.00     0.053 C 
BRANCH  17  18
ATOM     18  C   UNL     1     191.606   2.087  94.710  1.00  0.00     0.041 C 
ATOM     19  O   UNL     1     192.448   1.495  95.435  1.00  0.00    -0.550 OA
ATOM     20  O   UNL     1     191.574   1.832  93.345  1.00  0.00    -0.550 OA
ENDBRANCH  17  18
ENDBRANCH  16  17
ENDBRANCH  15  16
ENDBRANCH  14  15
ENDBRANCH  13  14
ENDBRANCH  12  13
ENDBRANCH  11  12
ENDBRANCH   1  11
TORSDOF 15
ENDMDL
MODEL 7
REMARK VINA RESULT:    -4.516      2.289      3.932
REMARK INTER + INTRA:          -9.727
REMARK INTER:                  -8.716
REMARK INTRA:                  -1.011
REMARK UNBOUND:                -1.251
REMARK SMILES O=C([O-])CCCCCCCCCCCCCCC(=O)[O-]
REMARK SMILES IDX 10 1 9 2 8 3 7 4 6 5 5 6 4 7 2 8 1 9 3 10 11 11 12 12 13 13
REMARK SMILES IDX 14 14 15 15 16 16 17 17 18 18 19 19 20 20
REMARK H PARENT
REMARK Flexibility Score: inf
ROOT
ATOM      1  C   UNL     1     192.922   1.360 101.085  1.00  0.00     0.000 C 
ENDROOT
BRANCH   1   2
ATOM      2  C   UNL     1     192.415   1.998  99.782  1.00  0.00     0.000 C 
BRANCH   2   3
ATOM      3  C   UNL     1     192.817   3.478  99.650  1.00  0.00     0.000 C 
BRANCH   3   4
ATOM      4  C   UNL     1     192.012   4.205  98.552  1.00  0.00     0.000 C 
BRANCH   4   5
ATOM      5  C   UNL     1     191.147   3.264  97.691  1.00  0.00     0.000 C 
BRANCH   5   6
ATOM      6  C   UNL     1     190.730   3.838  96.326  1.00  0.00     0.006 C 
BRANCH   6   7
ATOM      7  C   UNL     1     189.563   4.829  96.432  1.00  0.00     0.053 C 
BRANCH   7   8
ATOM      8  C   UNL     1     188.459   4.246  97.254  1.00  0.00     0.041 C 
ATOM      9  O   UNL     1     188.130   4.782  98.345  1.00  0.00    -0.550 OA
ATOM     10  O   UNL     1     187.759   3.137  96.794  1.00  0.00    -0.550 OA
ENDBRANCH   7   8
ENDBRANCH   6   7
ENDBRANCH   5   6
ENDBRANCH   4   5
ENDBRANCH   3   4
ENDBRANCH   2   3
ENDBRANCH   1   2
BRANCH   1  11
ATOM     11  C   UNL     1     193.536   2.396 102.044  1.00  0.00     0.000 C 
BRANCH  11  12
ATOM     12  C   UNL     1     192.913   2.341 103.449  1.00  0.00     0.000 C 
BRANCH  12  13
ATOM     13  C   UNL     1     193.901   1.831 104.511  1.00  0.00     0.000 C 
BRANCH  13  14
ATOM     14  C   UNL     1     193.619   0.381 104.943  1.00  0.00     0.000 C 
BRANCH  14  15
ATOM     15  C   UNL     1     192.126   0.017 105.086  1.00  0.00     0.000 C 
BRANCH  15  16
ATOM     16  C   UNL     1     191.583   0.028 106.529  1.00  0.00     0.006 C 
BRANCH  16  17
ATOM     17  C   UNL     1     191.410   1.431 107.130  1.00  0.00     0.053 C 
BRANCH  17  18
ATOM     18  C   UNL     1     190.042   1.987 106.871  1.00  0.00     0.041 C 
ATOM     19  O   UNL     1     189.733   2.398 105.722  1.00  0.00    -0.550 OA
ATOM     20  O   UNL     1     189.121   2.081 107.907  1.00  0.00    -0.550 OA
ENDBRANCH  17  18
ENDBRANCH  16  17
ENDBRANCH  15  16
ENDBRANCH  14  15
ENDBRANCH  13  14
ENDBRANCH  12  13
ENDBRANCH  11  12
ENDBRANCH   1  11
TORSDOF 15
ENDMDL
MODEL 8
REMARK VINA RESULT:    -4.467      2.673      4.965
REMARK INTER + INTRA:          -9.635
REMARK INTER:                  -8.039
REMARK INTRA:                  -1.597
REMARK UNBOUND:                -1.251
REMARK SMILES O=C([O-])CCCCCCCCCCCCCCC(=O)[O-]
REMARK SMILES IDX 10 1 9 2 8 3 7 4 6 5 5 6 4 7 2 8 1 9 3 10 11 11 12 12 13 13
REMARK SMILES IDX 14 14 15 15 16 16 17 17 18 18 19 19 20 20
REMARK H PARENT
REMARK Flexibility Score: inf
ROOT
ATOM      1  C   UNL     1     193.317   2.210 102.987  1.00  0.00     0.000 C 
ENDROOT
BRANCH   1   2
ATOM      2  C   UNL     1     192.261   1.369 102.251  1.00  0.00     0.000 C 
BRANCH   2   3
ATOM      3  C   UNL     1     192.717   0.942 100.845  1.00  0.00     0.000 C 
BRANCH   3   4
ATOM      4  C   UNL     1     192.048   1.779  99.735  1.00  0.00     0.000 C 
BRANCH   4   5
ATOM      5  C   UNL     1     192.734   3.136  99.482  1.00  0.00     0.000 C 
BRANCH   5   6
ATOM      6  C   UNL     1     191.953   4.095  98.568  1.00  0.00     0.006 C 
BRANCH   6   7
ATOM      7  C   UNL     1     190.569   3.554  98.186  1.00  0.00     0.053 C 
BRANCH   7   8
ATOM      8  C   UNL     1     190.469   3.382  96.704  1.00  0.00     0.041 C 
ATOM      9  O   UNL     1     191.460   2.966  96.047  1.00  0.00    -0.550 OA
ATOM     10  O   UNL     1     189.269   3.636  96.052  1.00  0.00    -0.550 OA
ENDBRANCH   7   8
ENDBRANCH   6   7
ENDBRANCH   5   6
ENDBRANCH   4   5
ENDBRANCH   3   4
ENDBRANCH   2   3
ENDBRANCH   1   2
BRANCH   1  11
ATOM     11  C   UNL     1     192.856   2.627 104.395  1.00  0.00     0.000 C 
BRANCH  11  12
ATOM     12  C   UNL     1     191.650   1.810 104.886  1.00  0.00     0.000 C 
BRANCH  12  13
ATOM     13  C   UNL     1     191.932   1.084 106.212  1.00  0.00     0.000 C 
BRANCH  13  14
ATOM     14  C   UNL     1     192.174  -0.426 106.028  1.00  0.00     0.000 C 
BRANCH  14  15
ATOM     15  C   UNL     1     193.495  -0.797 105.322  1.00  0.00     0.000 C 
BRANCH  15  16
ATOM     16  C   UNL     1     193.349  -1.738 104.110  1.00  0.00     0.006 C 
BRANCH  16  17
ATOM     17  C   UNL     1     191.901  -1.945 103.639  1.00  0.00     0.053 C 
BRANCH  17  18
ATOM     18  C   UNL     1     191.509  -3.391 103.649  1.00  0.00     0.041 C 
ATOM     19  O   UNL     1     191.849  -4.146 102.701  1.00  0.00    -0.550 OA
ATOM     20  O   UNL     1     190.741  -3.897 104.690  1.00  0.00    -0.550 OA
ENDBRANCH  17  18
ENDBRANCH  16  17
ENDBRANCH  15  16
ENDBRANCH  14  15
ENDBRANCH  13  14
ENDBRANCH  12  13
ENDBRANCH  11  12
ENDBRANCH   1  11
TORSDOF 15
ENDMDL
MODEL 9
REMARK VINA RESULT:    -4.446      2.245      4.003
REMARK INTER + INTRA:          -9.596
REMARK INTER:                  -8.368
REMARK INTRA:                  -1.228
REMARK UNBOUND:                -1.251
REMARK SMILES O=C([O-])CCCCCCCCCCCCCCC(=O)[O-]
REMARK SMILES IDX 10 1 9 2 8 3 7 4 6 5 5 6 4 7 2 8 1 9 3 10 11 11 12 12 13 13
REMARK SMILES IDX 14 14 15 15 16 16 17 17 18 18 19 19 20 20
REMARK H PARENT
REMARK Flexibility Score: inf
ROOT
ATOM      1  C   UNL     1     191.551   0.879 101.572  1.00  0.00     0.000 C 
ENDROOT
BRANCH   1   2
ATOM      2  C   UNL     1     192.753   1.078 100.633  1.00  0.00     0.000 C 
BRANCH   2   3
ATOM      3  C   UNL     1     192.390   1.871  99.365  1.00  0.00     0.000 C 
BRANCH   3   4
ATOM      4  C   UNL     1     192.772   3.362  99.480  1.00  0.00     0.000 C 
BRANCH   4   5
ATOM      5  C   UNL     1     191.930   4.290  98.583  1.00  0.00     0.000 C 
BRANCH   5   6
ATOM      6  C   UNL     1     190.759   3.603  97.861  1.00  0.00     0.006 C 
BRANCH   6   7
ATOM      7  C   UNL     1     189.734   4.604  97.311  1.00  0.00     0.053 C 
BRANCH   7   8
ATOM      8  C   UNL     1     188.692   3.892  96.508  1.00  0.00     0.041 C 
ATOM      9  O   UNL     1     187.914   3.073  97.065  1.00  0.00    -0.550 OA
ATOM     10  O   UNL     1     188.548   4.166  95.154  1.00  0.00    -0.550 OA
ENDBRANCH   7   8
ENDBRANCH   6   7
ENDBRANCH   5   6
ENDBRANCH   4   5
ENDBRANCH   3   4
ENDBRANCH   2   3
ENDBRANCH   1   2
BRANCH   1  11
ATOM     11  C   UNL     1     191.282  -0.606 101.872  1.00  0.00     0.000 C 
BRANCH  11  12
ATOM     12  C   UNL     1     192.527  -1.484 101.663  1.00  0.00     0.000 C 
BRANCH  12  13
ATOM     13  C   UNL     1     193.132  -1.972 102.991  1.00  0.00     0.000 C 
BRANCH  13  14
ATOM     14  C   UNL     1     192.180  -1.784 104.186  1.00  0.00     0.000 C 
BRANCH  14  15
ATOM     15  C   UNL     1     192.867  -1.445 105.525  1.00  0.00     0.000 C 
BRANCH  15  16
ATOM     16  C   UNL     1     192.445  -0.104 106.158  1.00  0.00     0.006 C 
BRANCH  16  17
ATOM     17  C   UNL     1     192.140   1.008 105.141  1.00  0.00     0.053 C 
BRANCH  17  18
ATOM     18  C   UNL     1     193.175   2.091 105.168  1.00  0.00     0.041 C 
ATOM     19  O   UNL     1     193.526   2.605 106.262  1.00  0.00    -0.550 OA
ATOM     20  O   UNL     1     193.729   2.554 103.981  1.00  0.00    -0.550 OA
ENDBRANCH  17  18
ENDBRANCH  16  17
ENDBRANCH  15  16
ENDBRANCH  14  15
ENDBRANCH  13  14
ENDBRANCH  12  13
ENDBRANCH  11  12
ENDBRANCH   1  11
TORSDOF 15
ENDMDL
