MODEL 1
REMARK VINA RESULT:    -3.981      0.000      0.000
REMARK INTER + INTRA:          -4.214
REMARK INTER:                  -4.214
REMARK INTRA:                   0.000
REMARK UNBOUND:                 0.000
REMARK SMILES Cc1cc(O)c(C)c(C)c1O
REMARK SMILES IDX 1 1 2 2 3 3 4 4 6 5 8 6 10 7 9 8 7 9 11 10 5 12
REMARK H PARENT 11 11 5 13
REMARK Flexibility Score: inf
ROOT
ATOM      1  C   UNL     1       9.768   9.056   6.677  1.00  0.00     0.048 C 
ATOM      2  C   UNL     1       8.982  10.304   6.981  1.00  0.00    -0.005 A 
ATOM      3  C   UNL     1       9.577  11.554   6.777  1.00  0.00     0.053 A 
ATOM      4  C   UNL     1       8.874  12.735   7.032  1.00  0.00     0.119 A 
ATOM      5  C   UNL     1       7.545  12.681   7.498  1.00  0.00    -0.003 A 
ATOM      6  C   UNL     1       6.948  11.421   7.759  1.00  0.00    -0.002 A 
ATOM      7  C   UNL     1       7.659  10.234   7.470  1.00  0.00     0.121 A 
ATOM      8  C   UNL     1       5.534  11.334   8.289  1.00  0.00     0.049 C 
ATOM      9  C   UNL     1       6.794  13.966   7.763  1.00  0.00     0.049 C 
ENDROOT
BRANCH   7  10
ATOM     10  O   UNL     1       7.034   9.000   7.674  1.00  0.00    -0.507 OA
ATOM     11  H   UNL     1       6.314   8.847   8.369  1.00  0.00     0.293 HD
ENDBRANCH   7  10
BRANCH   4  12
ATOM     12  O   UNL     1       9.498  13.965   6.821  1.00  0.00    -0.508 OA
ATOM     13  H   UNL     1      10.031  14.425   7.551  1.00  0.00     0.293 HD
ENDBRANCH   4  12
TORSDOF 2
ENDMDL
MODEL 2
REMARK VINA RESULT:    -3.853      1.352      3.313
REMARK INTER + INTRA:          -4.079
REMARK INTER:                  -4.079
REMARK INTRA:                   0.000
REMARK UNBOUND:                 0.000
REMARK SMILES Cc1cc(O)c(C)c(C)c1O
REMARK SMILES IDX 1 1 2 2 3 3 4 4 6 5 8 6 10 7 9 8 7 9 11 10 5 12
REMARK H PARENT 11 11 5 13
REMARK Flexibility Score: inf
ROOT
ATOM      1  C   UNL     1       5.076  14.077   8.246  1.00  0.00     0.048 C 
ATOM      2  C   UNL     1       6.186  13.126   7.885  1.00  0.00    -0.005 A 
ATOM      3  C   UNL     1       7.432  13.640   7.510  1.00  0.00     0.053 A 
ATOM      4  C   UNL     1       8.492  12.790   7.183  1.00  0.00     0.119 A 
ATOM      5  C   UNL     1       8.319  11.393   7.232  1.00  0.00    -0.003 A 
ATOM      6  C   UNL     1       7.047  10.858   7.560  1.00  0.00    -0.002 A 
ATOM      7  C   UNL     1       5.991  11.728   7.916  1.00  0.00     0.121 A 
ATOM      8  C   UNL     1       6.824   9.363   7.589  1.00  0.00     0.049 C 
ATOM      9  C   UNL     1       9.476  10.484   6.883  1.00  0.00     0.049 C 
ENDROOT
BRANCH   7  10
ATOM     10  O   UNL     1       4.760  11.183   8.296  1.00  0.00    -0.507 OA
ATOM     11  H   UNL     1       3.894  11.707   8.296  1.00  0.00     0.293 HD
ENDBRANCH   7  10
BRANCH   4  12
ATOM     12  O   UNL     1       9.721  13.336   6.810  1.00  0.00    -0.508 OA
ATOM     13  H   UNL     1      10.167  14.066   7.354  1.00  0.00     0.293 HD
ENDBRANCH   4  12
TORSDOF 2
ENDMDL
MODEL 3
REMARK VINA RESULT:    -3.778      1.397      3.492
REMARK INTER + INTRA:          -3.999
REMARK INTER:                  -3.999
REMARK INTRA:                   0.000
REMARK UNBOUND:                 0.000
REMARK SMILES Cc1cc(O)c(C)c(C)c1O
REMARK SMILES IDX 1 1 2 2 3 3 4 4 6 5 8 6 10 7 9 8 7 9 11 10 5 12
REMARK H PARENT 11 11 5 13
REMARK Flexibility Score: inf
ROOT
ATOM      1  C   UNL     1       9.154  10.007   7.494  1.00  0.00     0.048 C 
ATOM      2  C   UNL     1       7.765  10.581   7.570  1.00  0.00    -0.005 A 
ATOM      3  C   UNL     1       6.664   9.719   7.523  1.00  0.00     0.053 A 
ATOM      4  C   UNL     1       5.359  10.213   7.606  1.00  0.00     0.119 A 
ATOM      5  C   UNL     1       5.134  11.597   7.744  1.00  0.00    -0.003 A 
ATOM      6  C   UNL     1       6.238  12.487   7.741  1.00  0.00    -0.002 A 
ATOM      7  C   UNL     1       7.554  11.973   7.684  1.00  0.00     0.121 A 
ATOM      8  C   UNL     1       6.024  13.979   7.855  1.00  0.00     0.049 C 
ATOM      9  C   UNL     1       3.718  12.117   7.840  1.00  0.00     0.049 C 
ENDROOT
BRANCH   7  10
ATOM     10  O   UNL     1       8.634  12.860   7.744  1.00  0.00    -0.507 OA
ATOM     11  H   UNL     1       9.293  12.885   8.511  1.00  0.00     0.293 HD
ENDBRANCH   7  10
BRANCH   4  12
ATOM     12  O   UNL     1       4.284   9.325   7.553  1.00  0.00    -0.508 OA
ATOM     13  H   UNL     1       3.838   9.079   6.676  1.00  0.00     0.293 HD
ENDBRANCH   4  12
TORSDOF 2
ENDMDL
MODEL 4
REMARK VINA RESULT:    -3.679      1.538      4.557
REMARK INTER + INTRA:          -3.894
REMARK INTER:                  -3.894
REMARK INTRA:                   0.000
REMARK UNBOUND:                 0.000
REMARK SMILES Cc1cc(O)c(C)c(C)c1O
REMARK SMILES IDX 1 1 2 2 3 3 4 4 6 5 8 6 10 7 9 8 7 9 11 10 5 12
REMARK H PARENT 11 11 5 13
REMARK Flexibility Score: inf
ROOT
ATOM      1  C   UNL     1       5.670  14.331   8.149  1.00  0.00     0.048 C 
ATOM      2  C   UNL     1       5.961  12.869   7.936  1.00  0.00    -0.005 A 
ATOM      3  C   UNL     1       4.896  11.969   7.821  1.00  0.00     0.053 A 
ATOM      4  C   UNL     1       5.125  10.607   7.608  1.00  0.00     0.119 A 
ATOM      5  C   UNL     1       6.443  10.120   7.499  1.00  0.00    -0.003 A 
ATOM      6  C   UNL     1       7.533  11.013   7.665  1.00  0.00    -0.002 A 
ATOM      7  C   UNL     1       7.288  12.392   7.853  1.00  0.00     0.121 A 
ATOM      8  C   UNL     1       8.957  10.511   7.585  1.00  0.00     0.049 C 
ATOM      9  C   UNL     1       6.677   8.646   7.260  1.00  0.00     0.049 C 
ENDROOT
BRANCH   7  10
ATOM     10  O   UNL     1       8.373  13.268   7.953  1.00  0.00    -0.507 OA
ATOM     11  H   UNL     1       8.781  13.552   8.834  1.00  0.00     0.293 HD
ENDBRANCH   7  10
BRANCH   4  12
ATOM     12  O   UNL     1       4.040   9.737   7.501  1.00  0.00    -0.508 OA
ATOM     13  H   UNL     1       3.802   9.088   8.243  1.00  0.00     0.293 HD
ENDBRANCH   4  12
TORSDOF 2
ENDMDL
MODEL 5
REMARK VINA RESULT:    -3.604      1.783      2.364
REMARK INTER + INTRA:          -3.814
REMARK INTER:                  -3.814
REMARK INTRA:                   0.000
REMARK UNBOUND:                 0.000
REMARK SMILES Cc1cc(O)c(C)c(C)c1O
REMARK SMILES IDX 1 1 2 2 3 3 4 4 6 5 8 6 10 7 9 8 7 9 11 10 5 12
REMARK H PARENT 11 11 5 13
REMARK Flexibility Score: inf
ROOT
ATOM      1  C   UNL     1       6.187   8.178   7.325  1.00  0.00     0.048 C 
ATOM      2  C   UNL     1       6.315   9.665   7.519  1.00  0.00    -0.005 A 
ATOM      3  C   UNL     1       7.589  10.233   7.638  1.00  0.00     0.053 A 
ATOM      4  C   UNL     1       7.750  11.611   7.803  1.00  0.00     0.119 A 
ATOM      5  C   UNL     1       6.622  12.454   7.847  1.00  0.00    -0.003 A 
ATOM      6  C   UNL     1       5.324  11.888   7.780  1.00  0.00    -0.002 A 
ATOM      7  C   UNL     1       5.175  10.496   7.585  1.00  0.00     0.121 A 
ATOM      8  C   UNL     1       4.096  12.767   7.857  1.00  0.00     0.049 C 
ATOM      9  C   UNL     1       6.811  13.945   8.019  1.00  0.00     0.049 C 
ENDROOT
BRANCH   7  10
ATOM     10  O   UNL     1       3.889   9.960   7.459  1.00  0.00    -0.507 OA
ATOM     11  H   UNL     1       3.420   9.455   8.199  1.00  0.00     0.293 HD
ENDBRANCH   7  10
BRANCH   4  12
ATOM     12  O   UNL     1       9.035  12.143   7.922  1.00  0.00    -0.508 OA
ATOM     13  H   UNL     1       9.386  12.496   8.805  1.00  0.00     0.293 HD
ENDBRANCH   4  12
TORSDOF 2
ENDMDL
MODEL 6
REMARK VINA RESULT:    -3.568      1.935      4.241
REMARK INTER + INTRA:          -3.776
REMARK INTER:                  -3.776
REMARK INTRA:                   0.000
REMARK UNBOUND:                 0.000
REMARK SMILES Cc1cc(O)c(C)c(C)c1O
REMARK SMILES IDX 1 1 2 2 3 3 4 4 6 5 8 6 10 7 9 8 7 9 11 10 5 12
REMARK H PARENT 11 11 5 13
REMARK Flexibility Score: inf
ROOT
ATOM      1  C   UNL     1       3.105  10.937   7.683  1.00  0.00     0.048 C 
ATOM      2  C   UNL     1       4.608  11.013   7.689  1.00  0.00    -0.005 A 
ATOM      3  C   UNL     1       5.354   9.828   7.664  1.00  0.00     0.053 A 
ATOM      4  C   UNL     1       6.751   9.858   7.654  1.00  0.00     0.119 A 
ATOM      5  C   UNL     1       7.432  11.092   7.663  1.00  0.00    -0.003 A 
ATOM      6  C   UNL     1       6.690  12.298   7.741  1.00  0.00    -0.002 A 
ATOM      7  C   UNL     1       5.277  12.256   7.723  1.00  0.00     0.121 A 
ATOM      8  C   UNL     1       7.397  13.634   7.785  1.00  0.00     0.049 C 
ATOM      9  C   UNL     1       8.944  11.110   7.644  1.00  0.00     0.049 C 
ENDROOT
BRANCH   7  10
ATOM     10  O   UNL     1       4.561  13.457   7.738  1.00  0.00    -0.507 OA
ATOM     11  H   UNL     1       3.805  13.663   7.098  1.00  0.00     0.293 HD
ENDBRANCH   7  10
BRANCH   4  12
ATOM     12  O   UNL     1       7.463   8.659   7.632  1.00  0.00    -0.508 OA
ATOM     13  H   UNL     1       7.232   7.890   8.251  1.00  0.00     0.293 HD
ENDBRANCH   4  12
TORSDOF 2
ENDMDL
MODEL 7
REMARK VINA RESULT:    -3.497      1.539      2.142
REMARK INTER + INTRA:          -3.701
REMARK INTER:                  -3.701
REMARK INTRA:                   0.000
REMARK UNBOUND:                 0.000
REMARK SMILES Cc1cc(O)c(C)c(C)c1O
REMARK SMILES IDX 1 1 2 2 3 3 4 4 6 5 8 6 10 7 9 8 7 9 11 10 5 12
REMARK H PARENT 11 11 5 13
REMARK Flexibility Score: inf
ROOT
ATOM      1  C   UNL     1       9.159  10.237   7.678  1.00  0.00     0.048 C 
ATOM      2  C   UNL     1       7.808  10.900   7.726  1.00  0.00    -0.005 A 
ATOM      3  C   UNL     1       7.733  12.291   7.863  1.00  0.00     0.053 A 
ATOM      4  C   UNL     1       6.498  12.944   7.896  1.00  0.00     0.119 A 
ATOM      5  C   UNL     1       5.303  12.205   7.785  1.00  0.00    -0.003 A 
ATOM      6  C   UNL     1       5.363  10.791   7.698  1.00  0.00    -0.002 A 
ATOM      7  C   UNL     1       6.619  10.144   7.638  1.00  0.00     0.121 A 
ATOM      8  C   UNL     1       4.095   9.971   7.610  1.00  0.00     0.049 C 
ATOM      9  C   UNL     1       3.974  12.925   7.815  1.00  0.00     0.049 C 
ENDROOT
BRANCH   7  10
ATOM     10  O   UNL     1       6.661   8.754   7.489  1.00  0.00    -0.507 OA
ATOM     11  H   UNL     1       6.004   8.125   7.933  1.00  0.00     0.293 HD
ENDBRANCH   7  10
BRANCH   4  12
ATOM     12  O   UNL     1       6.459  14.332   8.037  1.00  0.00    -0.508 OA
ATOM     13  H   UNL     1       7.138  14.830   8.602  1.00  0.00     0.293 HD
ENDBRANCH   4  12
TORSDOF 2
ENDMDL
MODEL 8
REMARK VINA RESULT:    -3.452     10.553     12.097
REMARK INTER + INTRA:          -3.654
REMARK INTER:                  -3.654
REMARK INTRA:                   0.000
REMARK UNBOUND:                 0.000
REMARK SMILES Cc1cc(O)c(C)c(C)c1O
REMARK SMILES IDX 1 1 2 2 3 3 4 4 6 5 8 6 10 7 9 8 7 9 11 10 5 12
REMARK H PARENT 11 11 5 13
REMARK Flexibility Score: inf
ROOT
ATOM      1  C   UNL     1      13.298  16.664  -2.858  1.00  0.00     0.048 C 
ATOM      2  C   UNL     1      13.679  15.302  -2.343  1.00  0.00    -0.005 A 
ATOM      3  C   UNL     1      12.696  14.311  -2.235  1.00  0.00     0.053 A 
ATOM      4  C   UNL     1      13.013  13.030  -1.777  1.00  0.00     0.119 A 
ATOM      5  C   UNL     1      14.339  12.715  -1.419  1.00  0.00    -0.003 A 
ATOM      6  C   UNL     1      15.335  13.724  -1.473  1.00  0.00    -0.002 A 
ATOM      7  C   UNL     1      15.007  15.008  -1.965  1.00  0.00     0.121 A 
ATOM      8  C   UNL     1      16.759  13.422  -1.064  1.00  0.00     0.049 C 
ATOM      9  C   UNL     1      14.670  11.323  -0.930  1.00  0.00     0.049 C 
ENDROOT
BRANCH   7  10
ATOM     10  O   UNL     1      16.014  15.973  -2.071  1.00  0.00    -0.507 OA
ATOM     11  H   UNL     1      15.880  16.872  -2.514  1.00  0.00     0.293 HD
ENDBRANCH   7  10
BRANCH   4  12
ATOM     12  O   UNL     1      12.008  12.068  -1.678  1.00  0.00    -0.508 OA
ATOM     13  H   UNL     1      12.079  11.172  -2.148  1.00  0.00     0.293 HD
ENDBRANCH   4  12
TORSDOF 2
ENDMDL
MODEL 9
REMARK VINA RESULT:    -3.420      2.442      4.735
REMARK INTER + INTRA:          -3.620
REMARK INTER:                  -3.620
REMARK INTRA:                   0.000
REMARK UNBOUND:                 0.000
REMARK SMILES Cc1cc(O)c(C)c(C)c1O
REMARK SMILES IDX 1 1 2 2 3 3 4 4 6 5 8 6 10 7 9 8 7 9 11 10 5 12
REMARK H PARENT 11 11 5 13
REMARK Flexibility Score: inf
ROOT
ATOM      1  C   UNL     1       8.224  11.312   7.521  1.00  0.00     0.048 C 
ATOM      2  C   UNL     1       9.140  10.163   7.193  1.00  0.00    -0.005 A 
ATOM      3  C   UNL     1       9.859  10.183   5.992  1.00  0.00     0.053 A 
ATOM      4  C   UNL     1      10.731   9.143   5.659  1.00  0.00     0.119 A 
ATOM      5  C   UNL     1      10.903   8.055   6.538  1.00  0.00    -0.003 A 
ATOM      6  C   UNL     1      10.142   7.997   7.733  1.00  0.00    -0.002 A 
ATOM      7  C   UNL     1       9.284   9.068   8.072  1.00  0.00     0.121 A 
ATOM      8  C   UNL     1      10.284   6.826   8.679  1.00  0.00     0.049 C 
ATOM      9  C   UNL     1      11.855   6.940   6.169  1.00  0.00     0.049 C 
ENDROOT
BRANCH   7  10
ATOM     10  O   UNL     1       8.588   9.024   9.285  1.00  0.00    -0.507 OA
ATOM     11  H   UNL     1       7.688   9.464   9.427  1.00  0.00     0.293 HD
ENDBRANCH   7  10
BRANCH   4  12
ATOM     12  O   UNL     1      11.429   9.192   4.452  1.00  0.00    -0.508 OA
ATOM     13  H   UNL     1      11.349   8.457   3.759  1.00  0.00     0.293 HD
ENDBRANCH   4  12
TORSDOF 2
ENDMDL
