MODEL 1
REMARK VINA RESULT:    -4.567      0.000      0.000
REMARK INTER + INTRA:          -5.215
REMARK INTER:                  -4.967
REMARK INTRA:                  -0.248
REMARK UNBOUND:                -0.248
REMARK SMILES O=C([O-])c1ccccc1O
REMARK SMILES IDX 4 1 9 2 5 3 8 4 6 5 7 6 2 7 1 8 3 9 10 10
REMARK H PARENT 10 11
REMARK Flexibility Score: inf
ROOT
ATOM      1  C   UNL     1      14.105  32.468  -9.832  1.00  0.00     0.039 A 
ATOM      2  C   UNL     1      14.988  32.398  -8.723  1.00  0.00     0.124 A 
ATOM      3  C   UNL     1      14.464  33.259 -10.939  1.00  0.00     0.014 A 
ATOM      4  C   UNL     1      16.163  33.161  -8.724  1.00  0.00     0.047 A 
ATOM      5  C   UNL     1      15.650  33.997 -10.931  1.00  0.00     0.001 A 
ATOM      6  C   UNL     1      16.493  33.956  -9.822  1.00  0.00     0.004 A 
ENDROOT
BRANCH   1   7
ATOM      7  C   UNL     1      12.801  31.769  -9.864  1.00  0.00     0.075 C 
ATOM      8  O   UNL     1      12.710  30.555  -9.541  1.00  0.00    -0.545 OA
ATOM      9  O   UNL     1      11.645  32.468 -10.189  1.00  0.00    -0.545 OA
ENDBRANCH   1   7
BRANCH   2  10
ATOM     10  O   UNL     1      14.757  31.565  -7.626  1.00  0.00    -0.507 OA
ATOM     11  H   UNL     1      13.867  31.128  -7.434  1.00  0.00     0.293 HD
ENDBRANCH   2  10
TORSDOF 2
ENDMDL
MODEL 2
REMARK VINA RESULT:    -3.682     16.834     18.132
REMARK INTER + INTRA:          -4.252
REMARK INTER:                  -4.019
REMARK INTRA:                  -0.234
REMARK UNBOUND:                -0.248
REMARK SMILES O=C([O-])c1ccccc1O
REMARK SMILES IDX 4 1 9 2 5 3 8 4 6 5 7 6 2 7 1 8 3 9 10 10
REMARK H PARENT 10 11
REMARK Flexibility Score: inf
ROOT
ATOM      1  C   UNL     1      27.919  24.556  -0.842  1.00  0.00     0.039 A 
ATOM      2  C   UNL     1      26.691  24.152  -1.427  1.00  0.00     0.124 A 
ATOM      3  C   UNL     1      29.125  24.087  -1.396  1.00  0.00     0.014 A 
ATOM      4  C   UNL     1      26.699  23.251  -2.500  1.00  0.00     0.047 A 
ATOM      5  C   UNL     1      29.114  23.205  -2.480  1.00  0.00     0.001 A 
ATOM      6  C   UNL     1      27.904  22.780  -3.025  1.00  0.00     0.004 A 
ENDROOT
BRANCH   1   7
ATOM      7  C   UNL     1      27.991  25.426   0.353  1.00  0.00     0.075 C 
ATOM      8  O   UNL     1      27.323  25.161   1.387  1.00  0.00    -0.545 OA
ATOM      9  O   UNL     1      28.854  26.515   0.370  1.00  0.00    -0.545 OA
ENDBRANCH   1   7
BRANCH   2  10
ATOM     10  O   UNL     1      25.455  24.643  -1.002  1.00  0.00    -0.507 OA
ATOM     11  H   UNL     1      24.805  25.121  -1.611  1.00  0.00     0.293 HD
ENDBRANCH   2  10
TORSDOF 2
ENDMDL
MODEL 3
REMARK VINA RESULT:    -3.652      1.921      3.414
REMARK INTER + INTRA:          -4.220
REMARK INTER:                  -4.011
REMARK INTRA:                  -0.209
REMARK UNBOUND:                -0.248
REMARK SMILES O=C([O-])c1ccccc1O
REMARK SMILES IDX 4 1 9 2 5 3 8 4 6 5 7 6 2 7 1 8 3 9 10 10
REMARK H PARENT 10 11
REMARK Flexibility Score: inf
ROOT
ATOM      1  C   UNL     1      14.502  32.622  -9.943  1.00  0.00     0.039 A 
ATOM      2  C   UNL     1      14.191  31.755  -8.864  1.00  0.00     0.124 A 
ATOM      3  C   UNL     1      13.646  32.654 -11.059  1.00  0.00     0.014 A 
ATOM      4  C   UNL     1      13.079  30.908  -8.954  1.00  0.00     0.047 A 
ATOM      5  C   UNL     1      12.529  31.817 -11.124  1.00  0.00     0.001 A 
ATOM      6  C   UNL     1      12.251  30.939 -10.078  1.00  0.00     0.004 A 
ENDROOT
BRANCH   1   7
ATOM      7  C   UNL     1      15.711  33.475  -9.964  1.00  0.00     0.075 C 
ATOM      8  O   UNL     1      16.493  33.513  -8.978  1.00  0.00    -0.545 OA
ATOM      9  O   UNL     1      16.034  34.196 -11.108  1.00  0.00    -0.545 OA
ENDBRANCH   1   7
BRANCH   2  10
ATOM     10  O   UNL     1      14.931  31.729  -7.679  1.00  0.00    -0.507 OA
ATOM     11  H   UNL     1      15.910  31.970  -7.627  1.00  0.00     0.293 HD
ENDBRANCH   2  10
TORSDOF 2
ENDMDL
MODEL 4
REMARK VINA RESULT:    -3.515     13.910     14.697
REMARK INTER + INTRA:          -4.071
REMARK INTER:                  -3.846
REMARK INTRA:                  -0.225
REMARK UNBOUND:                -0.248
REMARK SMILES O=C([O-])c1ccccc1O
REMARK SMILES IDX 4 1 9 2 5 3 8 4 6 5 7 6 2 7 1 8 3 9 10 10
REMARK H PARENT 10 11
REMARK Flexibility Score: inf
ROOT
ATOM      1  C   UNL     1      21.152  20.117 -10.948  1.00  0.00     0.039 A 
ATOM      2  C   UNL     1      19.740  20.224 -11.046  1.00  0.00     0.124 A 
ATOM      3  C   UNL     1      21.742  18.839 -10.980  1.00  0.00     0.014 A 
ATOM      4  C   UNL     1      18.960  19.062 -11.109  1.00  0.00     0.047 A 
ATOM      5  C   UNL     1      20.949  17.691 -11.064  1.00  0.00     0.001 A 
ATOM      6  C   UNL     1      19.561  17.802 -11.119  1.00  0.00     0.004 A 
ENDROOT
BRANCH   1   7
ATOM      7  C   UNL     1      22.036  21.291 -10.780  1.00  0.00     0.075 C 
ATOM      8  O   UNL     1      21.650  22.443 -11.110  1.00  0.00    -0.545 OA
ATOM      9  O   UNL     1      23.286  21.143 -10.190  1.00  0.00    -0.545 OA
ENDBRANCH   1   7
BRANCH   2  10
ATOM     10  O   UNL     1      19.080  21.452 -11.119  1.00  0.00    -0.507 OA
ATOM     11  H   UNL     1      18.927  21.954 -11.982  1.00  0.00     0.293 HD
ENDBRANCH   2  10
TORSDOF 2
ENDMDL
MODEL 5
REMARK VINA RESULT:    -3.422     13.980     14.606
REMARK INTER + INTRA:          -3.970
REMARK INTER:                  -3.772
REMARK INTRA:                  -0.198
REMARK UNBOUND:                -0.248
REMARK SMILES O=C([O-])c1ccccc1O
REMARK SMILES IDX 4 1 9 2 5 3 8 4 6 5 7 6 2 7 1 8 3 9 10 10
REMARK H PARENT 10 11
REMARK Flexibility Score: inf
ROOT
ATOM      1  C   UNL     1      20.874  20.387 -11.004  1.00  0.00     0.039 A 
ATOM      2  C   UNL     1      22.065  19.628 -10.867  1.00  0.00     0.124 A 
ATOM      3  C   UNL     1      19.644  19.712 -11.110  1.00  0.00     0.014 A 
ATOM      4  C   UNL     1      22.001  18.229 -10.902  1.00  0.00     0.047 A 
ATOM      5  C   UNL     1      19.597  18.316 -11.122  1.00  0.00     0.001 A 
ATOM      6  C   UNL     1      20.774  17.575 -11.028  1.00  0.00     0.004 A 
ENDROOT
BRANCH   1   7
ATOM      7  C   UNL     1      20.869  21.866 -11.074  1.00  0.00     0.075 C 
ATOM      8  O   UNL     1      19.786  22.508 -11.085  1.00  0.00    -0.545 OA
ATOM      9  O   UNL     1      22.068  22.567 -11.060  1.00  0.00    -0.545 OA
ENDBRANCH   1   7
BRANCH   2  10
ATOM     10  O   UNL     1      23.315  20.215 -10.660  1.00  0.00    -0.507 OA
ATOM     11  H   UNL     1      23.821  20.159  -9.787  1.00  0.00     0.293 HD
ENDBRANCH   2  10
TORSDOF 2
ENDMDL
MODEL 6
REMARK VINA RESULT:    -3.365      3.080      5.207
REMARK INTER + INTRA:          -3.907
REMARK INTER:                  -3.659
REMARK INTRA:                  -0.249
REMARK UNBOUND:                -0.248
REMARK SMILES O=C([O-])c1ccccc1O
REMARK SMILES IDX 4 1 9 2 5 3 8 4 6 5 7 6 2 7 1 8 3 9 10 10
REMARK H PARENT 10 11
REMARK Flexibility Score: inf
ROOT
ATOM      1  C   UNL     1      11.732  30.064  -9.349  1.00  0.00     0.039 A 
ATOM      2  C   UNL     1      11.844  29.274  -8.175  1.00  0.00     0.124 A 
ATOM      3  C   UNL     1      10.516  30.065 -10.057  1.00  0.00     0.014 A 
ATOM      4  C   UNL     1      10.770  28.466  -7.780  1.00  0.00     0.047 A 
ATOM      5  C   UNL     1       9.447  29.269  -9.636  1.00  0.00     0.001 A 
ATOM      6  C   UNL     1       9.577  28.464  -8.505  1.00  0.00     0.004 A 
ENDROOT
BRANCH   1   7
ATOM      7  C   UNL     1      12.854  30.867  -9.885  1.00  0.00     0.075 C 
ATOM      8  O   UNL     1      12.996  31.032 -11.125  1.00  0.00    -0.545 OA
ATOM      9  O   UNL     1      13.729  31.508  -9.016  1.00  0.00    -0.545 OA
ENDBRANCH   1   7
BRANCH   2  10
ATOM     10  O   UNL     1      12.978  29.288  -7.361  1.00  0.00    -0.507 OA
ATOM     11  H   UNL     1      13.082  29.892  -6.558  1.00  0.00     0.293 HD
ENDBRANCH   2  10
TORSDOF 2
ENDMDL
MODEL 7
REMARK VINA RESULT:    -3.256      1.119      2.371
REMARK INTER + INTRA:          -3.789
REMARK INTER:                  -3.566
REMARK INTRA:                  -0.223
REMARK UNBOUND:                -0.248
REMARK SMILES O=C([O-])c1ccccc1O
REMARK SMILES IDX 4 1 9 2 5 3 8 4 6 5 7 6 2 7 1 8 3 9 10 10
REMARK H PARENT 10 11
REMARK Flexibility Score: inf
ROOT
ATOM      1  C   UNL     1      14.150  31.975  -9.345  1.00  0.00     0.039 A 
ATOM      2  C   UNL     1      14.151  33.032 -10.291  1.00  0.00     0.124 A 
ATOM      3  C   UNL     1      15.249  31.838  -8.476  1.00  0.00     0.014 A 
ATOM      4  C   UNL     1      15.264  33.877 -10.385  1.00  0.00     0.047 A 
ATOM      5  C   UNL     1      16.343  32.702  -8.570  1.00  0.00     0.001 A 
ATOM      6  C   UNL     1      16.355  33.713  -9.529  1.00  0.00     0.004 A 
ENDROOT
BRANCH   1   7
ATOM      7  C   UNL     1      13.055  30.983  -9.250  1.00  0.00     0.075 C 
ATOM      8  O   UNL     1      12.187  30.890 -10.157  1.00  0.00    -0.545 OA
ATOM      9  O   UNL     1      13.013  30.093  -8.184  1.00  0.00    -0.545 OA
ENDBRANCH   1   7
BRANCH   2  10
ATOM     10  O   UNL     1      13.062  33.300 -11.125  1.00  0.00    -0.507 OA
ATOM     11  H   UNL     1      13.043  33.071 -12.109  1.00  0.00     0.293 HD
ENDBRANCH   2  10
TORSDOF 2
ENDMDL
MODEL 8
REMARK VINA RESULT:    -3.224     13.297     14.123
REMARK INTER + INTRA:          -3.754
REMARK INTER:                  -3.507
REMARK INTRA:                  -0.247
REMARK UNBOUND:                -0.248
REMARK SMILES O=C([O-])c1ccccc1O
REMARK SMILES IDX 4 1 9 2 5 3 8 4 6 5 7 6 2 7 1 8 3 9 10 10
REMARK H PARENT 10 11
REMARK Flexibility Score: inf
ROOT
ATOM      1  C   UNL     1      22.336  21.294 -10.662  1.00  0.00     0.039 A 
ATOM      2  C   UNL     1      21.104  21.971 -10.857  1.00  0.00     0.124 A 
ATOM      3  C   UNL     1      22.361  19.889 -10.745  1.00  0.00     0.014 A 
ATOM      4  C   UNL     1      19.933  21.232 -11.066  1.00  0.00     0.047 A 
ATOM      5  C   UNL     1      21.186  19.169 -10.974  1.00  0.00     0.001 A 
ATOM      6  C   UNL     1      19.973  19.838 -11.125  1.00  0.00     0.004 A 
ENDROOT
BRANCH   1   7
ATOM      7  C   UNL     1      23.597  21.998 -10.340  1.00  0.00     0.075 C 
ATOM      8  O   UNL     1      24.706  21.552 -10.736  1.00  0.00    -0.545 OA
ATOM      9  O   UNL     1      23.565  23.204  -9.651  1.00  0.00    -0.545 OA
ENDBRANCH   1   7
BRANCH   2  10
ATOM     10  O   UNL     1      21.006  23.364 -10.887  1.00  0.00    -0.507 OA
ATOM     11  H   UNL     1      20.614  23.880 -11.663  1.00  0.00     0.293 HD
ENDBRANCH   2  10
TORSDOF 2
ENDMDL
MODEL 9
REMARK VINA RESULT:    -3.069     17.813     19.226
REMARK INTER + INTRA:          -3.586
REMARK INTER:                  -3.364
REMARK INTRA:                  -0.222
REMARK UNBOUND:                -0.248
REMARK SMILES O=C([O-])c1ccccc1O
REMARK SMILES IDX 4 1 9 2 5 3 8 4 6 5 7 6 2 7 1 8 3 9 10 10
REMARK H PARENT 10 11
REMARK Flexibility Score: inf
ROOT
ATOM      1  C   UNL     1      28.220  21.651  -2.972  1.00  0.00     0.039 A 
ATOM      2  C   UNL     1      28.754  21.412  -4.264  1.00  0.00     0.124 A 
ATOM      3  C   UNL     1      27.967  20.555  -2.126  1.00  0.00     0.014 A 
ATOM      4  C   UNL     1      28.961  20.095  -4.695  1.00  0.00     0.047 A 
ATOM      5  C   UNL     1      28.199  19.249  -2.564  1.00  0.00     0.001 A 
ATOM      6  C   UNL     1      28.687  19.019  -3.850  1.00  0.00     0.004 A 
ENDROOT
BRANCH   1   7
ATOM      7  C   UNL     1      27.882  23.006  -2.481  1.00  0.00     0.075 C 
ATOM      8  O   UNL     1      28.765  23.899  -2.390  1.00  0.00    -0.545 OA
ATOM      9  O   UNL     1      26.565  23.327  -2.177  1.00  0.00    -0.545 OA
ENDBRANCH   1   7
BRANCH   2  10
ATOM     10  O   UNL     1      29.124  22.443  -5.131  1.00  0.00    -0.507 OA
ATOM     11  H   UNL     1      30.042  22.865  -5.137  1.00  0.00     0.293 HD
ENDBRANCH   2  10
TORSDOF 2
ENDMDL
