MODEL 1
REMARK VINA RESULT:     7.286      0.000      0.000
REMARK INTER + INTRA:           9.270
REMARK INTER:                   8.564
REMARK INTRA:                   0.706
REMARK UNBOUND:                 0.706
REMARK SMILES C=C(C)[C@@H]1CC[C@]2(CO)CC[C@]3(C)[C@@H](CC[C@@H]4[C@]5(C)CC[C@@H](O)C(C)(C)[C@@H]5CC[C@@]43C)[C@H]12
REMARK SMILES IDX 4 1 5 2 6 3 7 4 32 5 14 6 15 7 16 8 17 9 18 10 20 11 21 12
REMARK SMILES IDX 22 13 24 14 27 15 28 16 29 17 30 18 12 19 11 20 10 21 13 22
REMARK SMILES IDX 31 23 25 24 26 25 19 26 2 27 3 28 1 29 8 30 9 31 23 33
REMARK H PARENT 9 32 23 34
REMARK Flexibility Score: inf
ROOT
ATOM      1  C   UNL     1     -12.198  14.087 -32.861  1.00  0.00     0.018 C 
ATOM      2  C   UNL     1     -11.378  15.341 -33.166  1.00  0.00     0.009 C 
ATOM      3  C   UNL     1     -11.006  15.929 -31.821  1.00  0.00     0.010 C 
ATOM      4  C   UNL     1     -12.190  15.620 -30.876  1.00  0.00    -0.003 C 
ATOM      5  C   UNL     1     -12.883  14.338 -31.467  1.00  0.00     0.008 C 
ATOM      6  C   UNL     1     -12.922  13.111 -30.479  1.00  0.00    -0.000 C 
ATOM      7  C   UNL     1     -13.662  11.882 -31.034  1.00  0.00     0.005 C 
ATOM      8  C   UNL     1     -15.158  11.909 -30.798  1.00  0.00     0.005 C 
ATOM      9  C   UNL     1     -15.550  11.980 -29.291  1.00  0.00     0.002 C 
ATOM     10  C   UNL     1     -17.141  11.773 -29.008  1.00  0.00    -0.026 C 
ATOM     11  C   UNL     1     -17.809  10.985 -30.189  1.00  0.00     0.010 C 
ATOM     12  C   UNL     1     -19.330  10.881 -30.137  1.00  0.00     0.033 C 
ATOM     13  C   UNL     1     -19.953  12.274 -30.162  1.00  0.00     0.120 C 
ATOM     14  C   UNL     1     -19.506  13.132 -28.943  1.00  0.00    -0.006 C 
ATOM     15  C   UNL     1     -17.910  13.155 -28.788  1.00  0.00     0.003 C 
ATOM     16  C   UNL     1     -17.204  14.258 -29.608  1.00  0.00     0.005 C 
ATOM     17  C   UNL     1     -15.737  14.505 -29.180  1.00  0.00     0.008 C 
ATOM     18  C   UNL     1     -14.919  13.277 -28.647  1.00  0.00    -0.024 C 
ATOM     19  C   UNL     1     -13.319  13.405 -28.967  1.00  0.00    -0.024 C 
ATOM     20  C   UNL     1     -12.757  14.812 -28.521  1.00  0.00     0.008 C 
ATOM     21  C   UNL     1     -11.665  15.374 -29.437  1.00  0.00     0.010 C 
ATOM     22  C   UNL     1     -12.520  12.344 -28.122  1.00  0.00     0.012 C 
ATOM     23  C   UNL     1     -15.068  13.237 -27.086  1.00  0.00     0.012 C 
ATOM     24  C   UNL     1     -20.173  12.608 -27.634  1.00  0.00     0.014 C 
ATOM     25  C   UNL     1     -20.084  14.562 -29.137  1.00  0.00     0.014 C 
ATOM     26  C   UNL     1     -17.264  10.883 -27.728  1.00  0.00     0.012 C 
ENDROOT
BRANCH   1  27
ATOM     27  C   UNL     1     -11.336  12.828 -33.052  1.00  0.00    -0.077 C 
ATOM     28  C   UNL     1     -10.875  12.441 -34.437  1.00  0.00     0.039 C 
ATOM     29  C   UNL     1     -10.881  12.097 -32.019  1.00  0.00     0.008 C 
ENDBRANCH   1  27
BRANCH   4  30
ATOM     30  C   UNL     1     -13.156  16.847 -30.914  1.00  0.00     0.163 C 
BRANCH  30  31
ATOM     31  O   UNL     1     -14.422  16.477 -31.394  1.00  0.00    -0.396 OA
ATOM     32  H   UNL     1     -14.289  16.189 -32.335  1.00  0.00     0.210 HD
ENDBRANCH  30  31
ENDBRANCH   4  30
BRANCH  13  33
ATOM     33  O   UNL     1     -21.354  12.133 -30.197  1.00  0.00    -0.393 OA
ATOM     34  H   UNL     1     -21.558  11.321 -30.730  1.00  0.00     0.210 HD
ENDBRANCH  13  33
TORSDOF 4
ENDMDL
MODEL 2
REMARK VINA RESULT:     7.427      1.565      7.560
REMARK INTER + INTRA:           9.436
REMARK INTER:                   7.769
REMARK INTRA:                   1.667
REMARK UNBOUND:                 0.706
REMARK SMILES C=C(C)[C@@H]1CC[C@]2(CO)CC[C@]3(C)[C@@H](CC[C@@H]4[C@]5(C)CC[C@@H](O)C(C)(C)[C@@H]5CC[C@@]43C)[C@H]12
REMARK SMILES IDX 4 1 5 2 6 3 7 4 32 5 14 6 15 7 16 8 17 9 18 10 20 11 21 12
REMARK SMILES IDX 22 13 24 14 27 15 28 16 29 17 30 18 12 19 11 20 10 21 13 22
REMARK SMILES IDX 31 23 25 24 26 25 19 26 2 27 3 28 1 29 8 30 9 31 23 33
REMARK H PARENT 9 32 23 34
REMARK Flexibility Score: inf
ROOT
ATOM      1  C   UNL     1     -20.449  14.215 -30.171  1.00  0.00     0.018 C 
ATOM      2  C   UNL     1     -21.607  13.277 -30.511  1.00  0.00     0.009 C 
ATOM      3  C   UNL     1     -21.434  12.067 -29.617  1.00  0.00     0.010 C 
ATOM      4  C   UNL     1     -19.910  11.877 -29.441  1.00  0.00    -0.003 C 
ATOM      5  C   UNL     1     -19.276  13.300 -29.659  1.00  0.00     0.008 C 
ATOM      6  C   UNL     1     -18.460  13.840 -28.424  1.00  0.00    -0.000 C 
ATOM      7  C   UNL     1     -17.783  15.200 -28.665  1.00  0.00     0.005 C 
ATOM      8  C   UNL     1     -16.418  15.099 -29.314  1.00  0.00     0.005 C 
ATOM      9  C   UNL     1     -15.393  14.271 -28.482  1.00  0.00     0.002 C 
ATOM     10  C   UNL     1     -13.865  14.348 -29.043  1.00  0.00    -0.026 C 
ATOM     11  C   UNL     1     -13.659  15.653 -29.891  1.00  0.00     0.010 C 
ATOM     12  C   UNL     1     -12.327  15.759 -30.625  1.00  0.00     0.033 C 
ATOM     13  C   UNL     1     -12.171  14.599 -31.604  1.00  0.00     0.120 C 
ATOM     14  C   UNL     1     -12.191  13.222 -30.881  1.00  0.00    -0.006 C 
ATOM     15  C   UNL     1     -13.469  13.075 -29.922  1.00  0.00     0.003 C 
ATOM     16  C   UNL     1     -14.736  12.535 -30.623  1.00  0.00     0.005 C 
ATOM     17  C   UNL     1     -15.832  12.059 -29.639  1.00  0.00     0.008 C 
ATOM     18  C   UNL     1     -15.953  12.809 -28.267  1.00  0.00    -0.024 C 
ATOM     19  C   UNL     1     -17.485  12.818 -27.692  1.00  0.00    -0.024 C 
ATOM     20  C   UNL     1     -18.109  11.367 -27.703  1.00  0.00     0.008 C 
ATOM     21  C   UNL     1     -19.607  11.329 -28.022  1.00  0.00     0.010 C 
ATOM     22  C   UNL     1     -17.485  13.265 -26.182  1.00  0.00     0.012 C 
ATOM     23  C   UNL     1     -15.078  12.041 -27.217  1.00  0.00     0.012 C 
ATOM     24  C   UNL     1     -10.875  13.013 -30.071  1.00  0.00     0.014 C 
ATOM     25  C   UNL     1     -12.165  12.116 -31.973  1.00  0.00     0.014 C 
ATOM     26  C   UNL     1     -12.927  14.450 -27.797  1.00  0.00     0.012 C 
ENDROOT
BRANCH   1  27
ATOM     27  C   UNL     1     -20.942  15.366 -29.277  1.00  0.00    -0.077 C 
ATOM     28  C   UNL     1     -22.326  15.933 -29.485  1.00  0.00     0.039 C 
ATOM     29  C   UNL     1     -20.228  15.834 -28.238  1.00  0.00     0.008 C 
ENDBRANCH   1  27
BRANCH   4  30
ATOM     30  C   UNL     1     -19.430  10.876 -30.540  1.00  0.00     0.163 C 
BRANCH  30  31
ATOM     31  O   UNL     1     -18.357  11.408 -31.272  1.00  0.00    -0.396 OA
ATOM     32  H   UNL     1     -17.662  11.655 -30.608  1.00  0.00     0.210 HD
ENDBRANCH  30  31
ENDBRANCH   4  30
BRANCH  13  33
ATOM     33  O   UNL     1     -10.972  14.779 -32.320  1.00  0.00    -0.393 OA
ATOM     34  H   UNL     1     -10.911  14.046 -32.987  1.00  0.00     0.210 HD
ENDBRANCH  13  33
TORSDOF 4
ENDMDL
MODEL 3
REMARK VINA RESULT:     8.382      1.204      1.435
REMARK INTER + INTRA:          10.559
REMARK INTER:                  10.824
REMARK INTRA:                  -0.266
REMARK UNBOUND:                 0.706
REMARK SMILES C=C(C)[C@@H]1CC[C@]2(CO)CC[C@]3(C)[C@@H](CC[C@@H]4[C@]5(C)CC[C@@H](O)C(C)(C)[C@@H]5CC[C@@]43C)[C@H]12
REMARK SMILES IDX 4 1 5 2 6 3 7 4 32 5 14 6 15 7 16 8 17 9 18 10 20 11 21 12
REMARK SMILES IDX 22 13 24 14 27 15 28 16 29 17 30 18 12 19 11 20 10 21 13 22
REMARK SMILES IDX 31 23 25 24 26 25 19 26 2 27 3 28 1 29 8 30 9 31 23 33
REMARK H PARENT 9 32 23 34
REMARK Flexibility Score: inf
ROOT
ATOM      1  C   UNL     1     -12.292  14.734 -31.958  1.00  0.00     0.018 C 
ATOM      2  C   UNL     1     -11.189  15.726 -31.590  1.00  0.00     0.009 C 
ATOM      3  C   UNL     1     -10.887  15.484 -30.127  1.00  0.00     0.010 C 
ATOM      4  C   UNL     1     -12.227  15.073 -29.475  1.00  0.00    -0.003 C 
ATOM      5  C   UNL     1     -13.092  14.454 -30.633  1.00  0.00     0.008 C 
ATOM      6  C   UNL     1     -13.528  12.960 -30.385  1.00  0.00    -0.000 C 
ATOM      7  C   UNL     1     -14.432  12.380 -31.486  1.00  0.00     0.005 C 
ATOM      8  C   UNL     1     -15.905  12.669 -31.287  1.00  0.00     0.005 C 
ATOM      9  C   UNL     1     -16.474  12.108 -29.949  1.00  0.00     0.002 C 
ATOM     10  C   UNL     1     -18.097  12.203 -29.826  1.00  0.00    -0.026 C 
ATOM     11  C   UNL     1     -18.750  12.275 -31.250  1.00  0.00     0.010 C 
ATOM     12  C   UNL     1     -20.250  12.549 -31.275  1.00  0.00     0.033 C 
ATOM     13  C   UNL     1     -20.551  13.891 -30.613  1.00  0.00     0.120 C 
ATOM     14  C   UNL     1     -20.101  13.917 -29.124  1.00  0.00    -0.006 C 
ATOM     15  C   UNL     1     -18.573  13.456 -28.958  1.00  0.00     0.003 C 
ATOM     16  C   UNL     1     -17.542  14.596 -29.113  1.00  0.00     0.005 C 
ATOM     17  C   UNL     1     -16.129  14.227 -28.601  1.00  0.00     0.008 C 
ATOM     18  C   UNL     1     -15.674  12.732 -28.738  1.00  0.00    -0.024 C 
ATOM     19  C   UNL     1     -14.056  12.585 -28.932  1.00  0.00    -0.024 C 
ATOM     20  C   UNL     1     -13.271  13.412 -27.839  1.00  0.00     0.008 C 
ATOM     21  C   UNL     1     -11.970  14.046 -28.342  1.00  0.00     0.010 C 
ATOM     22  C   UNL     1     -13.626  11.087 -28.715  1.00  0.00     0.012 C 
ATOM     23  C   UNL     1     -16.041  11.991 -27.405  1.00  0.00     0.012 C 
ATOM     24  C   UNL     1     -21.038  13.021 -28.257  1.00  0.00     0.014 C 
ATOM     25  C   UNL     1     -20.326  15.359 -28.589  1.00  0.00     0.014 C 
ATOM     26  C   UNL     1     -18.581  10.876 -29.158  1.00  0.00     0.012 C 
ENDROOT
BRANCH   1  27
ATOM     27  C   UNL     1     -11.703  13.547 -32.739  1.00  0.00    -0.077 C 
ATOM     28  C   UNL     1     -11.851  13.493 -34.241  1.00  0.00     0.039 C 
ATOM     29  C   UNL     1     -10.964  12.589 -32.152  1.00  0.00     0.008 C 
ENDBRANCH   1  27
BRANCH   4  30
ATOM     30  C   UNL     1     -12.893  16.369 -28.910  1.00  0.00     0.163 C 
BRANCH  30  31
ATOM     31  O   UNL     1     -14.170  16.560 -29.461  1.00  0.00    -0.396 OA
ATOM     32  H   UNL     1     -14.812  16.155 -28.821  1.00  0.00     0.210 HD
ENDBRANCH  30  31
ENDBRANCH   4  30
BRANCH  13  33
ATOM     33  O   UNL     1     -21.931  14.145 -30.731  1.00  0.00    -0.393 OA
ATOM     34  H   UNL     1     -22.063  15.124 -30.627  1.00  0.00     0.210 HD
ENDBRANCH  13  33
TORSDOF 4
ENDMDL
