MODEL 1
REMARK VINA RESULT:    41.154      0.000      0.000
REMARK INTER + INTRA:          49.641
REMARK INTER:                  49.574
REMARK INTRA:                   0.066
REMARK UNBOUND:                 0.066
REMARK SMILES O=c1c(O)c(-c2ccc(O)c(O)c2)oc2cc(O)cc(O)c12
REMARK SMILES IDX 5 1 3 2 2 3 1 4 22 5 20 6 19 7 17 8 16 9 15 10 14 11 6 12
REMARK SMILES IDX 7 13 8 14 9 15 13 16 11 17 10 18 12 20 4 22 21 24 18 26
REMARK H PARENT 10 19 12 21 4 23 21 25 18 27
REMARK Flexibility Score: inf
ROOT
ATOM      1  C   UNL     1     -16.322  10.690  -9.134  1.00  0.00     0.180 A 
ATOM      2  C   UNL     1     -16.497  10.562  -7.744  1.00  0.00     0.208 A 
ATOM      3  C   UNL     1     -16.064   9.387  -7.109  1.00  0.00     0.238 A 
ATOM      4  O   UNL     1     -16.273   9.256  -5.875  1.00  0.00    -0.285 OA
ATOM      5  C   UNL     1     -15.447   8.362  -7.867  1.00  0.00     0.111 A 
ATOM      6  C   UNL     1     -14.934   7.148  -7.319  1.00  0.00     0.134 A 
ATOM      7  C   UNL     1     -14.462   6.148  -8.180  1.00  0.00     0.093 A 
ATOM      8  C   UNL     1     -14.425   6.347  -9.562  1.00  0.00     0.123 A 
ATOM      9  C   UNL     1     -14.867   7.552 -10.100  1.00  0.00     0.094 A 
ATOM     10  C   UNL     1     -15.377   8.554  -9.270  1.00  0.00     0.146 A 
ATOM     11  O   UNL     1     -15.799   9.684  -9.825  1.00  0.00    -0.452 OA
ENDROOT
BRANCH   1  12
ATOM     12  C   UNL     1     -16.730  11.907  -9.871  1.00  0.00     0.025 A 
ATOM     13  C   UNL     1     -17.508  11.828 -11.040  1.00  0.00     0.016 A 
ATOM     14  C   UNL     1     -17.902  12.992 -11.706  1.00  0.00     0.051 A 
ATOM     15  C   UNL     1     -17.537  14.250 -11.206  1.00  0.00     0.157 A 
ATOM     16  C   UNL     1     -16.386  13.170  -9.363  1.00  0.00     0.062 A 
ATOM     17  C   UNL     1     -16.781  14.339 -10.031  1.00  0.00     0.158 A 
BRANCH  15  18
ATOM     18  O   UNL     1     -17.927  15.412 -11.868  1.00  0.00    -0.504 OA
ATOM     19  H   UNL     1     -17.312  16.214 -11.939  1.00  0.00     0.293 HD
ENDBRANCH  15  18
BRANCH  17  20
ATOM     20  O   UNL     1     -16.426  15.591  -9.533  1.00  0.00    -0.504 OA
ATOM     21  H   UNL     1     -16.950  16.031  -8.785  1.00  0.00     0.293 HD
ENDBRANCH  17  20
ENDBRANCH   1  12
BRANCH   2  22
ATOM     22  O   UNL     1     -17.128  11.576  -7.020  1.00  0.00    -0.502 OA
ATOM     23  H   UNL     1     -17.904  11.395  -6.393  1.00  0.00     0.293 HD
ENDBRANCH   2  22
BRANCH   6  24
ATOM     24  O   UNL     1     -14.841   6.886  -5.949  1.00  0.00    -0.507 OA
ATOM     25  H   UNL     1     -14.049   7.125  -5.372  1.00  0.00     0.293 HD
ENDBRANCH   6  24
BRANCH   8  26
ATOM     26  O   UNL     1     -13.939   5.353 -10.409  1.00  0.00    -0.508 OA
ATOM     27  H   UNL     1     -14.038   5.419 -11.415  1.00  0.00     0.293 HD
ENDBRANCH   8  26
TORSDOF 6
ENDMDL
