MODEL 1
REMARK VINA RESULT:    24.324      0.000      0.000
REMARK INTER + INTRA:          29.072
REMARK INTER:                  29.301
REMARK INTRA:                  -0.229
REMARK UNBOUND:                -0.229
REMARK SMILES O=c1c(O)c(-c2ccc(O)c(O)c2)oc2cc(O)cc(O)c12
REMARK SMILES IDX 5 1 3 2 2 3 1 4 22 5 20 6 19 7 17 8 16 9 15 10 14 11 6 12
REMARK SMILES IDX 7 13 8 14 9 15 13 16 11 17 10 18 12 20 4 22 21 24 18 26
REMARK H PARENT 10 19 12 21 4 23 21 25 18 27
REMARK Flexibility Score: inf
ROOT
ATOM      1  C   UNL     1      33.691  43.070  59.112  1.00  0.00     0.180 A 
ATOM      2  C   UNL     1      35.005  42.576  59.163  1.00  0.00     0.208 A 
ATOM      3  C   UNL     1      35.620  42.152  57.973  1.00  0.00     0.238 A 
ATOM      4  O   UNL     1      36.769  41.642  58.037  1.00  0.00    -0.285 OA
ATOM      5  C   UNL     1      34.936  42.281  56.741  1.00  0.00     0.111 A 
ATOM      6  C   UNL     1      35.479  41.926  55.468  1.00  0.00     0.134 A 
ATOM      7  C   UNL     1      34.670  41.998  54.327  1.00  0.00     0.093 A 
ATOM      8  C   UNL     1      33.361  42.471  54.401  1.00  0.00     0.123 A 
ATOM      9  C   UNL     1      32.837  42.872  55.631  1.00  0.00     0.094 A 
ATOM     10  C   UNL     1      33.606  42.776  56.793  1.00  0.00     0.146 A 
ATOM     11  O   UNL     1      33.062  43.149  57.945  1.00  0.00    -0.452 OA
ENDROOT
BRANCH   1  12
ATOM     12  C   UNL     1      32.971  43.521  60.324  1.00  0.00     0.025 A 
ATOM     13  C   UNL     1      32.558  42.611  61.312  1.00  0.00     0.016 A 
ATOM     14  C   UNL     1      31.858  43.058  62.436  1.00  0.00     0.051 A 
ATOM     15  C   UNL     1      31.549  44.416  62.582  1.00  0.00     0.157 A 
ATOM     16  C   UNL     1      32.640  44.880  60.465  1.00  0.00     0.062 A 
ATOM     17  C   UNL     1      31.938  45.329  61.593  1.00  0.00     0.158 A 
BRANCH  15  18
ATOM     18  O   UNL     1      30.853  44.867  63.703  1.00  0.00    -0.504 OA
ATOM     19  H   UNL     1      31.335  45.267  64.499  1.00  0.00     0.293 HD
ENDBRANCH  15  18
BRANCH  17  20
ATOM     20  O   UNL     1      31.623  46.679  61.736  1.00  0.00    -0.504 OA
ATOM     21  H   UNL     1      30.807  47.083  61.292  1.00  0.00     0.293 HD
ENDBRANCH  17  20
ENDBRANCH   1  12
BRANCH   2  22
ATOM     22  O   UNL     1      35.692  42.528  60.378  1.00  0.00    -0.502 OA
ATOM     23  H   UNL     1      35.272  42.819  61.253  1.00  0.00     0.293 HD
ENDBRANCH   2  22
BRANCH   6  24
ATOM     24  O   UNL     1      36.804  41.525  55.267  1.00  0.00    -0.507 OA
ATOM     25  H   UNL     1      37.221  40.694  55.653  1.00  0.00     0.293 HD
ENDBRANCH   6  24
BRANCH   8  26
ATOM     26  O   UNL     1      32.590  42.544  53.243  1.00  0.00    -0.508 OA
ATOM     27  H   UNL     1      32.976  42.885  52.370  1.00  0.00     0.293 HD
ENDBRANCH   8  26
TORSDOF 6
ENDMDL
MODEL 2
REMARK VINA RESULT:    24.690      7.322      9.856
REMARK INTER + INTRA:          29.512
REMARK INTER:                  29.053
REMARK INTRA:                   0.459
REMARK UNBOUND:                -0.229
REMARK SMILES O=c1c(O)c(-c2ccc(O)c(O)c2)oc2cc(O)cc(O)c12
REMARK SMILES IDX 5 1 3 2 2 3 1 4 22 5 20 6 19 7 17 8 16 9 15 10 14 11 6 12
REMARK SMILES IDX 7 13 8 14 9 15 13 16 11 17 10 18 12 20 4 22 21 24 18 26
REMARK H PARENT 10 19 12 21 4 23 21 25 18 27
REMARK Flexibility Score: inf
ROOT
ATOM      1  C   UNL     1      31.569  48.127  52.837  1.00  0.00     0.180 A 
ATOM      2  C   UNL     1      31.432  48.961  53.959  1.00  0.00     0.208 A 
ATOM      3  C   UNL     1      31.121  50.318  53.766  1.00  0.00     0.238 A 
ATOM      4  O   UNL     1      31.073  51.074  54.771  1.00  0.00    -0.285 OA
ATOM      5  C   UNL     1      30.894  50.810  52.459  1.00  0.00     0.111 A 
ATOM      6  C   UNL     1      30.529  52.156  52.149  1.00  0.00     0.134 A 
ATOM      7  C   UNL     1      30.436  52.555  50.810  1.00  0.00     0.093 A 
ATOM      8  C   UNL     1      30.630  51.645  49.771  1.00  0.00     0.123 A 
ATOM      9  C   UNL     1      30.934  50.315  50.064  1.00  0.00     0.094 A 
ATOM     10  C   UNL     1      31.072  49.895  51.388  1.00  0.00     0.146 A 
ATOM     11  O   UNL     1      31.383  48.625  51.620  1.00  0.00    -0.452 OA
ENDROOT
BRANCH   1  12
ATOM     12  C   UNL     1      31.910  46.692  52.958  1.00  0.00     0.025 A 
ATOM     13  C   UNL     1      31.630  45.782  51.924  1.00  0.00     0.016 A 
ATOM     14  C   UNL     1      31.940  44.427  52.072  1.00  0.00     0.051 A 
ATOM     15  C   UNL     1      32.518  43.961  53.258  1.00  0.00     0.157 A 
ATOM     16  C   UNL     1      32.471  46.214  54.155  1.00  0.00     0.062 A 
ATOM     17  C   UNL     1      32.782  44.856  54.303  1.00  0.00     0.158 A 
BRANCH  15  18
ATOM     18  O   UNL     1      32.830  42.610  53.409  1.00  0.00    -0.504 OA
ATOM     19  H   UNL     1      32.115  41.894  53.365  1.00  0.00     0.293 HD
ENDBRANCH  15  18
BRANCH  17  20
ATOM     20  O   UNL     1      33.352  44.387  55.486  1.00  0.00    -0.504 OA
ATOM     21  H   UNL     1      34.036  43.640  55.486  1.00  0.00     0.293 HD
ENDBRANCH  17  20
ENDBRANCH   1  12
BRANCH   2  22
ATOM     22  O   UNL     1      31.584  48.440  55.247  1.00  0.00    -0.502 OA
ATOM     23  H   UNL     1      31.390  47.470  55.467  1.00  0.00     0.293 HD
ENDBRANCH   2  22
BRANCH   6  24
ATOM     24  O   UNL     1      30.224  53.125  53.110  1.00  0.00    -0.507 OA
ATOM     25  H   UNL     1      30.603  53.153  54.043  1.00  0.00     0.293 HD
ENDBRANCH   6  24
BRANCH   8  26
ATOM     26  O   UNL     1      30.513  52.074  48.451  1.00  0.00    -0.508 OA
ATOM     27  H   UNL     1      29.630  52.032  47.956  1.00  0.00     0.293 HD
ENDBRANCH   8  26
TORSDOF 6
ENDMDL
MODEL 3
REMARK VINA RESULT:    25.689      1.559      6.461
REMARK INTER + INTRA:          30.716
REMARK INTER:                  30.857
REMARK INTRA:                  -0.141
REMARK UNBOUND:                -0.229
REMARK SMILES O=c1c(O)c(-c2ccc(O)c(O)c2)oc2cc(O)cc(O)c12
REMARK SMILES IDX 5 1 3 2 2 3 1 4 22 5 20 6 19 7 17 8 16 9 15 10 14 11 6 12
REMARK SMILES IDX 7 13 8 14 9 15 13 16 11 17 10 18 12 20 4 22 21 24 18 26
REMARK H PARENT 10 19 12 21 4 23 21 25 18 27
REMARK Flexibility Score: inf
ROOT
ATOM      1  C   UNL     1      33.452  42.946  57.210  1.00  0.00     0.180 A 
ATOM      2  C   UNL     1      34.721  42.654  57.737  1.00  0.00     0.208 A 
ATOM      3  C   UNL     1      34.879  42.575  59.131  1.00  0.00     0.238 A 
ATOM      4  O   UNL     1      36.033  42.387  59.597  1.00  0.00    -0.285 OA
ATOM      5  C   UNL     1      33.756  42.732  59.977  1.00  0.00     0.111 A 
ATOM      6  C   UNL     1      33.791  42.628  61.402  1.00  0.00     0.134 A 
ATOM      7  C   UNL     1      32.636  42.909  62.143  1.00  0.00     0.093 A 
ATOM      8  C   UNL     1      31.434  43.227  61.512  1.00  0.00     0.123 A 
ATOM      9  C   UNL     1      31.376  43.278  60.119  1.00  0.00     0.094 A 
ATOM     10  C   UNL     1      32.519  43.041  59.353  1.00  0.00     0.146 A 
ATOM     11  O   UNL     1      32.423  43.121  58.031  1.00  0.00    -0.452 OA
ENDROOT
BRANCH   1  12
ATOM     12  C   UNL     1      33.210  43.060  55.755  1.00  0.00     0.025 A 
ATOM     13  C   UNL     1      33.414  41.970  54.890  1.00  0.00     0.016 A 
ATOM     14  C   UNL     1      33.202  42.110  53.516  1.00  0.00     0.051 A 
ATOM     15  C   UNL     1      32.797  43.341  52.985  1.00  0.00     0.157 A 
ATOM     16  C   UNL     1      32.824  44.298  55.214  1.00  0.00     0.062 A 
ATOM     17  C   UNL     1      32.611  44.438  53.835  1.00  0.00     0.158 A 
BRANCH  15  18
ATOM     18  O   UNL     1      32.583  43.484  51.614  1.00  0.00    -0.504 OA
ATOM     19  H   UNL     1      32.518  42.679  51.003  1.00  0.00     0.293 HD
ENDBRANCH  15  18
BRANCH  17  20
ATOM     20  O   UNL     1      32.215  45.665  53.303  1.00  0.00    -0.504 OA
ATOM     21  H   UNL     1      31.881  46.416  53.895  1.00  0.00     0.293 HD
ENDBRANCH  17  20
ENDBRANCH   1  12
BRANCH   2  22
ATOM     22  O   UNL     1      35.803  42.426  56.882  1.00  0.00    -0.502 OA
ATOM     23  H   UNL     1      36.667  42.950  56.945  1.00  0.00     0.293 HD
ENDBRANCH   2  22
BRANCH   6  24
ATOM     24  O   UNL     1      34.916  42.230  62.130  1.00  0.00    -0.507 OA
ATOM     25  H   UNL     1      34.923  41.514  62.838  1.00  0.00     0.293 HD
ENDBRANCH   6  24
BRANCH   8  26
ATOM     26  O   UNL     1      30.302  43.484  62.281  1.00  0.00    -0.508 OA
ATOM     27  H   UNL     1      30.231  43.170  63.242  1.00  0.00     0.293 HD
ENDBRANCH   8  26
TORSDOF 6
ENDMDL
MODEL 4
REMARK VINA RESULT:    26.607      1.360      2.812
REMARK INTER + INTRA:          31.822
REMARK INTER:                  32.136
REMARK INTRA:                  -0.314
REMARK UNBOUND:                -0.229
REMARK SMILES O=c1c(O)c(-c2ccc(O)c(O)c2)oc2cc(O)cc(O)c12
REMARK SMILES IDX 5 1 3 2 2 3 1 4 22 5 20 6 19 7 17 8 16 9 15 10 14 11 6 12
REMARK SMILES IDX 7 13 8 14 9 15 13 16 11 17 10 18 12 20 4 22 21 24 18 26
REMARK H PARENT 10 19 12 21 4 23 21 25 18 27
REMARK Flexibility Score: inf
ROOT
ATOM      1  C   UNL     1      33.309  42.902  59.143  1.00  0.00     0.180 A 
ATOM      2  C   UNL     1      32.491  42.483  58.080  1.00  0.00     0.208 A 
ATOM      3  C   UNL     1      33.091  42.103  56.868  1.00  0.00     0.238 A 
ATOM      4  O   UNL     1      32.349  41.800  55.897  1.00  0.00    -0.285 OA
ATOM      5  C   UNL     1      34.501  42.092  56.752  1.00  0.00     0.111 A 
ATOM      6  C   UNL     1      35.219  41.682  55.587  1.00  0.00     0.134 A 
ATOM      7  C   UNL     1      36.612  41.814  55.551  1.00  0.00     0.093 A 
ATOM      8  C   UNL     1      37.321  42.279  56.658  1.00  0.00     0.123 A 
ATOM      9  C   UNL     1      36.635  42.632  57.821  1.00  0.00     0.094 A 
ATOM     10  C   UNL     1      35.242  42.547  57.874  1.00  0.00     0.146 A 
ATOM     11  O   UNL     1      34.628  42.912  58.994  1.00  0.00    -0.452 OA
ENDROOT
BRANCH   1  12
ATOM     12  C   UNL     1      32.751  43.332  60.444  1.00  0.00     0.025 A 
ATOM     13  C   UNL     1      32.600  42.429  61.511  1.00  0.00     0.016 A 
ATOM     14  C   UNL     1      32.048  42.853  62.723  1.00  0.00     0.051 A 
ATOM     15  C   UNL     1      31.626  44.179  62.882  1.00  0.00     0.157 A 
ATOM     16  C   UNL     1      32.307  44.656  60.602  1.00  0.00     0.062 A 
ATOM     17  C   UNL     1      31.753  45.082  61.818  1.00  0.00     0.158 A 
BRANCH  15  18
ATOM     18  O   UNL     1      31.077  44.606  64.090  1.00  0.00    -0.504 OA
ATOM     19  H   UNL     1      31.627  45.119  64.769  1.00  0.00     0.293 HD
ENDBRANCH  15  18
BRANCH  17  20
ATOM     20  O   UNL     1      31.326  46.399  61.976  1.00  0.00    -0.504 OA
ATOM     21  H   UNL     1      31.622  46.962  62.765  1.00  0.00     0.293 HD
ENDBRANCH  17  20
ENDBRANCH   1  12
BRANCH   2  22
ATOM     22  O   UNL     1      31.104  42.428  58.238  1.00  0.00    -0.502 OA
ATOM     23  H   UNL     1      30.574  43.182  58.660  1.00  0.00     0.293 HD
ENDBRANCH   2  22
BRANCH   6  24
ATOM     24  O   UNL     1      34.618  41.118  54.456  1.00  0.00    -0.507 OA
ATOM     25  H   UNL     1      33.972  41.594  53.847  1.00  0.00     0.293 HD
ENDBRANCH   6  24
BRANCH   8  26
ATOM     26  O   UNL     1      38.708  42.382  56.592  1.00  0.00    -0.508 OA
ATOM     27  H   UNL     1      39.202  43.165  57.005  1.00  0.00     0.293 HD
ENDBRANCH   8  26
TORSDOF 6
ENDMDL
