MODEL 1
REMARK VINA RESULT:    -4.564      0.000      0.000
REMARK INTER + INTRA:          -6.000
REMARK INTER:                  -5.631
REMARK INTRA:                  -0.369
REMARK UNBOUND:                -0.369
REMARK SMILES C=CC[C@@H](C)C(=O)CC
REMARK SMILES IDX 4 1 5 2 6 3 7 4 8 5 9 6 3 7 2 8 1 9
REMARK H PARENT
REMARK Flexibility Score: inf
ROOT
ATOM      1  C   UNL     1      -8.547  32.744  21.134  1.00  0.00     0.057 C 
ATOM      2  C   UNL     1      -7.220  33.122  20.461  1.00  0.00     0.016 C 
ENDROOT
BRANCH   1   3
ATOM      3  C   UNL     1      -8.377  31.462  21.921  1.00  0.00     0.135 C 
ATOM      4  O   UNL     1      -8.748  30.401  21.439  1.00  0.00    -0.299 OA
BRANCH   3   5
ATOM      5  C   UNL     1      -7.748  31.465  23.290  1.00  0.00     0.072 C 
ATOM      6  C   UNL     1      -6.481  30.617  23.304  1.00  0.00     0.012 C 
ENDBRANCH   3   5
ENDBRANCH   1   3
BRANCH   1   7
ATOM      7  C   UNL     1      -9.058  33.867  22.061  1.00  0.00     0.038 C 
BRANCH   7   8
ATOM      8  C   UNL     1      -8.025  34.938  22.289  1.00  0.00    -0.034 C 
ATOM      9  C   UNL     1      -7.578  35.236  23.512  1.00  0.00     0.004 C 
ENDBRANCH   7   8
ENDBRANCH   1   7
TORSDOF 4
ENDMDL
MODEL 2
REMARK VINA RESULT:    -4.520      0.909      2.576
REMARK INTER + INTRA:          -5.946
REMARK INTER:                  -5.471
REMARK INTRA:                  -0.475
REMARK UNBOUND:                -0.369
REMARK SMILES C=CC[C@@H](C)C(=O)CC
REMARK SMILES IDX 4 1 5 2 6 3 7 4 8 5 9 6 3 7 2 8 1 9
REMARK H PARENT
REMARK Flexibility Score: inf
ROOT
ATOM      1  C   UNL     1      -7.312  31.923  23.040  1.00  0.00     0.057 C 
ATOM      2  C   UNL     1      -6.431  30.715  23.387  1.00  0.00     0.016 C 
ENDROOT
BRANCH   1   3
ATOM      3  C   UNL     1      -8.189  31.594  21.850  1.00  0.00     0.135 C 
ATOM      4  O   UNL     1      -8.631  30.462  21.717  1.00  0.00    -0.299 OA
BRANCH   3   5
ATOM      5  C   UNL     1      -8.539  32.643  20.826  1.00  0.00     0.072 C 
ATOM      6  C   UNL     1      -7.295  33.411  20.393  1.00  0.00     0.012 C 
ENDBRANCH   3   5
ENDBRANCH   1   3
BRANCH   1   7
ATOM      7  C   UNL     1      -8.187  32.354  24.236  1.00  0.00     0.038 C 
BRANCH   7   8
ATOM      8  C   UNL     1      -8.303  33.851  24.351  1.00  0.00    -0.034 C 
ATOM      9  C   UNL     1      -7.387  34.671  23.829  1.00  0.00     0.004 C 
ENDBRANCH   7   8
ENDBRANCH   1   7
TORSDOF 4
ENDMDL
MODEL 3
REMARK VINA RESULT:    -4.505      1.199      2.097
REMARK INTER + INTRA:          -5.927
REMARK INTER:                  -5.569
REMARK INTRA:                  -0.358
REMARK UNBOUND:                -0.369
REMARK SMILES C=CC[C@@H](C)C(=O)CC
REMARK SMILES IDX 4 1 5 2 6 3 7 4 8 5 9 6 3 7 2 8 1 9
REMARK H PARENT
REMARK Flexibility Score: inf
ROOT
ATOM      1  C   UNL     1      -8.581  32.594  22.790  1.00  0.00     0.057 C 
ATOM      2  C   UNL     1      -9.622  32.658  23.916  1.00  0.00     0.016 C 
ENDROOT
BRANCH   1   3
ATOM      3  C   UNL     1      -8.529  31.194  22.216  1.00  0.00     0.135 C 
ATOM      4  O   UNL     1      -9.114  30.946  21.171  1.00  0.00    -0.299 OA
BRANCH   3   5
ATOM      5  C   UNL     1      -7.759  30.097  22.904  1.00  0.00     0.072 C 
ATOM      6  C   UNL     1      -6.408  30.608  23.389  1.00  0.00     0.012 C 
ENDBRANCH   3   5
ENDBRANCH   1   3
BRANCH   1   7
ATOM      7  C   UNL     1      -8.887  33.612  21.671  1.00  0.00     0.038 C 
BRANCH   7   8
ATOM      8  C   UNL     1      -7.646  34.290  21.157  1.00  0.00    -0.034 C 
ATOM      9  C   UNL     1      -6.993  33.843  20.080  1.00  0.00     0.004 C 
ENDBRANCH   7   8
ENDBRANCH   1   7
TORSDOF 4
ENDMDL
MODEL 4
REMARK VINA RESULT:    -4.481      1.816      2.754
REMARK INTER + INTRA:          -5.898
REMARK INTER:                  -5.513
REMARK INTRA:                  -0.385
REMARK UNBOUND:                -0.369
REMARK SMILES C=CC[C@@H](C)C(=O)CC
REMARK SMILES IDX 4 1 5 2 6 3 7 4 8 5 9 6 3 7 2 8 1 9
REMARK H PARENT
REMARK Flexibility Score: inf
ROOT
ATOM      1  C   UNL     1      -7.635  33.398  23.247  1.00  0.00     0.057 C 
ATOM      2  C   UNL     1      -7.448  34.781  23.885  1.00  0.00     0.016 C 
ENDROOT
BRANCH   1   3
ATOM      3  C   UNL     1      -8.113  32.411  24.291  1.00  0.00     0.135 C 
ATOM      4  O   UNL     1      -8.775  32.806  25.240  1.00  0.00    -0.299 OA
BRANCH   3   5
ATOM      5  C   UNL     1      -7.796  30.942  24.179  1.00  0.00     0.072 C 
ATOM      6  C   UNL     1      -6.492  30.728  23.419  1.00  0.00     0.012 C 
ENDBRANCH   3   5
ENDBRANCH   1   3
BRANCH   1   7
ATOM      7  C   UNL     1      -8.631  33.442  22.069  1.00  0.00     0.038 C 
BRANCH   7   8
ATOM      8  C   UNL     1      -8.002  33.019  20.769  1.00  0.00    -0.034 C 
ATOM      9  C   UNL     1      -7.114  33.789  20.133  1.00  0.00     0.004 C 
ENDBRANCH   7   8
ENDBRANCH   1   7
TORSDOF 4
ENDMDL
MODEL 5
REMARK VINA RESULT:    -4.419      1.326      3.301
REMARK INTER + INTRA:          -5.822
REMARK INTER:                  -5.409
REMARK INTRA:                  -0.413
REMARK UNBOUND:                -0.369
REMARK SMILES C=CC[C@@H](C)C(=O)CC
REMARK SMILES IDX 4 1 5 2 6 3 7 4 8 5 9 6 3 7 2 8 1 9
REMARK H PARENT
REMARK Flexibility Score: inf
ROOT
ATOM      1  C   UNL     1      -7.609  32.932  21.554  1.00  0.00     0.057 C 
ATOM      2  C   UNL     1      -7.142  33.369  20.158  1.00  0.00     0.016 C 
ENDROOT
BRANCH   1   3
ATOM      3  C   UNL     1      -8.601  33.937  22.101  1.00  0.00     0.135 C 
ATOM      4  O   UNL     1      -9.799  33.699  22.043  1.00  0.00    -0.299 OA
BRANCH   3   5
ATOM      5  C   UNL     1      -8.138  35.225  22.730  1.00  0.00     0.072 C 
ATOM      6  C   UNL     1      -7.144  34.953  23.853  1.00  0.00     0.012 C 
ENDBRANCH   3   5
ENDBRANCH   1   3
BRANCH   1   7
ATOM      7  C   UNL     1      -8.243  31.526  21.529  1.00  0.00     0.038 C 
BRANCH   7   8
ATOM      8  C   UNL     1      -7.784  30.669  22.678  1.00  0.00    -0.034 C 
ATOM      9  C   UNL     1      -6.667  30.943  23.360  1.00  0.00     0.004 C 
ENDBRANCH   7   8
ENDBRANCH   1   7
TORSDOF 4
ENDMDL
MODEL 6
REMARK VINA RESULT:    -4.360      1.485      3.807
REMARK INTER + INTRA:          -5.749
REMARK INTER:                  -5.449
REMARK INTRA:                  -0.300
REMARK UNBOUND:                -0.369
REMARK SMILES C=CC[C@@H](C)C(=O)CC
REMARK SMILES IDX 4 1 5 2 6 3 7 4 8 5 9 6 3 7 2 8 1 9
REMARK H PARENT
REMARK Flexibility Score: inf
ROOT
ATOM      1  C   UNL     1      -8.364  32.404  23.314  1.00  0.00     0.057 C 
ATOM      2  C   UNL     1      -8.249  33.509  24.373  1.00  0.00     0.016 C 
ENDROOT
BRANCH   1   3
ATOM      3  C   UNL     1      -8.699  33.015  21.969  1.00  0.00     0.135 C 
ATOM      4  O   UNL     1      -9.657  32.597  21.336  1.00  0.00    -0.299 OA
BRANCH   3   5
ATOM      5  C   UNL     1      -7.876  34.140  21.397  1.00  0.00     0.072 C 
ATOM      6  C   UNL     1      -7.110  33.677  20.164  1.00  0.00     0.012 C 
ENDBRANCH   3   5
ENDBRANCH   1   3
BRANCH   1   7
ATOM      7  C   UNL     1      -7.065  31.578  23.208  1.00  0.00     0.038 C 
BRANCH   7   8
ATOM      8  C   UNL     1      -7.296  30.111  23.453  1.00  0.00    -0.034 C 
ATOM      9  C   UNL     1      -8.228  29.424  22.787  1.00  0.00     0.004 C 
ENDBRANCH   7   8
ENDBRANCH   1   7
TORSDOF 4
ENDMDL
MODEL 7
REMARK VINA RESULT:    -4.297      1.538      2.041
REMARK INTER + INTRA:          -5.671
REMARK INTER:                  -5.396
REMARK INTRA:                  -0.275
REMARK UNBOUND:                -0.369
REMARK SMILES C=CC[C@@H](C)C(=O)CC
REMARK SMILES IDX 4 1 5 2 6 3 7 4 8 5 9 6 3 7 2 8 1 9
REMARK H PARENT
REMARK Flexibility Score: inf
ROOT
ATOM      1  C   UNL     1      -8.326  34.040  22.745  1.00  0.00     0.057 C 
ATOM      2  C   UNL     1      -7.859  34.377  21.322  1.00  0.00     0.016 C 
ENDROOT
BRANCH   1   3
ATOM      3  C   UNL     1      -8.359  32.538  22.934  1.00  0.00     0.135 C 
ATOM      4  O   UNL     1      -9.245  32.031  23.605  1.00  0.00    -0.299 OA
BRANCH   3   5
ATOM      5  C   UNL     1      -7.321  31.650  22.298  1.00  0.00     0.072 C 
ATOM      6  C   UNL     1      -6.632  30.787  23.348  1.00  0.00     0.012 C 
ENDBRANCH   3   5
ENDBRANCH   1   3
BRANCH   1   7
ATOM      7  C   UNL     1      -7.416  34.685  23.812  1.00  0.00     0.038 C 
BRANCH   7   8
ATOM      8  C   UNL     1      -8.170  35.058  25.060  1.00  0.00    -0.034 C 
ATOM      9  C   UNL     1      -8.926  36.158  25.124  1.00  0.00     0.004 C 
ENDBRANCH   7   8
ENDBRANCH   1   7
TORSDOF 4
ENDMDL
MODEL 8
REMARK VINA RESULT:    -4.267     15.889     17.290
REMARK INTER + INTRA:          -5.634
REMARK INTER:                  -5.530
REMARK INTRA:                  -0.104
REMARK UNBOUND:                -0.369
REMARK SMILES C=CC[C@@H](C)C(=O)CC
REMARK SMILES IDX 4 1 5 2 6 3 7 4 8 5 9 6 3 7 2 8 1 9
REMARK H PARENT
REMARK Flexibility Score: inf
ROOT
ATOM      1  C   UNL     1       7.544  32.415  28.529  1.00  0.00     0.057 C 
ATOM      2  C   UNL     1       6.024  32.494  28.335  1.00  0.00     0.016 C 
ENDROOT
BRANCH   1   3
ATOM      3  C   UNL     1       7.977  30.967  28.620  1.00  0.00     0.135 C 
ATOM      4  O   UNL     1       9.134  30.663  28.368  1.00  0.00    -0.299 OA
BRANCH   3   5
ATOM      5  C   UNL     1       7.007  29.888  29.027  1.00  0.00     0.072 C 
ATOM      6  C   UNL     1       6.762  28.920  27.875  1.00  0.00     0.012 C 
ENDBRANCH   3   5
ENDBRANCH   1   3
BRANCH   1   7
ATOM      7  C   UNL     1       8.304  33.121  27.386  1.00  0.00     0.038 C 
BRANCH   7   8
ATOM      8  C   UNL     1       9.585  33.756  27.855  1.00  0.00    -0.034 C 
ATOM      9  C   UNL     1       9.762  34.132  29.125  1.00  0.00     0.004 C 
ENDBRANCH   7   8
ENDBRANCH   1   7
TORSDOF 4
ENDMDL
MODEL 9
REMARK VINA RESULT:    -2.921     15.653     17.319
REMARK INTER + INTRA:          -3.973
REMARK INTER:                  -3.706
REMARK INTRA:                  -0.267
REMARK UNBOUND:                -0.369
REMARK SMILES C=CC[C@@H](C)C(=O)CC
REMARK SMILES IDX 4 1 5 2 6 3 7 4 8 5 9 6 3 7 2 8 1 9
REMARK H PARENT
REMARK Flexibility Score: inf
ROOT
ATOM      1  C   UNL     1       7.060  32.242  28.213  1.00  0.00     0.057 C 
ATOM      2  C   UNL     1       5.640  32.820  28.282  1.00  0.00     0.016 C 
ENDROOT
BRANCH   1   3
ATOM      3  C   UNL     1       8.067  33.304  28.600  1.00  0.00     0.135 C 
ATOM      4  O   UNL     1       7.702  34.462  28.745  1.00  0.00    -0.299 OA
BRANCH   3   5
ATOM      5  C   UNL     1       9.518  32.960  28.822  1.00  0.00     0.072 C 
ATOM      6  C   UNL     1      10.119  32.325  27.574  1.00  0.00     0.012 C 
ENDBRANCH   3   5
ENDBRANCH   1   3
BRANCH   1   7
ATOM      7  C   UNL     1       7.220  31.008  29.125  1.00  0.00     0.038 C 
BRANCH   7   8
ATOM      8  C   UNL     1       7.572  29.764  28.352  1.00  0.00    -0.034 C 
ATOM      9  C   UNL     1       6.643  28.875  27.988  1.00  0.00     0.004 C 
ENDBRANCH   7   8
ENDBRANCH   1   7
TORSDOF 4
ENDMDL
