MODEL 1
REMARK VINA RESULT:    -4.066      0.000      0.000
REMARK INTER + INTRA:          -5.730
REMARK INTER:                  -5.136
REMARK INTRA:                  -0.594
REMARK UNBOUND:                -0.594
REMARK SMILES O=C(C=Cc1ccc(O)cc1)c1ccc(O)cc1O
REMARK SMILES IDX 4 1 3 2 5 3 6 4 7 5 8 6 11 7 10 8 9 9 2 11 1 12 12 13 18 14
REMARK SMILES IDX 13 15 17 16 14 17 15 18 19 19 16 21
REMARK H PARENT 9 10 19 20 16 22
REMARK Flexibility Score: inf
ROOT
ATOM      1  C   UNL     1      10.585   0.482   1.140  1.00  0.00     0.012 C 
ATOM      2  C   UNL     1       9.996   0.184   2.308  1.00  0.00     0.053 C 
ENDROOT
BRANCH   1   3
ATOM      3  C   UNL     1      11.119   1.825   0.802  1.00  0.00    -0.025 A 
ATOM      4  C   UNL     1      11.978   2.048  -0.294  1.00  0.00     0.012 A 
ATOM      5  C   UNL     1      12.462   3.334  -0.561  1.00  0.00     0.047 A 
ATOM      6  C   UNL     1      12.106   4.407   0.259  1.00  0.00     0.115 A 
ATOM      7  C   UNL     1      10.781   2.909   1.630  1.00  0.00     0.012 A 
ATOM      8  C   UNL     1      11.265   4.192   1.357  1.00  0.00     0.047 A 
BRANCH   6   9
ATOM      9  O   UNL     1      12.595   5.681  -0.023  1.00  0.00    -0.508 OA
ATOM     10  H   UNL     1      13.514   5.818  -0.426  1.00  0.00     0.293 HD
ENDBRANCH   6   9
ENDBRANCH   1   3
BRANCH   2  11
ATOM     11  C   UNL     1       9.469  -1.161   2.618  1.00  0.00     0.189 C 
ATOM     12  O   UNL     1      10.115  -1.880   3.428  1.00  0.00    -0.289 OA
BRANCH  11  13
ATOM     13  C   UNL     1       8.237  -1.709   1.998  1.00  0.00     0.064 A 
ATOM     14  C   UNL     1       7.044  -1.818   2.742  1.00  0.00     0.130 A 
ATOM     15  C   UNL     1       8.261  -2.168   0.669  1.00  0.00     0.020 A 
ATOM     16  C   UNL     1       5.896  -2.364   2.147  1.00  0.00     0.093 A 
ATOM     17  C   UNL     1       7.113  -2.708   0.084  1.00  0.00     0.047 A 
ATOM     18  C   UNL     1       5.928  -2.806   0.822  1.00  0.00     0.119 A 
BRANCH  14  19
ATOM     19  O   UNL     1       6.995  -1.373   4.063  1.00  0.00    -0.507 OA
ATOM     20  H   UNL     1       7.830  -1.070   4.553  1.00  0.00     0.293 HD
ENDBRANCH  14  19
BRANCH  18  21
ATOM     21  O   UNL     1       4.777  -3.342   0.249  1.00  0.00    -0.508 OA
ATOM     22  H   UNL     1       4.529  -4.317   0.372  1.00  0.00     0.293 HD
ENDBRANCH  18  21
ENDBRANCH  11  13
ENDBRANCH   2  11
TORSDOF 6
ENDMDL
MODEL 2
REMARK VINA RESULT:    -3.948      4.261      8.209
REMARK INTER + INTRA:          -5.581
REMARK INTER:                  -4.917
REMARK INTRA:                  -0.664
REMARK UNBOUND:                -0.594
REMARK SMILES O=C(C=Cc1ccc(O)cc1)c1ccc(O)cc1O
REMARK SMILES IDX 4 1 3 2 5 3 6 4 7 5 8 6 11 7 10 8 9 9 2 11 1 12 12 13 18 14
REMARK SMILES IDX 13 15 17 16 14 17 15 18 19 19 16 21
REMARK H PARENT 9 10 19 20 16 22
REMARK Flexibility Score: inf
ROOT
ATOM      1  C   UNL     1      10.760   3.336   1.826  1.00  0.00     0.012 C 
ATOM      2  C   UNL     1      11.145   4.619   1.756  1.00  0.00     0.053 C 
ENDROOT
BRANCH   1   3
ATOM      3  C   UNL     1      11.137   2.304   0.829  1.00  0.00    -0.025 A 
ATOM      4  C   UNL     1      10.773   0.948   0.961  1.00  0.00     0.012 A 
ATOM      5  C   UNL     1      11.163   0.014  -0.004  1.00  0.00     0.047 A 
ATOM      6  C   UNL     1      11.926   0.413  -1.105  1.00  0.00     0.115 A 
ATOM      7  C   UNL     1      11.917   2.691  -0.275  1.00  0.00     0.012 A 
ATOM      8  C   UNL     1      12.304   1.754  -1.238  1.00  0.00     0.047 A 
BRANCH   6   9
ATOM      9  O   UNL     1      12.305  -0.530  -2.058  1.00  0.00    -0.508 OA
ATOM     10  H   UNL     1      12.008  -0.455  -3.024  1.00  0.00     0.293 HD
ENDBRANCH   6   9
ENDBRANCH   1   3
BRANCH   2  11
ATOM     11  C   UNL     1      10.752   5.628   2.762  1.00  0.00     0.189 C 
ATOM     12  O   UNL     1       9.609   6.152   2.664  1.00  0.00    -0.289 OA
BRANCH  11  13
ATOM     13  C   UNL     1      11.651   6.069   3.857  1.00  0.00     0.064 A 
ATOM     14  C   UNL     1      11.284   5.889   5.207  1.00  0.00     0.130 A 
ATOM     15  C   UNL     1      12.864   6.715   3.556  1.00  0.00     0.020 A 
ATOM     16  C   UNL     1      12.135   6.338   6.229  1.00  0.00     0.093 A 
ATOM     17  C   UNL     1      13.706   7.155   4.581  1.00  0.00     0.047 A 
ATOM     18  C   UNL     1      13.344   6.967   5.919  1.00  0.00     0.119 A 
BRANCH  14  19
ATOM     19  O   UNL     1      10.085   5.255   5.531  1.00  0.00    -0.507 OA
ATOM     20  H   UNL     1       9.994   4.246   5.507  1.00  0.00     0.293 HD
ENDBRANCH  14  19
BRANCH  18  21
ATOM     21  O   UNL     1      14.176   7.402   6.948  1.00  0.00    -0.508 OA
ATOM     22  H   UNL     1      14.897   8.096   6.788  1.00  0.00     0.293 HD
ENDBRANCH  18  21
ENDBRANCH  11  13
ENDBRANCH   2  11
TORSDOF 6
ENDMDL
MODEL 3
REMARK VINA RESULT:    -3.915      1.510      1.828
REMARK INTER + INTRA:          -5.539
REMARK INTER:                  -4.863
REMARK INTRA:                  -0.675
REMARK UNBOUND:                -0.594
REMARK SMILES O=C(C=Cc1ccc(O)cc1)c1ccc(O)cc1O
REMARK SMILES IDX 4 1 3 2 5 3 6 4 7 5 8 6 11 7 10 8 9 9 2 11 1 12 12 13 18 14
REMARK SMILES IDX 13 15 17 16 14 17 15 18 19 19 16 21
REMARK H PARENT 9 10 19 20 16 22
REMARK Flexibility Score: inf
ROOT
ATOM      1  C   UNL     1      10.721   0.449   0.844  1.00  0.00     0.012 C 
ATOM      2  C   UNL     1      10.322   0.345   2.121  1.00  0.00     0.053 C 
ENDROOT
BRANCH   1   3
ATOM      3  C   UNL     1      10.981   1.740   0.161  1.00  0.00    -0.025 A 
ATOM      4  C   UNL     1      11.114   1.848  -1.239  1.00  0.00     0.012 A 
ATOM      5  C   UNL     1      11.369   3.089  -1.831  1.00  0.00     0.047 A 
ATOM      6  C   UNL     1      11.505   4.234  -1.041  1.00  0.00     0.115 A 
ATOM      7  C   UNL     1      11.135   2.896   0.947  1.00  0.00     0.012 A 
ATOM      8  C   UNL     1      11.389   4.134   0.351  1.00  0.00     0.047 A 
BRANCH   6   9
ATOM      9  O   UNL     1      11.758   5.463  -1.647  1.00  0.00    -0.508 OA
ATOM     10  H   UNL     1      11.032   5.969  -2.140  1.00  0.00     0.293 HD
ENDBRANCH   6   9
ENDBRANCH   1   3
BRANCH   2  11
ATOM     11  C   UNL     1      10.067  -0.954   2.777  1.00  0.00     0.189 C 
ATOM     12  O   UNL     1      11.058  -1.676   3.070  1.00  0.00    -0.289 OA
BRANCH  11  13
ATOM     13  C   UNL     1       8.702  -1.453   3.076  1.00  0.00     0.064 A 
ATOM     14  C   UNL     1       8.327  -1.780   4.395  1.00  0.00     0.130 A 
ATOM     15  C   UNL     1       7.780  -1.650   2.031  1.00  0.00     0.020 A 
ATOM     16  C   UNL     1       7.041  -2.277   4.654  1.00  0.00     0.093 A 
ATOM     17  C   UNL     1       6.500  -2.142   2.300  1.00  0.00     0.047 A 
ATOM     18  C   UNL     1       6.127  -2.456   3.611  1.00  0.00     0.119 A 
BRANCH  14  19
ATOM     19  O   UNL     1       9.225  -1.597   5.447  1.00  0.00    -0.507 OA
ATOM     20  H   UNL     1       8.912  -1.314   6.369  1.00  0.00     0.293 HD
ENDBRANCH  14  19
BRANCH  18  21
ATOM     21  O   UNL     1       4.854  -2.948   3.890  1.00  0.00    -0.508 OA
ATOM     22  H   UNL     1       4.633  -3.367   4.786  1.00  0.00     0.293 HD
ENDBRANCH  18  21
ENDBRANCH  11  13
ENDBRANCH   2  11
TORSDOF 6
ENDMDL
MODEL 4
REMARK VINA RESULT:    -3.873      1.276      1.867
REMARK INTER + INTRA:          -5.486
REMARK INTER:                  -4.744
REMARK INTRA:                  -0.742
REMARK UNBOUND:                -0.594
REMARK SMILES O=C(C=Cc1ccc(O)cc1)c1ccc(O)cc1O
REMARK SMILES IDX 4 1 3 2 5 3 6 4 7 5 8 6 11 7 10 8 9 9 2 11 1 12 12 13 18 14
REMARK SMILES IDX 13 15 17 16 14 17 15 18 19 19 16 21
REMARK H PARENT 9 10 19 20 16 22
REMARK Flexibility Score: inf
ROOT
ATOM      1  C   UNL     1      10.459   1.125   1.800  1.00  0.00     0.012 C 
ATOM      2  C   UNL     1      10.846  -0.081   1.360  1.00  0.00     0.053 C 
ENDROOT
BRANCH   1   3
ATOM      3  C   UNL     1      10.886   2.406   1.184  1.00  0.00    -0.025 A 
ATOM      4  C   UNL     1      10.807   3.641   1.861  1.00  0.00     0.012 A 
ATOM      5  C   UNL     1      11.213   4.821   1.229  1.00  0.00     0.047 A 
ATOM      6  C   UNL     1      11.693   4.790  -0.083  1.00  0.00     0.115 A 
ATOM      7  C   UNL     1      11.355   2.390  -0.141  1.00  0.00     0.012 A 
ATOM      8  C   UNL     1      11.762   3.571  -0.768  1.00  0.00     0.047 A 
BRANCH   6   9
ATOM      9  O   UNL     1      12.095   5.974  -0.697  1.00  0.00    -0.508 OA
ATOM     10  H   UNL     1      11.642   6.857  -0.493  1.00  0.00     0.293 HD
ENDBRANCH   6   9
ENDBRANCH   1   3
BRANCH   2  11
ATOM     11  C   UNL     1      10.409  -1.342   1.994  1.00  0.00     0.189 C 
ATOM     12  O   UNL     1      11.283  -2.217   2.242  1.00  0.00    -0.289 OA
BRANCH  11  13
ATOM     13  C   UNL     1       8.991  -1.632   2.323  1.00  0.00     0.064 A 
ATOM     14  C   UNL     1       8.567  -1.722   3.665  1.00  0.00     0.130 A 
ATOM     15  C   UNL     1       8.063  -1.866   1.292  1.00  0.00     0.020 A 
ATOM     16  C   UNL     1       7.228  -2.025   3.956  1.00  0.00     0.093 A 
ATOM     17  C   UNL     1       6.731  -2.164   1.592  1.00  0.00     0.047 A 
ATOM     18  C   UNL     1       6.311  -2.243   2.924  1.00  0.00     0.119 A 
BRANCH  14  19
ATOM     19  O   UNL     1       9.469  -1.498   4.705  1.00  0.00    -0.507 OA
ATOM     20  H   UNL     1       9.174  -1.507   5.675  1.00  0.00     0.293 HD
ENDBRANCH  14  19
BRANCH  18  21
ATOM     21  O   UNL     1       4.985  -2.539   3.234  1.00  0.00    -0.508 OA
ATOM     22  H   UNL     1       4.278  -2.617   2.512  1.00  0.00     0.293 HD
ENDBRANCH  18  21
ENDBRANCH  11  13
ENDBRANCH   2  11
TORSDOF 6
ENDMDL
MODEL 5
REMARK VINA RESULT:    -3.863      5.427      8.580
REMARK INTER + INTRA:          -5.473
REMARK INTER:                  -4.753
REMARK INTRA:                  -0.720
REMARK UNBOUND:                -0.594
REMARK SMILES O=C(C=Cc1ccc(O)cc1)c1ccc(O)cc1O
REMARK SMILES IDX 4 1 3 2 5 3 6 4 7 5 8 6 11 7 10 8 9 9 2 11 1 12 12 13 18 14
REMARK SMILES IDX 13 15 17 16 14 17 15 18 19 19 16 21
REMARK H PARENT 9 10 19 20 16 22
REMARK Flexibility Score: inf
ROOT
ATOM      1  C   UNL     1      10.373   5.351   2.892  1.00  0.00     0.012 C 
ATOM      2  C   UNL     1       9.893   6.601   2.813  1.00  0.00     0.053 C 
ENDROOT
BRANCH   1   3
ATOM      3  C   UNL     1      11.163   4.699   1.819  1.00  0.00    -0.025 A 
ATOM      4  C   UNL     1      12.166   5.375   1.094  1.00  0.00     0.012 A 
ATOM      5  C   UNL     1      12.874   4.715   0.084  1.00  0.00     0.047 A 
ATOM      6  C   UNL     1      12.589   3.382  -0.224  1.00  0.00     0.115 A 
ATOM      7  C   UNL     1      10.874   3.363   1.491  1.00  0.00     0.012 A 
ATOM      8  C   UNL     1      11.585   2.707   0.482  1.00  0.00     0.047 A 
BRANCH   6   9
ATOM      9  O   UNL     1      13.305   2.739  -1.230  1.00  0.00    -0.508 OA
ATOM     10  H   UNL     1      14.178   2.263  -1.038  1.00  0.00     0.293 HD
ENDBRANCH   6   9
ENDBRANCH   1   3
BRANCH   2  11
ATOM     11  C   UNL     1       9.106   7.226   3.896  1.00  0.00     0.189 C 
ATOM     12  O   UNL     1       7.959   7.672   3.617  1.00  0.00    -0.289 OA
BRANCH  11  13
ATOM     13  C   UNL     1       9.615   7.377   5.282  1.00  0.00     0.064 A 
ATOM     14  C   UNL     1       8.988   6.711   6.356  1.00  0.00     0.130 A 
ATOM     15  C   UNL     1      10.706   8.225   5.542  1.00  0.00     0.020 A 
ATOM     16  C   UNL     1       9.468   6.888   7.663  1.00  0.00     0.093 A 
ATOM     17  C   UNL     1      11.178   8.392   6.847  1.00  0.00     0.047 A 
ATOM     18  C   UNL     1      10.561   7.724   7.910  1.00  0.00     0.119 A 
BRANCH  14  19
ATOM     19  O   UNL     1       7.902   5.868   6.123  1.00  0.00    -0.507 OA
ATOM     20  H   UNL     1       7.991   4.859   6.181  1.00  0.00     0.293 HD
ENDBRANCH  14  19
BRANCH  18  21
ATOM     21  O   UNL     1      11.023   7.883   9.214  1.00  0.00    -0.508 OA
ATOM     22  H   UNL     1      10.837   8.728   9.742  1.00  0.00     0.293 HD
ENDBRANCH  18  21
ENDBRANCH  11  13
ENDBRANCH   2  11
TORSDOF 6
ENDMDL
MODEL 6
REMARK VINA RESULT:    -3.847      2.075      3.318
REMARK INTER + INTRA:          -5.453
REMARK INTER:                  -4.881
REMARK INTRA:                  -0.572
REMARK UNBOUND:                -0.594
REMARK SMILES O=C(C=Cc1ccc(O)cc1)c1ccc(O)cc1O
REMARK SMILES IDX 4 1 3 2 5 3 6 4 7 5 8 6 11 7 10 8 9 9 2 11 1 12 12 13 18 14
REMARK SMILES IDX 13 15 17 16 14 17 15 18 19 19 16 21
REMARK H PARENT 9 10 19 20 16 22
REMARK Flexibility Score: inf
ROOT
ATOM      1  C   UNL     1      10.626   0.658   0.967  1.00  0.00     0.012 C 
ATOM      2  C   UNL     1       9.970   0.299   2.081  1.00  0.00     0.053 C 
ENDROOT
BRANCH   1   3
ATOM      3  C   UNL     1      11.200   2.009   0.744  1.00  0.00    -0.025 A 
ATOM      4  C   UNL     1      12.128   2.282  -0.281  1.00  0.00     0.012 A 
ATOM      5  C   UNL     1      12.646   3.572  -0.441  1.00  0.00     0.047 A 
ATOM      6  C   UNL     1      12.255   4.601   0.419  1.00  0.00     0.115 A 
ATOM      7  C   UNL     1      10.826   3.048   1.614  1.00  0.00     0.012 A 
ATOM      8  C   UNL     1      11.344   4.336   1.449  1.00  0.00     0.047 A 
BRANCH   6   9
ATOM      9  O   UNL     1      12.778   5.880   0.245  1.00  0.00    -0.508 OA
ATOM     10  H   UNL     1      12.537   6.446  -0.559  1.00  0.00     0.293 HD
ENDBRANCH   6   9
ENDBRANCH   1   3
BRANCH   2  11
ATOM     11  C   UNL     1       9.406  -1.053   2.276  1.00  0.00     0.189 C 
ATOM     12  O   UNL     1       8.766  -1.573   1.322  1.00  0.00    -0.289 OA
BRANCH  11  13
ATOM     13  C   UNL     1       9.535  -1.806   3.548  1.00  0.00     0.064 A 
ATOM     14  C   UNL     1       8.469  -1.849   4.471  1.00  0.00     0.130 A 
ATOM     15  C   UNL     1      10.744  -2.449   3.866  1.00  0.00     0.020 A 
ATOM     16  C   UNL     1       8.620  -2.543   5.681  1.00  0.00     0.093 A 
ATOM     17  C   UNL     1      10.883  -3.141   5.072  1.00  0.00     0.047 A 
ATOM     18  C   UNL     1       9.821  -3.189   5.982  1.00  0.00     0.119 A 
BRANCH  14  19
ATOM     19  O   UNL     1       7.261  -1.215   4.180  1.00  0.00    -0.507 OA
ATOM     20  H   UNL     1       6.369  -1.663   4.359  1.00  0.00     0.293 HD
ENDBRANCH  14  19
BRANCH  18  21
ATOM     21  O   UNL     1       9.949  -3.876   7.188  1.00  0.00    -0.508 OA
ATOM     22  H   UNL     1       9.558  -4.802   7.313  1.00  0.00     0.293 HD
ENDBRANCH  18  21
ENDBRANCH  11  13
ENDBRANCH   2  11
TORSDOF 6
ENDMDL
MODEL 7
REMARK VINA RESULT:    -3.827      4.604      7.606
REMARK INTER + INTRA:          -5.428
REMARK INTER:                  -4.684
REMARK INTRA:                  -0.743
REMARK UNBOUND:                -0.594
REMARK SMILES O=C(C=Cc1ccc(O)cc1)c1ccc(O)cc1O
REMARK SMILES IDX 4 1 3 2 5 3 6 4 7 5 8 6 11 7 10 8 9 9 2 11 1 12 12 13 18 14
REMARK SMILES IDX 13 15 17 16 14 17 15 18 19 19 16 21
REMARK H PARENT 9 10 19 20 16 22
REMARK Flexibility Score: inf
ROOT
ATOM      1  C   UNL     1      11.074   4.307   2.069  1.00  0.00     0.012 C 
ATOM      2  C   UNL     1      11.550   5.560   2.015  1.00  0.00     0.053 C 
ENDROOT
BRANCH   1   3
ATOM      3  C   UNL     1      10.964   3.412   0.890  1.00  0.00    -0.025 A 
ATOM      4  C   UNL     1      11.047   2.008   0.990  1.00  0.00     0.012 A 
ATOM      5  C   UNL     1      10.947   1.211  -0.156  1.00  0.00     0.047 A 
ATOM      6  C   UNL     1      10.773   1.798  -1.412  1.00  0.00     0.115 A 
ATOM      7  C   UNL     1      10.804   3.993  -0.380  1.00  0.00     0.012 A 
ATOM      8  C   UNL     1      10.703   3.192  -1.522  1.00  0.00     0.047 A 
BRANCH   6   9
ATOM      9  O   UNL     1      10.673   0.990  -2.542  1.00  0.00    -0.508 OA
ATOM     10  H   UNL     1      10.291   1.342  -3.412  1.00  0.00     0.293 HD
ENDBRANCH   6   9
ENDBRANCH   1   3
BRANCH   2  11
ATOM     11  C   UNL     1      11.646   6.432   3.204  1.00  0.00     0.189 C 
ATOM     12  O   UNL     1      12.686   7.131   3.345  1.00  0.00    -0.289 OA
BRANCH  11  13
ATOM     13  C   UNL     1      10.591   6.496   4.246  1.00  0.00     0.064 A 
ATOM     14  C   UNL     1      10.762   5.844   5.485  1.00  0.00     0.130 A 
ATOM     15  C   UNL     1       9.386   7.174   3.987  1.00  0.00     0.020 A 
ATOM     16  C   UNL     1       9.742   5.893   6.447  1.00  0.00     0.093 A 
ATOM     17  C   UNL     1       8.377   7.219   4.952  1.00  0.00     0.047 A 
ATOM     18  C   UNL     1       8.553   6.580   6.184  1.00  0.00     0.119 A 
BRANCH  14  19
ATOM     19  O   UNL     1      11.946   5.162   5.764  1.00  0.00    -0.507 OA
ATOM     20  H   UNL     1      11.943   4.197   6.073  1.00  0.00     0.293 HD
ENDBRANCH  14  19
BRANCH  18  21
ATOM     21  O   UNL     1       7.553   6.619   7.154  1.00  0.00    -0.508 OA
ATOM     22  H   UNL     1       6.611   6.917   6.931  1.00  0.00     0.293 HD
ENDBRANCH  18  21
ENDBRANCH  11  13
ENDBRANCH   2  11
TORSDOF 6
ENDMDL
MODEL 8
REMARK VINA RESULT:    -3.774      3.663      7.898
REMARK INTER + INTRA:          -5.361
REMARK INTER:                  -4.842
REMARK INTRA:                  -0.519
REMARK UNBOUND:                -0.594
REMARK SMILES O=C(C=Cc1ccc(O)cc1)c1ccc(O)cc1O
REMARK SMILES IDX 4 1 3 2 5 3 6 4 7 5 8 6 11 7 10 8 9 9 2 11 1 12 12 13 18 14
REMARK SMILES IDX 13 15 17 16 14 17 15 18 19 19 16 21
REMARK H PARENT 9 10 19 20 16 22
REMARK Flexibility Score: inf
ROOT
ATOM      1  C   UNL     1      11.237   3.419   0.905  1.00  0.00     0.012 C 
ATOM      2  C   UNL     1      10.756   3.953   2.038  1.00  0.00     0.053 C 
ENDROOT
BRANCH   1   3
ATOM      3  C   UNL     1      11.050   1.999   0.515  1.00  0.00    -0.025 A 
ATOM      4  C   UNL     1      11.239   1.540  -0.804  1.00  0.00     0.012 A 
ATOM      5  C   UNL     1      11.039   0.192  -1.119  1.00  0.00     0.047 A 
ATOM      6  C   UNL     1      10.641  -0.713  -0.132  1.00  0.00     0.115 A 
ATOM      7  C   UNL     1      10.634   1.083   1.498  1.00  0.00     0.012 A 
ATOM      8  C   UNL     1      10.437  -0.264   1.179  1.00  0.00     0.047 A 
BRANCH   6   9
ATOM      9  O   UNL     1      10.448  -2.052  -0.462  1.00  0.00    -0.508 OA
ATOM     10  H   UNL     1      10.820  -2.445  -1.318  1.00  0.00     0.293 HD
ENDBRANCH   6   9
ENDBRANCH   1   3
BRANCH   2  11
ATOM     11  C   UNL     1      10.959   5.370   2.403  1.00  0.00     0.189 C 
ATOM     12  O   UNL     1      11.190   6.195   1.478  1.00  0.00    -0.289 OA
BRANCH  11  13
ATOM     13  C   UNL     1      10.933   5.855   3.805  1.00  0.00     0.064 A 
ATOM     14  C   UNL     1       9.792   6.502   4.323  1.00  0.00     0.130 A 
ATOM     15  C   UNL     1      12.070   5.711   4.622  1.00  0.00     0.020 A 
ATOM     16  C   UNL     1       9.796   6.978   5.642  1.00  0.00     0.093 A 
ATOM     17  C   UNL     1      12.063   6.185   5.936  1.00  0.00     0.047 A 
ATOM     18  C   UNL     1      10.926   6.819   6.449  1.00  0.00     0.119 A 
BRANCH  14  19
ATOM     19  O   UNL     1       8.654   6.660   3.532  1.00  0.00    -0.507 OA
ATOM     20  H   UNL     1       8.595   6.263   2.601  1.00  0.00     0.293 HD
ENDBRANCH  14  19
BRANCH  18  21
ATOM     21  O   UNL     1      10.908   7.296   7.758  1.00  0.00    -0.508 OA
ATOM     22  H   UNL     1      11.061   8.276   7.966  1.00  0.00     0.293 HD
ENDBRANCH  18  21
ENDBRANCH  11  13
ENDBRANCH   2  11
TORSDOF 6
ENDMDL
MODEL 9
REMARK VINA RESULT:    -3.744      4.676      7.692
REMARK INTER + INTRA:          -5.323
REMARK INTER:                  -4.691
REMARK INTRA:                  -0.632
REMARK UNBOUND:                -0.594
REMARK SMILES O=C(C=Cc1ccc(O)cc1)c1ccc(O)cc1O
REMARK SMILES IDX 4 1 3 2 5 3 6 4 7 5 8 6 11 7 10 8 9 9 2 11 1 12 12 13 18 14
REMARK SMILES IDX 13 15 17 16 14 17 15 18 19 19 16 21
REMARK H PARENT 9 10 19 20 16 22
REMARK Flexibility Score: inf
ROOT
ATOM      1  C   UNL     1      10.794   5.160   2.484  1.00  0.00     0.012 C 
ATOM      2  C   UNL     1      11.463   5.468   3.606  1.00  0.00     0.053 C 
ENDROOT
BRANCH   1   3
ATOM      3  C   UNL     1      11.202   4.085   1.546  1.00  0.00    -0.025 A 
ATOM      4  C   UNL     1      12.129   4.295   0.505  1.00  0.00     0.012 A 
ATOM      5  C   UNL     1      12.471   3.248  -0.358  1.00  0.00     0.047 A 
ATOM      6  C   UNL     1      11.891   1.986  -0.203  1.00  0.00     0.115 A 
ATOM      7  C   UNL     1      10.613   2.816   1.684  1.00  0.00     0.012 A 
ATOM      8  C   UNL     1      10.959   1.773   0.820  1.00  0.00     0.047 A 
BRANCH   6   9
ATOM      9  O   UNL     1      12.243   0.955  -1.069  1.00  0.00    -0.508 OA
ATOM     10  H   UNL     1      11.548   0.329  -1.459  1.00  0.00     0.293 HD
ENDBRANCH   6   9
ENDBRANCH   1   3
BRANCH   2  11
ATOM     11  C   UNL     1      11.037   6.547   4.521  1.00  0.00     0.189 C 
ATOM     12  O   UNL     1      11.768   7.570   4.615  1.00  0.00    -0.289 OA
BRANCH  11  13
ATOM     13  C   UNL     1       9.810   6.464   5.351  1.00  0.00     0.064 A 
ATOM     14  C   UNL     1       8.636   7.148   4.972  1.00  0.00     0.130 A 
ATOM     15  C   UNL     1       9.820   5.734   6.554  1.00  0.00     0.020 A 
ATOM     16  C   UNL     1       7.494   7.081   5.784  1.00  0.00     0.093 A 
ATOM     17  C   UNL     1       8.677   5.670   7.354  1.00  0.00     0.047 A 
ATOM     18  C   UNL     1       7.511   6.342   6.971  1.00  0.00     0.119 A 
BRANCH  14  19
ATOM     19  O   UNL     1       8.602   7.882   3.786  1.00  0.00    -0.507 OA
ATOM     20  H   UNL     1       9.419   8.374   3.442  1.00  0.00     0.293 HD
ENDBRANCH  14  19
BRANCH  18  21
ATOM     21  O   UNL     1       6.365   6.285   7.761  1.00  0.00    -0.508 OA
ATOM     22  H   UNL     1       6.269   5.603   8.504  1.00  0.00     0.293 HD
ENDBRANCH  18  21
ENDBRANCH  11  13
ENDBRANCH   2  11
TORSDOF 6
ENDMDL
