MODEL 1
REMARK VINA RESULT:    -4.344      0.000      0.000
REMARK INTER + INTRA:          -5.083
REMARK INTER:                  -4.978
REMARK INTRA:                  -0.104
REMARK UNBOUND:                -0.104
REMARK SMILES COc1ccc(C(C)=O)cc1O
REMARK SMILES IDX 6 1 10 2 11 3 3 4 4 5 5 6 7 7 8 8 9 9 12 10 2 12 1 13
REMARK H PARENT 12 11
REMARK Flexibility Score: inf
ROOT
ATOM      1  C   UNL     1       8.865 -29.511  16.695  1.00  0.00     0.021 A 
ATOM      2  C   UNL     1       9.995 -28.765  16.315  1.00  0.00     0.062 A 
ATOM      3  C   UNL     1      10.432 -28.747  14.985  1.00  0.00     0.158 A 
ATOM      4  C   UNL     1       9.742 -29.480  14.006  1.00  0.00     0.160 A 
ATOM      5  C   UNL     1       8.611 -30.227  14.380  1.00  0.00     0.051 A 
ATOM      6  C   UNL     1       8.178 -30.243  15.708  1.00  0.00     0.016 A 
ENDROOT
BRANCH   1   7
ATOM      7  C   UNL     1       8.417 -29.515  18.114  1.00  0.00     0.159 C 
ATOM      8  C   UNL     1       9.199 -28.829  19.194  1.00  0.00     0.093 C 
ATOM      9  O   UNL     1       7.351 -30.110  18.433  1.00  0.00    -0.295 OA
ENDBRANCH   1   7
BRANCH   3  10
ATOM     10  O   UNL     1      11.559 -27.992  14.658  1.00  0.00    -0.504 OA
ATOM     11  H   UNL     1      12.291 -28.347  14.056  1.00  0.00     0.293 HD
ENDBRANCH   3  10
BRANCH   4  12
ATOM     12  O   UNL     1      10.203 -29.444  12.680  1.00  0.00    -0.493 OA
ATOM     13  C   UNL     1      10.451 -30.595  11.879  1.00  0.00     0.278 C 
ENDBRANCH   4  12
TORSDOF 3
ENDMDL
MODEL 2
REMARK VINA RESULT:    -4.319      1.330      4.715
REMARK INTER + INTRA:          -5.055
REMARK INTER:                  -4.927
REMARK INTRA:                  -0.128
REMARK UNBOUND:                -0.104
REMARK SMILES COc1ccc(C(C)=O)cc1O
REMARK SMILES IDX 6 1 10 2 11 3 3 4 4 5 5 6 7 7 8 8 9 9 12 10 2 12 1 13
REMARK H PARENT 12 11
REMARK Flexibility Score: inf
ROOT
ATOM      1  C   UNL     1       9.681 -29.529  14.971  1.00  0.00     0.021 A 
ATOM      2  C   UNL     1       9.892 -28.766  16.134  1.00  0.00     0.062 A 
ATOM      3  C   UNL     1       9.011 -28.847  17.219  1.00  0.00     0.158 A 
ATOM      4  C   UNL     1       7.895 -29.698  17.159  1.00  0.00     0.160 A 
ATOM      5  C   UNL     1       7.679 -30.463  15.999  1.00  0.00     0.051 A 
ATOM      6  C   UNL     1       8.560 -30.379  14.918  1.00  0.00     0.016 A 
ENDROOT
BRANCH   1   7
ATOM      7  C   UNL     1      10.629 -29.428  13.830  1.00  0.00     0.159 C 
ATOM      8  C   UNL     1      10.337 -30.050  12.497  1.00  0.00     0.093 C 
ATOM      9  O   UNL     1      11.716 -28.803  13.973  1.00  0.00    -0.295 OA
ENDBRANCH   1   7
BRANCH   3  10
ATOM     10  O   UNL     1       9.265 -28.071  18.349  1.00  0.00    -0.504 OA
ATOM     11  H   UNL     1       9.960 -27.335  18.355  1.00  0.00     0.293 HD
ENDBRANCH   3  10
BRANCH   4  12
ATOM     12  O   UNL     1       7.028 -29.760  18.262  1.00  0.00    -0.493 OA
ATOM     13  C   UNL     1       5.876 -28.941  18.430  1.00  0.00     0.278 C 
ENDBRANCH   4  12
TORSDOF 3
ENDMDL
MODEL 3
REMARK VINA RESULT:    -4.293      1.898      4.546
REMARK INTER + INTRA:          -5.025
REMARK INTER:                  -4.913
REMARK INTRA:                  -0.112
REMARK UNBOUND:                -0.104
REMARK SMILES COc1ccc(C(C)=O)cc1O
REMARK SMILES IDX 6 1 10 2 11 3 3 4 4 5 5 6 7 7 8 8 9 9 12 10 2 12 1 13
REMARK H PARENT 12 11
REMARK Flexibility Score: inf
ROOT
ATOM      1  C   UNL     1       7.501 -29.968  14.137  1.00  0.00     0.021 A 
ATOM      2  C   UNL     1       8.835 -29.523  14.104  1.00  0.00     0.062 A 
ATOM      3  C   UNL     1       9.529 -29.236  15.285  1.00  0.00     0.158 A 
ATOM      4  C   UNL     1       8.896 -29.391  16.530  1.00  0.00     0.160 A 
ATOM      5  C   UNL     1       7.562 -29.836  16.570  1.00  0.00     0.051 A 
ATOM      6  C   UNL     1       6.874 -30.120  15.388  1.00  0.00     0.016 A 
ENDROOT
BRANCH   1   7
ATOM      7  C   UNL     1       6.783 -30.266  12.870  1.00  0.00     0.159 C 
ATOM      8  C   UNL     1       5.884 -31.459  12.729  1.00  0.00     0.093 C 
ATOM      9  O   UNL     1       6.923 -29.503  11.875  1.00  0.00    -0.295 OA
ENDBRANCH   1   7
BRANCH   3  10
ATOM     10  O   UNL     1      10.850 -28.798  15.199  1.00  0.00    -0.504 OA
ATOM     11  H   UNL     1      11.584 -29.175  15.787  1.00  0.00     0.293 HD
ENDBRANCH   3  10
BRANCH   4  12
ATOM     12  O   UNL     1       9.616 -29.097  17.699  1.00  0.00    -0.493 OA
ATOM     13  C   UNL     1       9.026 -28.701  18.933  1.00  0.00     0.278 C 
ENDBRANCH   4  12
TORSDOF 3
ENDMDL
MODEL 4
REMARK VINA RESULT:    -4.225      2.102      5.173
REMARK INTER + INTRA:          -4.946
REMARK INTER:                  -4.836
REMARK INTRA:                  -0.111
REMARK UNBOUND:                -0.104
REMARK SMILES COc1ccc(C(C)=O)cc1O
REMARK SMILES IDX 6 1 10 2 11 3 3 4 4 5 5 6 7 7 8 8 9 9 12 10 2 12 1 13
REMARK H PARENT 12 11
REMARK Flexibility Score: inf
ROOT
ATOM      1  C   UNL     1       7.516 -29.863  14.030  1.00  0.00     0.021 A 
ATOM      2  C   UNL     1       6.639 -30.152  15.092  1.00  0.00     0.062 A 
ATOM      3  C   UNL     1       7.082 -30.127  16.419  1.00  0.00     0.158 A 
ATOM      4  C   UNL     1       8.419 -29.811  16.711  1.00  0.00     0.160 A 
ATOM      5  C   UNL     1       9.300 -29.520  15.654  1.00  0.00     0.051 A 
ATOM      6  C   UNL     1       8.854 -29.547  14.330  1.00  0.00     0.016 A 
ENDROOT
BRANCH   1   7
ATOM      7  C   UNL     1       7.024 -29.896  12.627  1.00  0.00     0.159 C 
ATOM      8  C   UNL     1       6.306 -31.087  12.065  1.00  0.00     0.093 C 
ATOM      9  O   UNL     1       7.208 -28.899  11.875  1.00  0.00    -0.295 OA
ENDBRANCH   1   7
BRANCH   3  10
ATOM     10  O   UNL     1       6.174 -30.421  17.436  1.00  0.00    -0.504 OA
ATOM     11  H   UNL     1       5.508 -29.739  17.780  1.00  0.00     0.293 HD
ENDBRANCH   3  10
BRANCH   4  12
ATOM     12  O   UNL     1       8.836 -29.793  18.052  1.00  0.00    -0.493 OA
ATOM     13  C   UNL     1       9.172 -28.615  18.777  1.00  0.00     0.278 C 
ENDBRANCH   4  12
TORSDOF 3
ENDMDL
MODEL 5
REMARK VINA RESULT:    -4.137      1.793      5.014
REMARK INTER + INTRA:          -4.847
REMARK INTER:                  -4.752
REMARK INTRA:                  -0.095
REMARK UNBOUND:                -0.104
REMARK SMILES COc1ccc(C(C)=O)cc1O
REMARK SMILES IDX 6 1 10 2 11 3 3 4 4 5 5 6 7 7 8 8 9 9 12 10 2 12 1 13
REMARK H PARENT 12 11
REMARK Flexibility Score: inf
ROOT
ATOM      1  C   UNL     1       9.511 -29.669  14.513  1.00  0.00     0.021 A 
ATOM      2  C   UNL     1       8.253 -29.998  13.974  1.00  0.00     0.062 A 
ATOM      3  C   UNL     1       7.109 -30.023  14.780  1.00  0.00     0.158 A 
ATOM      4  C   UNL     1       7.203 -29.718  16.148  1.00  0.00     0.160 A 
ATOM      5  C   UNL     1       8.458 -29.388  16.692  1.00  0.00     0.051 A 
ATOM      6  C   UNL     1       9.597 -29.365  15.884  1.00  0.00     0.016 A 
ENDROOT
BRANCH   1   7
ATOM      7  C   UNL     1      10.714 -29.649  13.639  1.00  0.00     0.159 C 
ATOM      8  C   UNL     1      10.798 -30.468  12.384  1.00  0.00     0.093 C 
ATOM      9  O   UNL     1      11.701 -28.926  13.948  1.00  0.00    -0.295 OA
ENDBRANCH   1   7
BRANCH   3  10
ATOM     10  O   UNL     1       5.885 -30.354  14.199  1.00  0.00    -0.504 OA
ATOM     11  H   UNL     1       5.689 -30.184  13.220  1.00  0.00     0.293 HD
ENDBRANCH   3  10
BRANCH   4  12
ATOM     12  O   UNL     1       6.038 -29.750  16.932  1.00  0.00    -0.493 OA
ATOM     13  C   UNL     1       5.915 -29.154  18.219  1.00  0.00     0.278 C 
ENDBRANCH   4  12
TORSDOF 3
ENDMDL
MODEL 6
REMARK VINA RESULT:    -4.118      1.589      2.399
REMARK INTER + INTRA:          -4.824
REMARK INTER:                  -4.705
REMARK INTRA:                  -0.119
REMARK UNBOUND:                -0.104
REMARK SMILES COc1ccc(C(C)=O)cc1O
REMARK SMILES IDX 6 1 10 2 11 3 3 4 4 5 5 6 7 7 8 8 9 9 12 10 2 12 1 13
REMARK H PARENT 12 11
REMARK Flexibility Score: inf
ROOT
ATOM      1  C   UNL     1       8.328 -29.625  16.873  1.00  0.00     0.021 A 
ATOM      2  C   UNL     1       7.162 -29.900  16.135  1.00  0.00     0.062 A 
ATOM      3  C   UNL     1       7.194 -29.973  14.738  1.00  0.00     0.158 A 
ATOM      4  C   UNL     1       8.401 -29.772  14.048  1.00  0.00     0.160 A 
ATOM      5  C   UNL     1       9.570 -29.498  14.781  1.00  0.00     0.051 A 
ATOM      6  C   UNL     1       9.534 -29.425  16.175  1.00  0.00     0.016 A 
ENDROOT
BRANCH   1   7
ATOM      7  C   UNL     1       8.271 -29.552  18.357  1.00  0.00     0.159 C 
ATOM      8  C   UNL     1       9.249 -28.735  19.149  1.00  0.00     0.093 C 
ATOM      9  O   UNL     1       7.380 -30.189  18.983  1.00  0.00    -0.295 OA
ENDBRANCH   1   7
BRANCH   3  10
ATOM     10  O   UNL     1       6.011 -30.249  14.052  1.00  0.00    -0.504 OA
ATOM     11  H   UNL     1       5.971 -30.300  13.042  1.00  0.00     0.293 HD
ENDBRANCH   3  10
BRANCH   4  12
ATOM     12  O   UNL     1       8.404 -29.852  12.646  1.00  0.00    -0.493 OA
ATOM     13  C   UNL     1       9.424 -30.478  11.875  1.00  0.00     0.278 C 
ENDBRANCH   4  12
TORSDOF 3
ENDMDL
MODEL 7
REMARK VINA RESULT:    -4.079      1.612      2.020
REMARK INTER + INTRA:          -4.780
REMARK INTER:                  -4.666
REMARK INTRA:                  -0.115
REMARK UNBOUND:                -0.104
REMARK SMILES COc1ccc(C(C)=O)cc1O
REMARK SMILES IDX 6 1 10 2 11 3 3 4 4 5 5 6 7 7 8 8 9 9 12 10 2 12 1 13
REMARK H PARENT 12 11
REMARK Flexibility Score: inf
ROOT
ATOM      1  C   UNL     1       7.912 -29.792  16.959  1.00  0.00     0.021 A 
ATOM      2  C   UNL     1       8.902 -29.446  16.020  1.00  0.00     0.062 A 
ATOM      3  C   UNL     1       8.641 -29.499  14.646  1.00  0.00     0.158 A 
ATOM      4  C   UNL     1       7.377 -29.901  14.182  1.00  0.00     0.160 A 
ATOM      5  C   UNL     1       6.384 -30.248  15.116  1.00  0.00     0.051 A 
ATOM      6  C   UNL     1       6.649 -30.195  16.487  1.00  0.00     0.016 A 
ENDROOT
BRANCH   1   7
ATOM      7  C   UNL     1       8.210 -29.729  18.415  1.00  0.00     0.159 C 
ATOM      8  C   UNL     1       9.251 -28.804  18.972  1.00  0.00     0.093 C 
ATOM      9  O   UNL     1       7.578 -30.470  19.216  1.00  0.00    -0.295 OA
ENDBRANCH   1   7
BRANCH   3  10
ATOM     10  O   UNL     1       9.655 -29.146  13.756  1.00  0.00    -0.504 OA
ATOM     11  H   UNL     1      10.571 -28.851  14.070  1.00  0.00     0.293 HD
ENDBRANCH   3  10
BRANCH   4  12
ATOM     12  O   UNL     1       7.144 -29.945  12.799  1.00  0.00    -0.493 OA
ATOM     13  C   UNL     1       7.094 -31.139  12.025  1.00  0.00     0.278 C 
ENDBRANCH   4  12
TORSDOF 3
ENDMDL
MODEL 8
REMARK VINA RESULT:    -4.002      1.773      4.635
REMARK INTER + INTRA:          -4.691
REMARK INTER:                  -4.598
REMARK INTRA:                  -0.092
REMARK UNBOUND:                -0.104
REMARK SMILES COc1ccc(C(C)=O)cc1O
REMARK SMILES IDX 6 1 10 2 11 3 3 4 4 5 5 6 7 7 8 8 9 9 12 10 2 12 1 13
REMARK H PARENT 12 11
REMARK Flexibility Score: inf
ROOT
ATOM      1  C   UNL     1       9.583 -30.086  14.565  1.00  0.00     0.021 A 
ATOM      2  C   UNL     1       8.813 -29.399  15.522  1.00  0.00     0.062 A 
ATOM      3  C   UNL     1       7.955 -30.089  16.386  1.00  0.00     0.158 A 
ATOM      4  C   UNL     1       7.850 -31.487  16.309  1.00  0.00     0.160 A 
ATOM      5  C   UNL     1       8.618 -32.180  15.354  1.00  0.00     0.051 A 
ATOM      6  C   UNL     1       9.472 -31.487  14.493  1.00  0.00     0.016 A 
ENDROOT
BRANCH   1   7
ATOM      7  C   UNL     1      10.489 -29.333  13.657  1.00  0.00     0.159 C 
ATOM      8  C   UNL     1      11.687 -28.590  14.168  1.00  0.00     0.093 C 
ATOM      9  O   UNL     1      10.255 -29.311  12.417  1.00  0.00    -0.295 OA
ENDBRANCH   1   7
BRANCH   3  10
ATOM     10  O   UNL     1       7.213 -29.362  17.317  1.00  0.00    -0.504 OA
ATOM     11  H   UNL     1       6.241 -29.125  17.167  1.00  0.00     0.293 HD
ENDBRANCH   3  10
BRANCH   4  12
ATOM     12  O   UNL     1       6.981 -32.153  17.188  1.00  0.00    -0.493 OA
ATOM     13  C   UNL     1       6.831 -33.567  17.259  1.00  0.00     0.278 C 
ENDBRANCH   4  12
TORSDOF 3
ENDMDL
MODEL 9
REMARK VINA RESULT:    -1.882      1.523      4.764
REMARK INTER + INTRA:          -2.262
REMARK INTER:                  -2.145
REMARK INTRA:                  -0.117
REMARK UNBOUND:                -0.104
REMARK SMILES COc1ccc(C(C)=O)cc1O
REMARK SMILES IDX 6 1 10 2 11 3 3 4 4 5 5 6 7 7 8 8 9 9 12 10 2 12 1 13
REMARK H PARENT 12 11
REMARK Flexibility Score: inf
ROOT
ATOM      1  C   UNL     1       9.033 -29.781  14.186  1.00  0.00     0.021 A 
ATOM      2  C   UNL     1       9.545 -29.156  15.338  1.00  0.00     0.062 A 
ATOM      3  C   UNL     1       8.851 -29.204  16.552  1.00  0.00     0.158 A 
ATOM      4  C   UNL     1       7.624 -29.881  16.637  1.00  0.00     0.160 A 
ATOM      5  C   UNL     1       7.107 -30.509  15.489  1.00  0.00     0.051 A 
ATOM      6  C   UNL     1       7.803 -30.458  14.278  1.00  0.00     0.016 A 
ENDROOT
BRANCH   1   7
ATOM      7  C   UNL     1       9.787 -29.718  12.905  1.00  0.00     0.159 C 
ATOM      8  C   UNL     1      10.769 -30.781  12.510  1.00  0.00     0.093 C 
ATOM      9  O   UNL     1       9.607 -28.748  12.119  1.00  0.00    -0.295 OA
ENDBRANCH   1   7
BRANCH   3  10
ATOM     10  O   UNL     1       9.401 -28.568  17.665  1.00  0.00    -0.504 OA
ATOM     11  H   UNL     1      10.329 -28.164  17.653  1.00  0.00     0.293 HD
ENDBRANCH   3  10
BRANCH   4  12
ATOM     12  O   UNL     1       6.949 -29.913  17.868  1.00  0.00    -0.493 OA
ATOM     13  C   UNL     1       5.875 -29.049  18.223  1.00  0.00     0.278 C 
ENDBRANCH   4  12
TORSDOF 3
ENDMDL
