MODEL 1
REMARK VINA RESULT:    -7.125      0.000      0.000
REMARK INTER + INTRA:          -7.333
REMARK INTER:                  -7.333
REMARK INTRA:                   0.000
REMARK UNBOUND:                 0.000
REMARK SMILES CC1(C)CC[C@@]2(C)CC[C@@]3(C)C(=CC[C@H]4[C@]5(C)CC[C@@H](O)C(C)(C)[C@@H]5CC[C@@]43C)[C@H]2C1
REMARK SMILES IDX 1 1 2 2 4 3 5 4 6 5 8 6 9 7 10 8 12 9 13 10 14 11 15 12
REMARK SMILES IDX 28 13 27 14 26 15 25 16 16 17 18 18 19 19 20 20 22 21 23 22
REMARK SMILES IDX 24 23 17 24 29 25 30 26 31 27 11 28 7 29 3 30 21 31
REMARK H PARENT 21 32
REMARK Flexibility Score: inf
ROOT
ATOM      1  C   UNL     1      12.618  40.953   7.007  1.00  0.00     0.011 C 
ATOM      2  C   UNL     1      13.235  39.763   7.755  1.00  0.00    -0.035 C 
ATOM      3  C   UNL     1      14.125  40.238   8.931  1.00  0.00     0.007 C 
ATOM      4  C   UNL     1      13.340  40.688  10.171  1.00  0.00     0.008 C 
ATOM      5  C   UNL     1      12.294  39.656  10.683  1.00  0.00    -0.026 C 
ATOM      6  C   UNL     1      11.455  40.249  11.835  1.00  0.00     0.008 C 
ATOM      7  C   UNL     1      10.642  41.488  11.460  1.00  0.00     0.012 C 
ATOM      8  C   UNL     1       9.769  41.379  10.149  1.00  0.00    -0.006 C 
ATOM      9  C   UNL     1      10.092  40.110   9.308  1.00  0.00    -0.064 C 
ATOM     10  C   UNL     1       9.137  39.572   8.499  1.00  0.00    -0.027 C 
ATOM     11  C   UNL     1       7.688  39.977   8.433  1.00  0.00     0.032 C 
ATOM     12  C   UNL     1       7.346  41.271   9.201  1.00  0.00     0.006 C 
ATOM     13  C   UNL     1       8.199  41.384  10.540  1.00  0.00    -0.020 C 
ATOM     14  C   UNL     1       7.786  42.699  11.317  1.00  0.00     0.008 C 
ATOM     15  C   UNL     1       6.954  43.687  10.487  1.00  0.00     0.005 C 
ATOM     16  C   UNL     1       5.604  43.052  10.078  1.00  0.00     0.003 C 
ATOM     17  C   UNL     1       5.786  41.665   9.296  1.00  0.00    -0.025 C 
ATOM     18  C   UNL     1       5.233  41.777   7.843  1.00  0.00     0.010 C 
ATOM     19  C   UNL     1       3.810  42.374   7.702  1.00  0.00     0.033 C 
ATOM     20  C   UNL     1       3.402  43.394   8.794  1.00  0.00     0.120 C 
ATOM     21  C   UNL     1       4.621  44.120   9.431  1.00  0.00    -0.006 C 
ATOM     22  C   UNL     1       4.086  45.070  10.545  1.00  0.00     0.014 C 
ATOM     23  C   UNL     1       5.287  45.031   8.357  1.00  0.00     0.014 C 
ATOM     24  C   UNL     1       4.946  40.560  10.014  1.00  0.00     0.012 C 
ATOM     25  C   UNL     1       7.942  40.155  11.481  1.00  0.00     0.012 C 
ATOM     26  C   UNL     1      11.340  39.221   9.535  1.00  0.00     0.022 C 
ATOM     27  C   UNL     1      12.125  38.793   8.249  1.00  0.00     0.015 C 
ATOM     28  C   UNL     1      10.119  42.618   9.262  1.00  0.00     0.017 C 
ATOM     29  C   UNL     1      13.033  38.409  11.271  1.00  0.00     0.012 C 
ATOM     30  C   UNL     1      14.125  39.002   6.744  1.00  0.00     0.011 C 
ENDROOT
BRANCH  20  31
ATOM     31  O   UNL     1       2.641  42.757   9.798  1.00  0.00    -0.393 OA
ATOM     32  H   UNL     1       2.930  43.147  10.662  1.00  0.00     0.210 HD
ENDBRANCH  20  31
TORSDOF 1
ENDMDL
MODEL 2
REMARK VINA RESULT:    -7.086     11.921     14.523
REMARK INTER + INTRA:          -7.293
REMARK INTER:                  -7.293
REMARK INTRA:                   0.000
REMARK UNBOUND:                 0.000
REMARK SMILES CC1(C)CC[C@@]2(C)CC[C@@]3(C)C(=CC[C@H]4[C@]5(C)CC[C@@H](O)C(C)(C)[C@@H]5CC[C@@]43C)[C@H]2C1
REMARK SMILES IDX 1 1 2 2 4 3 5 4 6 5 8 6 9 7 10 8 12 9 13 10 14 11 15 12
REMARK SMILES IDX 28 13 27 14 26 15 25 16 16 17 18 18 19 19 20 20 22 21 23 22
REMARK SMILES IDX 24 23 17 24 29 25 30 26 31 27 11 28 7 29 3 30 21 31
REMARK H PARENT 21 32
REMARK Flexibility Score: inf
ROOT
ATOM      1  C   UNL     1      11.628  52.836   5.400  1.00  0.00     0.011 C 
ATOM      2  C   UNL     1      12.327  54.165   5.085  1.00  0.00    -0.035 C 
ATOM      3  C   UNL     1      13.831  53.950   4.777  1.00  0.00     0.007 C 
ATOM      4  C   UNL     1      14.112  53.400   3.373  1.00  0.00     0.008 C 
ATOM      5  C   UNL     1      13.445  54.202   2.218  1.00  0.00    -0.026 C 
ATOM      6  C   UNL     1      13.659  53.497   0.862  1.00  0.00     0.008 C 
ATOM      7  C   UNL     1      13.057  52.095   0.772  1.00  0.00     0.012 C 
ATOM      8  C   UNL     1      11.553  51.949   1.231  1.00  0.00    -0.006 C 
ATOM      9  C   UNL     1      11.015  53.218   1.955  1.00  0.00    -0.064 C 
ATOM     10  C   UNL     1       9.682  53.498   1.932  1.00  0.00    -0.027 C 
ATOM     11  C   UNL     1       8.632  52.785   1.120  1.00  0.00     0.032 C 
ATOM     12  C   UNL     1       9.115  51.485   0.443  1.00  0.00     0.006 C 
ATOM     13  C   UNL     1      10.622  51.623  -0.050  1.00  0.00    -0.020 C 
ATOM     14  C   UNL     1      11.061  50.287  -0.777  1.00  0.00     0.008 C 
ATOM     15  C   UNL     1      10.108  49.105  -0.552  1.00  0.00     0.005 C 
ATOM     16  C   UNL     1       8.712  49.412  -1.142  1.00  0.00     0.003 C 
ATOM     17  C   UNL     1       8.082  50.767  -0.563  1.00  0.00    -0.025 C 
ATOM     18  C   UNL     1       6.773  50.470   0.229  1.00  0.00     0.010 C 
ATOM     19  C   UNL     1       5.733  49.572  -0.489  1.00  0.00     0.033 C 
ATOM     20  C   UNL     1       6.316  48.540  -1.487  1.00  0.00     0.120 C 
ATOM     21  C   UNL     1       7.777  48.127  -1.146  1.00  0.00    -0.006 C 
ATOM     22  C   UNL     1       8.264  47.136  -2.247  1.00  0.00     0.014 C 
ATOM     23  C   UNL     1       7.780  47.332   0.195  1.00  0.00     0.014 C 
ATOM     24  C   UNL     1       7.686  51.695  -1.756  1.00  0.00     0.012 C 
ATOM     25  C   UNL     1      10.779  52.810  -1.065  1.00  0.00     0.012 C 
ATOM     26  C   UNL     1      11.920  54.366   2.468  1.00  0.00     0.022 C 
ATOM     27  C   UNL     1      11.614  54.893   3.910  1.00  0.00     0.015 C 
ATOM     28  C   UNL     1      11.501  50.776   2.263  1.00  0.00     0.017 C 
ATOM     29  C   UNL     1      14.125  55.606   2.097  1.00  0.00     0.012 C 
ATOM     30  C   UNL     1      12.208  55.052   6.346  1.00  0.00     0.011 C 
ENDROOT
BRANCH  20  31
ATOM     31  O   UNL     1       6.252  49.043  -2.803  1.00  0.00    -0.393 OA
ATOM     32  H   UNL     1       6.433  48.278  -3.408  1.00  0.00     0.210 HD
ENDBRANCH  20  31
TORSDOF 1
ENDMDL
MODEL 3
REMARK VINA RESULT:    -6.654     11.673     14.929
REMARK INTER + INTRA:          -6.849
REMARK INTER:                  -6.849
REMARK INTRA:                   0.000
REMARK UNBOUND:                 0.000
REMARK SMILES CC1(C)CC[C@@]2(C)CC[C@@]3(C)C(=CC[C@H]4[C@]5(C)CC[C@@H](O)C(C)(C)[C@@H]5CC[C@@]43C)[C@H]2C1
REMARK SMILES IDX 1 1 2 2 4 3 5 4 6 5 8 6 9 7 10 8 12 9 13 10 14 11 15 12
REMARK SMILES IDX 28 13 27 14 26 15 25 16 16 17 18 18 19 19 20 20 22 21 23 22
REMARK SMILES IDX 24 23 17 24 29 25 30 26 31 27 11 28 7 29 3 30 21 31
REMARK H PARENT 21 32
REMARK Flexibility Score: inf
ROOT
ATOM      1  C   UNL     1       7.715  54.696   0.666  1.00  0.00     0.011 C 
ATOM      2  C   UNL     1       7.910  55.107  -0.799  1.00  0.00    -0.035 C 
ATOM      3  C   UNL     1       9.075  56.117  -0.950  1.00  0.00     0.007 C 
ATOM      4  C   UNL     1      10.470  55.481  -0.880  1.00  0.00     0.008 C 
ATOM      5  C   UNL     1      10.683  54.280  -1.847  1.00  0.00    -0.026 C 
ATOM      6  C   UNL     1      12.054  53.614  -1.606  1.00  0.00     0.008 C 
ATOM      7  C   UNL     1      12.242  53.035  -0.204  1.00  0.00     0.012 C 
ATOM      8  C   UNL     1      11.083  52.105   0.330  1.00  0.00    -0.006 C 
ATOM      9  C   UNL     1       9.810  52.150  -0.564  1.00  0.00    -0.064 C 
ATOM     10  C   UNL     1       8.968  51.080  -0.599  1.00  0.00    -0.027 C 
ATOM     11  C   UNL     1       9.209  49.731   0.027  1.00  0.00     0.032 C 
ATOM     12  C   UNL     1      10.426  49.670   0.975  1.00  0.00     0.006 C 
ATOM     13  C   UNL     1      11.614  50.581   0.438  1.00  0.00    -0.020 C 
ATOM     14  C   UNL     1      12.855  50.454   1.412  1.00  0.00     0.008 C 
ATOM     15  C   UNL     1      12.534  49.791   2.759  1.00  0.00     0.005 C 
ATOM     16  C   UNL     1      12.070  48.330   2.549  1.00  0.00     0.003 C 
ATOM     17  C   UNL     1      10.823  48.217   1.548  1.00  0.00    -0.025 C 
ATOM     18  C   UNL     1       9.579  47.638   2.285  1.00  0.00     0.010 C 
ATOM     19  C   UNL     1       9.816  46.348   3.110  1.00  0.00     0.033 C 
ATOM     20  C   UNL     1      11.241  46.182   3.696  1.00  0.00     0.120 C 
ATOM     21  C   UNL     1      11.964  47.541   3.924  1.00  0.00    -0.006 C 
ATOM     22  C   UNL     1      13.397  47.239   4.458  1.00  0.00     0.014 C 
ATOM     23  C   UNL     1      11.229  48.323   5.053  1.00  0.00     0.014 C 
ATOM     24  C   UNL     1      11.178  47.213   0.404  1.00  0.00     0.012 C 
ATOM     25  C   UNL     1      12.067  50.135  -0.997  1.00  0.00     0.012 C 
ATOM     26  C   UNL     1       9.564  53.216  -1.660  1.00  0.00     0.022 C 
ATOM     27  C   UNL     1       8.135  53.855  -1.693  1.00  0.00     0.015 C 
ATOM     28  C   UNL     1      10.674  52.647   1.738  1.00  0.00     0.017 C 
ATOM     29  C   UNL     1      10.695  54.794  -3.324  1.00  0.00     0.012 C 
ATOM     30  C   UNL     1       6.603  55.797  -1.255  1.00  0.00     0.011 C 
ENDROOT
BRANCH  20  31
ATOM     31  O   UNL     1      12.021  45.356   2.859  1.00  0.00    -0.393 OA
ATOM     32  H   UNL     1      11.662  45.463   1.941  1.00  0.00     0.210 HD
ENDBRANCH  20  31
TORSDOF 1
ENDMDL
MODEL 4
REMARK VINA RESULT:    -6.475      3.065      5.412
REMARK INTER + INTRA:          -6.664
REMARK INTER:                  -6.664
REMARK INTRA:                   0.000
REMARK UNBOUND:                 0.000
REMARK SMILES CC1(C)CC[C@@]2(C)CC[C@@]3(C)C(=CC[C@H]4[C@]5(C)CC[C@@H](O)C(C)(C)[C@@H]5CC[C@@]43C)[C@H]2C1
REMARK SMILES IDX 1 1 2 2 4 3 5 4 6 5 8 6 9 7 10 8 12 9 13 10 14 11 15 12
REMARK SMILES IDX 28 13 27 14 26 15 25 16 16 17 18 18 19 19 20 20 22 21 23 22
REMARK SMILES IDX 24 23 17 24 29 25 30 26 31 27 11 28 7 29 3 30 21 31
REMARK H PARENT 21 32
REMARK Flexibility Score: inf
ROOT
ATOM      1  C   UNL     1       7.324  37.848   8.146  1.00  0.00     0.011 C 
ATOM      2  C   UNL     1       6.632  37.351   9.422  1.00  0.00    -0.035 C 
ATOM      3  C   UNL     1       7.636  36.647  10.369  1.00  0.00     0.007 C 
ATOM      4  C   UNL     1       8.533  37.609  11.159  1.00  0.00     0.008 C 
ATOM      5  C   UNL     1       7.766  38.721  11.933  1.00  0.00    -0.026 C 
ATOM      6  C   UNL     1       8.749  39.723  12.575  1.00  0.00     0.008 C 
ATOM      7  C   UNL     1       9.636  40.471  11.580  1.00  0.00     0.012 C 
ATOM      8  C   UNL     1       8.901  41.138  10.352  1.00  0.00    -0.006 C 
ATOM      9  C   UNL     1       7.416  40.691  10.219  1.00  0.00    -0.064 C 
ATOM     10  C   UNL     1       6.512  41.513   9.616  1.00  0.00    -0.027 C 
ATOM     11  C   UNL     1       6.747  42.936   9.182  1.00  0.00     0.032 C 
ATOM     12  C   UNL     1       8.222  43.390   9.237  1.00  0.00     0.006 C 
ATOM     13  C   UNL     1       8.971  42.748  10.485  1.00  0.00    -0.020 C 
ATOM     14  C   UNL     1      10.463  43.275  10.529  1.00  0.00     0.008 C 
ATOM     15  C   UNL     1      10.924  43.972   9.242  1.00  0.00     0.005 C 
ATOM     16  C   UNL     1      10.084  45.245   8.983  1.00  0.00     0.003 C 
ATOM     17  C   UNL     1       8.510  44.947   8.935  1.00  0.00    -0.025 C 
ATOM     18  C   UNL     1       7.931  45.276   7.527  1.00  0.00     0.010 C 
ATOM     19  C   UNL     1       8.307  46.661   6.944  1.00  0.00     0.033 C 
ATOM     20  C   UNL     1       9.674  47.230   7.399  1.00  0.00     0.120 C 
ATOM     21  C   UNL     1      10.687  46.120   7.802  1.00  0.00    -0.006 C 
ATOM     22  C   UNL     1      11.994  46.818   8.290  1.00  0.00     0.014 C 
ATOM     23  C   UNL     1      11.073  45.301   6.533  1.00  0.00     0.014 C 
ATOM     24  C   UNL     1       7.783  45.885   9.952  1.00  0.00     0.012 C 
ATOM     25  C   UNL     1       8.270  43.143  11.832  1.00  0.00     0.012 C 
ATOM     26  C   UNL     1       6.805  39.491  10.984  1.00  0.00     0.022 C 
ATOM     27  C   UNL     1       5.908  38.522  10.144  1.00  0.00     0.015 C 
ATOM     28  C   UNL     1       9.641  40.659   9.061  1.00  0.00     0.017 C 
ATOM     29  C   UNL     1       6.961  38.077  13.109  1.00  0.00     0.012 C 
ATOM     30  C   UNL     1       5.565  36.319   8.987  1.00  0.00     0.011 C 
ENDROOT
BRANCH  20  31
ATOM     31  O   UNL     1       9.497  48.133   8.469  1.00  0.00    -0.393 OA
ATOM     32  H   UNL     1       8.986  48.902   8.109  1.00  0.00     0.210 HD
ENDBRANCH  20  31
TORSDOF 1
ENDMDL
MODEL 5
REMARK VINA RESULT:    -5.698      3.105      5.735
REMARK INTER + INTRA:          -5.865
REMARK INTER:                  -5.865
REMARK INTRA:                   0.000
REMARK UNBOUND:                 0.000
REMARK SMILES CC1(C)CC[C@@]2(C)CC[C@@]3(C)C(=CC[C@H]4[C@]5(C)CC[C@@H](O)C(C)(C)[C@@H]5CC[C@@]43C)[C@H]2C1
REMARK SMILES IDX 1 1 2 2 4 3 5 4 6 5 8 6 9 7 10 8 12 9 13 10 14 11 15 12
REMARK SMILES IDX 28 13 27 14 26 15 25 16 16 17 18 18 19 19 20 20 22 21 23 22
REMARK SMILES IDX 24 23 17 24 29 25 30 26 31 27 11 28 7 29 3 30 21 31
REMARK H PARENT 21 32
REMARK Flexibility Score: inf
ROOT
ATOM      1  C   UNL     1       7.086  37.602   8.147  1.00  0.00     0.011 C 
ATOM      2  C   UNL     1       6.421  37.078   9.427  1.00  0.00    -0.035 C 
ATOM      3  C   UNL     1       7.365  36.127  10.204  1.00  0.00     0.007 C 
ATOM      4  C   UNL     1       8.464  36.845  10.998  1.00  0.00     0.008 C 
ATOM      5  C   UNL     1       7.951  37.969  11.944  1.00  0.00    -0.026 C 
ATOM      6  C   UNL     1       9.129  38.730  12.587  1.00  0.00     0.008 C 
ATOM      7  C   UNL     1      10.049  39.437  11.592  1.00  0.00     0.012 C 
ATOM      8  C   UNL     1       9.342  40.342  10.508  1.00  0.00    -0.006 C 
ATOM      9  C   UNL     1       7.798  40.148  10.471  1.00  0.00    -0.064 C 
ATOM     10  C   UNL     1       6.998  41.162  10.037  1.00  0.00    -0.027 C 
ATOM     11  C   UNL     1       7.429  42.571   9.724  1.00  0.00     0.032 C 
ATOM     12  C   UNL     1       8.957  42.782   9.687  1.00  0.00     0.006 C 
ATOM     13  C   UNL     1       9.684  41.898  10.791  1.00  0.00    -0.020 C 
ATOM     14  C   UNL     1      11.241  42.179  10.748  1.00  0.00     0.008 C 
ATOM     15  C   UNL     1      11.711  42.935   9.498  1.00  0.00     0.005 C 
ATOM     16  C   UNL     1      11.073  44.344   9.444  1.00  0.00     0.003 C 
ATOM     17  C   UNL     1       9.473  44.299   9.513  1.00  0.00    -0.025 C 
ATOM     18  C   UNL     1       8.851  44.868   8.203  1.00  0.00     0.010 C 
ATOM     19  C   UNL     1       9.402  46.235   7.726  1.00  0.00     0.033 C 
ATOM     20  C   UNL     1      10.875  46.532   8.106  1.00  0.00     0.120 C 
ATOM     21  C   UNL     1      11.720  45.241   8.303  1.00  0.00    -0.006 C 
ATOM     22  C   UNL     1      13.156  45.669   8.734  1.00  0.00     0.014 C 
ATOM     23  C   UNL     1      11.870  44.518   6.931  1.00  0.00     0.014 C 
ATOM     24  C   UNL     1       8.988  45.220  10.679  1.00  0.00     0.012 C 
ATOM     25  C   UNL     1       9.161  42.244  12.229  1.00  0.00     0.012 C 
ATOM     26  C   UNL     1       7.059  38.979  11.168  1.00  0.00     0.022 C 
ATOM     27  C   UNL     1       5.954  38.260  10.324  1.00  0.00     0.015 C 
ATOM     28  C   UNL     1       9.894  39.901   9.114  1.00  0.00     0.017 C 
ATOM     29  C   UNL     1       7.142  37.331  13.122  1.00  0.00     0.012 C 
ATOM     30  C   UNL     1       5.169  36.279   8.994  1.00  0.00     0.011 C 
ENDROOT
BRANCH  20  31
ATOM     31  O   UNL     1      10.929  47.326   9.271  1.00  0.00    -0.393 OA
ATOM     32  H   UNL     1      10.934  48.271   8.970  1.00  0.00     0.210 HD
ENDBRANCH  20  31
TORSDOF 1
ENDMDL
MODEL 6
REMARK VINA RESULT:    -5.566      3.007      4.844
REMARK INTER + INTRA:          -5.729
REMARK INTER:                  -5.729
REMARK INTRA:                   0.000
REMARK UNBOUND:                 0.000
REMARK SMILES CC1(C)CC[C@@]2(C)CC[C@@]3(C)C(=CC[C@H]4[C@]5(C)CC[C@@H](O)C(C)(C)[C@@H]5CC[C@@]43C)[C@H]2C1
REMARK SMILES IDX 1 1 2 2 4 3 5 4 6 5 8 6 9 7 10 8 12 9 13 10 14 11 15 12
REMARK SMILES IDX 28 13 27 14 26 15 25 16 16 17 18 18 19 19 20 20 22 21 23 22
REMARK SMILES IDX 24 23 17 24 29 25 30 26 31 27 11 28 7 29 3 30 21 31
REMARK H PARENT 21 32
REMARK Flexibility Score: inf
ROOT
ATOM      1  C   UNL     1      11.537  45.019   7.386  1.00  0.00     0.011 C 
ATOM      2  C   UNL     1      12.861  45.226   8.134  1.00  0.00    -0.035 C 
ATOM      3  C   UNL     1      12.676  46.158   9.358  1.00  0.00     0.007 C 
ATOM      4  C   UNL     1      12.027  45.479  10.571  1.00  0.00     0.008 C 
ATOM      5  C   UNL     1      12.712  44.154  11.015  1.00  0.00    -0.026 C 
ATOM      6  C   UNL     1      11.910  43.469  12.142  1.00  0.00     0.008 C 
ATOM      7  C   UNL     1      10.485  43.071  11.757  1.00  0.00     0.012 C 
ATOM      8  C   UNL     1      10.323  42.269  10.408  1.00  0.00    -0.006 C 
ATOM      9  C   UNL     1      11.625  42.249   9.555  1.00  0.00    -0.064 C 
ATOM     10  C   UNL     1      11.855  41.219   8.693  1.00  0.00    -0.027 C 
ATOM     11  C   UNL     1      11.045  39.955   8.572  1.00  0.00     0.032 C 
ATOM     12  C   UNL     1       9.713  39.968   9.352  1.00  0.00     0.006 C 
ATOM     13  C   UNL     1       9.865  40.751  10.729  1.00  0.00    -0.020 C 
ATOM     14  C   UNL     1       8.492  40.701  11.516  1.00  0.00     0.008 C 
ATOM     15  C   UNL     1       7.298  40.234  10.672  1.00  0.00     0.005 C 
ATOM     16  C   UNL     1       7.509  38.779  10.190  1.00  0.00     0.003 C 
ATOM     17  C   UNL     1       8.882  38.588   9.387  1.00  0.00    -0.025 C 
ATOM     18  C   UNL     1       8.602  38.162   7.914  1.00  0.00     0.010 C 
ATOM     19  C   UNL     1       7.615  36.983   7.723  1.00  0.00     0.033 C 
ATOM     20  C   UNL     1       6.529  36.836   8.819  1.00  0.00     0.120 C 
ATOM     21  C   UNL     1       6.195  38.182   9.524  1.00  0.00    -0.006 C 
ATOM     22  C   UNL     1       5.139  37.893  10.634  1.00  0.00     0.014 C 
ATOM     23  C   UNL     1       5.509  39.135   8.501  1.00  0.00     0.014 C 
ATOM     24  C   UNL     1       9.699  37.428  10.044  1.00  0.00     0.012 C 
ATOM     25  C   UNL     1      10.973  40.102  11.631  1.00  0.00     0.012 C 
ATOM     26  C   UNL     1      12.841  43.171   9.817  1.00  0.00     0.022 C 
ATOM     27  C   UNL     1      13.469  43.859   8.558  1.00  0.00     0.015 C 
ATOM     28  C   UNL     1       9.233  43.006   9.564  1.00  0.00     0.017 C 
ATOM     29  C   UNL     1      14.125  44.469  11.607  1.00  0.00     0.012 C 
ATOM     30  C   UNL     1      13.840  45.904   7.147  1.00  0.00     0.011 C 
ENDROOT
BRANCH  20  31
ATOM     31  O   UNL     1       6.924  35.875   9.774  1.00  0.00    -0.393 OA
ATOM     32  H   UNL     1       6.127  35.689  10.334  1.00  0.00     0.210 HD
ENDBRANCH  20  31
TORSDOF 1
ENDMDL
MODEL 7
REMARK VINA RESULT:    -5.005     11.242     14.147
REMARK INTER + INTRA:          -5.152
REMARK INTER:                  -5.152
REMARK INTRA:                   0.000
REMARK UNBOUND:                 0.000
REMARK SMILES CC1(C)CC[C@@]2(C)CC[C@@]3(C)C(=CC[C@H]4[C@]5(C)CC[C@@H](O)C(C)(C)[C@@H]5CC[C@@]43C)[C@H]2C1
REMARK SMILES IDX 1 1 2 2 4 3 5 4 6 5 8 6 9 7 10 8 12 9 13 10 14 11 15 12
REMARK SMILES IDX 28 13 27 14 26 15 25 16 16 17 18 18 19 19 20 20 22 21 23 22
REMARK SMILES IDX 24 23 17 24 29 25 30 26 31 27 11 28 7 29 3 30 21 31
REMARK H PARENT 21 32
REMARK Flexibility Score: inf
ROOT
ATOM      1  C   UNL     1       8.025  53.014   0.582  1.00  0.00     0.011 C 
ATOM      2  C   UNL     1       8.759  53.185  -0.755  1.00  0.00    -0.035 C 
ATOM      3  C   UNL     1       9.287  54.632  -0.926  1.00  0.00     0.007 C 
ATOM      4  C   UNL     1      10.557  54.936  -0.121  1.00  0.00     0.008 C 
ATOM      5  C   UNL     1      11.718  53.922  -0.335  1.00  0.00    -0.026 C 
ATOM      6  C   UNL     1      12.894  54.221   0.619  1.00  0.00     0.008 C 
ATOM      7  C   UNL     1      12.549  54.123   2.105  1.00  0.00     0.012 C 
ATOM      8  C   UNL     1      11.794  52.815   2.563  1.00  0.00    -0.006 C 
ATOM      9  C   UNL     1      11.289  51.956   1.367  1.00  0.00    -0.064 C 
ATOM     10  C   UNL     1      11.124  50.612   1.519  1.00  0.00    -0.027 C 
ATOM     11  C   UNL     1      11.541  49.789   2.709  1.00  0.00     0.032 C 
ATOM     12  C   UNL     1      11.984  50.611   3.937  1.00  0.00     0.006 C 
ATOM     13  C   UNL     1      12.770  51.922   3.494  1.00  0.00    -0.020 C 
ATOM     14  C   UNL     1      13.244  52.710   4.782  1.00  0.00     0.008 C 
ATOM     15  C   UNL     1      12.582  52.244   6.086  1.00  0.00     0.005 C 
ATOM     16  C   UNL     1      12.954  50.773   6.388  1.00  0.00     0.003 C 
ATOM     17  C   UNL     1      12.589  49.784   5.181  1.00  0.00    -0.025 C 
ATOM     18  C   UNL     1      11.519  48.743   5.628  1.00  0.00     0.010 C 
ATOM     19  C   UNL     1      11.806  48.001   6.958  1.00  0.00     0.033 C 
ATOM     20  C   UNL     1      12.635  48.793   8.000  1.00  0.00     0.120 C 
ATOM     21  C   UNL     1      12.490  50.334   7.844  1.00  0.00    -0.006 C 
ATOM     22  C   UNL     1      13.409  51.013   8.905  1.00  0.00     0.014 C 
ATOM     23  C   UNL     1      11.030  50.745   8.199  1.00  0.00     0.014 C 
ATOM     24  C   UNL     1      13.865  48.976   4.782  1.00  0.00     0.012 C 
ATOM     25  C   UNL     1      14.038  51.562   2.643  1.00  0.00     0.012 C 
ATOM     26  C   UNL     1      11.229  52.465  -0.095  1.00  0.00     0.022 C 
ATOM     27  C   UNL     1       9.913  52.150  -0.881  1.00  0.00     0.015 C 
ATOM     28  C   UNL     1      10.533  53.271   3.365  1.00  0.00     0.017 C 
ATOM     29  C   UNL     1      12.279  54.068  -1.788  1.00  0.00     0.012 C 
ATOM     30  C   UNL     1       7.733  52.903  -1.877  1.00  0.00     0.011 C 
ENDROOT
BRANCH  20  31
ATOM     31  O   UNL     1      13.995  48.427   7.923  1.00  0.00    -0.393 OA
ATOM     32  H   UNL     1      14.401  48.988   7.213  1.00  0.00     0.210 HD
ENDBRANCH  20  31
TORSDOF 1
ENDMDL
MODEL 8
REMARK VINA RESULT:    -4.829     10.025     12.687
REMARK INTER + INTRA:          -4.970
REMARK INTER:                  -4.970
REMARK INTRA:                   0.000
REMARK UNBOUND:                 0.000
REMARK SMILES CC1(C)CC[C@@]2(C)CC[C@@]3(C)C(=CC[C@H]4[C@]5(C)CC[C@@H](O)C(C)(C)[C@@H]5CC[C@@]43C)[C@H]2C1
REMARK SMILES IDX 1 1 2 2 4 3 5 4 6 5 8 6 9 7 10 8 12 9 13 10 14 11 15 12
REMARK SMILES IDX 28 13 27 14 26 15 25 16 16 17 18 18 19 19 20 20 22 21 23 22
REMARK SMILES IDX 24 23 17 24 29 25 30 26 31 27 11 28 7 29 3 30 21 31
REMARK H PARENT 21 32
REMARK Flexibility Score: inf
ROOT
ATOM      1  C   UNL     1       9.217  52.640   0.839  1.00  0.00     0.011 C 
ATOM      2  C   UNL     1       9.901  52.501  -0.527  1.00  0.00    -0.035 C 
ATOM      3  C   UNL     1      11.007  53.570  -0.714  1.00  0.00     0.007 C 
ATOM      4  C   UNL     1      12.310  53.263   0.037  1.00  0.00     0.008 C 
ATOM      5  C   UNL     1      12.894  51.846  -0.232  1.00  0.00    -0.026 C 
ATOM      6  C   UNL     1      14.115  51.573   0.671  1.00  0.00     0.008 C 
ATOM      7  C   UNL     1      13.817  51.603   2.170  1.00  0.00     0.012 C 
ATOM      8  C   UNL     1      12.579  50.751   2.655  1.00  0.00    -0.006 C 
ATOM      9  C   UNL     1      11.703  50.232   1.478  1.00  0.00    -0.064 C 
ATOM     10  C   UNL     1      10.967  49.096   1.630  1.00  0.00    -0.027 C 
ATOM     11  C   UNL     1      11.020  48.145   2.797  1.00  0.00     0.032 C 
ATOM     12  C   UNL     1      11.826  48.659   4.009  1.00  0.00     0.006 C 
ATOM     13  C   UNL     1      13.094  49.498   3.539  1.00  0.00    -0.020 C 
ATOM     14  C   UNL     1      13.914  49.966   4.809  1.00  0.00     0.008 C 
ATOM     15  C   UNL     1      13.163  49.809   6.138  1.00  0.00     0.005 C 
ATOM     16  C   UNL     1      12.857  48.319   6.416  1.00  0.00     0.003 C 
ATOM     17  C   UNL     1      12.048  47.621   5.222  1.00  0.00    -0.025 C 
ATOM     18  C   UNL     1      10.646  47.149   5.709  1.00  0.00     0.010 C 
ATOM     19  C   UNL     1      10.624  46.326   7.022  1.00  0.00     0.033 C 
ATOM     20  C   UNL     1      11.756  46.646   8.031  1.00  0.00     0.120 C 
ATOM     21  C   UNL     1      12.301  48.095   7.888  1.00  0.00    -0.006 C 
ATOM     22  C   UNL     1      13.464  48.274   8.912  1.00  0.00     0.014 C 
ATOM     23  C   UNL     1      11.187  49.101   8.309  1.00  0.00     0.014 C 
ATOM     24  C   UNL     1      12.820  46.342   4.763  1.00  0.00     0.012 C 
ATOM     25  C   UNL     1      14.040  48.635   2.631  1.00  0.00     0.012 C 
ATOM     26  C   UNL     1      11.821  50.750   0.022  1.00  0.00     0.022 C 
ATOM     27  C   UNL     1      10.473  51.066  -0.708  1.00  0.00     0.015 C 
ATOM     28  C   UNL     1      11.680  51.699   3.513  1.00  0.00     0.017 C 
ATOM     29  C   UNL     1      13.408  51.764  -1.707  1.00  0.00     0.012 C 
ATOM     30  C   UNL     1       8.815  52.727  -1.605  1.00  0.00     0.011 C 
ENDROOT
BRANCH  20  31
ATOM     31  O   UNL     1      12.810  45.718   7.893  1.00  0.00    -0.393 OA
ATOM     32  H   UNL     1      12.420  44.820   8.049  1.00  0.00     0.210 HD
ENDBRANCH  20  31
TORSDOF 1
ENDMDL
