MODEL 1
REMARK VINA RESULT:    -1.845      0.000      0.000
REMARK INTER + INTRA:          -2.852
REMARK INTER:                  -2.492
REMARK INTRA:                  -0.360
REMARK UNBOUND:                -0.360
REMARK SMILES CC(=O)CCC=C(C)CCC=C(C)C
REMARK SMILES IDX 7 1 6 2 8 3 9 4 10 5 11 6 13 7 12 8 14 9 5 10 4 11 2 12 3 13
REMARK SMILES IDX 1 14
REMARK H PARENT
REMARK Flexibility Score: inf
ROOT
ATOM      1  C   UNL     1      -1.952  -7.843  -4.953  1.00  0.00    -0.077 C 
ATOM      2  C   UNL     1      -0.604  -7.924  -4.876  1.00  0.00    -0.028 C 
ATOM      3  C   UNL     1      -2.666  -6.519  -5.092  1.00  0.00     0.039 C 
ENDROOT
BRANCH   1   4
ATOM      4  C   UNL     1      -2.769  -9.115  -4.878  1.00  0.00     0.034 C 
BRANCH   4   5
ATOM      5  C   UNL     1      -4.064  -8.977  -5.685  1.00  0.00     0.032 C 
BRANCH   5   6
ATOM      6  C   UNL     1      -4.924 -10.207  -5.530  1.00  0.00    -0.028 C 
ATOM      7  C   UNL     1      -6.000 -12.313  -6.196  1.00  0.00     0.039 C 
ATOM      8  C   UNL     1      -5.150 -11.110  -6.511  1.00  0.00    -0.080 C 
ATOM      9  C   UNL     1      -4.591 -10.936  -7.903  1.00  0.00     0.039 C 
ENDBRANCH   5   6
ENDBRANCH   4   5
ENDBRANCH   1   4
BRANCH   2  10
ATOM     10  C   UNL     1       0.334  -6.745  -4.983  1.00  0.00     0.035 C 
BRANCH  10  11
ATOM     11  C   UNL     1       1.803  -7.179  -4.881  1.00  0.00     0.079 C 
BRANCH  11  12
ATOM     12  C   UNL     1       2.738  -6.006  -5.027  1.00  0.00     0.130 C 
ATOM     13  O   UNL     1       2.282  -4.895  -5.253  1.00  0.00    -0.300 OA
ATOM     14  C   UNL     1       4.224  -6.174  -4.899  1.00  0.00     0.087 C 
ENDBRANCH  11  12
ENDBRANCH  10  11
ENDBRANCH   2  10
TORSDOF 6
ENDMDL
MODEL 2
REMARK VINA RESULT:    -1.670      3.375      7.621
REMARK INTER + INTRA:          -2.616
REMARK INTER:                  -2.305
REMARK INTRA:                  -0.310
REMARK UNBOUND:                -0.360
REMARK SMILES CC(=O)CCC=C(C)CCC=C(C)C
REMARK SMILES IDX 7 1 6 2 8 3 9 4 10 5 11 6 13 7 12 8 14 9 5 10 4 11 2 12 3 13
REMARK SMILES IDX 1 14
REMARK H PARENT
REMARK Flexibility Score: inf
ROOT
ATOM      1  C   UNL     1      -3.040  -8.701  -5.865  1.00  0.00    -0.077 C 
ATOM      2  C   UNL     1      -3.156  -9.614  -4.875  1.00  0.00    -0.028 C 
ATOM      3  C   UNL     1      -3.722  -8.880  -7.202  1.00  0.00     0.039 C 
ENDROOT
BRANCH   1   4
ATOM      4  C   UNL     1      -2.187  -7.473  -5.635  1.00  0.00     0.034 C 
BRANCH   4   5
ATOM      5  C   UNL     1      -0.906  -7.835  -4.875  1.00  0.00     0.032 C 
BRANCH   5   6
ATOM      6  C   UNL     1       0.102  -6.717  -4.964  1.00  0.00    -0.028 C 
ATOM      7  C   UNL     1       2.325  -5.685  -5.136  1.00  0.00     0.039 C 
ATOM      8  C   UNL     1       1.441  -6.898  -5.007  1.00  0.00    -0.080 C 
ATOM      9  C   UNL     1       2.067  -8.269  -4.912  1.00  0.00     0.039 C 
ENDBRANCH   5   6
ENDBRANCH   4   5
ENDBRANCH   1   4
BRANCH   2  10
ATOM     10  C   UNL     1      -4.009 -10.859  -4.950  1.00  0.00     0.035 C 
BRANCH  10  11
ATOM     11  C   UNL     1      -5.505 -10.519  -4.983  1.00  0.00     0.079 C 
BRANCH  11  12
ATOM     12  C   UNL     1      -6.308 -11.614  -5.638  1.00  0.00     0.130 C 
ATOM     13  O   UNL     1      -7.479 -11.772  -5.327  1.00  0.00    -0.300 OA
ATOM     14  C   UNL     1      -5.696 -12.519  -6.667  1.00  0.00     0.087 C 
ENDBRANCH  11  12
ENDBRANCH  10  11
ENDBRANCH   2  10
TORSDOF 6
ENDMDL
MODEL 3
REMARK VINA RESULT:     0.618     20.910     23.293
REMARK INTER + INTRA:           0.476
REMARK INTER:                   0.308
REMARK INTRA:                   0.167
REMARK UNBOUND:                -0.360
REMARK SMILES CC(=O)CCC=C(C)CCC=C(C)C
REMARK SMILES IDX 7 1 6 2 8 3 9 4 10 5 11 6 13 7 12 8 14 9 5 10 4 11 2 12 3 13
REMARK SMILES IDX 1 14
REMARK H PARENT
REMARK Flexibility Score: inf
ROOT
ATOM      1  C   UNL     1      -7.033 -19.553 -24.946  1.00  0.00    -0.077 C 
ATOM      2  C   UNL     1      -8.175 -18.839 -24.830  1.00  0.00    -0.028 C 
ATOM      3  C   UNL     1      -5.678 -18.887 -25.021  1.00  0.00     0.039 C 
ENDROOT
BRANCH   1   4
ATOM      4  C   UNL     1      -7.114 -21.061 -25.023  1.00  0.00     0.034 C 
BRANCH   4   5
ATOM      5  C   UNL     1      -5.715 -21.678 -25.125  1.00  0.00     0.032 C 
BRANCH   5   6
ATOM      6  C   UNL     1      -5.667 -23.014 -24.428  1.00  0.00    -0.028 C 
ATOM      7  C   UNL     1      -4.670 -25.111 -23.622  1.00  0.00     0.039 C 
ATOM      8  C   UNL     1      -4.582 -23.820 -24.394  1.00  0.00    -0.080 C 
ATOM      9  C   UNL     1      -3.302 -23.471 -25.117  1.00  0.00     0.039 C 
ENDBRANCH   5   6
ENDBRANCH   4   5
ENDBRANCH   1   4
BRANCH   2  10
ATOM     10  C   UNL     1      -8.238 -17.335 -24.697  1.00  0.00     0.035 C 
BRANCH  10  11
ATOM     11  C   UNL     1      -8.112 -16.890 -23.234  1.00  0.00     0.079 C 
BRANCH  11  12
ATOM     12  C   UNL     1      -8.343 -18.037 -22.283  1.00  0.00     0.130 C 
ATOM     13  O   UNL     1      -7.465 -18.354 -21.496  1.00  0.00    -0.300 OA
ATOM     14  C   UNL     1      -9.635 -18.801 -22.285  1.00  0.00     0.087 C 
ENDBRANCH  11  12
ENDBRANCH  10  11
ENDBRANCH   2  10
TORSDOF 6
ENDMDL
MODEL 4
REMARK VINA RESULT:     0.747     20.542     24.686
REMARK INTER + INTRA:           0.649
REMARK INTER:                   1.270
REMARK INTRA:                  -0.620
REMARK UNBOUND:                -0.360
REMARK SMILES CC(=O)CCC=C(C)CCC=C(C)C
REMARK SMILES IDX 7 1 6 2 8 3 9 4 10 5 11 6 13 7 12 8 14 9 5 10 4 11 2 12 3 13
REMARK SMILES IDX 1 14
REMARK H PARENT
REMARK Flexibility Score: inf
ROOT
ATOM      1  C   UNL     1      -9.813 -21.148 -24.834  1.00  0.00    -0.077 C 
ATOM      2  C   UNL     1      -9.839 -22.469 -25.124  1.00  0.00    -0.028 C 
ATOM      3  C   UNL     1     -11.012 -20.433 -24.258  1.00  0.00     0.039 C 
ENDROOT
BRANCH   1   4
ATOM      4  C   UNL     1      -8.553 -20.360 -25.115  1.00  0.00     0.034 C 
BRANCH   4   5
ATOM      5  C   UNL     1      -8.763 -18.872 -24.812  1.00  0.00     0.032 C 
BRANCH   5   6
ATOM      6  C   UNL     1      -7.783 -18.395 -23.769  1.00  0.00    -0.028 C 
ATOM      7  C   UNL     1      -6.988 -17.774 -21.528  1.00  0.00     0.039 C 
ATOM      8  C   UNL     1      -8.084 -18.217 -22.463  1.00  0.00    -0.080 C 
ATOM      9  C   UNL     1      -9.479 -18.433 -21.926  1.00  0.00     0.039 C 
ENDBRANCH   5   6
ENDBRANCH   4   5
ENDBRANCH   1   4
BRANCH   2  10
ATOM     10  C   UNL     1     -11.009 -23.384 -24.854  1.00  0.00     0.035 C 
BRANCH  10  11
ATOM     11  C   UNL     1     -10.562 -24.843 -24.690  1.00  0.00     0.079 C 
BRANCH  11  12
ATOM     12  C   UNL     1      -9.713 -25.027 -23.458  1.00  0.00     0.130 C 
ATOM     13  O   UNL     1      -8.501 -25.122 -23.570  1.00  0.00    -0.300 OA
ATOM     14  C   UNL     1     -10.330 -25.099 -22.092  1.00  0.00     0.087 C 
ENDBRANCH  11  12
ENDBRANCH  10  11
ENDBRANCH   2  10
TORSDOF 6
ENDMDL
