MODEL 1
REMARK VINA RESULT:    -4.028      0.000      0.000
REMARK INTER + INTRA:         -13.482
REMARK INTER:                  -9.209
REMARK INTRA:                  -4.273
REMARK UNBOUND:                -4.273
REMARK SMILES CCCCCCCCCCCCCCCCCCCCCCCC(=O)[O-]
REMARK SMILES IDX 13 1 14 2 15 3 16 4 17 5 18 6 19 7 20 8 21 9 22 10 23 11
REMARK SMILES IDX 24 12 25 13 26 14 12 15 11 16 10 17 9 18 8 19 7 20 6 21 5 22
REMARK SMILES IDX 4 23 3 24 2 25 1 26
REMARK H PARENT
REMARK Flexibility Score: inf
ROOT
ATOM      1  C   UNL     1      32.874  31.764  22.254  1.00  0.00     0.000 C 
ENDROOT
BRANCH   1   2
ATOM      2  C   UNL     1      33.412  33.202  22.112  1.00  0.00     0.000 C 
BRANCH   2   3
ATOM      3  C   UNL     1      34.948  33.294  22.107  1.00  0.00     0.000 C 
BRANCH   3   4
ATOM      4  C   UNL     1      35.502  34.042  23.332  1.00  0.00     0.000 C 
BRANCH   4   5
ATOM      5  C   UNL     1      34.407  34.432  24.346  1.00  0.00     0.000 C 
BRANCH   5   6
ATOM      6  C   UNL     1      34.463  33.633  25.661  1.00  0.00     0.000 C 
BRANCH   6   7
ATOM      7  C   UNL     1      35.436  32.435  25.596  1.00  0.00     0.000 C 
BRANCH   7   8
ATOM      8  C   UNL     1      36.596  32.560  26.600  1.00  0.00     0.000 C 
BRANCH   8   9
ATOM      9  C   UNL     1      37.565  33.718  26.277  1.00  0.00     0.000 C 
BRANCH   9  10
ATOM     10  C   UNL     1      37.859  34.645  27.474  1.00  0.00     0.006 C 
BRANCH  10  11
ATOM     11  C   UNL     1      36.661  34.846  28.420  1.00  0.00     0.053 C 
BRANCH  11  12
ATOM     12  C   UNL     1      36.010  36.181  28.220  1.00  0.00     0.041 C 
ATOM     13  O   UNL     1      35.870  36.649  27.060  1.00  0.00    -0.550 OA
ATOM     14  O   UNL     1      35.575  36.916  29.316  1.00  0.00    -0.550 OA
ENDBRANCH  11  12
ENDBRANCH  10  11
ENDBRANCH   9  10
ENDBRANCH   8   9
ENDBRANCH   7   8
ENDBRANCH   6   7
ENDBRANCH   5   6
ENDBRANCH   4   5
ENDBRANCH   3   4
ENDBRANCH   2   3
ENDBRANCH   1   2
BRANCH   1  15
ATOM     15  C   UNL     1      33.928  30.791  22.814  1.00  0.00     0.000 C 
BRANCH  15  16
ATOM     16  C   UNL     1      33.779  29.369  22.251  1.00  0.00     0.000 C 
BRANCH  16  17
ATOM     17  C   UNL     1      32.382  29.103  21.667  1.00  0.00     0.000 C 
BRANCH  17  18
ATOM     18  C   UNL     1      32.452  28.912  20.144  1.00  0.00    -0.000 C 
BRANCH  18  19
ATOM     19  C   UNL     1      33.892  28.965  19.605  1.00  0.00    -0.000 C 
BRANCH  19  20
ATOM     20  C   UNL     1      34.206  30.290  18.892  1.00  0.00    -0.000 C 
BRANCH  20  21
ATOM     21  C   UNL     1      35.570  30.843  19.321  1.00  0.00    -0.000 C 
BRANCH  21  22
ATOM     22  C   UNL     1      36.585  29.708  19.504  1.00  0.00    -0.000 C 
BRANCH  22  23
ATOM     23  C   UNL     1      37.224  29.756  20.900  1.00  0.00    -0.000 C 
BRANCH  23  24
ATOM     24  C   UNL     1      37.631  31.180  21.324  1.00  0.00    -0.000 C 
BRANCH  24  25
ATOM     25  C   UNL     1      38.026  31.328  22.804  1.00  0.00    -0.003 C 
ATOM     26  C   UNL     1      37.562  30.154  23.666  1.00  0.00     0.004 C 
ENDBRANCH  24  25
ENDBRANCH  23  24
ENDBRANCH  22  23
ENDBRANCH  21  22
ENDBRANCH  20  21
ENDBRANCH  19  20
ENDBRANCH  18  19
ENDBRANCH  17  18
ENDBRANCH  16  17
ENDBRANCH  15  16
ENDBRANCH   1  15
TORSDOF 22
ENDMDL
MODEL 2
REMARK VINA RESULT:    -3.968      1.211      3.603
REMARK INTER + INTRA:         -13.345
REMARK INTER:                  -9.529
REMARK INTRA:                  -3.816
REMARK UNBOUND:                -4.273
REMARK SMILES CCCCCCCCCCCCCCCCCCCCCCCC(=O)[O-]
REMARK SMILES IDX 13 1 14 2 15 3 16 4 17 5 18 6 19 7 20 8 21 9 22 10 23 11
REMARK SMILES IDX 24 12 25 13 26 14 12 15 11 16 10 17 9 18 8 19 7 20 6 21 5 22
REMARK SMILES IDX 4 23 3 24 2 25 1 26
REMARK H PARENT
REMARK Flexibility Score: inf
ROOT
ATOM      1  C   UNL     1      37.103  30.763  21.018  1.00  0.00     0.000 C 
ENDROOT
BRANCH   1   2
ATOM      2  C   UNL     1      37.733  29.681  21.919  1.00  0.00     0.000 C 
BRANCH   2   3
ATOM      3  C   UNL     1      37.733  30.039  23.415  1.00  0.00     0.000 C 
BRANCH   3   4
ATOM      4  C   UNL     1      37.670  31.557  23.662  1.00  0.00     0.000 C 
BRANCH   4   5
ATOM      5  C   UNL     1      37.008  31.922  25.007  1.00  0.00     0.000 C 
BRANCH   5   6
ATOM      6  C   UNL     1      38.010  32.325  26.105  1.00  0.00     0.000 C 
BRANCH   6   7
ATOM      7  C   UNL     1      37.587  33.601  26.865  1.00  0.00     0.000 C 
BRANCH   7   8
ATOM      8  C   UNL     1      36.072  33.862  26.787  1.00  0.00     0.000 C 
BRANCH   8   9
ATOM      9  C   UNL     1      35.704  35.360  26.837  1.00  0.00     0.000 C 
BRANCH   9  10
ATOM     10  C   UNL     1      35.193  35.837  28.212  1.00  0.00     0.006 C 
BRANCH  10  11
ATOM     11  C   UNL     1      36.216  35.677  29.351  1.00  0.00     0.053 C 
BRANCH  11  12
ATOM     12  C   UNL     1      37.288  36.723  29.289  1.00  0.00     0.041 C 
ATOM     13  O   UNL     1      36.988  37.923  29.058  1.00  0.00    -0.550 OA
ATOM     14  O   UNL     1      38.620  36.369  29.468  1.00  0.00    -0.550 OA
ENDBRANCH  11  12
ENDBRANCH  10  11
ENDBRANCH   9  10
ENDBRANCH   8   9
ENDBRANCH   7   8
ENDBRANCH   6   7
ENDBRANCH   5   6
ENDBRANCH   4   5
ENDBRANCH   3   4
ENDBRANCH   2   3
ENDBRANCH   1   2
BRANCH   1  15
ATOM     15  C   UNL     1      36.196  30.168  19.926  1.00  0.00     0.000 C 
BRANCH  15  16
ATOM     16  C   UNL     1      35.244  31.209  19.316  1.00  0.00     0.000 C 
BRANCH  16  17
ATOM     17  C   UNL     1      33.842  30.641  19.036  1.00  0.00     0.000 C 
BRANCH  17  18
ATOM     18  C   UNL     1      33.756  29.166  19.455  1.00  0.00    -0.000 C 
BRANCH  18  19
ATOM     19  C   UNL     1      32.495  28.856  20.279  1.00  0.00    -0.000 C 
BRANCH  19  20
ATOM     20  C   UNL     1      32.440  29.652  21.594  1.00  0.00    -0.000 C 
BRANCH  20  21
ATOM     21  C   UNL     1      33.567  29.234  22.545  1.00  0.00    -0.000 C 
BRANCH  21  22
ATOM     22  C   UNL     1      34.174  30.457  23.243  1.00  0.00    -0.000 C 
BRANCH  22  23
ATOM     23  C   UNL     1      33.593  31.761  22.679  1.00  0.00    -0.000 C 
BRANCH  23  24
ATOM     24  C   UNL     1      33.554  32.898  23.718  1.00  0.00    -0.000 C 
BRANCH  24  25
ATOM     25  C   UNL     1      34.484  34.086  23.413  1.00  0.00    -0.003 C 
ATOM     26  C   UNL     1      35.248  33.925  22.099  1.00  0.00     0.004 C 
ENDBRANCH  24  25
ENDBRANCH  23  24
ENDBRANCH  22  23
ENDBRANCH  21  22
ENDBRANCH  20  21
ENDBRANCH  19  20
ENDBRANCH  18  19
ENDBRANCH  17  18
ENDBRANCH  16  17
ENDBRANCH  15  16
ENDBRANCH   1  15
TORSDOF 22
ENDMDL
MODEL 3
REMARK VINA RESULT:    -3.953      1.406      3.536
REMARK INTER + INTRA:         -13.310
REMARK INTER:                  -9.338
REMARK INTRA:                  -3.971
REMARK UNBOUND:                -4.273
REMARK SMILES CCCCCCCCCCCCCCCCCCCCCCCC(=O)[O-]
REMARK SMILES IDX 13 1 14 2 15 3 16 4 17 5 18 6 19 7 20 8 21 9 22 10 23 11
REMARK SMILES IDX 24 12 25 13 26 14 12 15 11 16 10 17 9 18 8 19 7 20 6 21 5 22
REMARK SMILES IDX 4 23 3 24 2 25 1 26
REMARK H PARENT
REMARK Flexibility Score: inf
ROOT
ATOM      1  C   UNL     1      37.993  31.797  23.045  1.00  0.00     0.000 C 
ENDROOT
BRANCH   1   2
ATOM      2  C   UNL     1      37.676  32.082  21.562  1.00  0.00     0.000 C 
BRANCH   2   3
ATOM      3  C   UNL     1      36.824  33.344  21.340  1.00  0.00     0.000 C 
BRANCH   3   4
ATOM      4  C   UNL     1      36.354  33.983  22.658  1.00  0.00     0.000 C 
BRANCH   4   5
ATOM      5  C   UNL     1      35.121  34.893  22.480  1.00  0.00     0.000 C 
BRANCH   5   6
ATOM      6  C   UNL     1      34.152  34.869  23.677  1.00  0.00     0.000 C 
BRANCH   6   7
ATOM      7  C   UNL     1      33.936  33.450  24.248  1.00  0.00     0.000 C 
BRANCH   7   8
ATOM      8  C   UNL     1      34.306  33.350  25.739  1.00  0.00     0.000 C 
BRANCH   8   9
ATOM      9  C   UNL     1      35.667  32.667  25.989  1.00  0.00     0.000 C 
BRANCH   9  10
ATOM     10  C   UNL     1      36.539  33.371  27.050  1.00  0.00     0.006 C 
BRANCH  10  11
ATOM     11  C   UNL     1      36.479  34.908  26.991  1.00  0.00     0.053 C 
BRANCH  11  12
ATOM     12  C   UNL     1      36.144  35.505  28.324  1.00  0.00     0.041 C 
ATOM     13  O   UNL     1      36.902  35.315  29.310  1.00  0.00    -0.550 OA
ATOM     14  O   UNL     1      34.984  36.255  28.481  1.00  0.00    -0.550 OA
ENDBRANCH  11  12
ENDBRANCH  10  11
ENDBRANCH   9  10
ENDBRANCH   8   9
ENDBRANCH   7   8
ENDBRANCH   6   7
ENDBRANCH   5   6
ENDBRANCH   4   5
ENDBRANCH   3   4
ENDBRANCH   2   3
ENDBRANCH   1   2
BRANCH   1  15
ATOM     15  C   UNL     1      37.341  30.497  23.549  1.00  0.00     0.000 C 
BRANCH  15  16
ATOM     16  C   UNL     1      36.173  30.038  22.661  1.00  0.00     0.000 C 
BRANCH  16  17
ATOM     17  C   UNL     1      34.801  30.412  23.244  1.00  0.00     0.000 C 
BRANCH  17  18
ATOM     18  C   UNL     1      33.666  29.782  22.421  1.00  0.00    -0.000 C 
BRANCH  18  19
ATOM     19  C   UNL     1      32.780  30.834  21.732  1.00  0.00    -0.000 C 
BRANCH  19  20
ATOM     20  C   UNL     1      33.578  31.753  20.792  1.00  0.00    -0.000 C 
BRANCH  20  21
ATOM     21  C   UNL     1      33.709  31.139  19.393  1.00  0.00    -0.000 C 
BRANCH  21  22
ATOM     22  C   UNL     1      35.150  30.687  19.129  1.00  0.00    -0.000 C 
BRANCH  22  23
ATOM     23  C   UNL     1      35.258  29.155  19.127  1.00  0.00    -0.000 C 
BRANCH  23  24
ATOM     24  C   UNL     1      33.960  28.463  18.670  1.00  0.00    -0.000 C 
BRANCH  24  25
ATOM     25  C   UNL     1      33.963  27.986  17.207  1.00  0.00    -0.003 C 
ATOM     26  C   UNL     1      32.722  27.171  16.842  1.00  0.00     0.004 C 
ENDBRANCH  24  25
ENDBRANCH  23  24
ENDBRANCH  22  23
ENDBRANCH  21  22
ENDBRANCH  20  21
ENDBRANCH  19  20
ENDBRANCH  18  19
ENDBRANCH  17  18
ENDBRANCH  16  17
ENDBRANCH  15  16
ENDBRANCH   1  15
TORSDOF 22
ENDMDL
MODEL 4
REMARK VINA RESULT:    -3.929      3.268      8.244
REMARK INTER + INTRA:         -13.256
REMARK INTER:                  -9.411
REMARK INTRA:                  -3.845
REMARK UNBOUND:                -4.273
REMARK SMILES CCCCCCCCCCCCCCCCCCCCCCCC(=O)[O-]
REMARK SMILES IDX 13 1 14 2 15 3 16 4 17 5 18 6 19 7 20 8 21 9 22 10 23 11
REMARK SMILES IDX 24 12 25 13 26 14 12 15 11 16 10 17 9 18 8 19 7 20 6 21 5 22
REMARK SMILES IDX 4 23 3 24 2 25 1 26
REMARK H PARENT
REMARK Flexibility Score: inf
ROOT
ATOM      1  C   UNL     1      36.225  35.961  24.555  1.00  0.00     0.000 C 
ENDROOT
BRANCH   1   2
ATOM      2  C   UNL     1      35.599  35.646  23.180  1.00  0.00     0.000 C 
BRANCH   2   3
ATOM      3  C   UNL     1      34.088  35.367  23.233  1.00  0.00     0.000 C 
BRANCH   3   4
ATOM      4  C   UNL     1      33.666  34.205  22.316  1.00  0.00     0.000 C 
BRANCH   4   5
ATOM      5  C   UNL     1      33.315  32.920  23.094  1.00  0.00     0.000 C 
BRANCH   5   6
ATOM      6  C   UNL     1      33.648  32.991  24.596  1.00  0.00     0.000 C 
BRANCH   6   7
ATOM      7  C   UNL     1      34.762  32.005  25.013  1.00  0.00     0.000 C 
BRANCH   7   8
ATOM      8  C   UNL     1      36.074  32.235  24.241  1.00  0.00     0.000 C 
BRANCH   8   9
ATOM      9  C   UNL     1      36.987  30.991  24.199  1.00  0.00     0.000 C 
BRANCH   9  10
ATOM     10  C   UNL     1      36.929  30.213  22.868  1.00  0.00     0.006 C 
BRANCH  10  11
ATOM     11  C   UNL     1      36.095  30.904  21.774  1.00  0.00     0.053 C 
BRANCH  11  12
ATOM     12  C   UNL     1      34.939  30.058  21.336  1.00  0.00     0.041 C 
ATOM     13  O   UNL     1      34.091  29.660  22.177  1.00  0.00    -0.550 OA
ATOM     14  O   UNL     1      34.808  29.693  20.001  1.00  0.00    -0.550 OA
ENDBRANCH  11  12
ENDBRANCH  10  11
ENDBRANCH   9  10
ENDBRANCH   8   9
ENDBRANCH   7   8
ENDBRANCH   6   7
ENDBRANCH   5   6
ENDBRANCH   4   5
ENDBRANCH   3   4
ENDBRANCH   2   3
ENDBRANCH   1   2
BRANCH   1  15
ATOM     15  C   UNL     1      35.176  36.394  25.595  1.00  0.00     0.000 C 
BRANCH  15  16
ATOM     16  C   UNL     1      35.073  35.414  26.775  1.00  0.00     0.000 C 
BRANCH  16  17
ATOM     17  C   UNL     1      36.398  34.691  27.065  1.00  0.00     0.000 C 
BRANCH  17  18
ATOM     18  C   UNL     1      36.777  34.817  28.549  1.00  0.00    -0.000 C 
BRANCH  18  19
ATOM     19  C   UNL     1      35.780  35.675  29.345  1.00  0.00    -0.000 C 
BRANCH  19  20
ATOM     20  C   UNL     1      36.452  36.877  30.030  1.00  0.00    -0.000 C 
BRANCH  20  21
ATOM     21  C   UNL     1      37.093  37.816  29.001  1.00  0.00    -0.000 C 
BRANCH  21  22
ATOM     22  C   UNL     1      38.291  38.555  29.609  1.00  0.00    -0.000 C 
BRANCH  22  23
ATOM     23  C   UNL     1      39.604  38.132  28.933  1.00  0.00    -0.000 C 
BRANCH  23  24
ATOM     24  C   UNL     1      39.861  36.616  29.020  1.00  0.00    -0.000 C 
BRANCH  24  25
ATOM     25  C   UNL     1      40.263  35.950  27.692  1.00  0.00    -0.003 C 
ATOM     26  C   UNL     1      39.531  36.534  26.485  1.00  0.00     0.004 C 
ENDBRANCH  24  25
ENDBRANCH  23  24
ENDBRANCH  22  23
ENDBRANCH  21  22
ENDBRANCH  20  21
ENDBRANCH  19  20
ENDBRANCH  18  19
ENDBRANCH  17  18
ENDBRANCH  16  17
ENDBRANCH  15  16
ENDBRANCH   1  15
TORSDOF 22
ENDMDL
MODEL 5
REMARK VINA RESULT:    -3.924      3.342      8.569
REMARK INTER + INTRA:         -13.243
REMARK INTER:                  -9.718
REMARK INTRA:                  -3.525
REMARK UNBOUND:                -4.273
REMARK SMILES CCCCCCCCCCCCCCCCCCCCCCCC(=O)[O-]
REMARK SMILES IDX 13 1 14 2 15 3 16 4 17 5 18 6 19 7 20 8 21 9 22 10 23 11
REMARK SMILES IDX 24 12 25 13 26 14 12 15 11 16 10 17 9 18 8 19 7 20 6 21 5 22
REMARK SMILES IDX 4 23 3 24 2 25 1 26
REMARK H PARENT
REMARK Flexibility Score: inf
ROOT
ATOM      1  C   UNL     1      38.114  35.720  24.862  1.00  0.00     0.000 C 
ENDROOT
BRANCH   1   2
ATOM      2  C   UNL     1      37.953  37.240  25.070  1.00  0.00     0.000 C 
BRANCH   2   3
ATOM      3  C   UNL     1      36.490  37.714  25.092  1.00  0.00     0.000 C 
BRANCH   3   4
ATOM      4  C   UNL     1      35.490  36.549  25.200  1.00  0.00     0.000 C 
BRANCH   4   5
ATOM      5  C   UNL     1      34.431  36.558  24.079  1.00  0.00     0.000 C 
BRANCH   5   6
ATOM      6  C   UNL     1      34.037  35.154  23.583  1.00  0.00     0.000 C 
BRANCH   6   7
ATOM      7  C   UNL     1      34.878  34.030  24.230  1.00  0.00     0.000 C 
BRANCH   7   8
ATOM      8  C   UNL     1      34.065  33.178  25.220  1.00  0.00     0.000 C 
BRANCH   8   9
ATOM      9  C   UNL     1      34.377  31.669  25.130  1.00  0.00     0.000 C 
BRANCH   9  10
ATOM     10  C   UNL     1      35.157  31.261  23.864  1.00  0.00     0.006 C 
BRANCH  10  11
ATOM     11  C   UNL     1      34.375  30.334  22.916  1.00  0.00     0.053 C 
BRANCH  11  12
ATOM     12  C   UNL     1      33.620  31.106  21.878  1.00  0.00     0.041 C 
ATOM     13  O   UNL     1      34.001  31.094  20.679  1.00  0.00    -0.550 OA
ATOM     14  O   UNL     1      32.505  31.854  22.238  1.00  0.00    -0.550 OA
ENDBRANCH  11  12
ENDBRANCH  10  11
ENDBRANCH   9  10
ENDBRANCH   8   9
ENDBRANCH   7   8
ENDBRANCH   6   7
ENDBRANCH   5   6
ENDBRANCH   4   5
ENDBRANCH   3   4
ENDBRANCH   2   3
ENDBRANCH   1   2
BRANCH   1  15
ATOM     15  C   UNL     1      39.347  35.152  25.587  1.00  0.00     0.000 C 
BRANCH  15  16
ATOM     16  C   UNL     1      38.973  34.220  26.750  1.00  0.00     0.000 C 
BRANCH  16  17
ATOM     17  C   UNL     1      37.706  33.396  26.468  1.00  0.00     0.000 C 
BRANCH  17  18
ATOM     18  C   UNL     1      36.625  33.674  27.524  1.00  0.00    -0.000 C 
BRANCH  18  19
ATOM     19  C   UNL     1      36.999  34.833  28.464  1.00  0.00    -0.000 C 
BRANCH  19  20
ATOM     20  C   UNL     1      35.816  35.777  28.735  1.00  0.00    -0.000 C 
BRANCH  20  21
ATOM     21  C   UNL     1      36.196  36.871  29.740  1.00  0.00    -0.000 C 
BRANCH  21  22
ATOM     22  C   UNL     1      37.579  37.451  29.417  1.00  0.00    -0.000 C 
BRANCH  22  23
ATOM     23  C   UNL     1      37.462  38.703  28.535  1.00  0.00    -0.000 C 
BRANCH  23  24
ATOM     24  C   UNL     1      37.973  39.977  29.233  1.00  0.00    -0.000 C 
BRANCH  24  25
ATOM     25  C   UNL     1      39.200  39.772  30.139  1.00  0.00    -0.003 C 
ATOM     26  C   UNL     1      38.874  39.909  31.626  1.00  0.00     0.004 C 
ENDBRANCH  24  25
ENDBRANCH  23  24
ENDBRANCH  22  23
ENDBRANCH  21  22
ENDBRANCH  20  21
ENDBRANCH  19  20
ENDBRANCH  18  19
ENDBRANCH  17  18
ENDBRANCH  16  17
ENDBRANCH  15  16
ENDBRANCH   1  15
TORSDOF 22
ENDMDL
MODEL 6
REMARK VINA RESULT:    -3.923      2.722      6.337
REMARK INTER + INTRA:         -13.241
REMARK INTER:                  -9.609
REMARK INTRA:                  -3.632
REMARK UNBOUND:                -4.273
REMARK SMILES CCCCCCCCCCCCCCCCCCCCCCCC(=O)[O-]
REMARK SMILES IDX 13 1 14 2 15 3 16 4 17 5 18 6 19 7 20 8 21 9 22 10 23 11
REMARK SMILES IDX 24 12 25 13 26 14 12 15 11 16 10 17 9 18 8 19 7 20 6 21 5 22
REMARK SMILES IDX 4 23 3 24 2 25 1 26
REMARK H PARENT
REMARK Flexibility Score: inf
ROOT
ATOM      1  C   UNL     1      38.185  37.796  25.508  1.00  0.00     0.000 C 
ENDROOT
BRANCH   1   2
ATOM      2  C   UNL     1      37.726  38.341  26.876  1.00  0.00     0.000 C 
BRANCH   2   3
ATOM      3  C   UNL     1      38.804  38.264  27.970  1.00  0.00     0.000 C 
BRANCH   3   4
ATOM      4  C   UNL     1      38.301  37.577  29.252  1.00  0.00     0.000 C 
BRANCH   4   5
ATOM      5  C   UNL     1      36.774  37.690  29.437  1.00  0.00     0.000 C 
BRANCH   5   6
ATOM      6  C   UNL     1      36.055  36.331  29.523  1.00  0.00     0.000 C 
BRANCH   6   7
ATOM      7  C   UNL     1      35.155  36.049  28.299  1.00  0.00     0.000 C 
BRANCH   7   8
ATOM      8  C   UNL     1      35.806  35.077  27.298  1.00  0.00     0.000 C 
BRANCH   8   9
ATOM      9  C   UNL     1      37.016  34.316  27.880  1.00  0.00     0.000 C 
BRANCH   9  10
ATOM     10  C   UNL     1      38.336  34.555  27.117  1.00  0.00     0.006 C 
BRANCH  10  11
ATOM     11  C   UNL     1      38.393  33.877  25.736  1.00  0.00     0.053 C 
BRANCH  11  12
ATOM     12  C   UNL     1      38.479  32.385  25.851  1.00  0.00     0.041 C 
ATOM     13  O   UNL     1      39.495  31.848  26.363  1.00  0.00    -0.550 OA
ATOM     14  O   UNL     1      37.445  31.589  25.374  1.00  0.00    -0.550 OA
ENDBRANCH  11  12
ENDBRANCH  10  11
ENDBRANCH   9  10
ENDBRANCH   8   9
ENDBRANCH   7   8
ENDBRANCH   6   7
ENDBRANCH   5   6
ENDBRANCH   4   5
ENDBRANCH   3   4
ENDBRANCH   2   3
ENDBRANCH   1   2
BRANCH   1  15
ATOM     15  C   UNL     1      37.005  37.459  24.579  1.00  0.00     0.000 C 
BRANCH  15  16
ATOM     16  C   UNL     1      35.738  38.260  24.918  1.00  0.00     0.000 C 
BRANCH  16  17
ATOM     17  C   UNL     1      34.468  37.657  24.295  1.00  0.00     0.000 C 
BRANCH  17  18
ATOM     18  C   UNL     1      34.534  36.122  24.293  1.00  0.00    -0.000 C 
BRANCH  18  19
ATOM     19  C   UNL     1      34.034  35.509  22.975  1.00  0.00    -0.000 C 
BRANCH  19  20
ATOM     20  C   UNL     1      33.647  34.028  23.122  1.00  0.00    -0.000 C 
BRANCH  20  21
ATOM     21  C   UNL     1      34.285  33.409  24.371  1.00  0.00    -0.000 C 
BRANCH  21  22
ATOM     22  C   UNL     1      34.139  31.882  24.358  1.00  0.00    -0.000 C 
BRANCH  22  23
ATOM     23  C   UNL     1      34.816  31.272  23.122  1.00  0.00    -0.000 C 
BRANCH  23  24
ATOM     24  C   UNL     1      34.115  29.994  22.624  1.00  0.00    -0.000 C 
BRANCH  24  25
ATOM     25  C   UNL     1      32.956  30.232  21.640  1.00  0.00    -0.003 C 
ATOM     26  C   UNL     1      32.127  28.975  21.378  1.00  0.00     0.004 C 
ENDBRANCH  24  25
ENDBRANCH  23  24
ENDBRANCH  22  23
ENDBRANCH  21  22
ENDBRANCH  20  21
ENDBRANCH  19  20
ENDBRANCH  18  19
ENDBRANCH  17  18
ENDBRANCH  16  17
ENDBRANCH  15  16
ENDBRANCH   1  15
TORSDOF 22
ENDMDL
MODEL 7
REMARK VINA RESULT:    -3.874      2.707      5.864
REMARK INTER + INTRA:         -13.130
REMARK INTER:                  -9.541
REMARK INTRA:                  -3.590
REMARK UNBOUND:                -4.273
REMARK SMILES CCCCCCCCCCCCCCCCCCCCCCCC(=O)[O-]
REMARK SMILES IDX 13 1 14 2 15 3 16 4 17 5 18 6 19 7 20 8 21 9 22 10 23 11
REMARK SMILES IDX 24 12 25 13 26 14 12 15 11 16 10 17 9 18 8 19 7 20 6 21 5 22
REMARK SMILES IDX 4 23 3 24 2 25 1 26
REMARK H PARENT
REMARK Flexibility Score: inf
ROOT
ATOM      1  C   UNL     1      37.695  37.418  24.805  1.00  0.00     0.000 C 
ENDROOT
BRANCH   1   2
ATOM      2  C   UNL     1      38.507  36.798  25.961  1.00  0.00     0.000 C 
BRANCH   2   3
ATOM      3  C   UNL     1      38.434  35.263  26.019  1.00  0.00     0.000 C 
BRANCH   3   4
ATOM      4  C   UNL     1      37.113  34.709  25.459  1.00  0.00     0.000 C 
BRANCH   4   5
ATOM      5  C   UNL     1      36.132  34.260  26.562  1.00  0.00     0.000 C 
BRANCH   5   6
ATOM      6  C   UNL     1      34.925  35.199  26.742  1.00  0.00     0.000 C 
BRANCH   6   7
ATOM      7  C   UNL     1      35.096  36.178  27.925  1.00  0.00     0.000 C 
BRANCH   7   8
ATOM      8  C   UNL     1      36.134  35.690  28.951  1.00  0.00     0.000 C 
BRANCH   8   9
ATOM      9  C   UNL     1      36.745  36.828  29.796  1.00  0.00     0.000 C 
BRANCH   9  10
ATOM     10  C   UNL     1      37.167  38.064  28.975  1.00  0.00     0.006 C 
BRANCH  10  11
ATOM     11  C   UNL     1      38.377  38.819  29.557  1.00  0.00     0.053 C 
BRANCH  11  12
ATOM     12  C   UNL     1      38.108  40.288  29.683  1.00  0.00     0.041 C 
ATOM     13  O   UNL     1      38.177  40.849  30.807  1.00  0.00    -0.550 OA
ATOM     14  O   UNL     1      37.765  41.033  28.561  1.00  0.00    -0.550 OA
ENDBRANCH  11  12
ENDBRANCH  10  11
ENDBRANCH   9  10
ENDBRANCH   8   9
ENDBRANCH   7   8
ENDBRANCH   6   7
ENDBRANCH   5   6
ENDBRANCH   4   5
ENDBRANCH   3   4
ENDBRANCH   2   3
ENDBRANCH   1   2
BRANCH   1  15
ATOM     15  C   UNL     1      36.622  38.405  25.300  1.00  0.00     0.000 C 
BRANCH  15  16
ATOM     16  C   UNL     1      35.594  38.756  24.212  1.00  0.00     0.000 C 
BRANCH  16  17
ATOM     17  C   UNL     1      34.415  37.770  24.167  1.00  0.00     0.000 C 
BRANCH  17  18
ATOM     18  C   UNL     1      34.592  36.757  23.026  1.00  0.00    -0.000 C 
BRANCH  18  19
ATOM     19  C   UNL     1      33.977  35.385  23.350  1.00  0.00    -0.000 C 
BRANCH  19  20
ATOM     20  C   UNL     1      33.509  34.636  22.091  1.00  0.00    -0.000 C 
BRANCH  20  21
ATOM     21  C   UNL     1      33.545  33.118  22.302  1.00  0.00    -0.000 C 
BRANCH  21  22
ATOM     22  C   UNL     1      33.707  32.777  23.788  1.00  0.00    -0.000 C 
BRANCH  22  23
ATOM     23  C   UNL     1      34.338  31.389  23.973  1.00  0.00    -0.000 C 
BRANCH  23  24
ATOM     24  C   UNL     1      34.485  30.617  22.648  1.00  0.00    -0.000 C 
BRANCH  24  25
ATOM     25  C   UNL     1      33.564  29.392  22.507  1.00  0.00    -0.003 C 
ATOM     26  C   UNL     1      32.437  29.603  21.496  1.00  0.00     0.004 C 
ENDBRANCH  24  25
ENDBRANCH  23  24
ENDBRANCH  22  23
ENDBRANCH  21  22
ENDBRANCH  20  21
ENDBRANCH  19  20
ENDBRANCH  18  19
ENDBRANCH  17  18
ENDBRANCH  16  17
ENDBRANCH  15  16
ENDBRANCH   1  15
TORSDOF 22
ENDMDL
MODEL 8
REMARK VINA RESULT:    -3.852      1.814      3.904
REMARK INTER + INTRA:         -13.079
REMARK INTER:                  -9.606
REMARK INTRA:                  -3.474
REMARK UNBOUND:                -4.273
REMARK SMILES CCCCCCCCCCCCCCCCCCCCCCCC(=O)[O-]
REMARK SMILES IDX 13 1 14 2 15 3 16 4 17 5 18 6 19 7 20 8 21 9 22 10 23 11
REMARK SMILES IDX 24 12 25 13 26 14 12 15 11 16 10 17 9 18 8 19 7 20 6 21 5 22
REMARK SMILES IDX 4 23 3 24 2 25 1 26
REMARK H PARENT
REMARK Flexibility Score: inf
ROOT
ATOM      1  C   UNL     1      35.902  32.370  25.784  1.00  0.00     0.000 C 
ENDROOT
BRANCH   1   2
ATOM      2  C   UNL     1      36.853  31.786  24.718  1.00  0.00     0.000 C 
BRANCH   2   3
ATOM      3  C   UNL     1      37.381  32.828  23.718  1.00  0.00     0.000 C 
BRANCH   3   4
ATOM      4  C   UNL     1      38.020  34.044  24.410  1.00  0.00     0.000 C 
BRANCH   4   5
ATOM      5  C   UNL     1      37.158  35.319  24.305  1.00  0.00     0.000 C 
BRANCH   5   6
ATOM      6  C   UNL     1      36.943  36.039  25.649  1.00  0.00     0.000 C 
BRANCH   6   7
ATOM      7  C   UNL     1      35.453  36.134  26.048  1.00  0.00     0.000 C 
BRANCH   7   8
ATOM      8  C   UNL     1      35.206  35.727  27.512  1.00  0.00     0.000 C 
BRANCH   8   9
ATOM      9  C   UNL     1      36.395  34.976  28.149  1.00  0.00     0.000 C 
BRANCH   9  10
ATOM     10  C   UNL     1      36.967  35.658  29.410  1.00  0.00     0.006 C 
BRANCH  10  11
ATOM     11  C   UNL     1      36.503  37.113  29.601  1.00  0.00     0.053 C 
BRANCH  11  12
ATOM     12  C   UNL     1      37.551  38.094  29.169  1.00  0.00     0.041 C 
ATOM     13  O   UNL     1      38.549  38.316  29.902  1.00  0.00    -0.550 OA
ATOM     14  O   UNL     1      37.415  38.775  27.965  1.00  0.00    -0.550 OA
ENDBRANCH  11  12
ENDBRANCH  10  11
ENDBRANCH   9  10
ENDBRANCH   8   9
ENDBRANCH   7   8
ENDBRANCH   6   7
ENDBRANCH   5   6
ENDBRANCH   4   5
ENDBRANCH   3   4
ENDBRANCH   2   3
ENDBRANCH   1   2
BRANCH   1  15
ATOM     15  C   UNL     1      34.432  31.987  25.537  1.00  0.00     0.000 C 
BRANCH  15  16
ATOM     16  C   UNL     1      33.616  33.135  24.921  1.00  0.00     0.000 C 
BRANCH  16  17
ATOM     17  C   UNL     1      33.852  33.287  23.409  1.00  0.00     0.000 C 
BRANCH  17  18
ATOM     18  C   UNL     1      33.087  32.210  22.624  1.00  0.00    -0.000 C 
BRANCH  18  19
ATOM     19  C   UNL     1      34.001  31.076  22.129  1.00  0.00    -0.000 C 
BRANCH  19  20
ATOM     20  C   UNL     1      33.352  29.690  22.273  1.00  0.00    -0.000 C 
BRANCH  20  21
ATOM     21  C   UNL     1      33.197  29.005  20.910  1.00  0.00    -0.000 C 
BRANCH  21  22
ATOM     22  C   UNL     1      32.502  29.934  19.908  1.00  0.00    -0.000 C 
BRANCH  22  23
ATOM     23  C   UNL     1      33.134  29.815  18.513  1.00  0.00    -0.000 C 
BRANCH  23  24
ATOM     24  C   UNL     1      34.203  30.891  18.245  1.00  0.00    -0.000 C 
BRANCH  24  25
ATOM     25  C   UNL     1      33.784  32.325  18.615  1.00  0.00    -0.003 C 
ATOM     26  C   UNL     1      34.920  33.138  19.237  1.00  0.00     0.004 C 
ENDBRANCH  24  25
ENDBRANCH  23  24
ENDBRANCH  22  23
ENDBRANCH  21  22
ENDBRANCH  20  21
ENDBRANCH  19  20
ENDBRANCH  18  19
ENDBRANCH  17  18
ENDBRANCH  16  17
ENDBRANCH  15  16
ENDBRANCH   1  15
TORSDOF 22
ENDMDL
MODEL 9
REMARK VINA RESULT:    -3.838      2.601      6.941
REMARK INTER + INTRA:         -13.047
REMARK INTER:                  -9.458
REMARK INTRA:                  -3.589
REMARK UNBOUND:                -4.273
REMARK SMILES CCCCCCCCCCCCCCCCCCCCCCCC(=O)[O-]
REMARK SMILES IDX 13 1 14 2 15 3 16 4 17 5 18 6 19 7 20 8 21 9 22 10 23 11
REMARK SMILES IDX 24 12 25 13 26 14 12 15 11 16 10 17 9 18 8 19 7 20 6 21 5 22
REMARK SMILES IDX 4 23 3 24 2 25 1 26
REMARK H PARENT
REMARK Flexibility Score: inf
ROOT
ATOM      1  C   UNL     1      32.069  29.828  21.506  1.00  0.00     0.000 C 
ENDROOT
BRANCH   1   2
ATOM      2  C   UNL     1      32.568  28.656  20.636  1.00  0.00     0.000 C 
BRANCH   2   3
ATOM      3  C   UNL     1      33.894  28.941  19.910  1.00  0.00     0.000 C 
BRANCH   3   4
ATOM      4  C   UNL     1      33.698  29.239  18.413  1.00  0.00     0.000 C 
BRANCH   4   5
ATOM      5  C   UNL     1      33.217  30.679  18.143  1.00  0.00     0.000 C 
BRANCH   5   6
ATOM      6  C   UNL     1      34.358  31.704  18.014  1.00  0.00     0.000 C 
BRANCH   6   7
ATOM      7  C   UNL     1      34.289  32.819  19.082  1.00  0.00     0.000 C 
BRANCH   7   8
ATOM      8  C   UNL     1      35.632  33.028  19.806  1.00  0.00     0.000 C 
BRANCH   8   9
ATOM      9  C   UNL     1      36.397  31.714  20.071  1.00  0.00     0.000 C 
BRANCH   9  10
ATOM     10  C   UNL     1      36.533  31.355  21.565  1.00  0.00     0.006 C 
BRANCH  10  11
ATOM     11  C   UNL     1      36.917  29.887  21.825  1.00  0.00     0.053 C 
BRANCH  11  12
ATOM     12  C   UNL     1      37.778  29.742  23.043  1.00  0.00     0.041 C 
ATOM     13  O   UNL     1      38.456  28.697  23.218  1.00  0.00    -0.550 OA
ATOM     14  O   UNL     1      37.817  30.756  23.993  1.00  0.00    -0.550 OA
ENDBRANCH  11  12
ENDBRANCH  10  11
ENDBRANCH   9  10
ENDBRANCH   8   9
ENDBRANCH   7   8
ENDBRANCH   6   7
ENDBRANCH   5   6
ENDBRANCH   4   5
ENDBRANCH   3   4
ENDBRANCH   2   3
ENDBRANCH   1   2
BRANCH   1  15
ATOM     15  C   UNL     1      33.222  30.661  22.093  1.00  0.00     0.000 C 
BRANCH  15  16
ATOM     16  C   UNL     1      32.845  32.138  22.293  1.00  0.00     0.000 C 
BRANCH  16  17
ATOM     17  C   UNL     1      33.595  32.790  23.465  1.00  0.00     0.000 C 
BRANCH  17  18
ATOM     18  C   UNL     1      34.282  31.727  24.336  1.00  0.00    -0.000 C 
BRANCH  18  19
ATOM     19  C   UNL     1      34.677  32.261  25.723  1.00  0.00    -0.000 C 
BRANCH  19  20
ATOM     20  C   UNL     1      36.079  32.893  25.735  1.00  0.00    -0.000 C 
BRANCH  20  21
ATOM     21  C   UNL     1      36.572  33.126  27.167  1.00  0.00    -0.000 C 
BRANCH  21  22
ATOM     22  C   UNL     1      37.133  34.544  27.327  1.00  0.00    -0.000 C 
BRANCH  22  23
ATOM     23  C   UNL     1      36.158  35.440  28.106  1.00  0.00    -0.000 C 
BRANCH  23  24
ATOM     24  C   UNL     1      35.091  36.090  27.204  1.00  0.00    -0.000 C 
BRANCH  24  25
ATOM     25  C   UNL     1      35.613  36.606  25.852  1.00  0.00    -0.003 C 
ATOM     26  C   UNL     1      34.738  36.183  24.672  1.00  0.00     0.004 C 
ENDBRANCH  24  25
ENDBRANCH  23  24
ENDBRANCH  22  23
ENDBRANCH  21  22
ENDBRANCH  20  21
ENDBRANCH  19  20
ENDBRANCH  18  19
ENDBRANCH  17  18
ENDBRANCH  16  17
ENDBRANCH  15  16
ENDBRANCH   1  15
TORSDOF 22
ENDMDL
