MODEL 1
REMARK VINA RESULT:    -5.236      0.000      0.000
REMARK INTER + INTRA:          -5.786
REMARK INTER:                  -5.695
REMARK INTRA:                  -0.091
REMARK UNBOUND:                -0.091
REMARK SMILES C=C(C)[C@@H]1CC[C@H](C)[C@@H](O)C1
REMARK SMILES IDX 8 1 7 2 6 3 5 4 4 5 11 6 9 7 10 8 2 10 1 11 3 12
REMARK H PARENT 10 9
REMARK Flexibility Score: inf
ROOT
ATOM      1  C   UNL     1      -0.532  18.366  47.371  1.00  0.00     0.010 C 
ATOM      2  C   UNL     1      -1.963  17.845  47.157  1.00  0.00     0.015 C 
ATOM      3  C   UNL     1      -2.786  17.873  48.462  1.00  0.00     0.006 C 
ATOM      4  C   UNL     1      -3.200  19.296  48.867  1.00  0.00     0.008 C 
ATOM      5  C   UNL     1      -3.957  19.997  47.724  1.00  0.00     0.017 C 
ATOM      6  C   UNL     1      -3.114  20.016  46.433  1.00  0.00     0.040 C 
ATOM      7  C   UNL     1      -2.689  18.593  46.011  1.00  0.00     0.117 C 
ENDROOT
BRANCH   7   8
ATOM      8  O   UNL     1      -3.817  17.852  45.618  1.00  0.00    -0.393 OA
ATOM      9  H   UNL     1      -3.775  17.764  44.631  1.00  0.00     0.210 HD
ENDBRANCH   7   8
BRANCH   5  10
ATOM     10  C   UNL     1      -4.386  21.403  48.125  1.00  0.00    -0.077 C 
ATOM     11  C   UNL     1      -5.478  21.979  47.593  1.00  0.00     0.008 C 
ATOM     12  C   UNL     1      -3.585  22.179  49.138  1.00  0.00     0.039 C 
ENDBRANCH   5  10
TORSDOF 2
ENDMDL
MODEL 2
REMARK VINA RESULT:    -5.217      1.618      2.169
REMARK INTER + INTRA:          -5.765
REMARK INTER:                  -5.670
REMARK INTRA:                  -0.095
REMARK UNBOUND:                -0.091
REMARK SMILES C=C(C)[C@@H]1CC[C@H](C)[C@@H](O)C1
REMARK SMILES IDX 8 1 7 2 6 3 5 4 4 5 11 6 9 7 10 8 2 10 1 11 3 12
REMARK H PARENT 10 9
REMARK Flexibility Score: inf
ROOT
ATOM      1  C   UNL     1      -2.796  17.603  46.190  1.00  0.00     0.010 C 
ATOM      2  C   UNL     1      -2.294  17.887  47.615  1.00  0.00     0.015 C 
ATOM      3  C   UNL     1      -1.452  19.179  47.680  1.00  0.00     0.006 C 
ATOM      4  C   UNL     1      -2.310  20.448  47.564  1.00  0.00     0.008 C 
ATOM      5  C   UNL     1      -3.423  20.461  48.629  1.00  0.00     0.017 C 
ATOM      6  C   UNL     1      -4.297  19.194  48.531  1.00  0.00     0.040 C 
ATOM      7  C   UNL     1      -3.450  17.909  48.645  1.00  0.00     0.117 C 
ENDROOT
BRANCH   7   8
ATOM      8  O   UNL     1      -2.915  17.801  49.941  1.00  0.00    -0.393 OA
ATOM      9  H   UNL     1      -2.046  17.330  49.856  1.00  0.00     0.210 HD
ENDBRANCH   7   8
BRANCH   5  10
ATOM     10  C   UNL     1      -4.267  21.725  48.531  1.00  0.00    -0.077 C 
ATOM     11  C   UNL     1      -5.270  21.829  47.642  1.00  0.00     0.008 C 
ATOM     12  C   UNL     1      -3.989  22.893  49.443  1.00  0.00     0.039 C 
ENDBRANCH   5  10
TORSDOF 2
ENDMDL
MODEL 3
REMARK VINA RESULT:    -4.859      1.883      4.166
REMARK INTER + INTRA:          -5.376
REMARK INTER:                  -5.281
REMARK INTRA:                  -0.095
REMARK UNBOUND:                -0.091
REMARK SMILES C=C(C)[C@@H]1CC[C@H](C)[C@@H](O)C1
REMARK SMILES IDX 8 1 7 2 6 3 5 4 4 5 11 6 9 7 10 8 2 10 1 11 3 12
REMARK H PARENT 10 9
REMARK Flexibility Score: inf
ROOT
ATOM      1  C   UNL     1      -4.963  21.250  47.718  1.00  0.00     0.010 C 
ATOM      2  C   UNL     1      -3.538  20.946  48.209  1.00  0.00     0.015 C 
ATOM      3  C   UNL     1      -3.435  19.539  48.837  1.00  0.00     0.006 C 
ATOM      4  C   UNL     1      -3.477  18.421  47.785  1.00  0.00     0.008 C 
ATOM      5  C   UNL     1      -2.388  18.628  46.716  1.00  0.00     0.017 C 
ATOM      6  C   UNL     1      -2.522  20.013  46.051  1.00  0.00     0.040 C 
ATOM      7  C   UNL     1      -2.483  21.150  47.095  1.00  0.00     0.117 C 
ENDROOT
BRANCH   7   8
ATOM      8  O   UNL     1      -1.205  21.223  47.677  1.00  0.00    -0.393 OA
ATOM      9  H   UNL     1      -0.584  20.740  47.072  1.00  0.00     0.210 HD
ENDBRANCH   7   8
BRANCH   5  10
ATOM     10  C   UNL     1      -2.412  17.512  45.679  1.00  0.00    -0.077 C 
ATOM     11  C   UNL     1      -3.567  17.070  45.153  1.00  0.00     0.008 C 
ATOM     12  C   UNL     1      -1.123  16.879  45.220  1.00  0.00     0.039 C 
ENDBRANCH   5  10
TORSDOF 2
ENDMDL
MODEL 4
REMARK VINA RESULT:    -4.852      6.805      8.120
REMARK INTER + INTRA:          -5.368
REMARK INTER:                  -5.278
REMARK INTRA:                  -0.090
REMARK UNBOUND:                -0.091
REMARK SMILES C=C(C)[C@@H]1CC[C@H](C)[C@@H](O)C1
REMARK SMILES IDX 8 1 7 2 6 3 5 4 4 5 11 6 9 7 10 8 2 10 1 11 3 12
REMARK H PARENT 10 9
REMARK Flexibility Score: inf
ROOT
ATOM      1  C   UNL     1      -4.707  25.491  48.262  1.00  0.00     0.010 C 
ATOM      2  C   UNL     1      -5.828  25.577  49.310  1.00  0.00     0.015 C 
ATOM      3  C   UNL     1      -5.782  24.391  50.298  1.00  0.00     0.006 C 
ATOM      4  C   UNL     1      -4.624  24.504  51.301  1.00  0.00     0.008 C 
ATOM      5  C   UNL     1      -4.676  25.846  52.054  1.00  0.00     0.017 C 
ATOM      6  C   UNL     1      -4.670  27.034  51.070  1.00  0.00     0.040 C 
ATOM      7  C   UNL     1      -5.827  26.935  50.053  1.00  0.00     0.117 C 
ENDROOT
BRANCH   7   8
ATOM      8  O   UNL     1      -7.059  27.102  50.711  1.00  0.00    -0.393 OA
ATOM      9  H   UNL     1      -7.531  27.847  50.256  1.00  0.00     0.210 HD
ENDBRANCH   7   8
BRANCH   5  10
ATOM     10  C   UNL     1      -3.541  25.958  53.064  1.00  0.00    -0.077 C 
ATOM     11  C   UNL     1      -2.493  25.117  53.035  1.00  0.00     0.008 C 
ATOM     12  C   UNL     1      -3.576  27.029  54.125  1.00  0.00     0.039 C 
ENDBRANCH   5  10
TORSDOF 2
ENDMDL
MODEL 5
REMARK VINA RESULT:    -4.756      2.731      5.182
REMARK INTER + INTRA:          -5.264
REMARK INTER:                  -5.168
REMARK INTRA:                  -0.096
REMARK UNBOUND:                -0.091
REMARK SMILES C=C(C)[C@@H]1CC[C@H](C)[C@@H](O)C1
REMARK SMILES IDX 8 1 7 2 6 3 5 4 4 5 11 6 9 7 10 8 2 10 1 11 3 12
REMARK H PARENT 10 9
REMARK Flexibility Score: inf
ROOT
ATOM      1  C   UNL     1      -4.009  25.004  47.436  1.00  0.00     0.010 C 
ATOM      2  C   UNL     1      -4.565  24.352  48.713  1.00  0.00     0.015 C 
ATOM      3  C   UNL     1      -5.758  23.420  48.408  1.00  0.00     0.006 C 
ATOM      4  C   UNL     1      -5.324  22.107  47.740  1.00  0.00     0.008 C 
ATOM      5  C   UNL     1      -4.261  21.382  48.587  1.00  0.00     0.017 C 
ATOM      6  C   UNL     1      -3.045  22.294  48.848  1.00  0.00     0.040 C 
ATOM      7  C   UNL     1      -3.464  23.620  49.519  1.00  0.00     0.117 C 
ENDROOT
BRANCH   7   8
ATOM      8  O   UNL     1      -3.933  23.372  50.821  1.00  0.00    -0.393 OA
ATOM      9  H   UNL     1      -3.608  24.115  51.392  1.00  0.00     0.210 HD
ENDBRANCH   7   8
BRANCH   5  10
ATOM     10  C   UNL     1      -3.839  20.069  47.940  1.00  0.00    -0.077 C 
ATOM     11  C   UNL     1      -3.058  20.048  46.846  1.00  0.00     0.008 C 
ATOM     12  C   UNL     1      -4.294  18.757  48.525  1.00  0.00     0.039 C 
ENDBRANCH   5  10
TORSDOF 2
ENDMDL
MODEL 6
REMARK VINA RESULT:    -4.687      1.286      4.153
REMARK INTER + INTRA:          -5.189
REMARK INTER:                  -5.096
REMARK INTRA:                  -0.092
REMARK UNBOUND:                -0.091
REMARK SMILES C=C(C)[C@@H]1CC[C@H](C)[C@@H](O)C1
REMARK SMILES IDX 8 1 7 2 6 3 5 4 4 5 11 6 9 7 10 8 2 10 1 11 3 12
REMARK H PARENT 10 9
REMARK Flexibility Score: inf
ROOT
ATOM      1  C   UNL     1      -3.250  21.816  48.991  1.00  0.00     0.010 C 
ATOM      2  C   UNL     1      -4.057  20.946  48.014  1.00  0.00     0.015 C 
ATOM      3  C   UNL     1      -3.546  21.086  46.564  1.00  0.00     0.006 C 
ATOM      4  C   UNL     1      -2.207  20.368  46.339  1.00  0.00     0.008 C 
ATOM      5  C   UNL     1      -2.299  18.886  46.750  1.00  0.00     0.017 C 
ATOM      6  C   UNL     1      -2.760  18.746  48.215  1.00  0.00     0.040 C 
ATOM      7  C   UNL     1      -4.105  19.463  48.459  1.00  0.00     0.117 C 
ENDROOT
BRANCH   7   8
ATOM      8  O   UNL     1      -5.132  18.805  47.762  1.00  0.00    -0.393 OA
ATOM      9  H   UNL     1      -5.894  18.709  48.391  1.00  0.00     0.210 HD
ENDBRANCH   7   8
BRANCH   5  10
ATOM     10  C   UNL     1      -0.980  18.163  46.512  1.00  0.00    -0.077 C 
ATOM     11  C   UNL     1      -0.889  17.142  45.643  1.00  0.00     0.008 C 
ATOM     12  C   UNL     1       0.260  18.588  47.257  1.00  0.00     0.039 C 
ENDBRANCH   5  10
TORSDOF 2
ENDMDL
MODEL 7
REMARK VINA RESULT:    -4.662      5.397      8.178
REMARK INTER + INTRA:          -5.161
REMARK INTER:                  -5.070
REMARK INTRA:                  -0.091
REMARK UNBOUND:                -0.091
REMARK SMILES C=C(C)[C@@H]1CC[C@H](C)[C@@H](O)C1
REMARK SMILES IDX 8 1 7 2 6 3 5 4 4 5 11 6 9 7 10 8 2 10 1 11 3 12
REMARK H PARENT 10 9
REMARK Flexibility Score: inf
ROOT
ATOM      1  C   UNL     1      -4.663  28.623  48.721  1.00  0.00     0.010 C 
ATOM      2  C   UNL     1      -6.070  28.040  48.930  1.00  0.00     0.015 C 
ATOM      3  C   UNL     1      -6.517  27.176  47.731  1.00  0.00     0.006 C 
ATOM      4  C   UNL     1      -5.795  25.821  47.680  1.00  0.00     0.008 C 
ATOM      5  C   UNL     1      -5.965  25.055  49.004  1.00  0.00     0.017 C 
ATOM      6  C   UNL     1      -5.470  25.897  50.198  1.00  0.00     0.040 C 
ATOM      7  C   UNL     1      -6.186  27.263  50.265  1.00  0.00     0.117 C 
ENDROOT
BRANCH   7   8
ATOM      8  O   UNL     1      -7.544  27.079  50.575  1.00  0.00    -0.393 OA
ATOM      9  H   UNL     1      -7.888  27.951  50.899  1.00  0.00     0.210 HD
ENDBRANCH   7   8
BRANCH   5  10
ATOM     10  C   UNL     1      -5.267  23.702  48.954  1.00  0.00    -0.077 C 
ATOM     11  C   UNL     1      -4.302  23.380  49.834  1.00  0.00     0.008 C 
ATOM     12  C   UNL     1      -5.652  22.690  47.906  1.00  0.00     0.039 C 
ENDBRANCH   5  10
TORSDOF 2
ENDMDL
MODEL 8
REMARK VINA RESULT:    -4.609      4.281      6.962
REMARK INTER + INTRA:          -5.104
REMARK INTER:                  -5.017
REMARK INTRA:                  -0.087
REMARK UNBOUND:                -0.091
REMARK SMILES C=C(C)[C@@H]1CC[C@H](C)[C@@H](O)C1
REMARK SMILES IDX 8 1 7 2 6 3 5 4 4 5 11 6 9 7 10 8 2 10 1 11 3 12
REMARK H PARENT 10 9
REMARK Flexibility Score: inf
ROOT
ATOM      1  C   UNL     1      -4.814  27.385  49.267  1.00  0.00     0.010 C 
ATOM      2  C   UNL     1      -5.365  26.447  50.354  1.00  0.00     0.015 C 
ATOM      3  C   UNL     1      -6.530  25.581  49.827  1.00  0.00     0.006 C 
ATOM      4  C   UNL     1      -6.054  24.464  48.886  1.00  0.00     0.008 C 
ATOM      5  C   UNL     1      -4.981  23.591  49.563  1.00  0.00     0.017 C 
ATOM      6  C   UNL     1      -3.792  24.449  50.043  1.00  0.00     0.040 C 
ATOM      7  C   UNL     1      -4.253  25.578  50.990  1.00  0.00     0.117 C 
ENDROOT
BRANCH   7   8
ATOM      8  O   UNL     1      -4.728  25.030  52.194  1.00  0.00    -0.393 OA
ATOM      9  H   UNL     1      -5.635  25.403  52.344  1.00  0.00     0.210 HD
ENDBRANCH   7   8
BRANCH   5  10
ATOM     10  C   UNL     1      -4.517  22.470  48.642  1.00  0.00    -0.077 C 
ATOM     11  C   UNL     1      -5.285  22.036  47.627  1.00  0.00     0.008 C 
ATOM     12  C   UNL     1      -3.173  21.823  48.855  1.00  0.00     0.039 C 
ENDBRANCH   5  10
TORSDOF 2
ENDMDL
MODEL 9
REMARK VINA RESULT:    -4.445      2.568      3.462
REMARK INTER + INTRA:          -4.926
REMARK INTER:                  -4.835
REMARK INTRA:                  -0.091
REMARK UNBOUND:                -0.091
REMARK SMILES C=C(C)[C@@H]1CC[C@H](C)[C@@H](O)C1
REMARK SMILES IDX 8 1 7 2 6 3 5 4 4 5 11 6 9 7 10 8 2 10 1 11 3 12
REMARK H PARENT 10 9
REMARK Flexibility Score: inf
ROOT
ATOM      1  C   UNL     1      -2.133  22.317  46.196  1.00  0.00     0.010 C 
ATOM      2  C   UNL     1      -2.753  21.330  47.198  1.00  0.00     0.015 C 
ATOM      3  C   UNL     1      -2.345  21.656  48.651  1.00  0.00     0.006 C 
ATOM      4  C   UNL     1      -3.060  22.900  49.199  1.00  0.00     0.008 C 
ATOM      5  C   UNL     1      -4.588  22.758  49.075  1.00  0.00     0.017 C 
ATOM      6  C   UNL     1      -5.002  22.484  47.614  1.00  0.00     0.040 C 
ATOM      7  C   UNL     1      -4.291  21.236  47.048  1.00  0.00     0.117 C 
ENDROOT
BRANCH   7   8
ATOM      8  O   UNL     1      -4.750  20.082  47.707  1.00  0.00    -0.393 OA
ATOM      9  H   UNL     1      -3.959  19.502  47.858  1.00  0.00     0.210 HD
ENDBRANCH   7   8
BRANCH   5  10
ATOM     10  C   UNL     1      -5.305  23.981  49.632  1.00  0.00    -0.077 C 
ATOM     11  C   UNL     1      -6.168  24.688  48.882  1.00  0.00     0.008 C 
ATOM     12  C   UNL     1      -5.056  24.422  51.052  1.00  0.00     0.039 C 
ENDBRANCH   5  10
TORSDOF 2
ENDMDL
