MODEL 1
REMARK VINA RESULT:    -5.739      0.000      0.000
REMARK INTER + INTRA:         -11.960
REMARK INTER:                 -10.771
REMARK INTRA:                  -1.189
REMARK UNBOUND:                -1.189
REMARK SMILES O=C([O-])CCCCCCCCCCCCCCC(=O)[O-]
REMARK SMILES IDX 10 1 9 2 8 3 7 4 6 5 5 6 4 7 2 8 1 9 3 10 11 11 12 12 13 13
REMARK SMILES IDX 14 14 15 15 16 16 17 17 18 18 19 19 20 20
REMARK H PARENT
REMARK Flexibility Score: inf
ROOT
ATOM      1  C   UNL     1      25.838 -11.114  16.216  1.00  0.00     0.000 C 
ENDROOT
BRANCH   1   2
ATOM      2  C   UNL     1      24.654 -11.703  15.432  1.00  0.00     0.000 C 
BRANCH   2   3
ATOM      3  C   UNL     1      23.692 -12.504  16.328  1.00  0.00     0.000 C 
BRANCH   3   4
ATOM      4  C   UNL     1      23.900 -12.200  17.826  1.00  0.00     0.000 C 
BRANCH   4   5
ATOM      5  C   UNL     1      23.504 -13.364  18.756  1.00  0.00     0.000 C 
BRANCH   5   6
ATOM      6  C   UNL     1      22.862 -12.938  20.087  1.00  0.00     0.006 C 
BRANCH   6   7
ATOM      7  C   UNL     1      22.512 -11.445  20.126  1.00  0.00     0.053 C 
BRANCH   7   8
ATOM      8  C   UNL     1      23.300 -10.754  21.193  1.00  0.00     0.041 C 
ATOM      9  O   UNL     1      23.028 -10.948  22.408  1.00  0.00    -0.550 OA
ATOM     10  O   UNL     1      24.304  -9.859  20.846  1.00  0.00    -0.550 OA
ENDBRANCH   7   8
ENDBRANCH   6   7
ENDBRANCH   5   6
ENDBRANCH   4   5
ENDBRANCH   3   4
ENDBRANCH   2   3
ENDBRANCH   1   2
BRANCH   1  11
ATOM     11  C   UNL     1      27.047 -10.814  15.317  1.00  0.00     0.000 C 
BRANCH  11  12
ATOM     12  C   UNL     1      28.358 -11.170  16.026  1.00  0.00     0.000 C 
BRANCH  12  13
ATOM     13  C   UNL     1      29.560 -10.992  15.085  1.00  0.00     0.000 C 
BRANCH  13  14
ATOM     14  C   UNL     1      30.429  -9.781  15.458  1.00  0.00     0.000 C 
BRANCH  14  15
ATOM     15  C   UNL     1      30.869  -9.801  16.929  1.00  0.00     0.000 C 
BRANCH  15  16
ATOM     16  C   UNL     1      30.478  -8.497  17.637  1.00  0.00     0.006 C 
BRANCH  16  17
ATOM     17  C   UNL     1      29.313  -7.811  16.919  1.00  0.00     0.053 C 
BRANCH  17  18
ATOM     18  C   UNL     1      28.188  -7.556  17.872  1.00  0.00     0.041 C 
ATOM     19  O   UNL     1      27.316  -8.443  18.074  1.00  0.00    -0.550 OA
ATOM     20  O   UNL     1      28.074  -6.323  18.501  1.00  0.00    -0.550 OA
ENDBRANCH  17  18
ENDBRANCH  16  17
ENDBRANCH  15  16
ENDBRANCH  14  15
ENDBRANCH  13  14
ENDBRANCH  12  13
ENDBRANCH  11  12
ENDBRANCH   1  11
TORSDOF 15
ENDMDL
MODEL 2
REMARK VINA RESULT:    -5.647      1.739      2.482
REMARK INTER + INTRA:         -11.789
REMARK INTER:                 -10.126
REMARK INTRA:                  -1.662
REMARK UNBOUND:                -1.189
REMARK SMILES O=C([O-])CCCCCCCCCCCCCCC(=O)[O-]
REMARK SMILES IDX 10 1 9 2 8 3 7 4 6 5 5 6 4 7 2 8 1 9 3 10 11 11 12 12 13 13
REMARK SMILES IDX 14 14 15 15 16 16 17 17 18 18 19 19 20 20
REMARK H PARENT
REMARK Flexibility Score: inf
ROOT
ATOM      1  C   UNL     1      26.105 -11.122  15.354  1.00  0.00     0.000 C 
ENDROOT
BRANCH   1   2
ATOM      2  C   UNL     1      24.571 -11.191  15.432  1.00  0.00     0.000 C 
BRANCH   2   3
ATOM      3  C   UNL     1      24.067 -12.550  15.950  1.00  0.00     0.000 C 
BRANCH   3   4
ATOM      4  C   UNL     1      23.190 -12.404  17.212  1.00  0.00     0.000 C 
BRANCH   4   5
ATOM      5  C   UNL     1      23.771 -13.107  18.455  1.00  0.00     0.000 C 
BRANCH   5   6
ATOM      6  C   UNL     1      22.912 -12.988  19.726  1.00  0.00     0.006 C 
BRANCH   6   7
ATOM      7  C   UNL     1      22.432 -11.554  19.984  1.00  0.00     0.053 C 
BRANCH   7   8
ATOM      8  C   UNL     1      23.199 -10.945  21.115  1.00  0.00     0.041 C 
ATOM      9  O   UNL     1      22.966 -11.298  22.301  1.00  0.00    -0.550 OA
ATOM     10  O   UNL     1      24.137  -9.952  20.863  1.00  0.00    -0.550 OA
ENDBRANCH   7   8
ENDBRANCH   6   7
ENDBRANCH   5   6
ENDBRANCH   4   5
ENDBRANCH   3   4
ENDBRANCH   2   3
ENDBRANCH   1   2
BRANCH   1  11
ATOM     11  C   UNL     1      26.768 -11.210  16.737  1.00  0.00     0.000 C 
BRANCH  11  12
ATOM     12  C   UNL     1      26.233 -10.119  17.672  1.00  0.00     0.000 C 
BRANCH  12  13
ATOM     13  C   UNL     1      27.170  -9.912  18.870  1.00  0.00     0.000 C 
BRANCH  13  14
ATOM     14  C   UNL     1      28.316  -8.935  18.564  1.00  0.00     0.000 C 
BRANCH  14  15
ATOM     15  C   UNL     1      27.846  -7.704  17.774  1.00  0.00     0.000 C 
BRANCH  15  16
ATOM     16  C   UNL     1      28.889  -7.294  16.727  1.00  0.00     0.006 C 
BRANCH  16  17
ATOM     17  C   UNL     1      28.807  -8.192  15.489  1.00  0.00     0.053 C 
BRANCH  17  18
ATOM     18  C   UNL     1      29.928  -9.183  15.486  1.00  0.00     0.041 C 
ATOM     19  O   UNL     1      29.760 -10.328  14.988  1.00  0.00    -0.550 OA
ATOM     20  O   UNL     1      31.143  -8.862  16.077  1.00  0.00    -0.550 OA
ENDBRANCH  17  18
ENDBRANCH  16  17
ENDBRANCH  15  16
ENDBRANCH  14  15
ENDBRANCH  13  14
ENDBRANCH  12  13
ENDBRANCH  11  12
ENDBRANCH   1  11
TORSDOF 15
ENDMDL
MODEL 3
REMARK VINA RESULT:    -5.507      1.879      7.080
REMARK INTER + INTRA:         -11.525
REMARK INTER:                 -10.029
REMARK INTRA:                  -1.496
REMARK UNBOUND:                -1.189
REMARK SMILES O=C([O-])CCCCCCCCCCCCCCC(=O)[O-]
REMARK SMILES IDX 10 1 9 2 8 3 7 4 6 5 5 6 4 7 2 8 1 9 3 10 11 11 12 12 13 13
REMARK SMILES IDX 14 14 15 15 16 16 17 17 18 18 19 19 20 20
REMARK H PARENT
REMARK Flexibility Score: inf
ROOT
ATOM      1  C   UNL     1      26.083 -10.082  17.221  1.00  0.00     0.000 C 
ENDROOT
BRANCH   1   2
ATOM      2  C   UNL     1      26.987 -10.240  18.455  1.00  0.00     0.000 C 
BRANCH   2   3
ATOM      3  C   UNL     1      28.216  -9.315  18.409  1.00  0.00     0.000 C 
BRANCH   3   4
ATOM      4  C   UNL     1      27.874  -7.917  17.850  1.00  0.00     0.000 C 
BRANCH   4   5
ATOM      5  C   UNL     1      28.822  -7.450  16.728  1.00  0.00     0.000 C 
BRANCH   5   6
ATOM      6  C   UNL     1      28.857  -8.361  15.489  1.00  0.00     0.006 C 
BRANCH   6   7
ATOM      7  C   UNL     1      30.140  -9.197  15.405  1.00  0.00     0.053 C 
BRANCH   7   8
ATOM      8  C   UNL     1      29.809 -10.656  15.379  1.00  0.00     0.041 C 
ATOM      9  O   UNL     1      30.137 -11.398  16.343  1.00  0.00    -0.550 OA
ATOM     10  O   UNL     1      29.182 -11.206  14.268  1.00  0.00    -0.550 OA
ENDBRANCH   7   8
ENDBRANCH   6   7
ENDBRANCH   5   6
ENDBRANCH   4   5
ENDBRANCH   3   4
ENDBRANCH   2   3
ENDBRANCH   1   2
BRANCH   1  11
ATOM     11  C   UNL     1      25.936 -11.391  16.429  1.00  0.00     0.000 C 
BRANCH  11  12
ATOM     12  C   UNL     1      24.525 -11.524  15.847  1.00  0.00     0.000 C 
BRANCH  12  13
ATOM     13  C   UNL     1      23.732 -12.624  16.570  1.00  0.00     0.000 C 
BRANCH  13  14
ATOM     14  C   UNL     1      24.485 -13.198  17.780  1.00  0.00     0.000 C 
BRANCH  14  15
ATOM     15  C   UNL     1      23.575 -13.391  19.003  1.00  0.00     0.000 C 
BRANCH  15  16
ATOM     16  C   UNL     1      22.682 -12.163  19.222  1.00  0.00     0.006 C 
BRANCH  16  17
ATOM     17  C   UNL     1      22.456 -11.907  20.715  1.00  0.00     0.053 C 
BRANCH  17  18
ATOM     18  C   UNL     1      23.313 -10.776  21.189  1.00  0.00     0.041 C 
ATOM     19  O   UNL     1      23.363 -10.489  22.414  1.00  0.00    -0.550 OA
ATOM     20  O   UNL     1      24.019 -10.007  20.273  1.00  0.00    -0.550 OA
ENDBRANCH  17  18
ENDBRANCH  16  17
ENDBRANCH  15  16
ENDBRANCH  14  15
ENDBRANCH  13  14
ENDBRANCH  12  13
ENDBRANCH  11  12
ENDBRANCH   1  11
TORSDOF 15
ENDMDL
MODEL 4
REMARK VINA RESULT:    -5.489      1.174      1.687
REMARK INTER + INTRA:         -11.491
REMARK INTER:                 -10.667
REMARK INTRA:                  -0.823
REMARK UNBOUND:                -1.189
REMARK SMILES O=C([O-])CCCCCCCCCCCCCCC(=O)[O-]
REMARK SMILES IDX 10 1 9 2 8 3 7 4 6 5 5 6 4 7 2 8 1 9 3 10 11 11 12 12 13 13
REMARK SMILES IDX 14 14 15 15 16 16 17 17 18 18 19 19 20 20
REMARK H PARENT
REMARK Flexibility Score: inf
ROOT
ATOM      1  C   UNL     1      25.238 -11.456  16.201  1.00  0.00     0.000 C 
ENDROOT
BRANCH   1   2
ATOM      2  C   UNL     1      23.952 -12.194  15.794  1.00  0.00     0.000 C 
BRANCH   2   3
ATOM      3  C   UNL     1      23.077 -12.569  17.004  1.00  0.00     0.000 C 
BRANCH   3   4
ATOM      4  C   UNL     1      23.884 -12.599  18.320  1.00  0.00     0.000 C 
BRANCH   4   5
ATOM      5  C   UNL     1      23.264 -13.499  19.407  1.00  0.00     0.000 C 
BRANCH   5   6
ATOM      6  C   UNL     1      22.711 -12.749  20.630  1.00  0.00     0.006 C 
BRANCH   6   7
ATOM      7  C   UNL     1      22.515 -11.251  20.367  1.00  0.00     0.053 C 
BRANCH   7   8
ATOM      8  C   UNL     1      23.435 -10.447  21.230  1.00  0.00     0.041 C 
ATOM      9  O   UNL     1      24.404  -9.826  20.718  1.00  0.00    -0.550 OA
ATOM     10  O   UNL     1      23.253 -10.423  22.607  1.00  0.00    -0.550 OA
ENDBRANCH   7   8
ENDBRANCH   6   7
ENDBRANCH   5   6
ENDBRANCH   4   5
ENDBRANCH   3   4
ENDBRANCH   2   3
ENDBRANCH   1   2
BRANCH   1  11
ATOM     11  C   UNL     1      26.092 -11.052  14.989  1.00  0.00     0.000 C 
BRANCH  11  12
ATOM     12  C   UNL     1      27.293 -10.205  15.423  1.00  0.00     0.000 C 
BRANCH  12  13
ATOM     13  C   UNL     1      28.417 -11.088  15.983  1.00  0.00     0.000 C 
BRANCH  13  14
ATOM     14  C   UNL     1      29.800 -10.708  15.432  1.00  0.00     0.000 C 
BRANCH  14  15
ATOM     15  C   UNL     1      30.810 -10.384  16.544  1.00  0.00     0.000 C 
BRANCH  15  16
ATOM     16  C   UNL     1      30.439  -9.078  17.258  1.00  0.00     0.006 C 
BRANCH  16  17
ATOM     17  C   UNL     1      30.342  -7.917  16.264  1.00  0.00     0.053 C 
BRANCH  17  18
ATOM     18  C   UNL     1      30.376  -6.606  16.985  1.00  0.00     0.041 C 
ATOM     19  O   UNL     1      30.978  -5.621  16.481  1.00  0.00    -0.550 OA
ATOM     20  O   UNL     1      29.785  -6.485  18.236  1.00  0.00    -0.550 OA
ENDBRANCH  17  18
ENDBRANCH  16  17
ENDBRANCH  15  16
ENDBRANCH  14  15
ENDBRANCH  13  14
ENDBRANCH  12  13
ENDBRANCH  11  12
ENDBRANCH   1  11
TORSDOF 15
ENDMDL
MODEL 5
REMARK VINA RESULT:    -5.483      0.883      6.746
REMARK INTER + INTRA:         -11.480
REMARK INTER:                 -10.055
REMARK INTRA:                  -1.425
REMARK UNBOUND:                -1.189
REMARK SMILES O=C([O-])CCCCCCCCCCCCCCC(=O)[O-]
REMARK SMILES IDX 10 1 9 2 8 3 7 4 6 5 5 6 4 7 2 8 1 9 3 10 11 11 12 12 13 13
REMARK SMILES IDX 14 14 15 15 16 16 17 17 18 18 19 19 20 20
REMARK H PARENT
REMARK Flexibility Score: inf
ROOT
ATOM      1  C   UNL     1      28.276 -11.272  16.507  1.00  0.00     0.000 C 
ENDROOT
BRANCH   1   2
ATOM      2  C   UNL     1      29.792 -11.425  16.709  1.00  0.00     0.000 C 
BRANCH   2   3
ATOM      3  C   UNL     1      30.607 -10.806  15.559  1.00  0.00     0.000 C 
BRANCH   3   4
ATOM      4  C   UNL     1      31.524  -9.663  16.044  1.00  0.00     0.000 C 
BRANCH   4   5
ATOM      5  C   UNL     1      30.975  -8.906  17.269  1.00  0.00     0.000 C 
BRANCH   5   6
ATOM      6  C   UNL     1      30.399  -7.513  16.963  1.00  0.00     0.006 C 
BRANCH   6   7
ATOM      7  C   UNL     1      28.905  -7.552  16.621  1.00  0.00     0.053 C 
BRANCH   7   8
ATOM      8  C   UNL     1      28.083  -7.386  17.861  1.00  0.00     0.041 C 
ATOM      9  O   UNL     1      27.436  -8.361  18.326  1.00  0.00    -0.550 OA
ATOM     10  O   UNL     1      27.994  -6.143  18.474  1.00  0.00    -0.550 OA
ENDBRANCH   7   8
ENDBRANCH   6   7
ENDBRANCH   5   6
ENDBRANCH   4   5
ENDBRANCH   3   4
ENDBRANCH   2   3
ENDBRANCH   1   2
BRANCH   1  11
ATOM     11  C   UNL     1      27.920 -10.740  15.110  1.00  0.00     0.000 C 
BRANCH  11  12
ATOM     12  C   UNL     1      26.479 -11.106  14.736  1.00  0.00     0.000 C 
BRANCH  12  13
ATOM     13  C   UNL     1      25.624 -11.331  15.993  1.00  0.00     0.000 C 
BRANCH  13  14
ATOM     14  C   UNL     1      24.138 -11.552  15.666  1.00  0.00     0.000 C 
BRANCH  14  15
ATOM     15  C   UNL     1      23.489 -12.616  16.564  1.00  0.00     0.000 C 
BRANCH  15  16
ATOM     16  C   UNL     1      23.927 -12.443  18.024  1.00  0.00     0.006 C 
BRANCH  16  17
ATOM     17  C   UNL     1      22.736 -12.590  18.976  1.00  0.00     0.053 C 
BRANCH  17  18
ATOM     18  C   UNL     1      22.871 -11.652  20.133  1.00  0.00     0.041 C 
ATOM     19  O   UNL     1      22.229 -11.861  21.196  1.00  0.00    -0.550 OA
ATOM     20  O   UNL     1      23.666 -10.519  20.021  1.00  0.00    -0.550 OA
ENDBRANCH  17  18
ENDBRANCH  16  17
ENDBRANCH  15  16
ENDBRANCH  14  15
ENDBRANCH  13  14
ENDBRANCH  12  13
ENDBRANCH  11  12
ENDBRANCH   1  11
TORSDOF 15
ENDMDL
MODEL 6
REMARK VINA RESULT:    -5.444      2.780      3.132
REMARK INTER + INTRA:         -11.407
REMARK INTER:                 -10.667
REMARK INTRA:                  -0.739
REMARK UNBOUND:                -1.189
REMARK SMILES O=C([O-])CCCCCCCCCCCCCCC(=O)[O-]
REMARK SMILES IDX 10 1 9 2 8 3 7 4 6 5 5 6 4 7 2 8 1 9 3 10 11 11 12 12 13 13
REMARK SMILES IDX 14 14 15 15 16 16 17 17 18 18 19 19 20 20
REMARK H PARENT
REMARK Flexibility Score: inf
ROOT
ATOM      1  C   UNL     1      26.134 -11.209  16.178  1.00  0.00     0.000 C 
ENDROOT
BRANCH   1   2
ATOM      2  C   UNL     1      24.792 -11.350  15.441  1.00  0.00     0.000 C 
BRANCH   2   3
ATOM      3  C   UNL     1      23.801 -12.262  16.187  1.00  0.00     0.000 C 
BRANCH   3   4
ATOM      4  C   UNL     1      24.048 -12.269  17.711  1.00  0.00     0.000 C 
BRANCH   4   5
ATOM      5  C   UNL     1      22.795 -12.612  18.540  1.00  0.00     0.000 C 
BRANCH   5   6
ATOM      6  C   UNL     1      23.040 -12.757  20.052  1.00  0.00     0.006 C 
BRANCH   6   7
ATOM      7  C   UNL     1      22.337 -11.668  20.872  1.00  0.00     0.053 C 
BRANCH   7   8
ATOM      8  C   UNL     1      23.332 -10.663  21.361  1.00  0.00     0.041 C 
ATOM      9  O   UNL     1      23.452 -10.439  22.595  1.00  0.00    -0.550 OA
ATOM     10  O   UNL     1      24.091  -9.937  20.452  1.00  0.00    -0.550 OA
ENDBRANCH   7   8
ENDBRANCH   6   7
ENDBRANCH   5   6
ENDBRANCH   4   5
ENDBRANCH   3   4
ENDBRANCH   2   3
ENDBRANCH   1   2
BRANCH   1  11
ATOM     11  C   UNL     1      27.275 -10.778  15.243  1.00  0.00     0.000 C 
BRANCH  11  12
ATOM     12  C   UNL     1      28.081  -9.628  15.858  1.00  0.00     0.000 C 
BRANCH  12  13
ATOM     13  C   UNL     1      29.111 -10.156  16.868  1.00  0.00     0.000 C 
BRANCH  13  14
ATOM     14  C   UNL     1      30.285 -10.882  16.192  1.00  0.00     0.000 C 
BRANCH  14  15
ATOM     15  C   UNL     1      31.440  -9.934  15.837  1.00  0.00     0.000 C 
BRANCH  15  16
ATOM     16  C   UNL     1      31.956  -9.207  17.085  1.00  0.00     0.006 C 
BRANCH  16  17
ATOM     17  C   UNL     1      33.244  -8.436  16.779  1.00  0.00     0.053 C 
BRANCH  17  18
ATOM     18  C   UNL     1      34.443  -9.283  17.068  1.00  0.00     0.041 C 
ATOM     19  O   UNL     1      35.067  -9.840  16.126  1.00  0.00    -0.550 OA
ATOM     20  O   UNL     1      34.843  -9.499  18.380  1.00  0.00    -0.550 OA
ENDBRANCH  17  18
ENDBRANCH  16  17
ENDBRANCH  15  16
ENDBRANCH  14  15
ENDBRANCH  13  14
ENDBRANCH  12  13
ENDBRANCH  11  12
ENDBRANCH   1  11
TORSDOF 15
ENDMDL
MODEL 7
REMARK VINA RESULT:    -5.414      2.238      7.556
REMARK INTER + INTRA:         -11.350
REMARK INTER:                 -10.346
REMARK INTRA:                  -1.004
REMARK UNBOUND:                -1.189
REMARK SMILES O=C([O-])CCCCCCCCCCCCCCC(=O)[O-]
REMARK SMILES IDX 10 1 9 2 8 3 7 4 6 5 5 6 4 7 2 8 1 9 3 10 11 11 12 12 13 13
REMARK SMILES IDX 14 14 15 15 16 16 17 17 18 18 19 19 20 20
REMARK H PARENT
REMARK Flexibility Score: inf
ROOT
ATOM      1  C   UNL     1      26.826 -10.604  15.756  1.00  0.00     0.000 C 
ENDROOT
BRANCH   1   2
ATOM      2  C   UNL     1      26.548 -10.326  17.242  1.00  0.00     0.000 C 
BRANCH   2   3
ATOM      3  C   UNL     1      27.819  -9.940  18.019  1.00  0.00     0.000 C 
BRANCH   3   4
ATOM      4  C   UNL     1      28.208  -8.462  17.804  1.00  0.00     0.000 C 
BRANCH   4   5
ATOM      5  C   UNL     1      29.660  -8.267  17.327  1.00  0.00     0.000 C 
BRANCH   5   6
ATOM      6  C   UNL     1      30.302  -9.508  16.684  1.00  0.00     0.006 C 
BRANCH   6   7
ATOM      7  C   UNL     1      31.318  -9.151  15.592  1.00  0.00     0.053 C 
BRANCH   7   8
ATOM      8  C   UNL     1      32.693  -9.053  16.174  1.00  0.00     0.041 C 
ATOM      9  O   UNL     1      32.898  -9.374  17.375  1.00  0.00    -0.550 OA
ATOM     10  O   UNL     1      33.739  -8.559  15.405  1.00  0.00    -0.550 OA
ENDBRANCH   7   8
ENDBRANCH   6   7
ENDBRANCH   5   6
ENDBRANCH   4   5
ENDBRANCH   3   4
ENDBRANCH   2   3
ENDBRANCH   1   2
BRANCH   1  11
ATOM     11  C   UNL     1      25.730 -11.462  15.103  1.00  0.00     0.000 C 
BRANCH  11  12
ATOM     12  C   UNL     1      24.380 -11.243  15.795  1.00  0.00     0.000 C 
BRANCH  12  13
ATOM     13  C   UNL     1      23.768 -12.579  16.243  1.00  0.00     0.000 C 
BRANCH  13  14
ATOM     14  C   UNL     1      23.959 -12.843  17.745  1.00  0.00     0.000 C 
BRANCH  14  15
ATOM     15  C   UNL     1      22.713 -12.486  18.569  1.00  0.00     0.000 C 
BRANCH  15  16
ATOM     16  C   UNL     1      22.954 -12.735  20.064  1.00  0.00     0.006 C 
BRANCH  16  17
ATOM     17  C   UNL     1      22.344 -11.616  20.912  1.00  0.00     0.053 C 
BRANCH  17  18
ATOM     18  C   UNL     1      23.403 -10.650  21.343  1.00  0.00     0.041 C 
ATOM     19  O   UNL     1      23.546 -10.370  22.563  1.00  0.00    -0.550 OA
ATOM     20  O   UNL     1      24.199 -10.021  20.395  1.00  0.00    -0.550 OA
ENDBRANCH  17  18
ENDBRANCH  16  17
ENDBRANCH  15  16
ENDBRANCH  14  15
ENDBRANCH  13  14
ENDBRANCH  12  13
ENDBRANCH  11  12
ENDBRANCH   1  11
TORSDOF 15
ENDMDL
MODEL 8
REMARK VINA RESULT:    -5.336      2.715      5.740
REMARK INTER + INTRA:         -11.205
REMARK INTER:                  -9.414
REMARK INTRA:                  -1.790
REMARK UNBOUND:                -1.189
REMARK SMILES O=C([O-])CCCCCCCCCCCCCCC(=O)[O-]
REMARK SMILES IDX 10 1 9 2 8 3 7 4 6 5 5 6 4 7 2 8 1 9 3 10 11 11 12 12 13 13
REMARK SMILES IDX 14 14 15 15 16 16 17 17 18 18 19 19 20 20
REMARK H PARENT
REMARK Flexibility Score: inf
ROOT
ATOM      1  C   UNL     1      22.818 -11.812  19.425  1.00  0.00     0.000 C 
ENDROOT
BRANCH   1   2
ATOM      2  C   UNL     1      22.986 -11.198  20.825  1.00  0.00     0.000 C 
BRANCH   2   3
ATOM      3  C   UNL     1      23.945  -9.994  20.830  1.00  0.00     0.000 C 
BRANCH   3   4
ATOM      4  C   UNL     1      24.786  -9.912  19.539  1.00  0.00     0.000 C 
BRANCH   4   5
ATOM      5  C   UNL     1      26.255  -9.512  19.780  1.00  0.00     0.000 C 
BRANCH   5   6
ATOM      6  C   UNL     1      27.111  -9.394  18.507  1.00  0.00     0.006 C 
BRANCH   6   7
ATOM      7  C   UNL     1      27.726  -8.000  18.335  1.00  0.00     0.053 C 
BRANCH   7   8
ATOM      8  C   UNL     1      28.812  -8.035  17.306  1.00  0.00     0.041 C 
ATOM      9  O   UNL     1      29.980  -8.380  17.628  1.00  0.00    -0.550 OA
ATOM     10  O   UNL     1      28.546  -7.639  16.001  1.00  0.00    -0.550 OA
ENDBRANCH   7   8
ENDBRANCH   6   7
ENDBRANCH   5   6
ENDBRANCH   4   5
ENDBRANCH   3   4
ENDBRANCH   2   3
ENDBRANCH   1   2
BRANCH   1  11
ATOM     11  C   UNL     1      23.115 -13.319  19.405  1.00  0.00     0.000 C 
BRANCH  11  12
ATOM     12  C   UNL     1      24.104 -13.667  18.287  1.00  0.00     0.000 C 
BRANCH  12  13
ATOM     13  C   UNL     1      23.956 -12.703  17.101  1.00  0.00     0.000 C 
BRANCH  13  14
ATOM     14  C   UNL     1      25.260 -11.956  16.778  1.00  0.00     0.000 C 
BRANCH  14  15
ATOM     15  C   UNL     1      25.250 -11.331  15.375  1.00  0.00     0.000 C 
BRANCH  15  16
ATOM     16  C   UNL     1      26.471 -10.425  15.170  1.00  0.00     0.006 C 
BRANCH  16  17
ATOM     17  C   UNL     1      27.612 -11.187  14.490  1.00  0.00     0.053 C 
BRANCH  17  18
ATOM     18  C   UNL     1      28.862 -11.098  15.307  1.00  0.00     0.041 C 
ATOM     19  O   UNL     1      29.923 -10.654  14.794  1.00  0.00    -0.550 OA
ATOM     20  O   UNL     1      28.868 -11.549  16.620  1.00  0.00    -0.550 OA
ENDBRANCH  17  18
ENDBRANCH  16  17
ENDBRANCH  15  16
ENDBRANCH  14  15
ENDBRANCH  13  14
ENDBRANCH  12  13
ENDBRANCH  11  12
ENDBRANCH   1  11
TORSDOF 15
ENDMDL
MODEL 9
REMARK VINA RESULT:    -5.265      3.190      8.571
REMARK INTER + INTRA:         -11.070
REMARK INTER:                 -10.435
REMARK INTRA:                  -0.635
REMARK UNBOUND:                -1.189
REMARK SMILES O=C([O-])CCCCCCCCCCCCCCC(=O)[O-]
REMARK SMILES IDX 10 1 9 2 8 3 7 4 6 5 5 6 4 7 2 8 1 9 3 10 11 11 12 12 13 13
REMARK SMILES IDX 14 14 15 15 16 16 17 17 18 18 19 19 20 20
REMARK H PARENT
REMARK Flexibility Score: inf
ROOT
ATOM      1  C   UNL     1      27.558 -11.013  16.088  1.00  0.00     0.000 C 
ENDROOT
BRANCH   1   2
ATOM      2  C   UNL     1      28.679  -9.967  15.973  1.00  0.00     0.000 C 
BRANCH   2   3
ATOM      3  C   UNL     1      29.315  -9.629  17.333  1.00  0.00     0.000 C 
BRANCH   3   4
ATOM      4  C   UNL     1      30.637  -8.848  17.181  1.00  0.00     0.000 C 
BRANCH   4   5
ATOM      5  C   UNL     1      31.875  -9.753  17.017  1.00  0.00     0.000 C 
BRANCH   5   6
ATOM      6  C   UNL     1      33.225  -9.041  17.207  1.00  0.00     0.006 C 
BRANCH   6   7
ATOM      7  C   UNL     1      33.775  -8.455  15.900  1.00  0.00     0.053 C 
BRANCH   7   8
ATOM      8  C   UNL     1      34.967  -9.236  15.442  1.00  0.00     0.041 C 
ATOM      9  O   UNL     1      35.837  -9.609  16.273  1.00  0.00    -0.550 OA
ATOM     10  O   UNL     1      35.142  -9.507  14.091  1.00  0.00    -0.550 OA
ENDBRANCH   7   8
ENDBRANCH   6   7
ENDBRANCH   5   6
ENDBRANCH   4   5
ENDBRANCH   3   4
ENDBRANCH   2   3
ENDBRANCH   1   2
BRANCH   1  11
ATOM     11  C   UNL     1      26.661 -11.053  14.841  1.00  0.00     0.000 C 
BRANCH  11  12
ATOM     12  C   UNL     1      25.179 -11.002  15.230  1.00  0.00     0.000 C 
BRANCH  12  13
ATOM     13  C   UNL     1      24.978 -11.438  16.689  1.00  0.00     0.000 C 
BRANCH  13  14
ATOM     14  C   UNL     1      23.872 -12.493  16.845  1.00  0.00     0.000 C 
BRANCH  14  15
ATOM     15  C   UNL     1      23.715 -12.973  18.296  1.00  0.00     0.000 C 
BRANCH  15  16
ATOM     16  C   UNL     1      22.580 -12.221  19.003  1.00  0.00     0.006 C 
BRANCH  16  17
ATOM     17  C   UNL     1      22.677 -12.383  20.523  1.00  0.00     0.053 C 
BRANCH  17  18
ATOM     18  C   UNL     1      23.155 -11.114  21.156  1.00  0.00     0.041 C 
ATOM     19  O   UNL     1      23.616 -10.185  20.442  1.00  0.00    -0.550 OA
ATOM     20  O   UNL     1      23.136 -10.976  22.538  1.00  0.00    -0.550 OA
ENDBRANCH  17  18
ENDBRANCH  16  17
ENDBRANCH  15  16
ENDBRANCH  14  15
ENDBRANCH  13  14
ENDBRANCH  12  13
ENDBRANCH  11  12
ENDBRANCH   1  11
TORSDOF 15
ENDMDL
