MODEL 1
REMARK VINA RESULT:    -6.664      0.000      0.000
REMARK INTER + INTRA:          -7.936
REMARK INTER:                  -7.833
REMARK INTRA:                  -0.104
REMARK UNBOUND:                -0.104
REMARK SMILES O=c1c(O)c(-c2ccc(O)cc2)oc2cc(O)cc(O)c12
REMARK SMILES IDX 5 1 3 2 2 3 1 4 21 5 19 6 18 7 16 8 15 9 14 10 13 11 6 12
REMARK SMILES IDX 7 13 8 14 9 15 12 16 11 17 10 18 4 20 20 22 17 24
REMARK H PARENT 10 19 4 21 20 23 17 25
REMARK Flexibility Score: inf
ROOT
ATOM      1  C   UNL     1       4.866 -60.253 190.009  1.00  0.00     0.180 A 
ATOM      2  C   UNL     1       3.532 -60.438 189.608  1.00  0.00     0.208 A 
ATOM      3  C   UNL     1       3.198 -61.573 188.853  1.00  0.00     0.238 A 
ATOM      4  O   UNL     1       2.012 -61.705 188.451  1.00  0.00    -0.285 OA
ATOM      5  C   UNL     1       4.199 -62.517 188.521  1.00  0.00     0.111 A 
ATOM      6  C   UNL     1       3.967 -63.724 187.793  1.00  0.00     0.134 A 
ATOM      7  C   UNL     1       5.054 -64.518 187.408  1.00  0.00     0.093 A 
ATOM      8  C   UNL     1       6.358 -64.184 187.781  1.00  0.00     0.123 A 
ATOM      9  C   UNL     1       6.589 -63.041 188.542  1.00  0.00     0.094 A 
ATOM     10  C   UNL     1       5.529 -62.209 188.909  1.00  0.00     0.146 A 
ATOM     11  O   UNL     1       5.794 -61.122 189.626  1.00  0.00    -0.452 OA
ENDROOT
BRANCH   1  12
ATOM     12  C   UNL     1       5.289 -59.095 190.828  1.00  0.00     0.021 A 
ATOM     13  C   UNL     1       5.842 -59.266 192.110  1.00  0.00     0.016 A 
ATOM     14  C   UNL     1       6.257 -58.158 192.855  1.00  0.00     0.047 A 
ATOM     15  C   UNL     1       6.139 -56.867 192.323  1.00  0.00     0.115 A 
ATOM     16  C   UNL     1       5.193 -57.799 190.294  1.00  0.00     0.016 A 
ATOM     17  C   UNL     1       5.609 -56.692 191.041  1.00  0.00     0.047 A 
BRANCH  15  18
ATOM     18  O   UNL     1       6.548 -55.756 193.056  1.00  0.00    -0.508 OA
ATOM     19  H   UNL     1       7.237 -55.108 192.696  1.00  0.00     0.293 HD
ENDBRANCH  15  18
ENDBRANCH   1  12
BRANCH   2  20
ATOM     20  O   UNL     1       2.562 -59.482 189.928  1.00  0.00    -0.502 OA
ATOM     21  H   UNL     1       1.970 -59.054 189.229  1.00  0.00     0.293 HD
ENDBRANCH   2  20
BRANCH   6  22
ATOM     22  O   UNL     1       2.697 -64.196 187.451  1.00  0.00    -0.507 OA
ATOM     23  H   UNL     1       1.979 -63.644 187.006  1.00  0.00     0.293 HD
ENDBRANCH   6  22
BRANCH   8  24
ATOM     24  O   UNL     1       7.432 -64.989 187.408  1.00  0.00    -0.508 OA
ATOM     25  H   UNL     1       7.457 -65.978 187.631  1.00  0.00     0.293 HD
ENDBRANCH   8  24
TORSDOF 5
ENDMDL
MODEL 2
REMARK VINA RESULT:    -6.466      1.389      2.998
REMARK INTER + INTRA:          -7.704
REMARK INTER:                  -7.724
REMARK INTRA:                   0.020
REMARK UNBOUND:                -0.104
REMARK SMILES O=c1c(O)c(-c2ccc(O)cc2)oc2cc(O)cc(O)c12
REMARK SMILES IDX 5 1 3 2 2 3 1 4 21 5 19 6 18 7 16 8 15 9 14 10 13 11 6 12
REMARK SMILES IDX 7 13 8 14 9 15 12 16 11 17 10 18 4 20 20 22 17 24
REMARK H PARENT 10 19 4 21 20 23 17 25
REMARK Flexibility Score: inf
ROOT
ATOM      1  C   UNL     1       5.656 -60.978 189.966  1.00  0.00     0.180 A 
ATOM      2  C   UNL     1       6.910 -61.613 189.985  1.00  0.00     0.208 A 
ATOM      3  C   UNL     1       7.097 -62.777 189.223  1.00  0.00     0.238 A 
ATOM      4  O   UNL     1       8.206 -63.371 189.287  1.00  0.00    -0.285 OA
ATOM      5  C   UNL     1       6.033 -63.283 188.439  1.00  0.00     0.111 A 
ATOM      6  C   UNL     1       6.122 -64.434 187.597  1.00  0.00     0.134 A 
ATOM      7  C   UNL     1       4.969 -64.921 186.970  1.00  0.00     0.093 A 
ATOM      8  C   UNL     1       3.744 -64.261 187.100  1.00  0.00     0.123 A 
ATOM      9  C   UNL     1       3.660 -63.104 187.871  1.00  0.00     0.094 A 
ATOM     10  C   UNL     1       4.785 -62.615 188.539  1.00  0.00     0.146 A 
ATOM     11  O   UNL     1       4.659 -61.515 189.273  1.00  0.00    -0.452 OA
ENDROOT
BRANCH   1  12
ATOM     12  C   UNL     1       5.391 -59.734 190.722  1.00  0.00     0.021 A 
ATOM     13  C   UNL     1       5.678 -59.637 192.097  1.00  0.00     0.016 A 
ATOM     14  C   UNL     1       5.442 -58.442 192.785  1.00  0.00     0.047 A 
ATOM     15  C   UNL     1       4.931 -57.328 192.107  1.00  0.00     0.115 A 
ATOM     16  C   UNL     1       4.899 -58.605 190.047  1.00  0.00     0.016 A 
ATOM     17  C   UNL     1       4.664 -57.412 190.738  1.00  0.00     0.047 A 
BRANCH  15  18
ATOM     18  O   UNL     1       4.692 -56.134 192.783  1.00  0.00    -0.508 OA
ATOM     19  H   UNL     1       4.351 -55.311 192.301  1.00  0.00     0.293 HD
ENDBRANCH  15  18
ENDBRANCH   1  12
BRANCH   2  20
ATOM     20  O   UNL     1       7.942 -61.108 190.783  1.00  0.00    -0.502 OA
ATOM     21  H   UNL     1       7.770 -60.488 191.564  1.00  0.00     0.293 HD
ENDBRANCH   2  20
BRANCH   6  22
ATOM     22  O   UNL     1       7.313 -65.111 187.326  1.00  0.00    -0.507 OA
ATOM     23  H   UNL     1       7.730 -65.806 187.929  1.00  0.00     0.293 HD
ENDBRANCH   6  22
BRANCH   8  24
ATOM     24  O   UNL     1       2.606 -64.743 186.459  1.00  0.00    -0.508 OA
ATOM     25  H   UNL     1       2.597 -64.930 185.462  1.00  0.00     0.293 HD
ENDBRANCH   8  24
TORSDOF 5
ENDMDL
MODEL 3
REMARK VINA RESULT:    -6.166      2.067      2.617
REMARK INTER + INTRA:          -7.351
REMARK INTER:                  -7.057
REMARK INTRA:                  -0.294
REMARK UNBOUND:                -0.104
REMARK SMILES O=c1c(O)c(-c2ccc(O)cc2)oc2cc(O)cc(O)c12
REMARK SMILES IDX 5 1 3 2 2 3 1 4 21 5 19 6 18 7 16 8 15 9 14 10 13 11 6 12
REMARK SMILES IDX 7 13 8 14 9 15 12 16 11 17 10 18 4 20 20 22 17 24
REMARK H PARENT 10 19 4 21 20 23 17 25
REMARK Flexibility Score: inf
ROOT
ATOM      1  C   UNL     1       5.110 -59.179 191.785  1.00  0.00     0.180 A 
ATOM      2  C   UNL     1       4.129 -59.322 190.788  1.00  0.00     0.208 A 
ATOM      3  C   UNL     1       4.298 -60.307 189.802  1.00  0.00     0.238 A 
ATOM      4  O   UNL     1       3.443 -60.395 188.881  1.00  0.00    -0.285 OA
ATOM      5  C   UNL     1       5.436 -61.148 189.835  1.00  0.00     0.111 A 
ATOM      6  C   UNL     1       5.689 -62.207 188.911  1.00  0.00     0.134 A 
ATOM      7  C   UNL     1       6.911 -62.888 188.960  1.00  0.00     0.093 A 
ATOM      8  C   UNL     1       7.862 -62.595 189.941  1.00  0.00     0.123 A 
ATOM      9  C   UNL     1       7.599 -61.604 190.884  1.00  0.00     0.094 A 
ATOM     10  C   UNL     1       6.404 -60.882 190.838  1.00  0.00     0.146 A 
ATOM     11  O   UNL     1       6.198 -59.938 191.750  1.00  0.00    -0.452 OA
ENDROOT
BRANCH   1  12
ATOM     12  C   UNL     1       4.989 -58.180 192.870  1.00  0.00     0.021 A 
ATOM     13  C   UNL     1       4.260 -58.454 194.042  1.00  0.00     0.016 A 
ATOM     14  C   UNL     1       4.180 -57.503 195.064  1.00  0.00     0.047 A 
ATOM     15  C   UNL     1       4.840 -56.274 194.936  1.00  0.00     0.115 A 
ATOM     16  C   UNL     1       5.664 -56.952 192.758  1.00  0.00     0.016 A 
ATOM     17  C   UNL     1       5.582 -56.003 193.782  1.00  0.00     0.047 A 
BRANCH  15  18
ATOM     18  O   UNL     1       4.767 -55.320 195.947  1.00  0.00    -0.508 OA
ATOM     19  H   UNL     1       4.826 -55.578 196.925  1.00  0.00     0.293 HD
ENDBRANCH  15  18
ENDBRANCH   1  12
BRANCH   2  20
ATOM     20  O   UNL     1       3.023 -58.467 190.761  1.00  0.00    -0.502 OA
ATOM     21  H   UNL     1       2.407 -58.400 189.961  1.00  0.00     0.293 HD
ENDBRANCH   2  20
BRANCH   6  22
ATOM     22  O   UNL     1       4.771 -62.642 187.952  1.00  0.00    -0.507 OA
ATOM     23  H   UNL     1       4.580 -62.167 187.081  1.00  0.00     0.293 HD
ENDBRANCH   6  22
BRANCH   8  24
ATOM     24  O   UNL     1       9.068 -63.289 189.992  1.00  0.00    -0.508 OA
ATOM     25  H   UNL     1       9.325 -63.848 190.798  1.00  0.00     0.293 HD
ENDBRANCH   8  24
TORSDOF 5
ENDMDL
MODEL 4
REMARK VINA RESULT:    -6.143      1.423      6.489
REMARK INTER + INTRA:          -7.323
REMARK INTER:                  -7.620
REMARK INTRA:                   0.297
REMARK UNBOUND:                -0.104
REMARK SMILES O=c1c(O)c(-c2ccc(O)cc2)oc2cc(O)cc(O)c12
REMARK SMILES IDX 5 1 3 2 2 3 1 4 21 5 19 6 18 7 16 8 15 9 14 10 13 11 6 12
REMARK SMILES IDX 7 13 8 14 9 15 12 16 11 17 10 18 4 20 20 22 17 24
REMARK H PARENT 10 19 4 21 20 23 17 25
REMARK Flexibility Score: inf
ROOT
ATOM      1  C   UNL     1       5.143 -60.775 189.735  1.00  0.00     0.180 A 
ATOM      2  C   UNL     1       3.988 -60.133 189.256  1.00  0.00     0.208 A 
ATOM      3  C   UNL     1       3.522 -58.985 189.917  1.00  0.00     0.238 A 
ATOM      4  O   UNL     1       2.457 -58.446 189.517  1.00  0.00    -0.285 OA
ATOM      5  C   UNL     1       4.227 -58.484 191.038  1.00  0.00     0.111 A 
ATOM      6  C   UNL     1       3.869 -57.305 191.760  1.00  0.00     0.134 A 
ATOM      7  C   UNL     1       4.561 -56.977 192.933  1.00  0.00     0.093 A 
ATOM      8  C   UNL     1       5.640 -57.748 193.373  1.00  0.00     0.123 A 
ATOM      9  C   UNL     1       6.034 -58.866 192.642  1.00  0.00     0.094 A 
ATOM     10  C   UNL     1       5.341 -59.240 191.489  1.00  0.00     0.146 A 
ATOM     11  O   UNL     1       5.743 -60.319 190.828  1.00  0.00    -0.452 OA
ENDROOT
BRANCH   1  12
ATOM     12  C   UNL     1       5.707 -61.974 189.076  1.00  0.00     0.021 A 
ATOM     13  C   UNL     1       4.883 -62.904 188.416  1.00  0.00     0.016 A 
ATOM     14  C   UNL     1       5.442 -64.018 187.779  1.00  0.00     0.047 A 
ATOM     15  C   UNL     1       6.830 -64.207 187.782  1.00  0.00     0.115 A 
ATOM     16  C   UNL     1       7.100 -62.162 189.056  1.00  0.00     0.016 A 
ATOM     17  C   UNL     1       7.655 -63.276 188.419  1.00  0.00     0.047 A 
BRANCH  15  18
ATOM     18  O   UNL     1       7.397 -65.312 187.152  1.00  0.00    -0.508 OA
ATOM     19  H   UNL     1       6.963 -65.742 186.344  1.00  0.00     0.293 HD
ENDBRANCH  15  18
ENDBRANCH   1  12
BRANCH   2  20
ATOM     20  O   UNL     1       3.295 -60.657 188.161  1.00  0.00    -0.502 OA
ATOM     21  H   UNL     1       3.176 -60.143 187.296  1.00  0.00     0.293 HD
ENDBRANCH   2  20
BRANCH   6  22
ATOM     22  O   UNL     1       2.869 -56.417 191.357  1.00  0.00    -0.507 OA
ATOM     23  H   UNL     1       2.682 -55.525 191.792  1.00  0.00     0.293 HD
ENDBRANCH   6  22
BRANCH   8  24
ATOM     24  O   UNL     1       6.333 -57.405 194.531  1.00  0.00    -0.508 OA
ATOM     25  H   UNL     1       5.890 -57.434 195.443  1.00  0.00     0.293 HD
ENDBRANCH   8  24
TORSDOF 5
ENDMDL
MODEL 5
REMARK VINA RESULT:    -5.870      9.924     11.998
REMARK INTER + INTRA:          -7.004
REMARK INTER:                  -6.782
REMARK INTRA:                  -0.221
REMARK UNBOUND:                -0.104
REMARK SMILES O=c1c(O)c(-c2ccc(O)cc2)oc2cc(O)cc(O)c12
REMARK SMILES IDX 5 1 3 2 2 3 1 4 21 5 19 6 18 7 16 8 15 9 14 10 13 11 6 12
REMARK SMILES IDX 7 13 8 14 9 15 12 16 11 17 10 18 4 20 20 22 17 24
REMARK H PARENT 10 19 4 21 20 23 17 25
REMARK Flexibility Score: inf
ROOT
ATOM      1  C   UNL     1      11.463 -56.343 197.421  1.00  0.00     0.180 A 
ATOM      2  C   UNL     1      10.573 -56.289 196.333  1.00  0.00     0.208 A 
ATOM      3  C   UNL     1      11.042 -55.836 195.090  1.00  0.00     0.238 A 
ATOM      4  O   UNL     1      10.227 -55.739 194.135  1.00  0.00    -0.285 OA
ATOM      5  C   UNL     1      12.399 -55.460 194.945  1.00  0.00     0.111 A 
ATOM      6  C   UNL     1      12.992 -55.025 193.721  1.00  0.00     0.134 A 
ATOM      7  C   UNL     1      14.310 -54.551 193.723  1.00  0.00     0.093 A 
ATOM      8  C   UNL     1      15.077 -54.560 194.891  1.00  0.00     0.123 A 
ATOM      9  C   UNL     1      14.526 -55.038 196.077  1.00  0.00     0.094 A 
ATOM     10  C   UNL     1      13.202 -55.482 196.114  1.00  0.00     0.146 A 
ATOM     11  O   UNL     1      12.712 -55.920 197.268  1.00  0.00    -0.452 OA
ENDROOT
BRANCH   1  12
ATOM     12  C   UNL     1      11.048 -56.832 198.754  1.00  0.00     0.021 A 
ATOM     13  C   UNL     1      10.240 -56.053 199.602  1.00  0.00     0.016 A 
ATOM     14  C   UNL     1       9.840 -56.546 200.848  1.00  0.00     0.047 A 
ATOM     15  C   UNL     1      10.229 -57.829 201.256  1.00  0.00     0.115 A 
ATOM     16  C   UNL     1      11.417 -58.125 199.163  1.00  0.00     0.016 A 
ATOM     17  C   UNL     1      11.016 -58.616 200.409  1.00  0.00     0.047 A 
BRANCH  15  18
ATOM     18  O   UNL     1       9.838 -58.330 202.495  1.00  0.00    -0.508 OA
ATOM     19  H   UNL     1      10.435 -58.950 203.029  1.00  0.00     0.293 HD
ENDBRANCH  15  18
ENDBRANCH   1  12
BRANCH   2  20
ATOM     20  O   UNL     1       9.232 -56.645 196.505  1.00  0.00    -0.502 OA
ATOM     21  H   UNL     1       8.951 -57.497 196.974  1.00  0.00     0.293 HD
ENDBRANCH   2  20
BRANCH   6  22
ATOM     22  O   UNL     1      12.345 -55.062 192.483  1.00  0.00    -0.507 OA
ATOM     23  H   UNL     1      12.766 -55.381 191.623  1.00  0.00     0.293 HD
ENDBRANCH   6  22
BRANCH   8  24
ATOM     24  O   UNL     1      16.392 -54.102 194.881  1.00  0.00    -0.508 OA
ATOM     25  H   UNL     1      17.159 -54.683 195.203  1.00  0.00     0.293 HD
ENDBRANCH   8  24
TORSDOF 5
ENDMDL
MODEL 6
REMARK VINA RESULT:    -5.833      1.930      6.745
REMARK INTER + INTRA:          -6.960
REMARK INTER:                  -7.365
REMARK INTRA:                   0.405
REMARK UNBOUND:                -0.104
REMARK SMILES O=c1c(O)c(-c2ccc(O)cc2)oc2cc(O)cc(O)c12
REMARK SMILES IDX 5 1 3 2 2 3 1 4 21 5 19 6 18 7 16 8 15 9 14 10 13 11 6 12
REMARK SMILES IDX 7 13 8 14 9 15 12 16 11 17 10 18 4 20 20 22 17 24
REMARK H PARENT 10 19 4 21 20 23 17 25
REMARK Flexibility Score: inf
ROOT
ATOM      1  C   UNL     1       5.562 -60.300 190.932  1.00  0.00     0.180 A 
ATOM      2  C   UNL     1       4.180 -60.041 190.913  1.00  0.00     0.208 A 
ATOM      3  C   UNL     1       3.672 -58.996 191.700  1.00  0.00     0.238 A 
ATOM      4  O   UNL     1       2.428 -58.803 191.720  1.00  0.00    -0.285 OA
ATOM      5  C   UNL     1       4.553 -58.213 192.485  1.00  0.00     0.111 A 
ATOM      6  C   UNL     1       4.153 -57.103 193.290  1.00  0.00     0.134 A 
ATOM      7  C   UNL     1       5.089 -56.484 194.126  1.00  0.00     0.093 A 
ATOM      8  C   UNL     1       6.426 -56.891 194.137  1.00  0.00     0.123 A 
ATOM      9  C   UNL     1       6.838 -57.933 193.311  1.00  0.00     0.094 A 
ATOM     10  C   UNL     1       5.920 -58.595 192.493  1.00  0.00     0.146 A 
ATOM     11  O   UNL     1       6.352 -59.591 191.729  1.00  0.00    -0.452 OA
ENDROOT
BRANCH   1  12
ATOM     12  C   UNL     1       6.174 -61.368 190.110  1.00  0.00     0.021 A 
ATOM     13  C   UNL     1       5.501 -61.919 189.004  1.00  0.00     0.016 A 
ATOM     14  C   UNL     1       6.110 -62.910 188.228  1.00  0.00     0.047 A 
ATOM     15  C   UNL     1       7.403 -63.352 188.537  1.00  0.00     0.115 A 
ATOM     16  C   UNL     1       7.478 -61.803 190.401  1.00  0.00     0.016 A 
ATOM     17  C   UNL     1       8.085 -62.794 189.623  1.00  0.00     0.047 A 
BRANCH  15  18
ATOM     18  O   UNL     1       8.019 -64.339 187.771  1.00  0.00    -0.508 OA
ATOM     19  H   UNL     1       7.953 -65.319 188.017  1.00  0.00     0.293 HD
ENDBRANCH  15  18
ENDBRANCH   1  12
BRANCH   2  20
ATOM     20  O   UNL     1       3.325 -60.840 190.148  1.00  0.00    -0.502 OA
ATOM     21  H   UNL     1       2.363 -60.586 189.964  1.00  0.00     0.293 HD
ENDBRANCH   2  20
BRANCH   6  22
ATOM     22  O   UNL     1       2.866 -56.559 193.284  1.00  0.00    -0.507 OA
ATOM     23  H   UNL     1       2.477 -55.994 194.025  1.00  0.00     0.293 HD
ENDBRANCH   6  22
BRANCH   8  24
ATOM     24  O   UNL     1       7.354 -56.259 194.961  1.00  0.00    -0.508 OA
ATOM     25  H   UNL     1       7.089 -55.871 195.859  1.00  0.00     0.293 HD
ENDBRANCH   8  24
TORSDOF 5
ENDMDL
MODEL 7
REMARK VINA RESULT:    -5.737      2.218      3.327
REMARK INTER + INTRA:          -6.847
REMARK INTER:                  -6.694
REMARK INTRA:                  -0.152
REMARK UNBOUND:                -0.104
REMARK SMILES O=c1c(O)c(-c2ccc(O)cc2)oc2cc(O)cc(O)c12
REMARK SMILES IDX 5 1 3 2 2 3 1 4 21 5 19 6 18 7 16 8 15 9 14 10 13 11 6 12
REMARK SMILES IDX 7 13 8 14 9 15 12 16 11 17 10 18 4 20 20 22 17 24
REMARK H PARENT 10 19 4 21 20 23 17 25
REMARK Flexibility Score: inf
ROOT
ATOM      1  C   UNL     1       4.621 -59.828 190.847  1.00  0.00     0.180 A 
ATOM      2  C   UNL     1       5.916 -60.175 191.270  1.00  0.00     0.208 A 
ATOM      3  C   UNL     1       6.569 -61.254 190.653  1.00  0.00     0.238 A 
ATOM      4  O   UNL     1       7.706 -61.594 191.072  1.00  0.00    -0.285 OA
ATOM      5  C   UNL     1       5.926 -61.961 189.609  1.00  0.00     0.111 A 
ATOM      6  C   UNL     1       6.509 -63.045 188.885  1.00  0.00     0.134 A 
ATOM      7  C   UNL     1       5.732 -63.757 187.962  1.00  0.00     0.093 A 
ATOM      8  C   UNL     1       4.414 -63.382 187.689  1.00  0.00     0.123 A 
ATOM      9  C   UNL     1       3.856 -62.289 188.347  1.00  0.00     0.094 A 
ATOM     10  C   UNL     1       4.593 -61.583 189.300  1.00  0.00     0.146 A 
ATOM     11  O   UNL     1       4.019 -60.553 189.912  1.00  0.00    -0.452 OA
ENDROOT
BRANCH   1  12
ATOM     12  C   UNL     1       3.880 -58.689 191.434  1.00  0.00     0.021 A 
ATOM     13  C   UNL     1       2.742 -58.889 192.237  1.00  0.00     0.016 A 
ATOM     14  C   UNL     1       2.073 -57.798 192.800  1.00  0.00     0.047 A 
ATOM     15  C   UNL     1       2.541 -56.496 192.581  1.00  0.00     0.115 A 
ATOM     16  C   UNL     1       4.354 -57.381 191.236  1.00  0.00     0.016 A 
ATOM     17  C   UNL     1       3.683 -56.292 191.801  1.00  0.00     0.047 A 
BRANCH  15  18
ATOM     18  O   UNL     1       1.882 -55.402 193.136  1.00  0.00    -0.508 OA
ATOM     19  H   UNL     1       2.101 -55.067 194.067  1.00  0.00     0.293 HD
ENDBRANCH  15  18
ENDBRANCH   1  12
BRANCH   2  20
ATOM     20  O   UNL     1       6.525 -59.477 192.318  1.00  0.00    -0.502 OA
ATOM     21  H   UNL     1       6.947 -59.944 193.110  1.00  0.00     0.293 HD
ENDBRANCH   2  20
BRANCH   6  22
ATOM     22  O   UNL     1       7.843 -63.442 189.014  1.00  0.00    -0.507 OA
ATOM     23  H   UNL     1       8.583 -63.185 188.378  1.00  0.00     0.293 HD
ENDBRANCH   6  22
BRANCH   8  24
ATOM     24  O   UNL     1       3.653 -64.085 186.759  1.00  0.00    -0.508 OA
ATOM     25  H   UNL     1       2.821 -63.683 186.340  1.00  0.00     0.293 HD
ENDBRANCH   8  24
TORSDOF 5
ENDMDL
MODEL 8
REMARK VINA RESULT:    -5.705     10.347     12.161
REMARK INTER + INTRA:          -6.810
REMARK INTER:                  -6.522
REMARK INTRA:                  -0.288
REMARK UNBOUND:                -0.104
REMARK SMILES O=c1c(O)c(-c2ccc(O)cc2)oc2cc(O)cc(O)c12
REMARK SMILES IDX 5 1 3 2 2 3 1 4 21 5 19 6 18 7 16 8 15 9 14 10 13 11 6 12
REMARK SMILES IDX 7 13 8 14 9 15 12 16 11 17 10 18 4 20 20 22 17 24
REMARK H PARENT 10 19 4 21 20 23 17 25
REMARK Flexibility Score: inf
ROOT
ATOM      1  C   UNL     1      12.256 -55.635 196.682  1.00  0.00     0.180 A 
ATOM      2  C   UNL     1      10.977 -55.430 196.135  1.00  0.00     0.208 A 
ATOM      3  C   UNL     1       9.856 -55.922 196.821  1.00  0.00     0.238 A 
ATOM      4  O   UNL     1       8.718 -55.783 196.299  1.00  0.00    -0.285 OA
ATOM      5  C   UNL     1      10.025 -56.599 198.052  1.00  0.00     0.111 A 
ATOM      6  C   UNL     1       8.956 -57.105 198.853  1.00  0.00     0.134 A 
ATOM      7  C   UNL     1       9.247 -57.874 199.987  1.00  0.00     0.093 A 
ATOM      8  C   UNL     1      10.567 -58.099 200.386  1.00  0.00     0.123 A 
ATOM      9  C   UNL     1      11.615 -57.559 199.645  1.00  0.00     0.094 A 
ATOM     10  C   UNL     1      11.358 -56.819 198.488  1.00  0.00     0.146 A 
ATOM     11  O   UNL     1      12.386 -56.332 197.804  1.00  0.00    -0.452 OA
ENDROOT
BRANCH   1  12
ATOM     12  C   UNL     1      13.482 -55.124 196.029  1.00  0.00     0.021 A 
ATOM     13  C   UNL     1      14.170 -55.882 195.064  1.00  0.00     0.016 A 
ATOM     14  C   UNL     1      15.313 -55.367 194.443  1.00  0.00     0.047 A 
ATOM     15  C   UNL     1      15.774 -54.085 194.768  1.00  0.00     0.115 A 
ATOM     16  C   UNL     1      13.940 -53.831 196.334  1.00  0.00     0.016 A 
ATOM     17  C   UNL     1      15.083 -53.319 195.712  1.00  0.00     0.047 A 
BRANCH  15  18
ATOM     18  O   UNL     1      16.911 -53.563 194.157  1.00  0.00    -0.508 OA
ATOM     19  H   UNL     1      17.434 -54.093 193.471  1.00  0.00     0.293 HD
ENDBRANCH  15  18
ENDBRANCH   1  12
BRANCH   2  20
ATOM     20  O   UNL     1      10.834 -54.777 194.907  1.00  0.00    -0.502 OA
ATOM     21  H   UNL     1      10.232 -55.127 194.172  1.00  0.00     0.293 HD
ENDBRANCH   2  20
BRANCH   6  22
ATOM     22  O   UNL     1       7.605 -56.861 198.595  1.00  0.00    -0.507 OA
ATOM     23  H   UNL     1       6.958 -56.451 199.254  1.00  0.00     0.293 HD
ENDBRANCH   6  22
BRANCH   8  24
ATOM     24  O   UNL     1      10.847 -58.850 201.524  1.00  0.00    -0.508 OA
ATOM     25  H   UNL     1      10.871 -58.429 202.446  1.00  0.00     0.293 HD
ENDBRANCH   8  24
TORSDOF 5
ENDMDL
MODEL 9
REMARK VINA RESULT:    -5.456      9.049     10.713
REMARK INTER + INTRA:          -6.516
REMARK INTER:                  -6.324
REMARK INTRA:                  -0.192
REMARK UNBOUND:                -0.104
REMARK SMILES O=c1c(O)c(-c2ccc(O)cc2)oc2cc(O)cc(O)c12
REMARK SMILES IDX 5 1 3 2 2 3 1 4 21 5 19 6 18 7 16 8 15 9 14 10 13 11 6 12
REMARK SMILES IDX 7 13 8 14 9 15 12 16 11 17 10 18 4 20 20 22 17 24
REMARK H PARENT 10 19 4 21 20 23 17 25
REMARK Flexibility Score: inf
ROOT
ATOM      1  C   UNL     1       6.229 -59.158 200.181  1.00  0.00     0.180 A 
ATOM      2  C   UNL     1       5.396 -58.873 199.085  1.00  0.00     0.208 A 
ATOM      3  C   UNL     1       4.679 -59.918 198.483  1.00  0.00     0.238 A 
ATOM      4  O   UNL     1       3.978 -59.666 197.468  1.00  0.00    -0.285 OA
ATOM      5  C   UNL     1       4.790 -61.234 198.995  1.00  0.00     0.111 A 
ATOM      6  C   UNL     1       4.077 -62.363 198.489  1.00  0.00     0.134 A 
ATOM      7  C   UNL     1       4.364 -63.640 198.988  1.00  0.00     0.093 A 
ATOM      8  C   UNL     1       5.289 -63.820 200.020  1.00  0.00     0.123 A 
ATOM      9  C   UNL     1       5.944 -62.717 200.560  1.00  0.00     0.094 A 
ATOM     10  C   UNL     1       5.707 -61.435 200.059  1.00  0.00     0.146 A 
ATOM     11  O   UNL     1       6.362 -60.412 200.596  1.00  0.00    -0.452 OA
ENDROOT
BRANCH   1  12
ATOM     12  C   UNL     1       6.996 -58.104 200.882  1.00  0.00     0.021 A 
ATOM     13  C   UNL     1       6.352 -57.111 201.642  1.00  0.00     0.016 A 
ATOM     14  C   UNL     1       7.100 -56.140 202.316  1.00  0.00     0.047 A 
ATOM     15  C   UNL     1       8.499 -56.159 202.252  1.00  0.00     0.115 A 
ATOM     16  C   UNL     1       8.400 -58.128 200.840  1.00  0.00     0.016 A 
ATOM     17  C   UNL     1       9.146 -57.156 201.515  1.00  0.00     0.047 A 
BRANCH  15  18
ATOM     18  O   UNL     1       9.254 -55.196 202.918  1.00  0.00    -0.508 OA
ATOM     19  H   UNL     1      10.129 -54.854 202.541  1.00  0.00     0.293 HD
ENDBRANCH  15  18
ENDBRANCH   1  12
BRANCH   2  20
ATOM     20  O   UNL     1       5.318 -57.570 198.581  1.00  0.00    -0.502 OA
ATOM     21  H   UNL     1       6.028 -57.178 197.976  1.00  0.00     0.293 HD
ENDBRANCH   2  20
BRANCH   6  22
ATOM     22  O   UNL     1       3.069 -62.282 197.525  1.00  0.00    -0.507 OA
ATOM     23  H   UNL     1       2.084 -62.195 197.729  1.00  0.00     0.293 HD
ENDBRANCH   6  22
BRANCH   8  24
ATOM     24  O   UNL     1       5.556 -65.091 200.521  1.00  0.00    -0.508 OA
ATOM     25  H   UNL     1       5.368 -65.331 201.488  1.00  0.00     0.293 HD
ENDBRANCH   8  24
TORSDOF 5
ENDMDL
