MODEL 1
REMARK VINA RESULT:    22.499      0.000      0.000
REMARK INTER + INTRA:          31.307
REMARK INTER:                  31.049
REMARK INTRA:                   0.259
REMARK UNBOUND:                 0.259
REMARK SMILES C=C(CC[C@H](C(=O)[O-])[C@H]1CC[C@]2(C)C3=C(CC[C@]12C)[C@@]1(C)CC[C@@H](O)C(C)(C)[C@@H]1CC3)C(C)C
REMARK SMILES IDX 4 1 5 2 6 3 7 4 8 5 9 6 10 7 18 8 11 9 12 10 17 11 19 12
REMARK SMILES IDX 13 13 14 14 16 15 15 16 31 17 20 18 30 19 29 20 22 21 21 22
REMARK SMILES IDX 26 23 23 24 24 25 27 26 28 27 25 28 3 30 2 31 1 32 32 33
REMARK SMILES IDX 33 34 34 35
REMARK H PARENT 25 29
REMARK Flexibility Score: inf
ROOT
ATOM      1  C   UNL     1      15.952 -13.890  13.096  1.00  0.00     0.014 C 
ENDROOT
BRANCH   1   2
ATOM      2  C   UNL     1      17.224 -13.332  13.780  1.00  0.00     0.039 C 
BRANCH   2   3
ATOM      3  C   UNL     1      17.564 -14.220  14.957  1.00  0.00     0.045 C 
ATOM      4  O   UNL     1      16.876 -15.245  15.196  1.00  0.00    -0.550 OA
ATOM      5  O   UNL     1      18.642 -13.914  15.780  1.00  0.00    -0.550 OA
ENDBRANCH   2   3
BRANCH   2   6
ATOM      6  C   UNL     1      17.053 -11.837  14.243  1.00  0.00     0.004 C 
ATOM      7  C   UNL     1      17.855 -11.549  15.506  1.00  0.00     0.006 C 
ATOM      8  C   UNL     1      17.463 -10.668  13.258  1.00  0.00    -0.020 C 
ATOM      9  C   UNL     1      17.817 -10.051  15.648  1.00  0.00     0.012 C 
ATOM     10  C   UNL     1      17.950  -9.468  14.223  1.00  0.00    -0.006 C 
ATOM     11  C   UNL     1      16.236 -10.241  12.395  1.00  0.00     0.012 C 
ATOM     12  C   UNL     1      18.585 -11.143  12.279  1.00  0.00     0.012 C 
ATOM     13  C   UNL     1      19.433  -9.050  14.009  1.00  0.00     0.017 C 
ATOM     14  C   UNL     1      17.113  -8.165  14.135  1.00  0.00    -0.064 C 
ATOM     15  C   UNL     1      16.391  -8.819  11.882  1.00  0.00     0.032 C 
ATOM     16  C   UNL     1      16.340  -7.870  13.055  1.00  0.00    -0.064 C 
ATOM     17  C   UNL     1      17.311  -7.086  15.190  1.00  0.00     0.032 C 
ATOM     18  C   UNL     1      15.473  -6.582  13.050  1.00  0.00    -0.008 C 
ATOM     19  C   UNL     1      16.009  -6.376  15.597  1.00  0.00     0.009 C 
ATOM     20  C   UNL     1      14.898  -6.422  14.510  1.00  0.00     0.007 C 
ATOM     21  C   UNL     1      14.276  -6.712  12.057  1.00  0.00     0.014 C 
ATOM     22  C   UNL     1      16.390  -5.404  12.603  1.00  0.00     0.016 C 
ATOM     23  C   UNL     1      13.759  -5.343  14.706  1.00  0.00    -0.006 C 
ATOM     24  C   UNL     1      13.204  -5.624  12.217  1.00  0.00     0.033 C 
ATOM     25  C   UNL     1      12.640  -5.578  13.644  1.00  0.00     0.120 C 
ATOM     26  C   UNL     1      13.131  -5.502  16.116  1.00  0.00     0.014 C 
ATOM     27  C   UNL     1      14.261  -3.875  14.610  1.00  0.00     0.014 C 
BRANCH  25  28
ATOM     28  O   UNL     1      11.952  -6.778  13.916  1.00  0.00    -0.393 OA
ATOM     29  H   UNL     1      10.993  -6.612  13.721  1.00  0.00     0.210 HD
ENDBRANCH  25  28
ENDBRANCH   2   6
ENDBRANCH   1   2
BRANCH   1  30
ATOM     30  C   UNL     1      15.092 -12.808  12.408  1.00  0.00     0.031 C 
BRANCH  30  31
ATOM     31  C   UNL     1      13.598 -12.974  12.665  1.00  0.00    -0.075 C 
ATOM     32  C   UNL     1      13.141 -14.178  13.055  1.00  0.00     0.008 C 
BRANCH  31  33
ATOM     33  C   UNL     1      12.574 -11.864  12.413  1.00  0.00     0.008 C 
ATOM     34  C   UNL     1      13.034 -10.467  12.849  1.00  0.00     0.012 C 
ATOM     35  C   UNL     1      11.220 -12.207  13.047  1.00  0.00     0.012 C 
ENDBRANCH  31  33
ENDBRANCH  30  31
ENDBRANCH   1  30
TORSDOF 7
ENDMDL
MODEL 2
REMARK VINA RESULT:    22.554      1.428      1.995
REMARK INTER + INTRA:          31.383
REMARK INTER:                  29.840
REMARK INTRA:                   1.543
REMARK UNBOUND:                 0.259
REMARK SMILES C=C(CC[C@H](C(=O)[O-])[C@H]1CC[C@]2(C)C3=C(CC[C@]12C)[C@@]1(C)CC[C@@H](O)C(C)(C)[C@@H]1CC3)C(C)C
REMARK SMILES IDX 4 1 5 2 6 3 7 4 8 5 9 6 10 7 18 8 11 9 12 10 17 11 19 12
REMARK SMILES IDX 13 13 14 14 16 15 15 16 31 17 20 18 30 19 29 20 22 21 21 22
REMARK SMILES IDX 26 23 23 24 24 25 27 26 28 27 25 28 3 30 2 31 1 32 32 33
REMARK SMILES IDX 33 34 34 35
REMARK H PARENT 25 29
REMARK Flexibility Score: inf
ROOT
ATOM      1  C   UNL     1      14.789 -13.485  13.295  1.00  0.00     0.014 C 
ENDROOT
BRANCH   1   2
ATOM      2  C   UNL     1      16.195 -12.901  13.012  1.00  0.00     0.039 C 
BRANCH   2   3
ATOM      3  C   UNL     1      17.221 -13.991  13.229  1.00  0.00     0.045 C 
ATOM      4  O   UNL     1      17.559 -14.741  12.277  1.00  0.00    -0.550 OA
ATOM      5  O   UNL     1      17.802 -14.172  14.479  1.00  0.00    -0.550 OA
ENDBRANCH   2   3
BRANCH   2   6
ATOM      6  C   UNL     1      16.518 -11.648  13.908  1.00  0.00     0.004 C 
ATOM      7  C   UNL     1      17.598 -11.961  14.936  1.00  0.00     0.006 C 
ATOM      8  C   UNL     1      17.021 -10.312  13.223  1.00  0.00    -0.020 C 
ATOM      9  C   UNL     1      17.986 -10.621  15.502  1.00  0.00     0.012 C 
ATOM     10  C   UNL     1      17.987  -9.625  14.319  1.00  0.00    -0.006 C 
ATOM     11  C   UNL     1      15.807  -9.396  12.880  1.00  0.00     0.012 C 
ATOM     12  C   UNL     1      17.765 -10.629  11.885  1.00  0.00     0.012 C 
ATOM     13  C   UNL     1      19.456  -9.445  13.842  1.00  0.00     0.017 C 
ATOM     14  C   UNL     1      17.523  -8.237  14.834  1.00  0.00    -0.064 C 
ATOM     15  C   UNL     1      16.229  -7.940  12.770  1.00  0.00     0.032 C 
ATOM     16  C   UNL     1      16.660  -7.453  14.132  1.00  0.00    -0.064 C 
ATOM     17  C   UNL     1      18.201  -7.637  16.057  1.00  0.00     0.032 C 
ATOM     18  C   UNL     1      16.180  -6.102  14.726  1.00  0.00    -0.008 C 
ATOM     19  C   UNL     1      17.238  -6.877  16.985  1.00  0.00     0.009 C 
ATOM     20  C   UNL     1      15.964  -6.341  16.271  1.00  0.00     0.007 C 
ATOM     21  C   UNL     1      14.821  -5.661  14.098  1.00  0.00     0.014 C 
ATOM     22  C   UNL     1      17.270  -5.037  14.402  1.00  0.00     0.016 C 
ATOM     23  C   UNL     1      15.211  -5.200  17.063  1.00  0.00    -0.006 C 
ATOM     24  C   UNL     1      14.127  -4.511  14.842  1.00  0.00     0.033 C 
ATOM     25  C   UNL     1      13.885  -4.847  16.321  1.00  0.00     0.120 C 
ATOM     26  C   UNL     1      14.851  -5.707  18.485  1.00  0.00     0.014 C 
ATOM     27  C   UNL     1      16.054  -3.909  17.256  1.00  0.00     0.014 C 
BRANCH  25  28
ATOM     28  O   UNL     1      12.971  -5.916  16.416  1.00  0.00    -0.393 OA
ATOM     29  H   UNL     1      12.103  -5.530  16.704  1.00  0.00     0.210 HD
ENDBRANCH  25  28
ENDBRANCH   2   6
ENDBRANCH   1   2
BRANCH   1  30
ATOM     30  C   UNL     1      13.735 -13.112  12.231  1.00  0.00     0.031 C 
BRANCH  30  31
ATOM     31  C   UNL     1      13.196 -11.693  12.390  1.00  0.00    -0.075 C 
ATOM     32  C   UNL     1      13.908 -10.673  11.878  1.00  0.00     0.008 C 
BRANCH  31  33
ATOM     33  C   UNL     1      11.931 -11.361  13.184  1.00  0.00     0.008 C 
ATOM     34  C   UNL     1      10.702 -12.194  12.796  1.00  0.00     0.012 C 
ATOM     35  C   UNL     1      11.610  -9.862  13.109  1.00  0.00     0.012 C 
ENDBRANCH  31  33
ENDBRANCH  30  31
ENDBRANCH   1  30
TORSDOF 7
ENDMDL
