MODEL 1
REMARK VINA RESULT:    -3.743      0.000      0.000
REMARK INTER + INTRA:         -10.591
REMARK INTER:                  -7.243
REMARK INTRA:                  -3.347
REMARK UNBOUND:                -3.347
REMARK SMILES CCCCCCCCCCCCCCCCCC(=O)[O-]
REMARK SMILES IDX 10 1 11 2 12 3 13 4 14 5 15 6 16 7 17 8 18 9 19 10 20 11
REMARK SMILES IDX 9 12 8 13 7 14 6 15 5 16 4 17 3 18 2 19 1 20
REMARK H PARENT
REMARK Flexibility Score: inf
ROOT
ATOM      1  C   UNL     1      18.465  49.628  39.445  1.00  0.00     0.000 C 
ENDROOT
BRANCH   1   2
ATOM      2  C   UNL     1      17.787  50.995  39.651  1.00  0.00     0.000 C 
BRANCH   2   3
ATOM      3  C   UNL     1      16.629  51.240  38.674  1.00  0.00     0.000 C 
BRANCH   3   4
ATOM      4  C   UNL     1      16.199  49.932  37.993  1.00  0.00     0.000 C 
BRANCH   4   5
ATOM      5  C   UNL     1      16.227  50.029  36.460  1.00  0.00     0.000 C 
BRANCH   5   6
ATOM      6  C   UNL     1      16.533  51.452  35.961  1.00  0.00     0.000 C 
BRANCH   6   7
ATOM      7  C   UNL     1      17.207  51.474  34.577  1.00  0.00     0.006 C 
BRANCH   7   8
ATOM      8  C   UNL     1      18.072  50.234  34.286  1.00  0.00     0.053 C 
BRANCH   8   9
ATOM      9  C   UNL     1      19.312  50.563  33.510  1.00  0.00     0.041 C 
ATOM     10  O   UNL     1      20.358  49.881  33.663  1.00  0.00    -0.550 OA
ATOM     11  O   UNL     1      19.300  51.607  32.592  1.00  0.00    -0.550 OA
ENDBRANCH   8   9
ENDBRANCH   7   8
ENDBRANCH   6   7
ENDBRANCH   5   6
ENDBRANCH   4   5
ENDBRANCH   3   4
ENDBRANCH   2   3
ENDBRANCH   1   2
BRANCH   1  12
ATOM     12  C   UNL     1      19.891  49.691  38.861  1.00  0.00     0.000 C 
BRANCH  12  13
ATOM     13  C   UNL     1      19.972  50.071  37.369  1.00  0.00    -0.000 C 
BRANCH  13  14
ATOM     14  C   UNL     1      20.740  51.371  37.071  1.00  0.00    -0.000 C 
BRANCH  14  15
ATOM     15  C   UNL     1      19.815  52.587  36.909  1.00  0.00    -0.000 C 
BRANCH  15  16
ATOM     16  C   UNL     1      20.001  53.577  38.064  1.00  0.00    -0.000 C 
BRANCH  16  17
ATOM     17  C   UNL     1      21.270  53.259  38.866  1.00  0.00    -0.000 C 
BRANCH  17  18
ATOM     18  C   UNL     1      20.936  52.992  40.341  1.00  0.00    -0.000 C 
BRANCH  18  19
ATOM     19  C   UNL     1      22.049  52.222  41.067  1.00  0.00    -0.003 C 
ATOM     20  C   UNL     1      22.934  51.420  40.113  1.00  0.00     0.004 C 
ENDBRANCH  18  19
ENDBRANCH  17  18
ENDBRANCH  16  17
ENDBRANCH  15  16
ENDBRANCH  14  15
ENDBRANCH  13  14
ENDBRANCH  12  13
ENDBRANCH   1  12
TORSDOF 16
ENDMDL
MODEL 2
REMARK VINA RESULT:    -3.715      1.398      3.187
REMARK INTER + INTRA:         -10.538
REMARK INTER:                  -7.449
REMARK INTRA:                  -3.088
REMARK UNBOUND:                -3.347
REMARK SMILES CCCCCCCCCCCCCCCCCC(=O)[O-]
REMARK SMILES IDX 10 1 11 2 12 3 13 4 14 5 15 6 16 7 17 8 18 9 19 10 20 11
REMARK SMILES IDX 9 12 8 13 7 14 6 15 5 16 4 17 3 18 2 19 1 20
REMARK H PARENT
REMARK Flexibility Score: inf
ROOT
ATOM      1  C   UNL     1      20.078  50.885  41.274  1.00  0.00     0.000 C 
ENDROOT
BRANCH   1   2
ATOM      2  C   UNL     1      19.495  49.553  40.770  1.00  0.00     0.000 C 
BRANCH   2   3
ATOM      3  C   UNL     1      18.270  49.742  39.864  1.00  0.00     0.000 C 
BRANCH   3   4
ATOM      4  C   UNL     1      17.698  51.160  40.006  1.00  0.00     0.000 C 
BRANCH   4   5
ATOM      5  C   UNL     1      16.509  51.413  39.066  1.00  0.00     0.000 C 
BRANCH   5   6
ATOM      6  C   UNL     1      16.349  50.312  38.004  1.00  0.00     0.000 C 
BRANCH   6   7
ATOM      7  C   UNL     1      16.237  50.868  36.572  1.00  0.00     0.006 C 
BRANCH   7   8
ATOM      8  C   UNL     1      16.923  49.993  35.507  1.00  0.00     0.053 C 
BRANCH   8   9
ATOM      9  C   UNL     1      17.524  50.800  34.396  1.00  0.00     0.041 C 
ATOM     10  O   UNL     1      17.397  52.052  34.378  1.00  0.00    -0.550 OA
ATOM     11  O   UNL     1      18.254  50.169  33.396  1.00  0.00    -0.550 OA
ENDBRANCH   8   9
ENDBRANCH   7   8
ENDBRANCH   6   7
ENDBRANCH   5   6
ENDBRANCH   4   5
ENDBRANCH   3   4
ENDBRANCH   2   3
ENDBRANCH   1   2
BRANCH   1  12
ATOM     12  C   UNL     1      21.618  50.972  41.248  1.00  0.00     0.000 C 
BRANCH  12  13
ATOM     13  C   UNL     1      22.269  50.666  39.885  1.00  0.00    -0.000 C 
BRANCH  13  14
ATOM     14  C   UNL     1      22.924  51.874  39.192  1.00  0.00    -0.000 C 
BRANCH  14  15
ATOM     15  C   UNL     1      22.269  52.218  37.846  1.00  0.00    -0.000 C 
BRANCH  15  16
ATOM     16  C   UNL     1      20.807  52.637  38.037  1.00  0.00    -0.000 C 
BRANCH  16  17
ATOM     17  C   UNL     1      19.872  51.794  37.161  1.00  0.00    -0.000 C 
BRANCH  17  18
ATOM     18  C   UNL     1      20.631  50.630  36.507  1.00  0.00    -0.000 C 
BRANCH  18  19
ATOM     19  C   UNL     1      20.196  49.262  37.053  1.00  0.00    -0.003 C 
ATOM     20  C   UNL     1      20.233  48.163  35.992  1.00  0.00     0.004 C 
ENDBRANCH  18  19
ENDBRANCH  17  18
ENDBRANCH  16  17
ENDBRANCH  15  16
ENDBRANCH  14  15
ENDBRANCH  13  14
ENDBRANCH  12  13
ENDBRANCH   1  12
TORSDOF 16
ENDMDL
MODEL 3
REMARK VINA RESULT:    -3.688      7.877     11.852
REMARK INTER + INTRA:         -10.485
REMARK INTER:                  -7.923
REMARK INTRA:                  -2.562
REMARK UNBOUND:                -3.347
REMARK SMILES CCCCCCCCCCCCCCCCCC(=O)[O-]
REMARK SMILES IDX 10 1 11 2 12 3 13 4 14 5 15 6 16 7 17 8 18 9 19 10 20 11
REMARK SMILES IDX 9 12 8 13 7 14 6 15 5 16 4 17 3 18 2 19 1 20
REMARK H PARENT
REMARK Flexibility Score: inf
ROOT
ATOM      1  C   UNL     1      13.038  51.980  26.659  1.00  0.00     0.000 C 
ENDROOT
BRANCH   1   2
ATOM      2  C   UNL     1      13.505  52.208  28.108  1.00  0.00     0.000 C 
BRANCH   2   3
ATOM      3  C   UNL     1      13.253  53.640  28.598  1.00  0.00     0.000 C 
BRANCH   3   4
ATOM      4  C   UNL     1      14.496  54.518  28.392  1.00  0.00     0.000 C 
BRANCH   4   5
ATOM      5  C   UNL     1      15.747  53.936  29.070  1.00  0.00     0.000 C 
BRANCH   5   6
ATOM      6  C   UNL     1      15.862  54.343  30.549  1.00  0.00     0.000 C 
BRANCH   6   7
ATOM      7  C   UNL     1      15.964  53.136  31.500  1.00  0.00     0.006 C 
BRANCH   7   8
ATOM      8  C   UNL     1      16.689  51.922  30.891  1.00  0.00     0.053 C 
BRANCH   8   9
ATOM      9  C   UNL     1      15.878  50.664  30.971  1.00  0.00     0.041 C 
ATOM     10  O   UNL     1      16.445  49.540  30.959  1.00  0.00    -0.550 OA
ATOM     11  O   UNL     1      14.496  50.735  31.090  1.00  0.00    -0.550 OA
ENDBRANCH   8   9
ENDBRANCH   7   8
ENDBRANCH   6   7
ENDBRANCH   5   6
ENDBRANCH   4   5
ENDBRANCH   3   4
ENDBRANCH   2   3
ENDBRANCH   1   2
BRANCH   1  12
ATOM     12  C   UNL     1      12.275  53.163  26.029  1.00  0.00     0.000 C 
BRANCH  12  13
ATOM     13  C   UNL     1      13.132  54.108  25.163  1.00  0.00    -0.000 C 
BRANCH  13  14
ATOM     14  C   UNL     1      13.430  53.596  23.743  1.00  0.00    -0.000 C 
BRANCH  14  15
ATOM     15  C   UNL     1      14.883  53.131  23.569  1.00  0.00    -0.000 C 
BRANCH  15  16
ATOM     16  C   UNL     1      15.741  53.549  24.769  1.00  0.00    -0.000 C 
BRANCH  16  17
ATOM     17  C   UNL     1      16.670  52.409  25.207  1.00  0.00    -0.000 C 
BRANCH  17  18
ATOM     18  C   UNL     1      16.018  51.041  24.957  1.00  0.00    -0.000 C 
BRANCH  18  19
ATOM     19  C   UNL     1      16.410  49.999  26.015  1.00  0.00    -0.003 C 
ATOM     20  C   UNL     1      16.783  50.629  27.357  1.00  0.00     0.004 C 
ENDBRANCH  18  19
ENDBRANCH  17  18
ENDBRANCH  16  17
ENDBRANCH  15  16
ENDBRANCH  14  15
ENDBRANCH  13  14
ENDBRANCH  12  13
ENDBRANCH   1  12
TORSDOF 16
ENDMDL
MODEL 4
REMARK VINA RESULT:    -3.579      6.516      9.219
REMARK INTER + INTRA:         -10.273
REMARK INTER:                  -7.468
REMARK INTRA:                  -2.805
REMARK UNBOUND:                -3.347
REMARK SMILES CCCCCCCCCCCCCCCCCC(=O)[O-]
REMARK SMILES IDX 10 1 11 2 12 3 13 4 14 5 15 6 16 7 17 8 18 9 19 10 20 11
REMARK SMILES IDX 9 12 8 13 7 14 6 15 5 16 4 17 3 18 2 19 1 20
REMARK H PARENT
REMARK Flexibility Score: inf
ROOT
ATOM      1  C   UNL     1      15.854  50.590  30.761  1.00  0.00     0.000 C 
ENDROOT
BRANCH   1   2
ATOM      2  C   UNL     1      15.101  51.931  30.825  1.00  0.00     0.000 C 
BRANCH   2   3
ATOM      3  C   UNL     1      15.994  53.097  31.274  1.00  0.00     0.000 C 
BRANCH   3   4
ATOM      4  C   UNL     1      15.781  54.327  30.379  1.00  0.00     0.000 C 
BRANCH   4   5
ATOM      5  C   UNL     1      15.657  53.960  28.892  1.00  0.00     0.000 C 
BRANCH   5   6
ATOM      6  C   UNL     1      14.355  54.481  28.260  1.00  0.00     0.000 C 
BRANCH   6   7
ATOM      7  C   UNL     1      14.142  53.979  26.820  1.00  0.00     0.006 C 
BRANCH   7   8
ATOM      8  C   UNL     1      15.172  52.928  26.367  1.00  0.00     0.053 C 
BRANCH   8   9
ATOM      9  C   UNL     1      14.586  51.553  26.257  1.00  0.00     0.041 C 
ATOM     10  O   UNL     1      13.461  51.299  26.762  1.00  0.00    -0.550 OA
ATOM     11  O   UNL     1      15.270  50.559  25.569  1.00  0.00    -0.550 OA
ENDBRANCH   8   9
ENDBRANCH   7   8
ENDBRANCH   6   7
ENDBRANCH   5   6
ENDBRANCH   4   5
ENDBRANCH   3   4
ENDBRANCH   2   3
ENDBRANCH   1   2
BRANCH   1  12
ATOM     12  C   UNL     1      16.519  50.155  32.083  1.00  0.00     0.000 C 
BRANCH  12  13
ATOM     13  C   UNL     1      18.026  49.844  31.988  1.00  0.00    -0.000 C 
BRANCH  13  14
ATOM     14  C   UNL     1      18.955  51.023  32.331  1.00  0.00    -0.000 C 
BRANCH  14  15
ATOM     15  C   UNL     1      19.951  51.344  31.207  1.00  0.00    -0.000 C 
BRANCH  15  16
ATOM     16  C   UNL     1      19.253  52.048  30.038  1.00  0.00    -0.000 C 
BRANCH  16  17
ATOM     17  C   UNL     1      19.487  51.296  28.722  1.00  0.00    -0.000 C 
BRANCH  17  18
ATOM     18  C   UNL     1      18.175  51.137  27.939  1.00  0.00    -0.000 C 
BRANCH  18  19
ATOM     19  C   UNL     1      17.767  49.667  27.764  1.00  0.00    -0.003 C 
ATOM     20  C   UNL     1      18.700  48.702  28.495  1.00  0.00     0.004 C 
ENDBRANCH  18  19
ENDBRANCH  17  18
ENDBRANCH  16  17
ENDBRANCH  15  16
ENDBRANCH  14  15
ENDBRANCH  13  14
ENDBRANCH  12  13
ENDBRANCH   1  12
TORSDOF 16
ENDMDL
MODEL 5
REMARK VINA RESULT:    -3.577      1.515      3.042
REMARK INTER + INTRA:         -10.271
REMARK INTER:                  -7.610
REMARK INTRA:                  -2.661
REMARK UNBOUND:                -3.347
REMARK SMILES CCCCCCCCCCCCCCCCCC(=O)[O-]
REMARK SMILES IDX 10 1 11 2 12 3 13 4 14 5 15 6 16 7 17 8 18 9 19 10 20 11
REMARK SMILES IDX 9 12 8 13 7 14 6 15 5 16 4 17 3 18 2 19 1 20
REMARK H PARENT
REMARK Flexibility Score: inf
ROOT
ATOM      1  C   UNL     1      18.352  51.485  41.192  1.00  0.00     0.000 C 
ENDROOT
BRANCH   1   2
ATOM      2  C   UNL     1      17.975  50.613  39.981  1.00  0.00     0.000 C 
BRANCH   2   3
ATOM      3  C   UNL     1      17.047  51.333  38.992  1.00  0.00     0.000 C 
BRANCH   3   4
ATOM      4  C   UNL     1      16.440  50.342  37.989  1.00  0.00     0.000 C 
BRANCH   4   5
ATOM      5  C   UNL     1      16.246  50.959  36.595  1.00  0.00     0.000 C 
BRANCH   5   6
ATOM      6  C   UNL     1      16.563  49.970  35.460  1.00  0.00     0.000 C 
BRANCH   6   7
ATOM      7  C   UNL     1      17.586  50.522  34.449  1.00  0.00     0.006 C 
BRANCH   7   8
ATOM      8  C   UNL     1      17.614  52.059  34.365  1.00  0.00     0.053 C 
BRANCH   8   9
ATOM      9  C   UNL     1      17.138  52.574  33.041  1.00  0.00     0.041 C 
ATOM     10  O   UNL     1      16.569  53.694  32.961  1.00  0.00    -0.550 OA
ATOM     11  O   UNL     1      17.353  51.830  31.887  1.00  0.00    -0.550 OA
ENDBRANCH   8   9
ENDBRANCH   7   8
ENDBRANCH   6   7
ENDBRANCH   5   6
ENDBRANCH   4   5
ENDBRANCH   3   4
ENDBRANCH   2   3
ENDBRANCH   1   2
BRANCH   1  12
ATOM     12  C   UNL     1      19.795  51.297  41.703  1.00  0.00     0.000 C 
BRANCH  12  13
ATOM     13  C   UNL     1      20.670  50.347  40.862  1.00  0.00    -0.000 C 
BRANCH  13  14
ATOM     14  C   UNL     1      22.070  50.887  40.518  1.00  0.00    -0.000 C 
BRANCH  14  15
ATOM     15  C   UNL     1      22.558  50.439  39.133  1.00  0.00    -0.000 C 
BRANCH  15  16
ATOM     16  C   UNL     1      21.411  49.834  38.314  1.00  0.00    -0.000 C 
BRANCH  16  17
ATOM     17  C   UNL     1      21.240  50.568  36.978  1.00  0.00    -0.000 C 
BRANCH  17  18
ATOM     18  C   UNL     1      20.085  51.578  37.049  1.00  0.00    -0.000 C 
BRANCH  18  19
ATOM     19  C   UNL     1      20.572  53.013  37.300  1.00  0.00    -0.003 C 
ATOM     20  C   UNL     1      20.049  53.595  38.613  1.00  0.00     0.004 C 
ENDBRANCH  18  19
ENDBRANCH  17  18
ENDBRANCH  16  17
ENDBRANCH  15  16
ENDBRANCH  14  15
ENDBRANCH  13  14
ENDBRANCH  12  13
ENDBRANCH   1  12
TORSDOF 16
ENDMDL
MODEL 6
REMARK VINA RESULT:    -3.570      7.802     10.435
REMARK INTER + INTRA:         -10.258
REMARK INTER:                  -7.898
REMARK INTRA:                  -2.360
REMARK UNBOUND:                -3.347
REMARK SMILES CCCCCCCCCCCCCCCCCC(=O)[O-]
REMARK SMILES IDX 10 1 11 2 12 3 13 4 14 5 15 6 16 7 17 8 18 9 19 10 20 11
REMARK SMILES IDX 9 12 8 13 7 14 6 15 5 16 4 17 3 18 2 19 1 20
REMARK H PARENT
REMARK Flexibility Score: inf
ROOT
ATOM      1  C   UNL     1      17.632  52.231  27.670  1.00  0.00     0.000 C 
ENDROOT
BRANCH   1   2
ATOM      2  C   UNL     1      18.850  51.484  28.243  1.00  0.00     0.000 C 
BRANCH   2   3
ATOM      3  C   UNL     1      18.506  50.644  29.481  1.00  0.00     0.000 C 
BRANCH   3   4
ATOM      4  C   UNL     1      16.992  50.647  29.742  1.00  0.00     0.000 C 
BRANCH   4   5
ATOM      5  C   UNL     1      16.603  49.803  30.966  1.00  0.00     0.000 C 
BRANCH   5   6
ATOM      6  C   UNL     1      15.177  50.099  31.460  1.00  0.00     0.000 C 
BRANCH   6   7
ATOM      7  C   UNL     1      14.568  48.940  32.271  1.00  0.00     0.006 C 
BRANCH   7   8
ATOM      8  C   UNL     1      13.149  48.543  31.824  1.00  0.00     0.053 C 
BRANCH   8   9
ATOM      9  C   UNL     1      12.792  47.140  32.211  1.00  0.00     0.041 C 
ATOM     10  O   UNL     1      11.930  46.925  33.103  1.00  0.00    -0.550 OA
ATOM     11  O   UNL     1      13.391  46.067  31.562  1.00  0.00    -0.550 OA
ENDBRANCH   8   9
ENDBRANCH   7   8
ENDBRANCH   6   7
ENDBRANCH   5   6
ENDBRANCH   4   5
ENDBRANCH   3   4
ENDBRANCH   2   3
ENDBRANCH   1   2
BRANCH   1  12
ATOM     12  C   UNL     1      17.429  52.072  26.149  1.00  0.00     0.000 C 
BRANCH  12  13
ATOM     13  C   UNL     1      16.501  50.915  25.730  1.00  0.00    -0.000 C 
BRANCH  13  14
ATOM     14  C   UNL     1      15.045  51.043  26.212  1.00  0.00    -0.000 C 
BRANCH  14  15
ATOM     15  C   UNL     1      14.409  52.391  25.842  1.00  0.00    -0.000 C 
BRANCH  15  16
ATOM     16  C   UNL     1      13.876  53.108  27.088  1.00  0.00    -0.000 C 
BRANCH  16  17
ATOM     17  C   UNL     1      13.898  52.181  28.310  1.00  0.00    -0.000 C 
BRANCH  17  18
ATOM     18  C   UNL     1      13.972  52.991  29.613  1.00  0.00    -0.000 C 
BRANCH  18  19
ATOM     19  C   UNL     1      15.166  53.957  29.640  1.00  0.00    -0.003 C 
ATOM     20  C   UNL     1      15.837  54.030  31.011  1.00  0.00     0.004 C 
ENDBRANCH  18  19
ENDBRANCH  17  18
ENDBRANCH  16  17
ENDBRANCH  15  16
ENDBRANCH  14  15
ENDBRANCH  13  14
ENDBRANCH  12  13
ENDBRANCH   1  12
TORSDOF 16
ENDMDL
MODEL 7
REMARK VINA RESULT:    -3.549      2.668      3.846
REMARK INTER + INTRA:         -10.216
REMARK INTER:                  -7.902
REMARK INTRA:                  -2.314
REMARK UNBOUND:                -3.347
REMARK SMILES CCCCCCCCCCCCCCCCCC(=O)[O-]
REMARK SMILES IDX 10 1 11 2 12 3 13 4 14 5 15 6 16 7 17 8 18 9 19 10 20 11
REMARK SMILES IDX 9 12 8 13 7 14 6 15 5 16 4 17 3 18 2 19 1 20
REMARK H PARENT
REMARK Flexibility Score: inf
ROOT
ATOM      1  C   UNL     1      18.215  49.163  38.909  1.00  0.00     0.000 C 
ENDROOT
BRANCH   1   2
ATOM      2  C   UNL     1      17.919  48.382  37.616  1.00  0.00     0.000 C 
BRANCH   2   3
ATOM      3  C   UNL     1      19.172  48.148  36.760  1.00  0.00     0.000 C 
BRANCH   3   4
ATOM      4  C   UNL     1      20.337  49.024  37.244  1.00  0.00     0.000 C 
BRANCH   4   5
ATOM      5  C   UNL     1      21.186  49.570  36.085  1.00  0.00     0.000 C 
BRANCH   5   6
ATOM      6  C   UNL     1      20.562  49.284  34.709  1.00  0.00     0.000 C 
BRANCH   6   7
ATOM      7  C   UNL     1      21.452  48.399  33.816  1.00  0.00     0.006 C 
BRANCH   7   8
ATOM      8  C   UNL     1      22.652  47.777  34.553  1.00  0.00     0.053 C 
BRANCH   8   9
ATOM      9  C   UNL     1      23.012  46.420  34.030  1.00  0.00     0.041 C 
ATOM     10  O   UNL     1      23.071  45.433  34.809  1.00  0.00    -0.550 OA
ATOM     11  O   UNL     1      23.252  46.239  32.673  1.00  0.00    -0.550 OA
ENDBRANCH   8   9
ENDBRANCH   7   8
ENDBRANCH   6   7
ENDBRANCH   5   6
ENDBRANCH   4   5
ENDBRANCH   3   4
ENDBRANCH   2   3
ENDBRANCH   1   2
BRANCH   1  12
ATOM     12  C   UNL     1      17.450  50.494  39.054  1.00  0.00     0.000 C 
BRANCH  12  13
ATOM     13  C   UNL     1      18.333  51.757  39.087  1.00  0.00    -0.000 C 
BRANCH  13  14
ATOM     14  C   UNL     1      18.831  52.238  37.712  1.00  0.00    -0.000 C 
BRANCH  14  15
ATOM     15  C   UNL     1      19.843  53.389  37.813  1.00  0.00    -0.000 C 
BRANCH  15  16
ATOM     16  C   UNL     1      21.280  52.870  37.693  1.00  0.00    -0.000 C 
BRANCH  16  17
ATOM     17  C   UNL     1      22.062  53.104  38.992  1.00  0.00    -0.000 C 
BRANCH  17  18
ATOM     18  C   UNL     1      23.146  52.034  39.182  1.00  0.00    -0.000 C 
BRANCH  18  19
ATOM     19  C   UNL     1      22.559  50.643  39.466  1.00  0.00    -0.003 C 
ATOM     20  C   UNL     1      21.590  50.640  40.648  1.00  0.00     0.004 C 
ENDBRANCH  18  19
ENDBRANCH  17  18
ENDBRANCH  16  17
ENDBRANCH  15  16
ENDBRANCH  14  15
ENDBRANCH  13  14
ENDBRANCH  12  13
ENDBRANCH   1  12
TORSDOF 16
ENDMDL
MODEL 8
REMARK VINA RESULT:    -3.502      7.190     10.336
REMARK INTER + INTRA:         -10.126
REMARK INTER:                  -7.599
REMARK INTRA:                  -2.527
REMARK UNBOUND:                -3.347
REMARK SMILES CCCCCCCCCCCCCCCCCC(=O)[O-]
REMARK SMILES IDX 10 1 11 2 12 3 13 4 14 5 15 6 16 7 17 8 18 9 19 10 20 11
REMARK SMILES IDX 9 12 8 13 7 14 6 15 5 16 4 17 3 18 2 19 1 20
REMARK H PARENT
REMARK Flexibility Score: inf
ROOT
ATOM      1  C   UNL     1      16.065  52.824  31.078  1.00  0.00     0.000 C 
ENDROOT
BRANCH   1   2
ATOM      2  C   UNL     1      15.262  53.588  30.010  1.00  0.00     0.000 C 
BRANCH   2   3
ATOM      3  C   UNL     1      13.913  52.928  29.691  1.00  0.00     0.000 C 
BRANCH   3   4
ATOM      4  C   UNL     1      13.181  53.687  28.575  1.00  0.00     0.000 C 
BRANCH   4   5
ATOM      5  C   UNL     1      12.652  52.753  27.475  1.00  0.00     0.000 C 
BRANCH   5   6
ATOM      6  C   UNL     1      13.631  52.612  26.297  1.00  0.00     0.000 C 
BRANCH   6   7
ATOM      7  C   UNL     1      14.340  53.932  25.942  1.00  0.00     0.006 C 
BRANCH   7   8
ATOM      8  C   UNL     1      15.338  53.810  24.776  1.00  0.00     0.053 C 
BRANCH   8   9
ATOM      9  C   UNL     1      14.848  52.901  23.689  1.00  0.00     0.041 C 
ATOM     10  O   UNL     1      15.398  51.785  23.497  1.00  0.00    -0.550 OA
ATOM     11  O   UNL     1      13.762  53.275  22.907  1.00  0.00    -0.550 OA
ENDBRANCH   8   9
ENDBRANCH   7   8
ENDBRANCH   6   7
ENDBRANCH   5   6
ENDBRANCH   4   5
ENDBRANCH   3   4
ENDBRANCH   2   3
ENDBRANCH   1   2
BRANCH   1  12
ATOM     12  C   UNL     1      15.908  51.291  31.035  1.00  0.00     0.000 C 
BRANCH  12  13
ATOM     13  C   UNL     1      17.151  50.492  31.473  1.00  0.00    -0.000 C 
BRANCH  13  14
ATOM     14  C   UNL     1      18.341  51.349  31.943  1.00  0.00    -0.000 C 
BRANCH  14  15
ATOM     15  C   UNL     1      19.590  51.168  31.068  1.00  0.00    -0.000 C 
BRANCH  15  16
ATOM     16  C   UNL     1      19.521  52.057  29.821  1.00  0.00    -0.000 C 
BRANCH  16  17
ATOM     17  C   UNL     1      19.391  51.212  28.548  1.00  0.00    -0.000 C 
BRANCH  17  18
ATOM     18  C   UNL     1      18.822  52.046  27.390  1.00  0.00    -0.000 C 
BRANCH  18  19
ATOM     19  C   UNL     1      17.288  52.111  27.408  1.00  0.00    -0.003 C 
ATOM     20  C   UNL     1      16.637  50.730  27.482  1.00  0.00     0.004 C 
ENDBRANCH  18  19
ENDBRANCH  17  18
ENDBRANCH  16  17
ENDBRANCH  15  16
ENDBRANCH  14  15
ENDBRANCH  13  14
ENDBRANCH  12  13
ENDBRANCH   1  12
TORSDOF 16
ENDMDL
MODEL 9
REMARK VINA RESULT:    -3.485      1.460      3.277
REMARK INTER + INTRA:         -10.093
REMARK INTER:                  -7.184
REMARK INTRA:                  -2.909
REMARK UNBOUND:                -3.347
REMARK SMILES CCCCCCCCCCCCCCCCCC(=O)[O-]
REMARK SMILES IDX 10 1 11 2 12 3 13 4 14 5 15 6 16 7 17 8 18 9 19 10 20 11
REMARK SMILES IDX 9 12 8 13 7 14 6 15 5 16 4 17 3 18 2 19 1 20
REMARK H PARENT
REMARK Flexibility Score: inf
ROOT
ATOM      1  C   UNL     1      17.392  51.228  38.581  1.00  0.00     0.000 C 
ENDROOT
BRANCH   1   2
ATOM      2  C   UNL     1      16.940  49.797  38.238  1.00  0.00     0.000 C 
BRANCH   2   3
ATOM      3  C   UNL     1      18.056  48.759  38.424  1.00  0.00     0.000 C 
BRANCH   3   4
ATOM      4  C   UNL     1      19.401  49.304  37.923  1.00  0.00     0.000 C 
BRANCH   4   5
ATOM      5  C   UNL     1      19.880  48.605  36.641  1.00  0.00     0.000 C 
BRANCH   5   6
ATOM      6  C   UNL     1      20.056  49.581  35.465  1.00  0.00     0.000 C 
BRANCH   6   7
ATOM      7  C   UNL     1      18.749  49.830  34.689  1.00  0.00     0.006 C 
BRANCH   7   8
ATOM      8  C   UNL     1      18.137  51.222  34.931  1.00  0.00     0.053 C 
BRANCH   8   9
ATOM      9  C   UNL     1      18.595  52.237  33.927  1.00  0.00     0.041 C 
ATOM     10  O   UNL     1      19.009  53.364  34.305  1.00  0.00    -0.550 OA
ATOM     11  O   UNL     1      18.592  51.925  32.573  1.00  0.00    -0.550 OA
ENDBRANCH   8   9
ENDBRANCH   7   8
ENDBRANCH   6   7
ENDBRANCH   5   6
ENDBRANCH   4   5
ENDBRANCH   3   4
ENDBRANCH   2   3
ENDBRANCH   1   2
BRANCH   1  12
ATOM     12  C   UNL     1      17.018  51.705  39.999  1.00  0.00     0.000 C 
BRANCH  12  13
ATOM     13  C   UNL     1      18.033  51.342  41.101  1.00  0.00    -0.000 C 
BRANCH  13  14
ATOM     14  C   UNL     1      19.495  51.703  40.783  1.00  0.00    -0.000 C 
BRANCH  14  15
ATOM     15  C   UNL     1      20.469  50.549  41.060  1.00  0.00    -0.000 C 
BRANCH  15  16
ATOM     16  C   UNL     1      21.924  51.017  40.942  1.00  0.00    -0.000 C 
BRANCH  16  17
ATOM     17  C   UNL     1      22.466  50.786  39.526  1.00  0.00    -0.000 C 
BRANCH  17  18
ATOM     18  C   UNL     1      22.580  52.111  38.758  1.00  0.00    -0.000 C 
BRANCH  18  19
ATOM     19  C   UNL     1      21.754  52.115  37.464  1.00  0.00    -0.003 C 
ATOM     20  C   UNL     1      20.552  53.057  37.532  1.00  0.00     0.004 C 
ENDBRANCH  18  19
ENDBRANCH  17  18
ENDBRANCH  16  17
ENDBRANCH  15  16
ENDBRANCH  14  15
ENDBRANCH  13  14
ENDBRANCH  12  13
ENDBRANCH   1  12
TORSDOF 16
ENDMDL
