MODEL 1
REMARK VINA RESULT:    73.965      0.000      0.000
REMARK INTER + INTRA:         121.257
REMARK INTER:                 110.719
REMARK INTRA:                  10.538
REMARK UNBOUND:                10.538
REMARK SMILES C[C@@H]1O[C@H](O[C@H]2CC[C@@]3(C)[C@@H](CC[C@]4(C)[C@@H]3C=C[C@]35OC[C@@]6(CCC(C)(C)C[C@H]63)[C@H](O)C[C@]54C)[C@@]2(C)CO)[C@H](O)[C@H](O[C@@H]2O[C@@H](CO)[C@@H](O)[C@H](O)[C@@H]2O)[C@@H]1O
REMARK SMILES IDX 1 1 2 2 54 3 41 4 39 5 4 6 3 7 55 8 42 10 43 11 52 12 44 13
REMARK SMILES IDX 50 14 45 15 48 16 53 17 51 19 46 21 47 22 49 24 5 26 6 27
REMARK SMILES IDX 7 28 35 29 8 30 11 31 36 32 9 33 12 34 10 35 16 36 13 37
REMARK SMILES IDX 14 38 17 39 15 40 33 41 18 42 19 43 32 44 34 45 29 46 20 47
REMARK SMILES IDX 30 48 22 49 28 50 21 51 23 52 25 53 24 54 26 55 27 56 37 57
REMARK SMILES IDX 38 58 31 60 40 62
REMARK H PARENT 55 9 53 18 51 20 47 23 49 25 38 59 31 61 40 63
REMARK Flexibility Score: inf
ROOT
ATOM      1  C   UNL     1      16.364  21.894   0.626  1.00  0.00     0.041 C 
ATOM      2  C   UNL     1      15.987  23.581   0.657  1.00  0.00     0.150 C 
ATOM      3  C   UNL     1      14.519  24.213  -0.151  1.00  0.00     0.175 C 
ATOM      4  C   UNL     1      13.073  23.786   0.437  1.00  0.00     0.186 C 
ATOM      5  C   UNL     1      13.520  22.570   1.094  1.00  0.00     0.202 C 
ATOM      6  C   UNL     1      14.285  22.864   2.484  1.00  0.00     0.282 C 
ATOM      7  O   UNL     1      15.514  23.864   2.021  1.00  0.00    -0.344 OA
ENDROOT
BRANCH   3   8
ATOM      8  O   UNL     1      14.490  24.374  -1.614  1.00  0.00    -0.388 OA
ATOM      9  H   UNL     1      15.484  24.579  -1.996  1.00  0.00     0.211 HD
ENDBRANCH   3   8
BRANCH   4  10
ATOM     10  O   UNL     1      11.958  23.476  -0.539  1.00  0.00    -0.341 OA
BRANCH  10  11
ATOM     11  C   UNL     1      12.193  22.958  -2.016  1.00  0.00     0.282 C 
ATOM     12  C   UNL     1      13.772  23.127  -3.005  1.00  0.00     0.202 C 
ATOM     13  O   UNL     1      11.471  21.672  -2.262  1.00  0.00    -0.341 OA
ATOM     14  C   UNL     1      14.524  21.507  -3.222  1.00  0.00     0.179 C 
ATOM     15  C   UNL     1      12.178  20.445  -2.071  1.00  0.00     0.178 C 
ATOM     16  C   UNL     1      13.385  20.096  -3.297  1.00  0.00     0.177 C 
BRANCH  12  17
ATOM     17  O   UNL     1      14.917  23.635  -2.356  1.00  0.00    -0.385 OA
ATOM     18  H   UNL     1      14.798  23.792  -1.355  1.00  0.00     0.211 HD
ENDBRANCH  12  17
BRANCH  14  19
ATOM     19  O   UNL     1      15.864  21.240  -2.404  1.00  0.00    -0.387 OA
ATOM     20  H   UNL     1      16.698  20.631  -1.848  1.00  0.00     0.211 HD
ENDBRANCH  14  19
BRANCH  15  21
ATOM     21  C   UNL     1      11.098  19.288  -2.289  1.00  0.00     0.191 C 
BRANCH  21  22
ATOM     22  O   UNL     1      10.544  19.283  -3.611  1.00  0.00    -0.394 OA
ATOM     23  H   UNL     1      11.236  19.538  -4.279  1.00  0.00     0.210 HD
ENDBRANCH  21  22
ENDBRANCH  15  21
BRANCH  16  24
ATOM     24  O   UNL     1      13.209  18.883  -4.264  1.00  0.00    -0.387 OA
ATOM     25  H   UNL     1      13.357  18.253  -3.258  1.00  0.00     0.211 HD
ENDBRANCH  16  24
ENDBRANCH  10  11
ENDBRANCH   4  10
BRANCH   6  26
ATOM     26  O   UNL     1      14.084  21.486   3.060  1.00  0.00    -0.346 OA
BRANCH  26  27
ATOM     27  C   UNL     1      12.830  21.238   3.788  1.00  0.00     0.130 C 
ATOM     28  C   UNL     1      12.795  19.978   4.786  1.00  0.00     0.033 C 
ATOM     29  C   UNL     1      12.494  22.399   4.596  1.00  0.00     0.020 C 
ATOM     30  C   UNL     1      13.488  20.091   6.182  1.00  0.00     0.010 C 
ATOM     31  C   UNL     1      13.837  22.503   5.574  1.00  0.00     0.006 C 
ATOM     32  C   UNL     1      11.085  22.116   5.309  1.00  0.00     0.017 C 
ATOM     33  C   UNL     1      14.607  21.079   6.052  1.00  0.00    -0.022 C 
ATOM     34  C   UNL     1      14.997  23.561   5.360  1.00  0.00     0.005 C 
ATOM     35  C   UNL     1      15.560  20.321   5.056  1.00  0.00     0.012 C 
ATOM     36  C   UNL     1      15.580  21.575   7.211  1.00  0.00     0.024 C 
ATOM     37  C   UNL     1      16.552  23.149   5.484  1.00  0.00     0.008 C 
ATOM     38  C   UNL     1      16.970  22.175   6.693  1.00  0.00    -0.017 C 
ATOM     39  C   UNL     1      15.729  20.751   8.492  1.00  0.00    -0.024 C 
ATOM     40  C   UNL     1      18.086  21.124   6.093  1.00  0.00     0.013 C 
ATOM     41  C   UNL     1      17.639  23.037   7.922  1.00  0.00     0.009 C 
ATOM     42  C   UNL     1      16.461  21.327   9.505  1.00  0.00     0.005 C 
ATOM     43  C   UNL     1      17.787  22.009   9.178  1.00  0.00     0.096 C 
ATOM     44  C   UNL     1      19.049  23.677   7.565  1.00  0.00     0.043 C 
ATOM     45  C   UNL     1      16.710  24.219   8.284  1.00  0.00     0.015 C 
ATOM     46  C   UNL     1      18.603  22.524  10.404  1.00  0.00     0.037 C 
ATOM     47  O   UNL     1      18.620  20.962   8.711  1.00  0.00    -0.369 OA
ATOM     48  C   UNL     1      20.065  23.801   8.720  1.00  0.00     0.124 C 
ATOM     49  C   UNL     1      19.986  22.618   9.787  1.00  0.00     0.026 C 
ATOM     50  C   UNL     1      18.379  23.781  11.305  1.00  0.00     0.014 C 
ATOM     51  C   UNL     1      19.954  21.254   9.023  1.00  0.00     0.171 C 
ATOM     52  C   UNL     1      21.119  22.600  10.807  1.00  0.00     0.013 C 
ATOM     53  C   UNL     1      19.522  23.964  12.389  1.00  0.00    -0.035 C 
ATOM     54  C   UNL     1      20.989  23.668  11.883  1.00  0.00     0.007 C 
ATOM     55  C   UNL     1      19.516  25.464  12.872  1.00  0.00     0.011 C 
ATOM     56  C   UNL     1      19.243  23.043  13.592  1.00  0.00     0.011 C 
BRANCH  29  57
ATOM     57  C   UNL     1      12.229  23.562   3.446  1.00  0.00     0.165 C 
BRANCH  57  58
ATOM     58  O   UNL     1      11.006  24.256   3.451  1.00  0.00    -0.396 OA
ATOM     59  H   UNL     1      10.562  24.616   2.563  1.00  0.00     0.210 HD
ENDBRANCH  57  58
ENDBRANCH  29  57
BRANCH  48  60
ATOM     60  O   UNL     1      19.906  25.105   9.215  1.00  0.00    -0.392 OA
ATOM     61  H   UNL     1      19.103  25.517   8.943  1.00  0.00     0.210 HD
ENDBRANCH  48  60
ENDBRANCH  26  27
ENDBRANCH   6  26
BRANCH   5  62
ATOM     62  O   UNL     1      14.059  21.519   0.126  1.00  0.00    -0.385 OA
ATOM     63  H   UNL     1      13.843  20.721   0.624  1.00  0.00     0.211 HD
ENDBRANCH   5  62
TORSDOF 14
ENDMDL
MODEL 2
REMARK VINA RESULT:    76.097      2.097     11.644
REMARK INTER + INTRA:         124.449
REMARK INTER:                 122.462
REMARK INTRA:                   1.986
REMARK UNBOUND:                10.538
REMARK SMILES C[C@@H]1O[C@H](O[C@H]2CC[C@@]3(C)[C@@H](CC[C@]4(C)[C@@H]3C=C[C@]35OC[C@@]6(CCC(C)(C)C[C@H]63)[C@H](O)C[C@]54C)[C@@]2(C)CO)[C@H](O)[C@H](O[C@@H]2O[C@@H](CO)[C@@H](O)[C@H](O)[C@@H]2O)[C@@H]1O
REMARK SMILES IDX 1 1 2 2 54 3 41 4 39 5 4 6 3 7 55 8 42 10 43 11 52 12 44 13
REMARK SMILES IDX 50 14 45 15 48 16 53 17 51 19 46 21 47 22 49 24 5 26 6 27
REMARK SMILES IDX 7 28 35 29 8 30 11 31 36 32 9 33 12 34 10 35 16 36 13 37
REMARK SMILES IDX 14 38 17 39 15 40 33 41 18 42 19 43 32 44 34 45 29 46 20 47
REMARK SMILES IDX 30 48 22 49 28 50 21 51 23 52 25 53 24 54 26 55 27 56 37 57
REMARK SMILES IDX 38 58 31 60 40 62
REMARK H PARENT 55 9 53 18 51 20 47 23 49 25 38 59 31 61 40 63
REMARK Flexibility Score: inf
ROOT
ATOM      1  C   UNL     1      17.755  26.551   6.584  1.00  0.00     0.041 C 
ATOM      2  C   UNL     1      19.327  25.836   6.495  1.00  0.00     0.150 C 
ATOM      3  C   UNL     1      20.377  25.734   7.941  1.00  0.00     0.175 C 
ATOM      4  C   UNL     1      19.913  24.780   9.164  1.00  0.00     0.186 C 
ATOM      5  C   UNL     1      18.497  24.784   8.841  1.00  0.00     0.202 C 
ATOM      6  C   UNL     1      18.141  23.808   7.605  1.00  0.00     0.282 C 
ATOM      7  O   UNL     1      19.105  24.384   6.395  1.00  0.00    -0.344 OA
ENDROOT
BRANCH   3   8
ATOM      8  O   UNL     1      21.098  26.925   8.419  1.00  0.00    -0.388 OA
ATOM      9  H   UNL     1      22.166  26.811   8.269  1.00  0.00     0.211 HD
ENDBRANCH   3   8
BRANCH   4  10
ATOM     10  O   UNL     1      20.130  25.265  10.581  1.00  0.00    -0.341 OA
BRANCH  10  11
ATOM     11  C   UNL     1      21.025  24.513  11.648  1.00  0.00     0.282 C 
ATOM     12  C   UNL     1      21.122  24.903  13.475  1.00  0.00     0.202 C 
ATOM     13  O   UNL     1      21.119  23.052  11.345  1.00  0.00    -0.341 OA
ATOM     14  C   UNL     1      20.370  23.568  14.418  1.00  0.00     0.179 C 
ATOM     15  C   UNL     1      20.197  22.163  11.978  1.00  0.00     0.178 C 
ATOM     16  C   UNL     1      20.483  21.909  13.692  1.00  0.00     0.177 C 
BRANCH  12  17
ATOM     17  O   UNL     1      20.228  25.857  14.004  1.00  0.00    -0.385 OA
ATOM     18  H   UNL     1      20.208  25.894  15.024  1.00  0.00     0.211 HD
ENDBRANCH  12  17
BRANCH  14  19
ATOM     19  O   UNL     1      18.975  23.899  15.112  1.00  0.00    -0.387 OA
ATOM     20  H   UNL     1      18.199  24.057  15.978  1.00  0.00     0.211 HD
ENDBRANCH  14  19
BRANCH  15  21
ATOM     21  C   UNL     1      20.487  20.724  11.348  1.00  0.00     0.191 C 
BRANCH  21  22
ATOM     22  O   UNL     1      21.120  20.793  10.064  1.00  0.00    -0.394 OA
ATOM     23  H   UNL     1      21.121  19.898   9.629  1.00  0.00     0.210 HD
ENDBRANCH  21  22
ENDBRANCH  15  21
BRANCH  16  24
ATOM     24  O   UNL     1      20.922  20.509  14.226  1.00  0.00    -0.387 OA
ATOM     25  H   UNL     1      20.314  20.856  15.197  1.00  0.00     0.211 HD
ENDBRANCH  16  24
ENDBRANCH  10  11
ENDBRANCH   4  10
BRANCH   6  26
ATOM     26  O   UNL     1      16.678  23.672   7.940  1.00  0.00    -0.346 OA
BRANCH  26  27
ATOM     27  C   UNL     1      16.230  22.381   8.485  1.00  0.00     0.130 C 
ATOM     28  C   UNL     1      14.647  22.105   8.516  1.00  0.00     0.033 C 
ATOM     29  C   UNL     1      16.812  21.294   7.714  1.00  0.00     0.020 C 
ATOM     30  C   UNL     1      13.916  21.707   7.193  1.00  0.00     0.010 C 
ATOM     31  C   UNL     1      16.219  21.631   6.195  1.00  0.00     0.006 C 
ATOM     32  C   UNL     1      16.362  19.911   8.389  1.00  0.00     0.017 C 
ATOM     33  C   UNL     1      14.681  22.311   6.055  1.00  0.00    -0.022 C 
ATOM     34  C   UNL     1      17.083  22.297   5.045  1.00  0.00     0.005 C 
ATOM     35  C   UNL     1      14.464  23.845   6.330  1.00  0.00     0.012 C 
ATOM     36  C   UNL     1      14.364  22.151   4.503  1.00  0.00     0.024 C 
ATOM     37  C   UNL     1      16.488  23.470   4.111  1.00  0.00     0.008 C 
ATOM     38  C   UNL     1      14.979  23.307   3.583  1.00  0.00    -0.017 C 
ATOM     39  C   UNL     1      12.973  21.705   4.046  1.00  0.00    -0.024 C 
ATOM     40  C   UNL     1      14.285  24.799   3.655  1.00  0.00     0.013 C 
ATOM     41  C   UNL     1      14.966  22.776   2.027  1.00  0.00     0.009 C 
ATOM     42  C   UNL     1      12.829  21.437   2.704  1.00  0.00     0.005 C 
ATOM     43  C   UNL     1      13.418  22.404   1.679  1.00  0.00     0.096 C 
ATOM     44  C   UNL     1      15.527  23.835   0.983  1.00  0.00     0.043 C 
ATOM     45  C   UNL     1      15.874  21.530   1.904  1.00  0.00     0.015 C 
ATOM     46  C   UNL     1      13.100  22.084   0.186  1.00  0.00     0.037 C 
ATOM     47  O   UNL     1      12.692  23.606   1.866  1.00  0.00    -0.369 OA
ATOM     48  C   UNL     1      14.895  23.818  -0.425  1.00  0.00     0.124 C 
ATOM     49  C   UNL     1      13.344  23.444  -0.440  1.00  0.00     0.026 C 
ATOM     50  C   UNL     1      13.700  20.992  -0.758  1.00  0.00     0.014 C 
ATOM     51  C   UNL     1      12.612  24.296   0.649  1.00  0.00     0.171 C 
ATOM     52  C   UNL     1      12.651  23.638  -1.784  1.00  0.00     0.013 C 
ATOM     53  C   UNL     1      13.141  21.095  -2.238  1.00  0.00    -0.035 C 
ATOM     54  C   UNL     1      12.989  22.562  -2.806  1.00  0.00     0.007 C 
ATOM     55  C   UNL     1      14.140  20.351  -3.203  1.00  0.00     0.011 C 
ATOM     56  C   UNL     1      11.761  20.414  -2.316  1.00  0.00     0.011 C 
BRANCH  29  57
ATOM     57  C   UNL     1      18.431  21.476   8.018  1.00  0.00     0.165 C 
BRANCH  57  58
ATOM     58  O   UNL     1      18.855  21.667   9.344  1.00  0.00    -0.396 OA
ATOM     59  H   UNL     1      18.940  20.866  10.028  1.00  0.00     0.210 HD
ENDBRANCH  57  58
ENDBRANCH  29  57
BRANCH  48  60
ATOM     60  O   UNL     1      15.742  23.012  -1.202  1.00  0.00    -0.392 OA
ATOM     61  H   UNL     1      15.840  22.136  -0.870  1.00  0.00     0.210 HD
ENDBRANCH  48  60
ENDBRANCH  26  27
ENDBRANCH   6  26
BRANCH   5  62
ATOM     62  O   UNL     1      17.855  26.167   8.939  1.00  0.00    -0.385 OA
ATOM     63  H   UNL     1      18.413  26.552   9.625  1.00  0.00     0.211 HD
ENDBRANCH   5  62
TORSDOF 14
ENDMDL
