MODEL 1
REMARK VINA RESULT:    -2.372      0.000      0.000
REMARK INTER + INTRA:          -2.372
REMARK INTER:                  -2.372
REMARK INTRA:                   0.000
REMARK UNBOUND:                 0.000
REMARK SMILES CC(=O)[O-]
REMARK SMILES IDX 1 1 2 2 3 3 4 4
REMARK H PARENT
REMARK Flexibility Score: inf
ROOT
ATOM      1  C   UNL     1      27.340  14.472  35.087  1.00  0.00     0.063 C 
ATOM      2  C   UNL     1      27.694  13.103  34.614  1.00  0.00     0.038 C 
ATOM      3  O   UNL     1      27.649  12.129  35.409  1.00  0.00    -0.550 OA
ATOM      4  O   UNL     1      28.023  12.891  33.281  1.00  0.00    -0.550 OA
ENDROOT
TORSDOF 0
ENDMDL
MODEL 2
REMARK VINA RESULT:    -2.353      0.891      1.874
REMARK INTER + INTRA:          -2.353
REMARK INTER:                  -2.353
REMARK INTRA:                   0.000
REMARK UNBOUND:                 0.000
REMARK SMILES CC(=O)[O-]
REMARK SMILES IDX 1 1 2 2 3 3 4 4
REMARK H PARENT
REMARK Flexibility Score: inf
ROOT
ATOM      1  C   UNL     1      27.586  13.577  34.833  1.00  0.00     0.063 C 
ATOM      2  C   UNL     1      27.958  12.287  34.185  1.00  0.00     0.038 C 
ATOM      3  O   UNL     1      28.403  12.277  33.007  1.00  0.00    -0.550 OA
ATOM      4  O   UNL     1      27.866  11.098  34.896  1.00  0.00    -0.550 OA
ENDROOT
TORSDOF 0
ENDMDL
MODEL 3
REMARK VINA RESULT:    -2.314      1.316      1.832
REMARK INTER + INTRA:          -2.314
REMARK INTER:                  -2.314
REMARK INTRA:                   0.000
REMARK UNBOUND:                 0.000
REMARK SMILES CC(=O)[O-]
REMARK SMILES IDX 1 1 2 2 3 3 4 4
REMARK H PARENT
REMARK Flexibility Score: inf
ROOT
ATOM      1  C   UNL     1      27.663  11.213  34.792  1.00  0.00     0.063 C 
ATOM      2  C   UNL     1      27.877  12.615  34.331  1.00  0.00     0.038 C 
ATOM      3  O   UNL     1      27.944  13.552  35.169  1.00  0.00    -0.550 OA
ATOM      4  O   UNL     1      28.058  12.884  32.980  1.00  0.00    -0.550 OA
ENDROOT
TORSDOF 0
ENDMDL
MODEL 4
REMARK VINA RESULT:    -2.314      1.514      2.350
REMARK INTER + INTRA:          -2.314
REMARK INTER:                  -2.314
REMARK INTRA:                   0.000
REMARK UNBOUND:                 0.000
REMARK SMILES CC(=O)[O-]
REMARK SMILES IDX 1 1 2 2 3 3 4 4
REMARK H PARENT
REMARK Flexibility Score: inf
ROOT
ATOM      1  C   UNL     1      27.054  11.026  34.772  1.00  0.00     0.063 C 
ATOM      2  C   UNL     1      27.871  12.199  34.348  1.00  0.00     0.038 C 
ATOM      3  O   UNL     1      28.455  12.192  33.233  1.00  0.00    -0.550 OA
ATOM      4  O   UNL     1      27.945  13.325  35.158  1.00  0.00    -0.550 OA
ENDROOT
TORSDOF 0
ENDMDL
MODEL 5
REMARK VINA RESULT:    -2.272      1.679      2.199
REMARK INTER + INTRA:          -2.272
REMARK INTER:                  -2.272
REMARK INTRA:                   0.000
REMARK UNBOUND:                 0.000
REMARK SMILES CC(=O)[O-]
REMARK SMILES IDX 1 1 2 2 3 3 4 4
REMARK H PARENT
REMARK Flexibility Score: inf
ROOT
ATOM      1  C   UNL     1      27.735  13.179  35.030  1.00  0.00     0.063 C 
ATOM      2  C   UNL     1      26.800  12.028  35.190  1.00  0.00     0.038 C 
ATOM      3  O   UNL     1      27.125  10.887  34.769  1.00  0.00    -0.550 OA
ATOM      4  O   UNL     1      25.592  12.200  35.852  1.00  0.00    -0.550 OA
ENDROOT
TORSDOF 0
ENDMDL
MODEL 6
REMARK VINA RESULT:    -2.256      1.685      2.486
REMARK INTER + INTRA:          -2.256
REMARK INTER:                  -2.256
REMARK INTRA:                   0.000
REMARK UNBOUND:                 0.000
REMARK SMILES CC(=O)[O-]
REMARK SMILES IDX 1 1 2 2 3 3 4 4
REMARK H PARENT
REMARK Flexibility Score: inf
ROOT
ATOM      1  C   UNL     1      27.173  11.132  34.777  1.00  0.00     0.063 C 
ATOM      2  C   UNL     1      27.006  12.543  35.227  1.00  0.00     0.038 C 
ATOM      3  O   UNL     1      27.983  13.336  35.197  1.00  0.00    -0.550 OA
ATOM      4  O   UNL     1      25.758  13.003  35.629  1.00  0.00    -0.550 OA
ENDROOT
TORSDOF 0
ENDMDL
MODEL 7
REMARK VINA RESULT:    -2.240      1.684      2.003
REMARK INTER + INTRA:          -2.240
REMARK INTER:                  -2.240
REMARK INTRA:                   0.000
REMARK UNBOUND:                 0.000
REMARK SMILES CC(=O)[O-]
REMARK SMILES IDX 1 1 2 2 3 3 4 4
REMARK H PARENT
REMARK Flexibility Score: inf
ROOT
ATOM      1  C   UNL     1      25.650  12.605  35.611  1.00  0.00     0.063 C 
ATOM      2  C   UNL     1      27.043  12.265  35.204  1.00  0.00     0.038 C 
ATOM      3  O   UNL     1      27.932  13.156  35.187  1.00  0.00    -0.550 OA
ATOM      4  O   UNL     1      27.377  10.953  34.894  1.00  0.00    -0.550 OA
ENDROOT
TORSDOF 0
ENDMDL
MODEL 8
REMARK VINA RESULT:    -2.193     15.193     15.758
REMARK INTER + INTRA:          -2.193
REMARK INTER:                  -2.193
REMARK INTRA:                   0.000
REMARK UNBOUND:                 0.000
REMARK SMILES CC(=O)[O-]
REMARK SMILES IDX 1 1 2 2 3 3 4 4
REMARK H PARENT
REMARK Flexibility Score: inf
ROOT
ATOM      1  C   UNL     1      34.850   4.692  47.312  1.00  0.00     0.063 C 
ATOM      2  C   UNL     1      34.805   4.872  45.833  1.00  0.00     0.038 C 
ATOM      3  O   UNL     1      35.149   3.930  45.071  1.00  0.00    -0.550 OA
ATOM      4  O   UNL     1      34.333   6.060  45.290  1.00  0.00    -0.550 OA
ENDROOT
TORSDOF 0
ENDMDL
MODEL 9
REMARK VINA RESULT:    -2.191      2.233      2.256
REMARK INTER + INTRA:          -2.191
REMARK INTER:                  -2.191
REMARK INTRA:                   0.000
REMARK UNBOUND:                 0.000
REMARK SMILES CC(=O)[O-]
REMARK SMILES IDX 1 1 2 2 3 3 4 4
REMARK H PARENT
REMARK Flexibility Score: inf
ROOT
ATOM      1  C   UNL     1      28.433  12.009  33.601  1.00  0.00     0.063 C 
ATOM      2  C   UNL     1      27.093  11.525  34.041  1.00  0.00     0.038 C 
ATOM      3  O   UNL     1      26.997  10.719  35.003  1.00  0.00    -0.550 OA
ATOM      4  O   UNL     1      25.944  12.004  33.426  1.00  0.00    -0.550 OA
ENDROOT
TORSDOF 0
ENDMDL
