MODEL 1
REMARK VINA RESULT:    -4.907      0.000      0.000
REMARK INTER + INTRA:          -7.166
REMARK INTER:                  -6.629
REMARK INTRA:                  -0.538
REMARK UNBOUND:                -0.538
REMARK SMILES CCCCCCCC(=O)[O-]
REMARK SMILES IDX 5 1 6 2 7 3 8 4 9 5 10 6 4 7 3 8 2 9 1 10
REMARK H PARENT
REMARK Flexibility Score: inf
ROOT
ATOM      1  C   UNL     1       3.054  13.980   1.878  1.00  0.00     0.000 C 
ENDROOT
BRANCH   1   2
ATOM      2  C   UNL     1       3.151  14.953   3.064  1.00  0.00     0.006 C 
BRANCH   2   3
ATOM      3  C   UNL     1       4.270  14.577   4.045  1.00  0.00     0.053 C 
BRANCH   3   4
ATOM      4  C   UNL     1       4.859  15.807   4.660  1.00  0.00     0.041 C 
ATOM      5  O   UNL     1       5.982  16.230   4.279  1.00  0.00    -0.550 OA
ATOM      6  O   UNL     1       4.191  16.459   5.689  1.00  0.00    -0.550 OA
ENDBRANCH   3   4
ENDBRANCH   2   3
ENDBRANCH   1   2
BRANCH   1   7
ATOM      7  C   UNL     1       4.293  13.082   1.745  1.00  0.00     0.000 C 
BRANCH   7   8
ATOM      8  C   UNL     1       5.088  13.430   0.477  1.00  0.00    -0.000 C 
BRANCH   8   9
ATOM      9  C   UNL     1       6.112  14.551   0.711  1.00  0.00    -0.003 C 
ATOM     10  C   UNL     1       7.224  14.145   1.676  1.00  0.00     0.004 C 
ENDBRANCH   8   9
ENDBRANCH   7   8
ENDBRANCH   1   7
TORSDOF 6
ENDMDL
MODEL 2
REMARK VINA RESULT:    -4.832      2.225      3.766
REMARK INTER + INTRA:          -7.065
REMARK INTER:                  -6.476
REMARK INTRA:                  -0.589
REMARK UNBOUND:                -0.538
REMARK SMILES CCCCCCCC(=O)[O-]
REMARK SMILES IDX 5 1 6 2 7 3 8 4 9 5 10 6 4 7 3 8 2 9 1 10
REMARK H PARENT
REMARK Flexibility Score: inf
ROOT
ATOM      1  C   UNL     1       2.918  13.922   1.856  1.00  0.00     0.000 C 
ENDROOT
BRANCH   1   2
ATOM      2  C   UNL     1       4.244  13.148   1.801  1.00  0.00     0.006 C 
BRANCH   2   3
ATOM      3  C   UNL     1       4.993  13.352   0.477  1.00  0.00     0.053 C 
BRANCH   3   4
ATOM      4  C   UNL     1       5.937  14.508   0.585  1.00  0.00     0.041 C 
ATOM      5  O   UNL     1       5.525  15.683   0.392  1.00  0.00    -0.550 OA
ATOM      6  O   UNL     1       7.282  14.286   0.849  1.00  0.00    -0.550 OA
ENDBRANCH   3   4
ENDBRANCH   2   3
ENDBRANCH   1   2
BRANCH   1   7
ATOM      7  C   UNL     1       2.906  14.998   2.952  1.00  0.00     0.000 C 
BRANCH   7   8
ATOM      8  C   UNL     1       4.049  14.772   3.954  1.00  0.00    -0.000 C 
BRANCH   8   9
ATOM      9  C   UNL     1       4.806  16.067   4.287  1.00  0.00    -0.003 C 
ATOM     10  C   UNL     1       6.292  15.991   3.939  1.00  0.00     0.004 C 
ENDBRANCH   8   9
ENDBRANCH   7   8
ENDBRANCH   1   7
TORSDOF 6
ENDMDL
MODEL 3
REMARK VINA RESULT:    -4.823      2.388      3.834
REMARK INTER + INTRA:          -7.052
REMARK INTER:                  -6.488
REMARK INTRA:                  -0.564
REMARK UNBOUND:                -0.538
REMARK SMILES CCCCCCCC(=O)[O-]
REMARK SMILES IDX 5 1 6 2 7 3 8 4 9 5 10 6 4 7 3 8 2 9 1 10
REMARK H PARENT
REMARK Flexibility Score: inf
ROOT
ATOM      1  C   UNL     1       5.939  14.706   1.244  1.00  0.00     0.000 C 
ENDROOT
BRANCH   1   2
ATOM      2  C   UNL     1       5.118  13.451   0.906  1.00  0.00     0.006 C 
BRANCH   2   3
ATOM      3  C   UNL     1       4.033  13.156   1.950  1.00  0.00     0.053 C 
BRANCH   3   4
ATOM      4  C   UNL     1       2.804  13.961   1.666  1.00  0.00     0.041 C 
ATOM      5  O   UNL     1       2.273  13.927   0.524  1.00  0.00    -0.550 OA
ATOM      6  O   UNL     1       2.272  14.788   2.647  1.00  0.00    -0.550 OA
ENDBRANCH   3   4
ENDBRANCH   2   3
ENDBRANCH   1   2
BRANCH   1   7
ATOM      7  C   UNL     1       7.053  14.427   2.264  1.00  0.00     0.000 C 
BRANCH   7   8
ATOM      8  C   UNL     1       6.921  15.350   3.485  1.00  0.00    -0.000 C 
BRANCH   8   9
ATOM      9  C   UNL     1       5.608  16.148   3.482  1.00  0.00    -0.003 C 
ATOM     10  C   UNL     1       4.801  15.965   4.766  1.00  0.00     0.004 C 
ENDBRANCH   8   9
ENDBRANCH   7   8
ENDBRANCH   1   7
TORSDOF 6
ENDMDL
MODEL 4
REMARK VINA RESULT:    -4.820      1.251      1.885
REMARK INTER + INTRA:          -7.049
REMARK INTER:                  -6.468
REMARK INTRA:                  -0.581
REMARK UNBOUND:                -0.538
REMARK SMILES CCCCCCCC(=O)[O-]
REMARK SMILES IDX 5 1 6 2 7 3 8 4 9 5 10 6 4 7 3 8 2 9 1 10
REMARK H PARENT
REMARK Flexibility Score: inf
ROOT
ATOM      1  C   UNL     1       2.540  15.016   3.326  1.00  0.00     0.000 C 
ENDROOT
BRANCH   1   2
ATOM      2  C   UNL     1       3.694  14.766   4.310  1.00  0.00     0.006 C 
BRANCH   2   3
ATOM      3  C   UNL     1       4.487  16.041   4.627  1.00  0.00     0.053 C 
BRANCH   3   4
ATOM      4  C   UNL     1       5.590  16.230   3.635  1.00  0.00     0.041 C 
ATOM      5  O   UNL     1       6.784  16.006   3.965  1.00  0.00    -0.550 OA
ATOM      6  O   UNL     1       5.305  16.701   2.359  1.00  0.00    -0.550 OA
ENDBRANCH   3   4
ENDBRANCH   2   3
ENDBRANCH   1   2
BRANCH   1   7
ATOM      7  C   UNL     1       2.658  14.169   2.050  1.00  0.00     0.000 C 
BRANCH   7   8
ATOM      8  C   UNL     1       3.902  13.269   2.102  1.00  0.00    -0.000 C 
BRANCH   8   9
ATOM      9  C   UNL     1       4.782  13.405   0.850  1.00  0.00    -0.003 C 
ATOM     10  C   UNL     1       6.274  13.446   1.177  1.00  0.00     0.004 C 
ENDBRANCH   8   9
ENDBRANCH   7   8
ENDBRANCH   1   7
TORSDOF 6
ENDMDL
MODEL 5
REMARK VINA RESULT:    -4.801      1.271      2.739
REMARK INTER + INTRA:          -7.023
REMARK INTER:                  -6.502
REMARK INTRA:                  -0.521
REMARK UNBOUND:                -0.538
REMARK SMILES CCCCCCCC(=O)[O-]
REMARK SMILES IDX 5 1 6 2 7 3 8 4 9 5 10 6 4 7 3 8 2 9 1 10
REMARK H PARENT
REMARK Flexibility Score: inf
ROOT
ATOM      1  C   UNL     1       6.939  14.761   2.856  1.00  0.00     0.000 C 
ENDROOT
BRANCH   1   2
ATOM      2  C   UNL     1       6.392  15.786   3.863  1.00  0.00     0.006 C 
BRANCH   2   3
ATOM      3  C   UNL     1       5.001  16.306   3.481  1.00  0.00     0.053 C 
BRANCH   3   4
ATOM      4  C   UNL     1       4.016  16.012   4.568  1.00  0.00     0.041 C 
ATOM      5  O   UNL     1       4.274  16.331   5.759  1.00  0.00    -0.550 OA
ATOM      6  O   UNL     1       2.836  15.341   4.275  1.00  0.00    -0.550 OA
ENDBRANCH   3   4
ENDBRANCH   2   3
ENDBRANCH   1   2
BRANCH   1   7
ATOM      7  C   UNL     1       6.149  14.748   1.539  1.00  0.00     0.000 C 
BRANCH   7   8
ATOM      8  C   UNL     1       5.618  13.338   1.233  1.00  0.00    -0.000 C 
BRANCH   8   9
ATOM      9  C   UNL     1       4.271  13.054   1.915  1.00  0.00    -0.003 C 
ATOM     10  C   UNL     1       3.092  13.703   1.191  1.00  0.00     0.004 C 
ENDBRANCH   8   9
ENDBRANCH   7   8
ENDBRANCH   1   7
TORSDOF 6
ENDMDL
MODEL 6
REMARK VINA RESULT:    -4.794      2.449      3.735
REMARK INTER + INTRA:          -7.013
REMARK INTER:                  -6.585
REMARK INTRA:                  -0.428
REMARK UNBOUND:                -0.538
REMARK SMILES CCCCCCCC(=O)[O-]
REMARK SMILES IDX 5 1 6 2 7 3 8 4 9 5 10 6 4 7 3 8 2 9 1 10
REMARK H PARENT
REMARK Flexibility Score: inf
ROOT
ATOM      1  C   UNL     1       6.453  13.296   1.095  1.00  0.00     0.000 C 
ENDROOT
BRANCH   1   2
ATOM      2  C   UNL     1       4.955  13.254   0.754  1.00  0.00     0.006 C 
BRANCH   2   3
ATOM      3  C   UNL     1       4.065  13.202   2.003  1.00  0.00     0.053 C 
BRANCH   3   4
ATOM      4  C   UNL     1       2.813  13.990   1.785  1.00  0.00     0.041 C 
ATOM      5  O   UNL     1       2.151  13.848   0.723  1.00  0.00    -0.550 OA
ATOM      6  O   UNL     1       2.403  14.920   2.732  1.00  0.00    -0.550 OA
ENDBRANCH   3   4
ENDBRANCH   2   3
ENDBRANCH   1   2
BRANCH   1   7
ATOM      7  C   UNL     1       6.927  14.697   1.507  1.00  0.00     0.000 C 
BRANCH   7   8
ATOM      8  C   UNL     1       7.728  14.641   2.818  1.00  0.00    -0.000 C 
BRANCH   8   9
ATOM      9  C   UNL     1       7.347  15.767   3.791  1.00  0.00    -0.003 C 
ATOM     10  C   UNL     1       5.836  15.950   3.922  1.00  0.00     0.004 C 
ENDBRANCH   8   9
ENDBRANCH   7   8
ENDBRANCH   1   7
TORSDOF 6
ENDMDL
MODEL 7
REMARK VINA RESULT:    -4.763      1.137      2.976
REMARK INTER + INTRA:          -6.972
REMARK INTER:                  -6.465
REMARK INTRA:                  -0.507
REMARK UNBOUND:                -0.538
REMARK SMILES CCCCCCCC(=O)[O-]
REMARK SMILES IDX 5 1 6 2 7 3 8 4 9 5 10 6 4 7 3 8 2 9 1 10
REMARK H PARENT
REMARK Flexibility Score: inf
ROOT
ATOM      1  C   UNL     1       6.440  13.400   1.163  1.00  0.00     0.000 C 
ENDROOT
BRANCH   1   2
ATOM      2  C   UNL     1       6.967  14.762   1.643  1.00  0.00     0.006 C 
BRANCH   2   3
ATOM      3  C   UNL     1       6.829  14.948   3.160  1.00  0.00     0.053 C 
BRANCH   3   4
ATOM      4  C   UNL     1       5.729  15.913   3.470  1.00  0.00     0.041 C 
ATOM      5  O   UNL     1       5.232  16.622   2.555  1.00  0.00    -0.550 OA
ATOM      6  O   UNL     1       5.286  16.067   4.778  1.00  0.00    -0.550 OA
ENDBRANCH   3   4
ENDBRANCH   2   3
ENDBRANCH   1   2
BRANCH   1   7
ATOM      7  C   UNL     1       5.006  13.480   0.617  1.00  0.00     0.000 C 
BRANCH   7   8
ATOM      8  C   UNL     1       3.982  13.175   1.722  1.00  0.00    -0.000 C 
BRANCH   8   9
ATOM      9  C   UNL     1       2.654  13.921   1.517  1.00  0.00    -0.003 C 
ATOM     10  C   UNL     1       2.239  14.737   2.740  1.00  0.00     0.004 C 
ENDBRANCH   8   9
ENDBRANCH   7   8
ENDBRANCH   1   7
TORSDOF 6
ENDMDL
MODEL 8
REMARK VINA RESULT:    -4.683      1.957      3.992
REMARK INTER + INTRA:          -6.863
REMARK INTER:                  -6.313
REMARK INTRA:                  -0.550
REMARK UNBOUND:                -0.538
REMARK SMILES CCCCCCCC(=O)[O-]
REMARK SMILES IDX 5 1 6 2 7 3 8 4 9 5 10 6 4 7 3 8 2 9 1 10
REMARK H PARENT
REMARK Flexibility Score: inf
ROOT
ATOM      1  C   UNL     1       4.246  13.128   1.939  1.00  0.00     0.000 C 
ENDROOT
BRANCH   1   2
ATOM      2  C   UNL     1       5.043  13.263   0.632  1.00  0.00     0.006 C 
BRANCH   2   3
ATOM      3  C   UNL     1       6.003  14.460   0.646  1.00  0.00     0.053 C 
BRANCH   3   4
ATOM      4  C   UNL     1       7.326  14.061   1.219  1.00  0.00     0.041 C 
ATOM      5  O   UNL     1       7.581  14.273   2.433  1.00  0.00    -0.550 OA
ATOM      6  O   UNL     1       8.298  13.500   0.399  1.00  0.00    -0.550 OA
ENDBRANCH   3   4
ENDBRANCH   2   3
ENDBRANCH   1   2
BRANCH   1   7
ATOM      7  C   UNL     1       3.017  14.049   1.980  1.00  0.00     0.000 C 
BRANCH   7   8
ATOM      8  C   UNL     1       3.074  14.984   3.198  1.00  0.00    -0.000 C 
BRANCH   8   9
ATOM      9  C   UNL     1       4.301  14.722   4.086  1.00  0.00    -0.003 C 
ATOM     10  C   UNL     1       5.140  15.976   4.321  1.00  0.00     0.004 C 
ENDBRANCH   8   9
ENDBRANCH   7   8
ENDBRANCH   1   7
TORSDOF 6
ENDMDL
MODEL 9
REMARK VINA RESULT:    -4.638      2.568      3.714
REMARK INTER + INTRA:          -6.803
REMARK INTER:                  -6.511
REMARK INTRA:                  -0.292
REMARK UNBOUND:                -0.538
REMARK SMILES CCCCCCCC(=O)[O-]
REMARK SMILES IDX 5 1 6 2 7 3 8 4 9 5 10 6 4 7 3 8 2 9 1 10
REMARK H PARENT
REMARK Flexibility Score: inf
ROOT
ATOM      1  C   UNL     1       6.509  13.780   1.004  1.00  0.00     0.000 C 
ENDROOT
BRANCH   1   2
ATOM      2  C   UNL     1       5.130  13.124   0.830  1.00  0.00     0.006 C 
BRANCH   2   3
ATOM      3  C   UNL     1       4.246  13.270   2.075  1.00  0.00     0.053 C 
BRANCH   3   4
ATOM      4  C   UNL     1       2.939  13.904   1.716  1.00  0.00     0.041 C 
ATOM      5  O   UNL     1       2.460  13.758   0.561  1.00  0.00    -0.550 OA
ATOM      6  O   UNL     1       2.274  14.699   2.641  1.00  0.00    -0.550 OA
ENDBRANCH   3   4
ENDBRANCH   2   3
ENDBRANCH   1   2
BRANCH   1   7
ATOM      7  C   UNL     1       6.653  14.509   2.348  1.00  0.00     0.000 C 
BRANCH   7   8
ATOM      8  C   UNL     1       8.115  14.503   2.821  1.00  0.00    -0.000 C 
BRANCH   8   9
ATOM      9  C   UNL     1       9.110  14.689   1.665  1.00  0.00    -0.003 C 
ATOM     10  C   UNL     1      10.228  13.648   1.673  1.00  0.00     0.004 C 
ENDBRANCH   8   9
ENDBRANCH   7   8
ENDBRANCH   1   7
TORSDOF 6
ENDMDL
