MODEL 1
REMARK VINA RESULT:    -3.614      0.000      0.000
REMARK INTER + INTRA:          -5.864
REMARK INTER:                  -4.881
REMARK INTRA:                  -0.983
REMARK UNBOUND:                -0.983
REMARK SMILES O=C[C@@H](O)[C@H](O)[C@@H](O)CO
REMARK SMILES IDX 7 1 9 2 10 3 5 5 3 6 2 7 1 8 4 9 6 11 8 13
REMARK H PARENT 10 4 4 10 6 12 8 14
REMARK Flexibility Score: inf
ROOT
ATOM      1  C   UNL     1      -1.785   4.247 -24.780  1.00  0.00     0.171 C 
ENDROOT
BRANCH   1   2
ATOM      2  C   UNL     1      -2.858   3.763 -23.790  1.00  0.00     0.190 C 
BRANCH   2   3
ATOM      3  O   UNL     1      -2.517   4.129 -22.480  1.00  0.00    -0.394 OA
ATOM      4  H   UNL     1      -2.094   5.026 -22.534  1.00  0.00     0.210 HD
ENDBRANCH   2   3
ENDBRANCH   1   2
BRANCH   1   5
ATOM      5  C   UNL     1      -1.815   5.786 -24.919  1.00  0.00     0.181 C 
BRANCH   5   6
ATOM      6  C   UNL     1      -0.586   6.455 -24.251  1.00  0.00     0.209 C 
BRANCH   6   7
ATOM      7  C   UNL     1      -0.428   7.889 -24.687  1.00  0.00     0.258 C 
ATOM      8  O   UNL     1      -1.384   8.648 -24.678  1.00  0.00    -0.300 OA
ENDBRANCH   6   7
BRANCH   6   9
ATOM      9  O   UNL     1      -0.688   6.400 -22.850  1.00  0.00    -0.383 OA
ATOM     10  H   UNL     1      -1.350   7.086 -22.568  1.00  0.00     0.211 HD
ENDBRANCH   6   9
ENDBRANCH   5   6
BRANCH   5  11
ATOM     11  O   UNL     1      -2.993   6.279 -24.328  1.00  0.00    -0.387 OA
ATOM     12  H   UNL     1      -2.938   7.270 -24.348  1.00  0.00     0.211 HD
ENDBRANCH   5  11
ENDBRANCH   1   5
BRANCH   1  13
ATOM     13  O   UNL     1      -0.513   3.838 -24.340  1.00  0.00    -0.388 OA
ATOM     14  H   UNL     1      -0.054   4.643 -23.986  1.00  0.00     0.211 HD
ENDBRANCH   1  13
TORSDOF 8
ENDMDL
MODEL 2
REMARK VINA RESULT:    -3.518      6.489      8.402
REMARK INTER + INTRA:          -5.735
REMARK INTER:                  -5.522
REMARK INTRA:                  -0.212
REMARK UNBOUND:                -0.983
REMARK SMILES O=C[C@@H](O)[C@H](O)[C@@H](O)CO
REMARK SMILES IDX 7 1 9 2 10 3 5 5 3 6 2 7 1 8 4 9 6 11 8 13
REMARK H PARENT 10 4 4 10 6 12 8 14
REMARK Flexibility Score: inf
ROOT
ATOM      1  C   UNL     1       2.263   0.109 -24.071  1.00  0.00     0.171 C 
ENDROOT
BRANCH   1   2
ATOM      2  C   UNL     1       3.596   0.687 -24.576  1.00  0.00     0.190 C 
BRANCH   2   3
ATOM      3  O   UNL     1       3.838   1.940 -23.998  1.00  0.00    -0.394 OA
ATOM      4  H   UNL     1       3.932   1.791 -23.020  1.00  0.00     0.210 HD
ENDBRANCH   2   3
ENDBRANCH   1   2
BRANCH   1   5
ATOM      5  C   UNL     1       2.367  -0.299 -22.583  1.00  0.00     0.181 C 
BRANCH   5   6
ATOM      6  C   UNL     1       1.643  -1.640 -22.296  1.00  0.00     0.209 C 
BRANCH   6   7
ATOM      7  C   UNL     1       2.586  -2.668 -21.725  1.00  0.00     0.258 C 
ATOM      8  O   UNL     1       3.105  -3.502 -22.449  1.00  0.00    -0.300 OA
ENDBRANCH   6   7
BRANCH   6   9
ATOM      9  O   UNL     1       0.569  -1.446 -21.410  1.00  0.00    -0.383 OA
ATOM     10  H   UNL     1       0.945  -1.331 -20.498  1.00  0.00     0.211 HD
ENDBRANCH   6   9
ENDBRANCH   5   6
BRANCH   5  11
ATOM     11  O   UNL     1       1.804   0.716 -21.788  1.00  0.00    -0.387 OA
ATOM     12  H   UNL     1       1.203   0.274 -21.133  1.00  0.00     0.211 HD
ENDBRANCH   5  11
ENDBRANCH   1   5
BRANCH   1  13
ATOM     13  O   UNL     1       1.241   1.062 -24.229  1.00  0.00    -0.388 OA
ATOM     14  H   UNL     1       1.341   1.448 -25.137  1.00  0.00     0.211 HD
ENDBRANCH   1  13
TORSDOF 8
ENDMDL
MODEL 3
REMARK VINA RESULT:    -3.498      3.013      4.619
REMARK INTER + INTRA:          -5.708
REMARK INTER:                  -5.197
REMARK INTRA:                  -0.511
REMARK UNBOUND:                -0.983
REMARK SMILES O=C[C@@H](O)[C@H](O)[C@@H](O)CO
REMARK SMILES IDX 7 1 9 2 10 3 5 5 3 6 2 7 1 8 4 9 6 11 8 13
REMARK H PARENT 10 4 4 10 6 12 8 14
REMARK Flexibility Score: inf
ROOT
ATOM      1  C   UNL     1      -2.524   3.359 -23.284  1.00  0.00     0.171 C 
ENDROOT
BRANCH   1   2
ATOM      2  C   UNL     1      -1.485   2.225 -23.300  1.00  0.00     0.190 C 
BRANCH   2   3
ATOM      3  O   UNL     1      -1.992   1.085 -22.660  1.00  0.00    -0.394 OA
ATOM      4  H   UNL     1      -1.831   0.319 -23.271  1.00  0.00     0.210 HD
ENDBRANCH   2   3
ENDBRANCH   1   2
BRANCH   1   5
ATOM      5  C   UNL     1      -3.729   2.991 -22.388  1.00  0.00     0.181 C 
BRANCH   5   6
ATOM      6  C   UNL     1      -5.003   3.787 -22.771  1.00  0.00     0.209 C 
BRANCH   6   7
ATOM      7  C   UNL     1      -5.884   4.035 -21.573  1.00  0.00     0.258 C 
ATOM      8  O   UNL     1      -6.715   4.929 -21.590  1.00  0.00    -0.300 OA
ENDBRANCH   6   7
BRANCH   6   9
ATOM      9  O   UNL     1      -4.664   5.015 -23.365  1.00  0.00    -0.383 OA
ATOM     10  H   UNL     1      -4.297   4.823 -24.268  1.00  0.00     0.211 HD
ENDBRANCH   6   9
ENDBRANCH   5   6
BRANCH   5  11
ATOM     11  O   UNL     1      -3.401   3.252 -21.045  1.00  0.00    -0.387 OA
ATOM     12  H   UNL     1      -2.411   3.226 -20.976  1.00  0.00     0.211 HD
ENDBRANCH   5  11
ENDBRANCH   1   5
BRANCH   1  13
ATOM     13  O   UNL     1      -1.929   4.542 -22.812  1.00  0.00    -0.388 OA
ATOM     14  H   UNL     1      -2.032   4.546 -21.825  1.00  0.00     0.211 HD
ENDBRANCH   1  13
TORSDOF 8
ENDMDL
MODEL 4
REMARK VINA RESULT:    -3.483      2.300      4.883
REMARK INTER + INTRA:          -5.688
REMARK INTER:                  -5.261
REMARK INTRA:                  -0.427
REMARK UNBOUND:                -0.983
REMARK SMILES O=C[C@@H](O)[C@H](O)[C@@H](O)CO
REMARK SMILES IDX 7 1 9 2 10 3 5 5 3 6 2 7 1 8 4 9 6 11 8 13
REMARK H PARENT 10 4 4 10 6 12 8 14
REMARK Flexibility Score: inf
ROOT
ATOM      1  C   UNL     1      -3.190   3.994 -23.802  1.00  0.00     0.171 C 
ENDROOT
BRANCH   1   2
ATOM      2  C   UNL     1      -1.786   4.566 -24.056  1.00  0.00     0.190 C 
BRANCH   2   3
ATOM      3  O   UNL     1      -1.458   5.514 -23.077  1.00  0.00    -0.394 OA
ATOM      4  H   UNL     1      -2.305   5.965 -22.820  1.00  0.00     0.210 HD
ENDBRANCH   2   3
ENDBRANCH   1   2
BRANCH   1   5
ATOM      5  C   UNL     1      -3.171   2.980 -22.636  1.00  0.00     0.181 C 
BRANCH   5   6
ATOM      6  C   UNL     1      -4.228   3.319 -21.553  1.00  0.00     0.209 C 
BRANCH   6   7
ATOM      7  C   UNL     1      -5.485   2.505 -21.729  1.00  0.00     0.258 C 
ATOM      8  O   UNL     1      -6.314   2.820 -22.568  1.00  0.00    -0.300 OA
ENDBRANCH   6   7
BRANCH   6   9
ATOM      9  O   UNL     1      -3.709   3.104 -20.265  1.00  0.00    -0.383 OA
ATOM     10  H   UNL     1      -2.905   2.528 -20.355  1.00  0.00     0.211 HD
ENDBRANCH   6   9
ENDBRANCH   5   6
BRANCH   5  11
ATOM     11  O   UNL     1      -1.891   2.973 -22.053  1.00  0.00    -0.387 OA
ATOM     12  H   UNL     1      -1.305   2.427 -22.640  1.00  0.00     0.211 HD
ENDBRANCH   5  11
ENDBRANCH   1   5
BRANCH   1  13
ATOM     13  O   UNL     1      -4.083   5.040 -23.505  1.00  0.00    -0.388 OA
ATOM     14  H   UNL     1      -4.173   5.073 -22.517  1.00  0.00     0.211 HD
ENDBRANCH   1  13
TORSDOF 8
ENDMDL
MODEL 5
REMARK VINA RESULT:    -3.358      2.988      3.939
REMARK INTER + INTRA:          -5.519
REMARK INTER:                  -4.886
REMARK INTRA:                  -0.633
REMARK UNBOUND:                -0.983
REMARK SMILES O=C[C@@H](O)[C@H](O)[C@@H](O)CO
REMARK SMILES IDX 7 1 9 2 10 3 5 5 3 6 2 7 1 8 4 9 6 11 8 13
REMARK H PARENT 10 4 4 10 6 12 8 14
REMARK Flexibility Score: inf
ROOT
ATOM      1  C   UNL     1      -3.846   2.896 -22.081  1.00  0.00     0.171 C 
ENDROOT
BRANCH   1   2
ATOM      2  C   UNL     1      -5.257   3.478 -22.269  1.00  0.00     0.190 C 
BRANCH   2   3
ATOM      3  O   UNL     1      -5.187   4.773 -22.800  1.00  0.00    -0.394 OA
ATOM      4  H   UNL     1      -4.813   5.355 -22.087  1.00  0.00     0.210 HD
ENDBRANCH   2   3
ENDBRANCH   1   2
BRANCH   1   5
ATOM      5  C   UNL     1      -2.883   3.417 -23.172  1.00  0.00     0.181 C 
BRANCH   5   6
ATOM      6  C   UNL     1      -1.847   2.344 -23.595  1.00  0.00     0.209 C 
BRANCH   6   7
ATOM      7  C   UNL     1      -1.156   2.715 -24.882  1.00  0.00     0.258 C 
ATOM      8  O   UNL     1      -0.534   3.762 -24.971  1.00  0.00    -0.300 OA
ENDBRANCH   6   7
BRANCH   6   9
ATOM      9  O   UNL     1      -0.887   2.154 -22.586  1.00  0.00    -0.383 OA
ATOM     10  H   UNL     1      -1.347   1.752 -21.802  1.00  0.00     0.211 HD
ENDBRANCH   6   9
ENDBRANCH   5   6
BRANCH   5  11
ATOM     11  O   UNL     1      -2.209   4.553 -22.688  1.00  0.00    -0.387 OA
ATOM     12  H   UNL     1      -1.585   4.243 -21.981  1.00  0.00     0.211 HD
ENDBRANCH   5  11
ENDBRANCH   1   5
BRANCH   1  13
ATOM     13  O   UNL     1      -3.353   3.247 -20.811  1.00  0.00    -0.388 OA
ATOM     14  H   UNL     1      -3.718   4.143 -20.594  1.00  0.00     0.211 HD
ENDBRANCH   1  13
TORSDOF 8
ENDMDL
MODEL 6
REMARK VINA RESULT:    -3.332      3.031      4.219
REMARK INTER + INTRA:          -5.484
REMARK INTER:                  -4.560
REMARK INTRA:                  -0.924
REMARK UNBOUND:                -0.983
REMARK SMILES O=C[C@@H](O)[C@H](O)[C@@H](O)CO
REMARK SMILES IDX 7 1 9 2 10 3 5 5 3 6 2 7 1 8 4 9 6 11 8 13
REMARK H PARENT 10 4 4 10 6 12 8 14
REMARK Flexibility Score: inf
ROOT
ATOM      1  C   UNL     1      -4.810   2.188 -21.723  1.00  0.00     0.171 C 
ENDROOT
BRANCH   1   2
ATOM      2  C   UNL     1      -4.918   2.576 -20.239  1.00  0.00     0.190 C 
BRANCH   2   3
ATOM      3  O   UNL     1      -3.678   3.016 -19.755  1.00  0.00    -0.394 OA
ATOM      4  H   UNL     1      -2.983   2.612 -20.339  1.00  0.00     0.210 HD
ENDBRANCH   2   3
ENDBRANCH   1   2
BRANCH   1   5
ATOM      5  C   UNL     1      -4.987   3.426 -22.632  1.00  0.00     0.181 C 
BRANCH   5   6
ATOM      6  C   UNL     1      -3.679   3.788 -23.382  1.00  0.00     0.209 C 
BRANCH   6   7
ATOM      7  C   UNL     1      -3.909   4.863 -24.413  1.00  0.00     0.258 C 
ATOM      8  O   UNL     1      -4.993   5.420 -24.496  1.00  0.00    -0.300 OA
ENDBRANCH   6   7
BRANCH   6   9
ATOM      9  O   UNL     1      -2.687   4.210 -22.479  1.00  0.00    -0.383 OA
ATOM     10  H   UNL     1      -3.106   4.283 -21.582  1.00  0.00     0.211 HD
ENDBRANCH   6   9
ENDBRANCH   5   6
BRANCH   5  11
ATOM     11  O   UNL     1      -5.393   4.520 -21.846  1.00  0.00    -0.387 OA
ATOM     12  H   UNL     1      -4.602   5.109 -21.734  1.00  0.00     0.211 HD
ENDBRANCH   5  11
ENDBRANCH   1   5
BRANCH   1  13
ATOM     13  O   UNL     1      -3.558   1.596 -21.970  1.00  0.00    -0.388 OA
ATOM     14  H   UNL     1      -2.900   2.054 -21.385  1.00  0.00     0.211 HD
ENDBRANCH   1  13
TORSDOF 8
ENDMDL
MODEL 7
REMARK VINA RESULT:    -3.299      4.889      6.253
REMARK INTER + INTRA:          -5.439
REMARK INTER:                  -4.864
REMARK INTRA:                  -0.575
REMARK UNBOUND:                -0.983
REMARK SMILES O=C[C@@H](O)[C@H](O)[C@@H](O)CO
REMARK SMILES IDX 7 1 9 2 10 3 5 5 3 6 2 7 1 8 4 9 6 11 8 13
REMARK H PARENT 10 4 4 10 6 12 8 14
REMARK Flexibility Score: inf
ROOT
ATOM      1  C   UNL     1       1.892  -0.141 -22.403  1.00  0.00     0.171 C 
ENDROOT
BRANCH   1   2
ATOM      2  C   UNL     1       1.731  -1.556 -21.823  1.00  0.00     0.190 C 
BRANCH   2   3
ATOM      3  O   UNL     1       0.443  -1.726 -21.295  1.00  0.00    -0.394 OA
ATOM      4  H   UNL     1       0.457  -2.572 -20.773  1.00  0.00     0.210 HD
ENDBRANCH   2   3
ENDBRANCH   1   2
BRANCH   1   5
ATOM      5  C   UNL     1       0.625   0.285 -23.180  1.00  0.00     0.181 C 
BRANCH   5   6
ATOM      6  C   UNL     1       0.970   0.910 -24.557  1.00  0.00     0.209 C 
BRANCH   6   7
ATOM      7  C   UNL     1      -0.007   1.994 -24.936  1.00  0.00     0.258 C 
ATOM      8  O   UNL     1      -1.184   1.728 -25.125  1.00  0.00    -0.300 OA
ENDBRANCH   6   7
BRANCH   6   9
ATOM      9  O   UNL     1       2.274   1.436 -24.553  1.00  0.00    -0.383 OA
ATOM     10  H   UNL     1       2.886   0.728 -24.887  1.00  0.00     0.211 HD
ENDBRANCH   6   9
ENDBRANCH   5   6
BRANCH   5  11
ATOM     11  O   UNL     1      -0.095   1.218 -22.411  1.00  0.00    -0.387 OA
ATOM     12  H   UNL     1      -0.712   1.691 -23.028  1.00  0.00     0.211 HD
ENDBRANCH   5  11
ENDBRANCH   1   5
BRANCH   1  13
ATOM     13  O   UNL     1       2.137   0.774 -21.363  1.00  0.00    -0.388 OA
ATOM     14  H   UNL     1       2.235   1.669 -21.780  1.00  0.00     0.211 HD
ENDBRANCH   1  13
TORSDOF 8
ENDMDL
MODEL 8
REMARK VINA RESULT:    -3.261      6.250      7.257
REMARK INTER + INTRA:          -5.388
REMARK INTER:                  -5.251
REMARK INTRA:                  -0.137
REMARK UNBOUND:                -0.983
REMARK SMILES O=C[C@@H](O)[C@H](O)[C@@H](O)CO
REMARK SMILES IDX 7 1 9 2 10 3 5 5 3 6 2 7 1 8 4 9 6 11 8 13
REMARK H PARENT 10 4 4 10 6 12 8 14
REMARK Flexibility Score: inf
ROOT
ATOM      1  C   UNL     1       2.248  -0.321 -22.487  1.00  0.00     0.171 C 
ENDROOT
BRANCH   1   2
ATOM      2  C   UNL     1       1.737  -1.701 -22.040  1.00  0.00     0.190 C 
BRANCH   2   3
ATOM      3  O   UNL     1       0.494  -1.581 -21.403  1.00  0.00    -0.394 OA
ATOM      4  H   UNL     1       0.359  -0.614 -21.217  1.00  0.00     0.210 HD
ENDBRANCH   2   3
ENDBRANCH   1   2
BRANCH   1   5
ATOM      5  C   UNL     1       1.777   0.004 -23.923  1.00  0.00     0.181 C 
BRANCH   5   6
ATOM      6  C   UNL     1       2.967   0.297 -24.873  1.00  0.00     0.209 C 
BRANCH   6   7
ATOM      7  C   UNL     1       3.881   1.354 -24.310  1.00  0.00     0.258 C 
ATOM      8  O   UNL     1       4.805   1.793 -24.976  1.00  0.00    -0.300 OA
ENDBRANCH   6   7
BRANCH   6   9
ATOM      9  O   UNL     1       3.704  -0.874 -25.125  1.00  0.00    -0.383 OA
ATOM     10  H   UNL     1       4.352  -0.673 -25.850  1.00  0.00     0.211 HD
ENDBRANCH   6   9
ENDBRANCH   5   6
BRANCH   5  11
ATOM     11  O   UNL     1       0.923   1.121 -23.886  1.00  0.00    -0.387 OA
ATOM     12  H   UNL     1       1.479   1.921 -24.076  1.00  0.00     0.211 HD
ENDBRANCH   5  11
ENDBRANCH   1   5
BRANCH   1  13
ATOM     13  O   UNL     1       1.782   0.668 -21.602  1.00  0.00    -0.388 OA
ATOM     14  H   UNL     1       2.076   0.406 -20.691  1.00  0.00     0.211 HD
ENDBRANCH   1  13
TORSDOF 8
ENDMDL
MODEL 9
REMARK VINA RESULT:    -3.225      2.742      4.263
REMARK INTER + INTRA:          -5.340
REMARK INTER:                  -5.021
REMARK INTRA:                  -0.318
REMARK UNBOUND:                -0.983
REMARK SMILES O=C[C@@H](O)[C@H](O)[C@@H](O)CO
REMARK SMILES IDX 7 1 9 2 10 3 5 5 3 6 2 7 1 8 4 9 6 11 8 13
REMARK H PARENT 10 4 4 10 6 12 8 14
REMARK Flexibility Score: inf
ROOT
ATOM      1  C   UNL     1      -1.495   2.779 -24.101  1.00  0.00     0.171 C 
ENDROOT
BRANCH   1   2
ATOM      2  C   UNL     1      -0.912   1.463 -23.559  1.00  0.00     0.190 C 
BRANCH   2   3
ATOM      3  O   UNL     1      -1.843   0.817 -22.734  1.00  0.00    -0.394 OA
ATOM      4  H   UNL     1      -2.454   1.519 -22.387  1.00  0.00     0.210 HD
ENDBRANCH   2   3
ENDBRANCH   1   2
BRANCH   1   5
ATOM      5  C   UNL     1      -2.154   3.599 -22.968  1.00  0.00     0.181 C 
BRANCH   5   6
ATOM      6  C   UNL     1      -3.700   3.607 -23.079  1.00  0.00     0.209 C 
BRANCH   6   7
ATOM      7  C   UNL     1      -4.352   3.122 -21.809  1.00  0.00     0.258 C 
ATOM      8  O   UNL     1      -4.391   1.929 -21.551  1.00  0.00    -0.300 OA
ENDBRANCH   6   7
BRANCH   6   9
ATOM      9  O   UNL     1      -4.172   4.897 -23.383  1.00  0.00    -0.383 OA
ATOM     10  H   UNL     1      -4.405   5.343 -22.527  1.00  0.00     0.211 HD
ENDBRANCH   6   9
ENDBRANCH   5   6
BRANCH   5  11
ATOM     11  O   UNL     1      -1.675   4.921 -23.018  1.00  0.00    -0.387 OA
ATOM     12  H   UNL     1      -1.215   5.098 -22.156  1.00  0.00     0.211 HD
ENDBRANCH   5  11
ENDBRANCH   1   5
BRANCH   1  13
ATOM     13  O   UNL     1      -0.476   3.539 -24.702  1.00  0.00    -0.388 OA
ATOM     14  H   UNL     1      -0.858   4.433 -24.900  1.00  0.00     0.211 HD
ENDBRANCH   1  13
TORSDOF 8
ENDMDL
