MODEL 1
REMARK VINA RESULT:    -3.434      0.000      0.000
REMARK INTER + INTRA:          -5.148
REMARK INTER:                  -4.538
REMARK INTRA:                  -0.610
REMARK UNBOUND:                -0.610
REMARK SMILES C=CCC[C@@H](O)CCC
REMARK SMILES IDX 4 1 5 2 7 3 8 4 9 5 6 6 3 8 2 9 1 10
REMARK H PARENT 6 7
REMARK Flexibility Score: inf
ROOT
ATOM      1  C   UNL     1     -39.459  24.300   7.636  1.00  0.00     0.036 C 
ENDROOT
BRANCH   1   2
ATOM      2  C   UNL     1     -40.832  24.860   7.188  1.00  0.00     0.114 C 
BRANCH   2   3
ATOM      3  C   UNL     1     -41.097  24.679   5.671  1.00  0.00     0.031 C 
BRANCH   3   4
ATOM      4  C   UNL     1     -40.900  23.260   5.101  1.00  0.00    -0.001 C 
ATOM      5  C   UNL     1     -42.120  22.355   5.262  1.00  0.00     0.004 C 
ENDBRANCH   3   4
ENDBRANCH   2   3
BRANCH   2   6
ATOM      6  O   UNL     1     -41.023  26.194   7.593  1.00  0.00    -0.393 OA
ATOM      7  H   UNL     1     -40.622  26.784   6.903  1.00  0.00     0.210 HD
ENDBRANCH   2   6
ENDBRANCH   1   2
BRANCH   1   8
ATOM      8  C   UNL     1     -39.588  23.114   8.607  1.00  0.00     0.029 C 
BRANCH   8   9
ATOM      9  C   UNL     1     -41.017  22.687   8.809  1.00  0.00    -0.035 C 
ATOM     10  C   UNL     1     -41.363  21.397   8.883  1.00  0.00     0.004 C 
ENDBRANCH   8   9
ENDBRANCH   1   8
TORSDOF 6
ENDMDL
MODEL 2
REMARK VINA RESULT:    -3.377      1.973      3.278
REMARK INTER + INTRA:          -5.073
REMARK INTER:                  -4.568
REMARK INTRA:                  -0.505
REMARK UNBOUND:                -0.610
REMARK SMILES C=CCC[C@@H](O)CCC
REMARK SMILES IDX 4 1 5 2 7 3 8 4 9 5 6 6 3 8 2 9 1 10
REMARK H PARENT 6 7
REMARK Flexibility Score: inf
ROOT
ATOM      1  C   UNL     1     -40.303  24.133   5.797  1.00  0.00     0.036 C 
ENDROOT
BRANCH   1   2
ATOM      2  C   UNL     1     -41.456  23.098   5.806  1.00  0.00     0.114 C 
BRANCH   2   3
ATOM      3  C   UNL     1     -42.125  22.944   7.196  1.00  0.00     0.031 C 
BRANCH   3   4
ATOM      4  C   UNL     1     -42.020  21.558   7.863  1.00  0.00    -0.001 C 
ATOM      5  C   UNL     1     -41.102  21.526   9.083  1.00  0.00     0.004 C 
ENDBRANCH   3   4
ENDBRANCH   2   3
BRANCH   2   6
ATOM      6  O   UNL     1     -41.062  21.854   5.279  1.00  0.00    -0.393 OA
ATOM      7  H   UNL     1     -40.088  21.893   5.096  1.00  0.00     0.210 HD
ENDBRANCH   2   6
ENDBRANCH   1   2
BRANCH   1   8
ATOM      8  C   UNL     1     -39.866  24.547   7.212  1.00  0.00     0.029 C 
BRANCH   8   9
ATOM      9  C   UNL     1     -38.455  24.128   7.527  1.00  0.00    -0.035 C 
ATOM     10  C   UNL     1     -38.168  23.349   8.575  1.00  0.00     0.004 C 
ENDBRANCH   8   9
ENDBRANCH   1   8
TORSDOF 6
ENDMDL
MODEL 3
REMARK VINA RESULT:    -3.286      1.396      3.412
REMARK INTER + INTRA:          -4.953
REMARK INTER:                  -4.631
REMARK INTRA:                  -0.322
REMARK UNBOUND:                -0.610
REMARK SMILES C=CCC[C@@H](O)CCC
REMARK SMILES IDX 4 1 5 2 7 3 8 4 9 5 6 6 3 8 2 9 1 10
REMARK H PARENT 6 7
REMARK Flexibility Score: inf
ROOT
ATOM      1  C   UNL     1     -40.306  24.947   7.340  1.00  0.00     0.036 C 
ENDROOT
BRANCH   1   2
ATOM      2  C   UNL     1     -39.527  23.633   7.600  1.00  0.00     0.114 C 
BRANCH   2   3
ATOM      3  C   UNL     1     -39.757  23.061   9.023  1.00  0.00     0.031 C 
BRANCH   3   4
ATOM      4  C   UNL     1     -40.635  21.798   9.125  1.00  0.00    -0.001 C 
ATOM      5  C   UNL     1     -42.111  22.046   8.816  1.00  0.00     0.004 C 
ENDBRANCH   3   4
ENDBRANCH   2   3
BRANCH   2   6
ATOM      6  O   UNL     1     -38.156  23.757   7.307  1.00  0.00    -0.393 OA
ATOM      7  H   UNL     1     -38.036  23.608   6.334  1.00  0.00     0.210 HD
ENDBRANCH   2   6
ENDBRANCH   1   2
BRANCH   1   8
ATOM      8  C   UNL     1     -41.183  24.877   6.079  1.00  0.00     0.029 C 
BRANCH   8   9
ATOM      9  C   UNL     1     -40.961  23.616   5.289  1.00  0.00    -0.035 C 
ATOM     10  C   UNL     1     -41.789  22.571   5.382  1.00  0.00     0.004 C 
ENDBRANCH   8   9
ENDBRANCH   1   8
TORSDOF 6
ENDMDL
MODEL 4
REMARK VINA RESULT:    -3.134      2.005      3.960
REMARK INTER + INTRA:          -4.751
REMARK INTER:                  -4.306
REMARK INTRA:                  -0.445
REMARK UNBOUND:                -0.610
REMARK SMILES C=CCC[C@@H](O)CCC
REMARK SMILES IDX 4 1 5 2 7 3 8 4 9 5 6 6 3 8 2 9 1 10
REMARK H PARENT 6 7
REMARK Flexibility Score: inf
ROOT
ATOM      1  C   UNL     1     -42.051  23.100   7.848  1.00  0.00     0.036 C 
ENDROOT
BRANCH   1   2
ATOM      2  C   UNL     1     -41.174  22.463   8.954  1.00  0.00     0.114 C 
BRANCH   2   3
ATOM      3  C   UNL     1     -39.663  22.764   8.781  1.00  0.00     0.031 C 
BRANCH   3   4
ATOM      4  C   UNL     1     -39.299  24.108   8.118  1.00  0.00    -0.001 C 
ATOM      5  C   UNL     1     -38.007  24.066   7.305  1.00  0.00     0.004 C 
ENDBRANCH   3   4
ENDBRANCH   2   3
BRANCH   2   6
ATOM      6  O   UNL     1     -41.415  21.084   9.099  1.00  0.00    -0.393 OA
ATOM      7  H   UNL     1     -40.643  20.596   8.712  1.00  0.00     0.210 HD
ENDBRANCH   2   6
ENDBRANCH   1   2
BRANCH   1   8
ATOM      8  C   UNL     1     -42.124  22.238   6.576  1.00  0.00     0.029 C 
BRANCH   8   9
ATOM      9  C   UNL     1     -41.411  22.867   5.410  1.00  0.00    -0.035 C 
ATOM     10  C   UNL     1     -41.244  24.190   5.317  1.00  0.00     0.004 C 
ENDBRANCH   8   9
ENDBRANCH   1   8
TORSDOF 6
ENDMDL
MODEL 5
REMARK VINA RESULT:    -3.055      1.618      2.096
REMARK INTER + INTRA:          -4.647
REMARK INTER:                  -4.320
REMARK INTRA:                  -0.327
REMARK UNBOUND:                -0.610
REMARK SMILES C=CCC[C@@H](O)CCC
REMARK SMILES IDX 4 1 5 2 7 3 8 4 9 5 6 6 3 8 2 9 1 10
REMARK H PARENT 6 7
REMARK Flexibility Score: inf
ROOT
ATOM      1  C   UNL     1     -40.302  24.066   8.342  1.00  0.00     0.036 C 
ENDROOT
BRANCH   1   2
ATOM      2  C   UNL     1     -39.767  24.437   6.936  1.00  0.00     0.114 C 
BRANCH   2   3
ATOM      3  C   UNL     1     -40.817  24.232   5.813  1.00  0.00     0.031 C 
BRANCH   3   4
ATOM      4  C   UNL     1     -42.120  25.049   5.929  1.00  0.00    -0.001 C 
ATOM      5  C   UNL     1     -42.125  26.327   5.092  1.00  0.00     0.004 C 
ENDBRANCH   3   4
ENDBRANCH   2   3
BRANCH   2   6
ATOM      6  O   UNL     1     -38.554  23.790   6.637  1.00  0.00    -0.393 OA
ATOM      7  H   UNL     1     -38.373  23.910   5.670  1.00  0.00     0.210 HD
ENDBRANCH   2   6
ENDBRANCH   1   2
BRANCH   1   8
ATOM      8  C   UNL     1     -39.862  22.663   8.793  1.00  0.00     0.029 C 
BRANCH   8   9
ATOM      9  C   UNL     1     -41.012  21.695   8.872  1.00  0.00    -0.035 C 
ATOM     10  C   UNL     1     -42.037  21.747   8.014  1.00  0.00     0.004 C 
ENDBRANCH   8   9
ENDBRANCH   1   8
TORSDOF 6
ENDMDL
MODEL 6
REMARK VINA RESULT:    -2.683      1.424      2.799
REMARK INTER + INTRA:          -4.155
REMARK INTER:                  -3.856
REMARK INTRA:                  -0.299
REMARK UNBOUND:                -0.610
REMARK SMILES C=CCC[C@@H](O)CCC
REMARK SMILES IDX 4 1 5 2 7 3 8 4 9 5 6 6 3 8 2 9 1 10
REMARK H PARENT 6 7
REMARK Flexibility Score: inf
ROOT
ATOM      1  C   UNL     1     -40.363  21.914   8.547  1.00  0.00     0.036 C 
ENDROOT
BRANCH   1   2
ATOM      2  C   UNL     1     -41.804  22.358   8.193  1.00  0.00     0.114 C 
BRANCH   2   3
ATOM      3  C   UNL     1     -42.125  22.234   6.681  1.00  0.00     0.031 C 
BRANCH   3   4
ATOM      4  C   UNL     1     -41.236  23.047   5.719  1.00  0.00    -0.001 C 
ATOM      5  C   UNL     1     -41.372  24.560   5.882  1.00  0.00     0.004 C 
ENDBRANCH   3   4
ENDBRANCH   2   3
BRANCH   2   6
ATOM      6  O   UNL     1     -42.103  23.643   8.684  1.00  0.00    -0.393 OA
ATOM      7  H   UNL     1     -42.079  23.606   9.674  1.00  0.00     0.210 HD
ENDBRANCH   2   6
ENDBRANCH   1   2
BRANCH   1   8
ATOM      8  C   UNL     1     -39.448  23.097   8.906  1.00  0.00     0.029 C 
BRANCH   8   9
ATOM      9  C   UNL     1     -38.363  23.318   7.887  1.00  0.00    -0.035 C 
ATOM     10  C   UNL     1     -37.962  24.545   7.539  1.00  0.00     0.004 C 
ENDBRANCH   8   9
ENDBRANCH   1   8
TORSDOF 6
ENDMDL
MODEL 7
REMARK VINA RESULT:    -2.120     17.532     18.692
REMARK INTER + INTRA:          -3.411
REMARK INTER:                  -3.195
REMARK INTRA:                  -0.216
REMARK UNBOUND:                -0.610
REMARK SMILES C=CCC[C@@H](O)CCC
REMARK SMILES IDX 4 1 5 2 7 3 8 4 9 5 6 6 3 8 2 9 1 10
REMARK H PARENT 6 7
REMARK Flexibility Score: inf
ROOT
ATOM      1  C   UNL     1     -23.336  17.009   6.640  1.00  0.00     0.036 C 
ENDROOT
BRANCH   1   2
ATOM      2  C   UNL     1     -23.383  17.443   8.126  1.00  0.00     0.114 C 
BRANCH   2   3
ATOM      3  C   UNL     1     -24.259  16.512   9.004  1.00  0.00     0.031 C 
BRANCH   3   4
ATOM      4  C   UNL     1     -25.664  16.177   8.465  1.00  0.00    -0.001 C 
ATOM      5  C   UNL     1     -26.778  17.030   9.072  1.00  0.00     0.004 C 
ENDBRANCH   3   4
ENDBRANCH   2   3
BRANCH   2   6
ATOM      6  O   UNL     1     -23.749  18.794   8.277  1.00  0.00    -0.393 OA
ATOM      7  H   UNL     1     -24.600  18.825   8.785  1.00  0.00     0.210 HD
ENDBRANCH   2   6
ENDBRANCH   1   2
BRANCH   1   8
ATOM      8  C   UNL     1     -22.253  15.951   6.364  1.00  0.00     0.029 C 
BRANCH   8   9
ATOM      9  C   UNL     1     -21.875  15.877   4.909  1.00  0.00    -0.035 C 
ATOM     10  C   UNL     1     -22.740  16.193   3.939  1.00  0.00     0.004 C 
ENDBRANCH   8   9
ENDBRANCH   1   8
TORSDOF 6
ENDMDL
MODEL 8
REMARK VINA RESULT:    -1.645     17.728     19.323
REMARK INTER + INTRA:          -2.783
REMARK INTER:                  -2.631
REMARK INTRA:                  -0.152
REMARK UNBOUND:                -0.610
REMARK SMILES C=CCC[C@@H](O)CCC
REMARK SMILES IDX 4 1 5 2 7 3 8 4 9 5 6 6 3 8 2 9 1 10
REMARK H PARENT 6 7
REMARK Flexibility Score: inf
ROOT
ATOM      1  C   UNL     1     -23.971  30.678   8.041  1.00  0.00     0.036 C 
ENDROOT
BRANCH   1   2
ATOM      2  C   UNL     1     -22.787  30.615   9.038  1.00  0.00     0.114 C 
BRANCH   2   3
ATOM      3  C   UNL     1     -21.993  31.944   9.125  1.00  0.00     0.031 C 
BRANCH   3   4
ATOM      4  C   UNL     1     -22.745  33.225   8.711  1.00  0.00    -0.001 C 
ATOM      5  C   UNL     1     -22.004  34.515   9.057  1.00  0.00     0.004 C 
ENDBRANCH   3   4
ENDBRANCH   2   3
BRANCH   2   6
ATOM      6  O   UNL     1     -21.939  29.519   8.792  1.00  0.00    -0.393 OA
ATOM      7  H   UNL     1     -22.363  28.954   8.096  1.00  0.00     0.210 HD
ENDBRANCH   2   6
ENDBRANCH   1   2
BRANCH   1   8
ATOM      8  C   UNL     1     -24.126  29.387   7.220  1.00  0.00     0.029 C 
BRANCH   8   9
ATOM      9  C   UNL     1     -25.031  29.565   6.030  1.00  0.00    -0.035 C 
ATOM     10  C   UNL     1     -25.603  28.522   5.418  1.00  0.00     0.004 C 
ENDBRANCH   8   9
ENDBRANCH   1   8
TORSDOF 6
ENDMDL
