MODEL 1
REMARK VINA RESULT:    -1.387      0.000      0.000
REMARK INTER + INTRA:          -7.171
REMARK INTER:                  -3.009
REMARK INTRA:                  -4.162
REMARK UNBOUND:                -4.162
REMARK SMILES CCCCCCCCCCCCCCCCCCCCCC(=O)[O-]
REMARK SMILES IDX 12 1 11 2 10 3 9 4 8 5 7 6 6 7 5 8 4 9 3 10 2 11 1 12 13 13
REMARK SMILES IDX 14 14 15 15 16 16 17 17 18 18 19 19 20 20 21 21 22 22 23 23
REMARK SMILES IDX 24 24
REMARK H PARENT
REMARK Flexibility Score: inf
ROOT
ATOM      1  C   UNL     1     173.114 179.718 197.187  1.00  0.00     0.000 C 
ENDROOT
BRANCH   1   2
ATOM      2  C   UNL     1     173.390 178.320 196.615  1.00  0.00     0.000 C 
BRANCH   2   3
ATOM      3  C   UNL     1     173.017 177.190 197.591  1.00  0.00     0.000 C 
BRANCH   3   4
ATOM      4  C   UNL     1     173.928 177.068 198.828  1.00  0.00    -0.000 C 
BRANCH   4   5
ATOM      5  C   UNL     1     173.252 177.396 200.172  1.00  0.00    -0.000 C 
BRANCH   5   6
ATOM      6  C   UNL     1     171.742 177.642 200.035  1.00  0.00    -0.000 C 
BRANCH   6   7
ATOM      7  C   UNL     1     171.382 179.080 200.430  1.00  0.00    -0.000 C 
BRANCH   7   8
ATOM      8  C   UNL     1     172.608 179.826 200.970  1.00  0.00    -0.000 C 
BRANCH   8   9
ATOM      9  C   UNL     1     172.589 181.300 200.537  1.00  0.00    -0.000 C 
BRANCH   9  10
ATOM     10  C   UNL     1     171.296 181.682 199.798  1.00  0.00    -0.000 C 
BRANCH  10  11
ATOM     11  C   UNL     1     171.527 182.743 198.713  1.00  0.00    -0.003 C 
ATOM     12  C   UNL     1     172.859 183.458 198.921  1.00  0.00     0.004 C 
ENDBRANCH  10  11
ENDBRANCH   9  10
ENDBRANCH   8   9
ENDBRANCH   7   8
ENDBRANCH   6   7
ENDBRANCH   5   6
ENDBRANCH   4   5
ENDBRANCH   3   4
ENDBRANCH   2   3
ENDBRANCH   1   2
BRANCH   1  13
ATOM     13  C   UNL     1     174.425 180.477 197.437  1.00  0.00     0.000 C 
BRANCH  13  14
ATOM     14  C   UNL     1     175.521 180.143 196.409  1.00  0.00     0.000 C 
BRANCH  14  15
ATOM     15  C   UNL     1     175.824 181.255 195.388  1.00  0.00     0.000 C 
BRANCH  15  16
ATOM     16  C   UNL     1     175.172 182.599 195.754  1.00  0.00     0.000 C 
BRANCH  16  17
ATOM     17  C   UNL     1     174.163 183.084 194.695  1.00  0.00     0.000 C 
BRANCH  17  18
ATOM     18  C   UNL     1     172.683 182.932 195.088  1.00  0.00     0.000 C 
BRANCH  18  19
ATOM     19  C   UNL     1     171.994 181.749 194.385  1.00  0.00     0.000 C 
BRANCH  19  20
ATOM     20  C   UNL     1     172.810 181.188 193.207  1.00  0.00     0.006 C 
BRANCH  20  21
ATOM     21  C   UNL     1     173.073 179.674 193.298  1.00  0.00     0.053 C 
BRANCH  21  22
ATOM     22  C   UNL     1     172.430 178.911 192.180  1.00  0.00     0.041 C 
ATOM     23  O   UNL     1     171.560 178.034 192.431  1.00  0.00    -0.550 OA
ATOM     24  O   UNL     1     172.813 179.140 190.865  1.00  0.00    -0.550 OA
ENDBRANCH  21  22
ENDBRANCH  20  21
ENDBRANCH  19  20
ENDBRANCH  18  19
ENDBRANCH  17  18
ENDBRANCH  16  17
ENDBRANCH  15  16
ENDBRANCH  14  15
ENDBRANCH  13  14
ENDBRANCH   1  13
TORSDOF 20
ENDMDL
MODEL 2
REMARK VINA RESULT:    -1.303      1.366      2.279
REMARK INTER + INTRA:          -6.989
REMARK INTER:                  -2.818
REMARK INTRA:                  -4.171
REMARK UNBOUND:                -4.162
REMARK SMILES CCCCCCCCCCCCCCCCCCCCCC(=O)[O-]
REMARK SMILES IDX 12 1 11 2 10 3 9 4 8 5 7 6 6 7 5 8 4 9 3 10 2 11 1 12 13 13
REMARK SMILES IDX 14 14 15 15 16 16 17 17 18 18 19 19 20 20 21 21 22 22 23 23
REMARK SMILES IDX 24 24
REMARK H PARENT
REMARK Flexibility Score: inf
ROOT
ATOM      1  C   UNL     1     176.016 178.835 193.883  1.00  0.00     0.000 C 
ENDROOT
BRANCH   1   2
ATOM      2  C   UNL     1     175.316 177.471 193.981  1.00  0.00     0.000 C 
BRANCH   2   3
ATOM      3  C   UNL     1     174.081 177.498 194.897  1.00  0.00     0.000 C 
BRANCH   3   4
ATOM      4  C   UNL     1     174.298 176.906 196.305  1.00  0.00    -0.000 C 
BRANCH   4   5
ATOM      5  C   UNL     1     173.124 177.098 197.281  1.00  0.00    -0.000 C 
BRANCH   5   6
ATOM      6  C   UNL     1     173.580 177.248 198.740  1.00  0.00    -0.000 C 
BRANCH   6   7
ATOM      7  C   UNL     1     172.401 177.618 199.649  1.00  0.00    -0.000 C 
BRANCH   7   8
ATOM      8  C   UNL     1     172.050 179.104 199.516  1.00  0.00    -0.000 C 
BRANCH   8   9
ATOM      9  C   UNL     1     172.724 179.930 200.622  1.00  0.00    -0.000 C 
BRANCH   9  10
ATOM     10  C   UNL     1     172.558 181.444 200.414  1.00  0.00    -0.000 C 
BRANCH  10  11
ATOM     11  C   UNL     1     171.475 181.783 199.380  1.00  0.00    -0.003 C 
ATOM     12  C   UNL     1     171.748 183.134 198.724  1.00  0.00     0.004 C 
ENDBRANCH  10  11
ENDBRANCH   9  10
ENDBRANCH   8   9
ENDBRANCH   7   8
ENDBRANCH   6   7
ENDBRANCH   5   6
ENDBRANCH   4   5
ENDBRANCH   3   4
ENDBRANCH   2   3
ENDBRANCH   1   2
BRANCH   1  13
ATOM     13  C   UNL     1     177.086 178.982 194.974  1.00  0.00     0.000 C 
BRANCH  13  14
ATOM     14  C   UNL     1     176.800 180.141 195.948  1.00  0.00     0.000 C 
BRANCH  14  15
ATOM     15  C   UNL     1     176.395 179.717 197.372  1.00  0.00     0.000 C 
BRANCH  15  16
ATOM     16  C   UNL     1     175.138 180.444 197.880  1.00  0.00     0.000 C 
BRANCH  16  17
ATOM     17  C   UNL     1     174.446 181.281 196.787  1.00  0.00     0.000 C 
BRANCH  17  18
ATOM     18  C   UNL     1     173.132 180.688 196.247  1.00  0.00     0.000 C 
BRANCH  18  19
ATOM     19  C   UNL     1     172.597 181.440 195.015  1.00  0.00     0.000 C 
BRANCH  19  20
ATOM     20  C   UNL     1     173.102 180.855 193.684  1.00  0.00     0.006 C 
BRANCH  20  21
ATOM     21  C   UNL     1     171.976 180.384 192.746  1.00  0.00     0.053 C 
BRANCH  21  22
ATOM     22  C   UNL     1     172.279 179.065 192.103  1.00  0.00     0.041 C 
ATOM     23  O   UNL     1     171.597 178.046 192.396  1.00  0.00    -0.550 OA
ATOM     24  O   UNL     1     173.334 178.949 191.207  1.00  0.00    -0.550 OA
ENDBRANCH  21  22
ENDBRANCH  20  21
ENDBRANCH  19  20
ENDBRANCH  18  19
ENDBRANCH  17  18
ENDBRANCH  16  17
ENDBRANCH  15  16
ENDBRANCH  14  15
ENDBRANCH  13  14
ENDBRANCH   1  13
TORSDOF 20
ENDMDL
MODEL 3
REMARK VINA RESULT:    -1.170      2.863      6.763
REMARK INTER + INTRA:          -6.701
REMARK INTER:                  -2.409
REMARK INTRA:                  -4.292
REMARK UNBOUND:                -4.162
REMARK SMILES CCCCCCCCCCCCCCCCCCCCCC(=O)[O-]
REMARK SMILES IDX 12 1 11 2 10 3 9 4 8 5 7 6 6 7 5 8 4 9 3 10 2 11 1 12 13 13
REMARK SMILES IDX 14 14 15 15 16 16 17 17 18 18 19 19 20 20 21 21 22 22 23 23
REMARK SMILES IDX 24 24
REMARK H PARENT
REMARK Flexibility Score: inf
ROOT
ATOM      1  C   UNL     1     175.662 178.876 193.724  1.00  0.00     0.000 C 
ENDROOT
BRANCH   1   2
ATOM      2  C   UNL     1     176.204 178.624 192.309  1.00  0.00     0.000 C 
BRANCH   2   3
ATOM      3  C   UNL     1     175.335 177.643 191.502  1.00  0.00     0.000 C 
BRANCH   3   4
ATOM      4  C   UNL     1     174.749 178.214 190.195  1.00  0.00    -0.000 C 
BRANCH   4   5
ATOM      5  C   UNL     1     173.219 178.102 190.063  1.00  0.00    -0.000 C 
BRANCH   5   6
ATOM      6  C   UNL     1     172.527 177.792 191.398  1.00  0.00    -0.000 C 
BRANCH   6   7
ATOM      7  C   UNL     1     171.631 178.958 191.836  1.00  0.00    -0.000 C 
BRANCH   7   8
ATOM      8  C   UNL     1     172.341 179.838 192.872  1.00  0.00    -0.000 C 
BRANCH   8   9
ATOM      9  C   UNL     1     172.483 181.280 192.362  1.00  0.00    -0.000 C 
BRANCH   9  10
ATOM     10  C   UNL     1     173.946 181.673 192.098  1.00  0.00    -0.000 C 
BRANCH  10  11
ATOM     11  C   UNL     1     174.172 182.176 190.666  1.00  0.00    -0.003 C 
ATOM     12  C   UNL     1     175.540 181.746 190.143  1.00  0.00     0.004 C 
ENDBRANCH  10  11
ENDBRANCH   9  10
ENDBRANCH   8   9
ENDBRANCH   7   8
ENDBRANCH   6   7
ENDBRANCH   5   6
ENDBRANCH   4   5
ENDBRANCH   3   4
ENDBRANCH   2   3
ENDBRANCH   1   2
BRANCH   1  13
ATOM     13  C   UNL     1     176.322 177.934 194.740  1.00  0.00     0.000 C 
BRANCH  13  14
ATOM     14  C   UNL     1     175.344 176.900 195.329  1.00  0.00     0.000 C 
BRANCH  14  15
ATOM     15  C   UNL     1     173.941 176.889 194.695  1.00  0.00     0.000 C 
BRANCH  15  16
ATOM     16  C   UNL     1     172.842 177.368 195.660  1.00  0.00     0.000 C 
BRANCH  16  17
ATOM     17  C   UNL     1     173.168 177.067 197.135  1.00  0.00     0.000 C 
BRANCH  17  18
ATOM     18  C   UNL     1     173.356 178.306 198.028  1.00  0.00     0.000 C 
BRANCH  18  19
ATOM     19  C   UNL     1     173.044 179.624 197.297  1.00  0.00     0.000 C 
BRANCH  19  20
ATOM     20  C   UNL     1     174.305 180.435 196.949  1.00  0.00     0.006 C 
BRANCH  20  21
ATOM     21  C   UNL     1     174.084 181.480 195.840  1.00  0.00     0.053 C 
BRANCH  21  22
ATOM     22  C   UNL     1     173.109 182.545 196.240  1.00  0.00     0.041 C 
ATOM     23  O   UNL     1     172.111 182.795 195.511  1.00  0.00    -0.550 OA
ATOM     24  O   UNL     1     173.316 183.286 197.396  1.00  0.00    -0.550 OA
ENDBRANCH  21  22
ENDBRANCH  20  21
ENDBRANCH  19  20
ENDBRANCH  18  19
ENDBRANCH  17  18
ENDBRANCH  16  17
ENDBRANCH  15  16
ENDBRANCH  14  15
ENDBRANCH  13  14
ENDBRANCH   1  13
TORSDOF 20
ENDMDL
MODEL 4
REMARK VINA RESULT:    -1.159      2.823      6.695
REMARK INTER + INTRA:          -6.677
REMARK INTER:                  -2.949
REMARK INTRA:                  -3.727
REMARK UNBOUND:                -4.162
REMARK SMILES CCCCCCCCCCCCCCCCCCCCCC(=O)[O-]
REMARK SMILES IDX 12 1 11 2 10 3 9 4 8 5 7 6 6 7 5 8 4 9 3 10 2 11 1 12 13 13
REMARK SMILES IDX 14 14 15 15 16 16 17 17 18 18 19 19 20 20 21 21 22 22 23 23
REMARK SMILES IDX 24 24
REMARK H PARENT
REMARK Flexibility Score: inf
ROOT
ATOM      1  C   UNL     1     174.333 180.610 195.841  1.00  0.00     0.000 C 
ENDROOT
BRANCH   1   2
ATOM      2  C   UNL     1     173.014 180.759 195.069  1.00  0.00     0.000 C 
BRANCH   2   3
ATOM      3  C   UNL     1     173.221 180.862 193.547  1.00  0.00     0.000 C 
BRANCH   3   4
ATOM      4  C   UNL     1     172.137 180.175 192.692  1.00  0.00    -0.000 C 
BRANCH   4   5
ATOM      5  C   UNL     1     172.209 178.638 192.658  1.00  0.00    -0.000 C 
BRANCH   5   6
ATOM      6  C   UNL     1     173.616 178.114 192.333  1.00  0.00    -0.000 C 
BRANCH   6   7
ATOM      7  C   UNL     1     173.949 176.875 193.173  1.00  0.00    -0.000 C 
BRANCH   7   8
ATOM      8  C   UNL     1     175.340 176.998 193.807  1.00  0.00    -0.000 C 
BRANCH   8   9
ATOM      9  C   UNL     1     176.017 178.314 193.396  1.00  0.00    -0.000 C 
BRANCH   9  10
ATOM     10  C   UNL     1     177.453 178.434 193.933  1.00  0.00    -0.000 C 
BRANCH  10  11
ATOM     11  C   UNL     1     177.688 179.740 194.703  1.00  0.00    -0.003 C 
ATOM     12  C   UNL     1     179.171 179.940 195.005  1.00  0.00     0.004 C 
ENDBRANCH  10  11
ENDBRANCH   9  10
ENDBRANCH   8   9
ENDBRANCH   7   8
ENDBRANCH   6   7
ENDBRANCH   5   6
ENDBRANCH   4   5
ENDBRANCH   3   4
ENDBRANCH   2   3
ENDBRANCH   1   2
BRANCH   1  13
ATOM     13  C   UNL     1     174.361 179.293 196.630  1.00  0.00     0.000 C 
BRANCH  13  14
ATOM     14  C   UNL     1     173.135 178.401 196.358  1.00  0.00     0.000 C 
BRANCH  14  15
ATOM     15  C   UNL     1     173.111 177.067 197.126  1.00  0.00     0.000 C 
BRANCH  15  16
ATOM     16  C   UNL     1     173.508 177.219 198.605  1.00  0.00     0.000 C 
BRANCH  16  17
ATOM     17  C   UNL     1     172.320 177.598 199.509  1.00  0.00     0.000 C 
BRANCH  17  18
ATOM     18  C   UNL     1     172.443 178.964 200.207  1.00  0.00     0.000 C 
BRANCH  18  19
ATOM     19  C   UNL     1     171.626 180.068 199.513  1.00  0.00     0.000 C 
BRANCH  19  20
ATOM     20  C   UNL     1     172.485 181.259 199.053  1.00  0.00     0.006 C 
BRANCH  20  21
ATOM     21  C   UNL     1     171.692 182.565 198.873  1.00  0.00     0.053 C 
BRANCH  21  22
ATOM     22  C   UNL     1     172.082 183.309 197.632  1.00  0.00     0.041 C 
ATOM     23  O   UNL     1     171.223 183.550 196.742  1.00  0.00    -0.550 OA
ATOM     24  O   UNL     1     173.399 183.705 197.438  1.00  0.00    -0.550 OA
ENDBRANCH  21  22
ENDBRANCH  20  21
ENDBRANCH  19  20
ENDBRANCH  18  19
ENDBRANCH  17  18
ENDBRANCH  16  17
ENDBRANCH  15  16
ENDBRANCH  14  15
ENDBRANCH  13  14
ENDBRANCH   1  13
TORSDOF 20
ENDMDL
MODEL 5
REMARK VINA RESULT:    -1.153      2.131      4.031
REMARK INTER + INTRA:          -6.663
REMARK INTER:                  -2.525
REMARK INTRA:                  -4.138
REMARK UNBOUND:                -4.162
REMARK SMILES CCCCCCCCCCCCCCCCCCCCCC(=O)[O-]
REMARK SMILES IDX 12 1 11 2 10 3 9 4 8 5 7 6 6 7 5 8 4 9 3 10 2 11 1 12 13 13
REMARK SMILES IDX 14 14 15 15 16 16 17 17 18 18 19 19 20 20 21 21 22 22 23 23
REMARK SMILES IDX 24 24
REMARK H PARENT
REMARK Flexibility Score: inf
ROOT
ATOM      1  C   UNL     1     172.942 180.826 199.455  1.00  0.00     0.000 C 
ENDROOT
BRANCH   1   2
ATOM      2  C   UNL     1     171.649 180.283 200.083  1.00  0.00     0.000 C 
BRANCH   2   3
ATOM      3  C   UNL     1     171.901 179.117 201.055  1.00  0.00     0.000 C 
BRANCH   3   4
ATOM      4  C   UNL     1     171.861 177.714 200.418  1.00  0.00    -0.000 C 
BRANCH   4   5
ATOM      5  C   UNL     1     173.147 176.884 200.585  1.00  0.00    -0.000 C 
BRANCH   5   6
ATOM      6  C   UNL     1     174.375 177.747 200.912  1.00  0.00    -0.000 C 
BRANCH   6   7
ATOM      7  C   UNL     1     175.537 177.430 199.962  1.00  0.00    -0.000 C 
BRANCH   7   8
ATOM      8  C   UNL     1     176.703 178.403 200.175  1.00  0.00    -0.000 C 
BRANCH   8   9
ATOM      9  C   UNL     1     176.190 179.809 200.520  1.00  0.00    -0.000 C 
BRANCH   9  10
ATOM     10  C   UNL     1     176.681 180.877 199.529  1.00  0.00    -0.000 C 
BRANCH  10  11
ATOM     11  C   UNL     1     177.764 180.348 198.579  1.00  0.00    -0.003 C 
ATOM     12  C   UNL     1     177.359 180.545 197.121  1.00  0.00     0.004 C 
ENDBRANCH  10  11
ENDBRANCH   9  10
ENDBRANCH   8   9
ENDBRANCH   7   8
ENDBRANCH   6   7
ENDBRANCH   5   6
ENDBRANCH   4   5
ENDBRANCH   3   4
ENDBRANCH   2   3
ENDBRANCH   1   2
BRANCH   1  13
ATOM     13  C   UNL     1     172.910 180.685 197.927  1.00  0.00     0.000 C 
BRANCH  13  14
ATOM     14  C   UNL     1     173.795 179.537 197.408  1.00  0.00     0.000 C 
BRANCH  14  15
ATOM     15  C   UNL     1     173.043 178.245 197.038  1.00  0.00     0.000 C 
BRANCH  15  16
ATOM     16  C   UNL     1     173.986 177.088 196.664  1.00  0.00     0.000 C 
BRANCH  16  17
ATOM     17  C   UNL     1     175.402 177.565 196.293  1.00  0.00     0.000 C 
BRANCH  17  18
ATOM     18  C   UNL     1     175.673 177.690 194.783  1.00  0.00     0.000 C 
BRANCH  18  19
ATOM     19  C   UNL     1     175.411 179.107 194.242  1.00  0.00     0.000 C 
BRANCH  19  20
ATOM     20  C   UNL     1     174.181 179.184 193.321  1.00  0.00     0.006 C 
BRANCH  20  21
ATOM     21  C   UNL     1     173.964 177.923 192.466  1.00  0.00     0.053 C 
BRANCH  21  22
ATOM     22  C   UNL     1     172.593 177.342 192.636  1.00  0.00     0.041 C 
ATOM     23  O   UNL     1     172.085 177.243 193.785  1.00  0.00    -0.550 OA
ATOM     24  O   UNL     1     171.889 176.876 191.533  1.00  0.00    -0.550 OA
ENDBRANCH  21  22
ENDBRANCH  20  21
ENDBRANCH  19  20
ENDBRANCH  18  19
ENDBRANCH  17  18
ENDBRANCH  16  17
ENDBRANCH  15  16
ENDBRANCH  14  15
ENDBRANCH  13  14
ENDBRANCH   1  13
TORSDOF 20
ENDMDL
MODEL 6
REMARK VINA RESULT:    -1.140      3.554      7.050
REMARK INTER + INTRA:          -6.636
REMARK INTER:                  -2.601
REMARK INTRA:                  -4.034
REMARK UNBOUND:                -4.162
REMARK SMILES CCCCCCCCCCCCCCCCCCCCCC(=O)[O-]
REMARK SMILES IDX 12 1 11 2 10 3 9 4 8 5 7 6 6 7 5 8 4 9 3 10 2 11 1 12 13 13
REMARK SMILES IDX 14 14 15 15 16 16 17 17 18 18 19 19 20 20 21 21 22 22 23 23
REMARK SMILES IDX 24 24
REMARK H PARENT
REMARK Flexibility Score: inf
ROOT
ATOM      1  C   UNL     1     174.125 181.323 198.253  1.00  0.00     0.000 C 
ENDROOT
BRANCH   1   2
ATOM      2  C   UNL     1     174.420 180.324 197.124  1.00  0.00     0.000 C 
BRANCH   2   3
ATOM      3  C   UNL     1     173.145 179.704 196.527  1.00  0.00     0.000 C 
BRANCH   3   4
ATOM      4  C   UNL     1     173.191 178.175 196.334  1.00  0.00    -0.000 C 
BRANCH   4   5
ATOM      5  C   UNL     1     174.604 177.569 196.256  1.00  0.00    -0.000 C 
BRANCH   5   6
ATOM      6  C   UNL     1     174.883 176.875 194.915  1.00  0.00    -0.000 C 
BRANCH   6   7
ATOM      7  C   UNL     1     176.059 177.538 194.187  1.00  0.00    -0.000 C 
BRANCH   7   8
ATOM      8  C   UNL     1     175.742 178.999 193.845  1.00  0.00    -0.000 C 
BRANCH   8   9
ATOM      9  C   UNL     1     174.826 179.088 192.615  1.00  0.00    -0.000 C 
BRANCH   9  10
ATOM     10  C   UNL     1     173.741 180.169 192.763  1.00  0.00    -0.000 C 
BRANCH  10  11
ATOM     11  C   UNL     1     172.343 179.576 192.979  1.00  0.00    -0.003 C 
ATOM     12  C   UNL     1     172.280 178.129 192.497  1.00  0.00     0.004 C 
ENDBRANCH  10  11
ENDBRANCH   9  10
ENDBRANCH   8   9
ENDBRANCH   7   8
ENDBRANCH   6   7
ENDBRANCH   5   6
ENDBRANCH   4   5
ENDBRANCH   3   4
ENDBRANCH   2   3
ENDBRANCH   1   2
BRANCH   1  13
ATOM     13  C   UNL     1     172.612 181.499 198.447  1.00  0.00     0.000 C 
BRANCH  13  14
ATOM     14  C   UNL     1     172.141 181.143 199.870  1.00  0.00     0.000 C 
BRANCH  14  15
ATOM     15  C   UNL     1     171.132 179.983 199.955  1.00  0.00     0.000 C 
BRANCH  15  16
ATOM     16  C   UNL     1     171.692 178.753 200.692  1.00  0.00     0.000 C 
BRANCH  16  17
ATOM     17  C   UNL     1     172.175 177.649 199.733  1.00  0.00     0.000 C 
BRANCH  17  18
ATOM     18  C   UNL     1     173.626 177.184 199.952  1.00  0.00     0.000 C 
BRANCH  18  19
ATOM     19  C   UNL     1     174.580 178.340 200.300  1.00  0.00     0.000 C 
BRANCH  19  20
ATOM     20  C   UNL     1     175.956 178.213 199.623  1.00  0.00     0.006 C 
BRANCH  20  21
ATOM     21  C   UNL     1     177.140 178.490 200.567  1.00  0.00     0.053 C 
BRANCH  21  22
ATOM     22  C   UNL     1     177.899 179.727 200.189  1.00  0.00     0.041 C 
ATOM     23  O   UNL     1     179.158 179.731 200.220  1.00  0.00    -0.550 OA
ATOM     24  O   UNL     1     177.218 180.885 199.836  1.00  0.00    -0.550 OA
ENDBRANCH  21  22
ENDBRANCH  20  21
ENDBRANCH  19  20
ENDBRANCH  18  19
ENDBRANCH  17  18
ENDBRANCH  16  17
ENDBRANCH  15  16
ENDBRANCH  14  15
ENDBRANCH  13  14
ENDBRANCH   1  13
TORSDOF 20
ENDMDL
MODEL 7
REMARK VINA RESULT:    -1.127      1.733      4.057
REMARK INTER + INTRA:          -6.608
REMARK INTER:                  -2.871
REMARK INTRA:                  -3.737
REMARK UNBOUND:                -4.162
REMARK SMILES CCCCCCCCCCCCCCCCCCCCCC(=O)[O-]
REMARK SMILES IDX 12 1 11 2 10 3 9 4 8 5 7 6 6 7 5 8 4 9 3 10 2 11 1 12 13 13
REMARK SMILES IDX 14 14 15 15 16 16 17 17 18 18 19 19 20 20 21 21 22 22 23 23
REMARK SMILES IDX 24 24
REMARK H PARENT
REMARK Flexibility Score: inf
ROOT
ATOM      1  C   UNL     1     173.737 180.935 198.244  1.00  0.00     0.000 C 
ENDROOT
BRANCH   1   2
ATOM      2  C   UNL     1     172.280 180.711 198.673  1.00  0.00     0.000 C 
BRANCH   2   3
ATOM      3  C   UNL     1     172.158 180.126 200.091  1.00  0.00     0.000 C 
BRANCH   3   4
ATOM      4  C   UNL     1     171.221 178.908 200.217  1.00  0.00    -0.000 C 
BRANCH   4   5
ATOM      5  C   UNL     1     171.898 177.541 200.013  1.00  0.00    -0.000 C 
BRANCH   5   6
ATOM      6  C   UNL     1     173.427 177.608 200.137  1.00  0.00    -0.000 C 
BRANCH   6   7
ATOM      7  C   UNL     1     174.105 176.876 198.973  1.00  0.00    -0.000 C 
BRANCH   7   8
ATOM      8  C   UNL     1     173.232 176.916 197.713  1.00  0.00    -0.000 C 
BRANCH   8   9
ATOM      9  C   UNL     1     174.002 177.522 196.530  1.00  0.00    -0.000 C 
BRANCH   9  10
ATOM     10  C   UNL     1     173.078 178.219 195.517  1.00  0.00    -0.000 C 
BRANCH  10  11
ATOM     11  C   UNL     1     173.173 177.607 194.113  1.00  0.00    -0.003 C 
ATOM     12  C   UNL     1     171.864 176.924 193.722  1.00  0.00     0.004 C 
ENDBRANCH  10  11
ENDBRANCH   9  10
ENDBRANCH   8   9
ENDBRANCH   7   8
ENDBRANCH   6   7
ENDBRANCH   5   6
ENDBRANCH   4   5
ENDBRANCH   3   4
ENDBRANCH   2   3
ENDBRANCH   1   2
BRANCH   1  13
ATOM     13  C   UNL     1     174.595 181.393 199.433  1.00  0.00     0.000 C 
BRANCH  13  14
ATOM     14  C   UNL     1     175.947 180.661 199.519  1.00  0.00     0.000 C 
BRANCH  14  15
ATOM     15  C   UNL     1     176.182 179.589 198.440  1.00  0.00     0.000 C 
BRANCH  15  16
ATOM     16  C   UNL     1     177.435 179.859 197.588  1.00  0.00     0.000 C 
BRANCH  16  17
ATOM     17  C   UNL     1     177.170 180.833 196.425  1.00  0.00     0.000 C 
BRANCH  17  18
ATOM     18  C   UNL     1     176.140 180.347 195.389  1.00  0.00     0.000 C 
BRANCH  18  19
ATOM     19  C   UNL     1     175.234 181.476 194.870  1.00  0.00     0.000 C 
BRANCH  19  20
ATOM     20  C   UNL     1     174.600 181.162 193.503  1.00  0.00     0.006 C 
BRANCH  20  21
ATOM     21  C   UNL     1     173.428 182.089 193.134  1.00  0.00     0.053 C 
BRANCH  21  22
ATOM     22  C   UNL     1     172.107 181.382 193.158  1.00  0.00     0.041 C 
ATOM     23  O   UNL     1     171.172 181.812 193.885  1.00  0.00    -0.550 OA
ATOM     24  O   UNL     1     171.916 180.230 192.406  1.00  0.00    -0.550 OA
ENDBRANCH  21  22
ENDBRANCH  20  21
ENDBRANCH  19  20
ENDBRANCH  18  19
ENDBRANCH  17  18
ENDBRANCH  16  17
ENDBRANCH  15  16
ENDBRANCH  14  15
ENDBRANCH  13  14
ENDBRANCH   1  13
TORSDOF 20
ENDMDL
MODEL 8
REMARK VINA RESULT:    -1.114      3.362      6.810
REMARK INTER + INTRA:          -6.578
REMARK INTER:                  -2.080
REMARK INTRA:                  -4.499
REMARK UNBOUND:                -4.162
REMARK SMILES CCCCCCCCCCCCCCCCCCCCCC(=O)[O-]
REMARK SMILES IDX 12 1 11 2 10 3 9 4 8 5 7 6 6 7 5 8 4 9 3 10 2 11 1 12 13 13
REMARK SMILES IDX 14 14 15 15 16 16 17 17 18 18 19 19 20 20 21 21 22 22 23 23
REMARK SMILES IDX 24 24
REMARK H PARENT
REMARK Flexibility Score: inf
ROOT
ATOM      1  C   UNL     1     173.604 177.825 195.944  1.00  0.00     0.000 C 
ENDROOT
BRANCH   1   2
ATOM      2  C   UNL     1     173.132 179.129 195.286  1.00  0.00     0.000 C 
BRANCH   2   3
ATOM      3  C   UNL     1     173.159 180.329 196.250  1.00  0.00     0.000 C 
BRANCH   3   4
ATOM      4  C   UNL     1     173.249 181.710 195.571  1.00  0.00    -0.000 C 
BRANCH   4   5
ATOM      5  C   UNL     1     174.672 182.286 195.449  1.00  0.00    -0.000 C 
BRANCH   5   6
ATOM      6  C   UNL     1     175.618 181.773 196.545  1.00  0.00    -0.000 C 
BRANCH   6   7
ATOM      7  C   UNL     1     176.870 181.131 195.933  1.00  0.00    -0.000 C 
BRANCH   7   8
ATOM      8  C   UNL     1     176.849 179.607 196.108  1.00  0.00    -0.000 C 
BRANCH   8   9
ATOM      9  C   UNL     1     177.115 178.897 194.772  1.00  0.00    -0.000 C 
BRANCH   9  10
ATOM     10  C   UNL     1     176.830 179.796 193.558  1.00  0.00    -0.000 C 
BRANCH  10  11
ATOM     11  C   UNL     1     175.607 179.333 192.755  1.00  0.00    -0.003 C 
ATOM     12  C   UNL     1     174.808 180.525 192.234  1.00  0.00     0.004 C 
ENDBRANCH  10  11
ENDBRANCH   9  10
ENDBRANCH   8   9
ENDBRANCH   7   8
ENDBRANCH   6   7
ENDBRANCH   5   6
ENDBRANCH   4   5
ENDBRANCH   3   4
ENDBRANCH   2   3
ENDBRANCH   1   2
BRANCH   1  13
ATOM     13  C   UNL     1     173.851 178.027 197.446  1.00  0.00     0.000 C 
BRANCH  13  14
ATOM     14  C   UNL     1     172.788 177.346 198.329  1.00  0.00     0.000 C 
BRANCH  14  15
ATOM     15  C   UNL     1     172.875 177.674 199.831  1.00  0.00     0.000 C 
BRANCH  15  16
ATOM     16  C   UNL     1     171.692 178.522 200.330  1.00  0.00     0.000 C 
BRANCH  16  17
ATOM     17  C   UNL     1     171.600 179.891 199.632  1.00  0.00     0.000 C 
BRANCH  17  18
ATOM     18  C   UNL     1     172.353 181.034 200.336  1.00  0.00     0.000 C 
BRANCH  18  19
ATOM     19  C   UNL     1     173.724 181.329 199.701  1.00  0.00     0.000 C 
BRANCH  19  20
ATOM     20  C   UNL     1     174.905 180.863 200.570  1.00  0.00     0.006 C 
BRANCH  20  21
ATOM     21  C   UNL     1     175.905 179.960 199.826  1.00  0.00     0.053 C 
BRANCH  21  22
ATOM     22  C   UNL     1     177.251 180.599 199.671  1.00  0.00     0.041 C 
ATOM     23  O   UNL     1     178.261 179.893 199.409  1.00  0.00    -0.550 OA
ATOM     24  O   UNL     1     177.400 181.969 199.848  1.00  0.00    -0.550 OA
ENDBRANCH  21  22
ENDBRANCH  20  21
ENDBRANCH  19  20
ENDBRANCH  18  19
ENDBRANCH  17  18
ENDBRANCH  16  17
ENDBRANCH  15  16
ENDBRANCH  14  15
ENDBRANCH  13  14
ENDBRANCH   1  13
TORSDOF 20
ENDMDL
