MODEL 1
REMARK VINA RESULT:    -3.462      0.000      0.000
REMARK INTER + INTRA:          -4.921
REMARK INTER:                  -4.677
REMARK INTRA:                  -0.244
REMARK UNBOUND:                -0.244
REMARK SMILES CCCCCCCC(=O)[O-]
REMARK SMILES IDX 5 1 6 2 7 3 8 4 9 5 10 6 4 7 3 8 2 9 1 10
REMARK H PARENT
REMARK Flexibility Score: inf
ROOT
ATOM      1  C   UNL     1      19.233   4.891  24.562  1.00  0.00     0.000 C 
ENDROOT
BRANCH   1   2
ATOM      2  C   UNL     1      20.141   6.031  24.081  1.00  0.00     0.006 C 
BRANCH   2   3
ATOM      3  C   UNL     1      19.340   7.250  23.603  1.00  0.00     0.053 C 
BRANCH   3   4
ATOM      4  C   UNL     1      20.195   8.476  23.511  1.00  0.00     0.041 C 
ATOM      5  O   UNL     1      21.005   8.755  24.434  1.00  0.00    -0.550 OA
ATOM      6  O   UNL     1      20.074   9.329  22.421  1.00  0.00    -0.550 OA
ENDBRANCH   3   4
ENDBRANCH   2   3
ENDBRANCH   1   2
BRANCH   1   7
ATOM      7  C   UNL     1      20.025   3.588  24.721  1.00  0.00     0.000 C 
BRANCH   7   8
ATOM      8  C   UNL     1      21.290   3.601  23.855  1.00  0.00    -0.000 C 
BRANCH   8   9
ATOM      9  C   UNL     1      22.000   2.244  23.896  1.00  0.00    -0.003 C 
ATOM     10  C   UNL     1      21.034   1.129  24.288  1.00  0.00     0.004 C 
ENDBRANCH   8   9
ENDBRANCH   7   8
ENDBRANCH   1   7
TORSDOF 6
ENDMDL
MODEL 2
REMARK VINA RESULT:    -3.423      3.618      4.984
REMARK INTER + INTRA:          -4.868
REMARK INTER:                  -4.238
REMARK INTRA:                  -0.630
REMARK UNBOUND:                -0.244
REMARK SMILES CCCCCCCC(=O)[O-]
REMARK SMILES IDX 5 1 6 2 7 3 8 4 9 5 10 6 4 7 3 8 2 9 1 10
REMARK H PARENT
REMARK Flexibility Score: inf
ROOT
ATOM      1  C   UNL     1      20.731   1.584  27.064  1.00  0.00     0.000 C 
ENDROOT
BRANCH   1   2
ATOM      2  C   UNL     1      22.244   1.824  27.179  1.00  0.00     0.006 C 
BRANCH   2   3
ATOM      3  C   UNL     1      22.571   3.226  27.709  1.00  0.00     0.053 C 
BRANCH   3   4
ATOM      4  C   UNL     1      23.562   3.933  26.838  1.00  0.00     0.041 C 
ATOM      5  O   UNL     1      24.185   3.301  25.943  1.00  0.00    -0.550 OA
ATOM      6  O   UNL     1      23.825   5.283  27.035  1.00  0.00    -0.550 OA
ENDBRANCH   3   4
ENDBRANCH   2   3
ENDBRANCH   1   2
BRANCH   1   7
ATOM      7  C   UNL     1      20.240   1.851  25.636  1.00  0.00     0.000 C 
BRANCH   7   8
ATOM      8  C   UNL     1      21.222   1.289  24.601  1.00  0.00    -0.000 C 
BRANCH   8   9
ATOM      9  C   UNL     1      21.657   2.375  23.610  1.00  0.00    -0.003 C 
ATOM     10  C   UNL     1      21.083   3.736  23.997  1.00  0.00     0.004 C 
ENDBRANCH   8   9
ENDBRANCH   7   8
ENDBRANCH   1   7
TORSDOF 6
ENDMDL
MODEL 3
REMARK VINA RESULT:    -3.414      3.107      4.941
REMARK INTER + INTRA:          -4.855
REMARK INTER:                  -4.234
REMARK INTRA:                  -0.621
REMARK UNBOUND:                -0.244
REMARK SMILES CCCCCCCC(=O)[O-]
REMARK SMILES IDX 5 1 6 2 7 3 8 4 9 5 10 6 4 7 3 8 2 9 1 10
REMARK H PARENT
REMARK Flexibility Score: inf
ROOT
ATOM      1  C   UNL     1      20.957   1.596  25.424  1.00  0.00     0.000 C 
ENDROOT
BRANCH   1   2
ATOM      2  C   UNL     1      22.019   1.578  26.533  1.00  0.00     0.006 C 
BRANCH   2   3
ATOM      3  C   UNL     1      22.052   2.892  27.327  1.00  0.00     0.053 C 
BRANCH   3   4
ATOM      4  C   UNL     1      23.051   3.856  26.767  1.00  0.00     0.041 C 
ATOM      5  O   UNL     1      22.863   5.097  26.873  1.00  0.00    -0.550 OA
ATOM      6  O   UNL     1      24.172   3.385  26.096  1.00  0.00    -0.550 OA
ENDBRANCH   3   4
ENDBRANCH   2   3
ENDBRANCH   1   2
BRANCH   1   7
ATOM      7  C   UNL     1      21.602   1.806  24.049  1.00  0.00     0.000 C 
BRANCH   7   8
ATOM      8  C   UNL     1      21.431   3.255  23.575  1.00  0.00    -0.000 C 
BRANCH   8   9
ATOM      9  C   UNL     1      20.261   3.935  24.295  1.00  0.00    -0.003 C 
ATOM     10  C   UNL     1      20.411   5.454  24.278  1.00  0.00     0.004 C 
ENDBRANCH   8   9
ENDBRANCH   7   8
ENDBRANCH   1   7
TORSDOF 6
ENDMDL
MODEL 4
REMARK VINA RESULT:    -3.385      1.873      2.726
REMARK INTER + INTRA:          -4.817
REMARK INTER:                  -4.369
REMARK INTRA:                  -0.448
REMARK UNBOUND:                -0.244
REMARK SMILES CCCCCCCC(=O)[O-]
REMARK SMILES IDX 5 1 6 2 7 3 8 4 9 5 10 6 4 7 3 8 2 9 1 10
REMARK H PARENT
REMARK Flexibility Score: inf
ROOT
ATOM      1  C   UNL     1      21.253   3.350  23.592  1.00  0.00     0.000 C 
ENDROOT
BRANCH   1   2
ATOM      2  C   UNL     1      20.899   4.648  24.332  1.00  0.00     0.006 C 
BRANCH   2   3
ATOM      3  C   UNL     1      19.382   4.857  24.445  1.00  0.00     0.053 C 
BRANCH   3   4
ATOM      4  C   UNL     1      18.962   6.186  23.901  1.00  0.00     0.041 C 
ATOM      5  O   UNL     1      17.745   6.424  23.676  1.00  0.00    -0.550 OA
ATOM      6  O   UNL     1      19.916   7.152  23.608  1.00  0.00    -0.550 OA
ENDBRANCH   3   4
ENDBRANCH   2   3
ENDBRANCH   1   2
BRANCH   1   7
ATOM      7  C   UNL     1      22.073   2.414  24.488  1.00  0.00     0.000 C 
BRANCH   7   8
ATOM      8  C   UNL     1      21.232   1.217  24.950  1.00  0.00    -0.000 C 
BRANCH   8   9
ATOM      9  C   UNL     1      20.466   1.547  26.236  1.00  0.00    -0.003 C 
ATOM     10  C   UNL     1      18.959   1.526  26.000  1.00  0.00     0.004 C 
ENDBRANCH   8   9
ENDBRANCH   7   8
ENDBRANCH   1   7
TORSDOF 6
ENDMDL
MODEL 5
REMARK VINA RESULT:    -3.304      3.899      4.727
REMARK INTER + INTRA:          -4.706
REMARK INTER:                  -4.080
REMARK INTRA:                  -0.627
REMARK UNBOUND:                -0.244
REMARK SMILES CCCCCCCC(=O)[O-]
REMARK SMILES IDX 5 1 6 2 7 3 8 4 9 5 10 6 4 7 3 8 2 9 1 10
REMARK H PARENT
REMARK Flexibility Score: inf
ROOT
ATOM      1  C   UNL     1      20.907   5.017  25.413  1.00  0.00     0.000 C 
ENDROOT
BRANCH   1   2
ATOM      2  C   UNL     1      21.400   4.558  26.793  1.00  0.00     0.006 C 
BRANCH   2   3
ATOM      3  C   UNL     1      22.916   4.737  26.957  1.00  0.00     0.053 C 
BRANCH   3   4
ATOM      4  C   UNL     1      23.646   3.435  26.840  1.00  0.00     0.041 C 
ATOM      5  O   UNL     1      24.764   3.384  26.262  1.00  0.00    -0.550 OA
ATOM      6  O   UNL     1      23.076   2.270  27.338  1.00  0.00    -0.550 OA
ENDBRANCH   3   4
ENDBRANCH   2   3
ENDBRANCH   1   2
BRANCH   1   7
ATOM      7  C   UNL     1      20.476   3.819  24.558  1.00  0.00     0.000 C 
BRANCH   7   8
ATOM      8  C   UNL     1      21.610   3.370  23.627  1.00  0.00    -0.000 C 
BRANCH   8   9
ATOM      9  C   UNL     1      22.004   1.915  23.903  1.00  0.00    -0.003 C 
ATOM     10  C   UNL     1      20.880   1.165  24.614  1.00  0.00     0.004 C 
ENDBRANCH   8   9
ENDBRANCH   7   8
ENDBRANCH   1   7
TORSDOF 6
ENDMDL
MODEL 6
REMARK VINA RESULT:    -3.293      3.969      5.104
REMARK INTER + INTRA:          -4.693
REMARK INTER:                  -4.078
REMARK INTRA:                  -0.615
REMARK UNBOUND:                -0.244
REMARK SMILES CCCCCCCC(=O)[O-]
REMARK SMILES IDX 5 1 6 2 7 3 8 4 9 5 10 6 4 7 3 8 2 9 1 10
REMARK H PARENT
REMARK Flexibility Score: inf
ROOT
ATOM      1  C   UNL     1      19.398   4.150  24.728  1.00  0.00     0.000 C 
ENDROOT
BRANCH   1   2
ATOM      2  C   UNL     1      19.043   3.976  26.212  1.00  0.00     0.006 C 
BRANCH   2   3
ATOM      3  C   UNL     1      18.597   2.544  26.539  1.00  0.00     0.053 C 
BRANCH   3   4
ATOM      4  C   UNL     1      19.581   1.844  27.425  1.00  0.00     0.041 C 
ATOM      5  O   UNL     1      19.311   0.709  27.899  1.00  0.00    -0.550 OA
ATOM      6  O   UNL     1      20.781   2.460  27.755  1.00  0.00    -0.550 OA
ENDBRANCH   3   4
ENDBRANCH   2   3
ENDBRANCH   1   2
BRANCH   1   7
ATOM      7  C   UNL     1      20.824   4.688  24.564  1.00  0.00     0.000 C 
BRANCH   7   8
ATOM      8  C   UNL     1      21.845   3.543  24.533  1.00  0.00    -0.000 C 
BRANCH   8   9
ATOM      9  C   UNL     1      21.392   2.427  23.586  1.00  0.00    -0.003 C 
ATOM     10  C   UNL     1      21.320   1.085  24.310  1.00  0.00     0.004 C 
ENDBRANCH   8   9
ENDBRANCH   7   8
ENDBRANCH   1   7
TORSDOF 6
ENDMDL
MODEL 7
REMARK VINA RESULT:    -3.290      3.681      4.947
REMARK INTER + INTRA:          -4.688
REMARK INTER:                  -4.168
REMARK INTRA:                  -0.519
REMARK UNBOUND:                -0.244
REMARK SMILES CCCCCCCC(=O)[O-]
REMARK SMILES IDX 5 1 6 2 7 3 8 4 9 5 10 6 4 7 3 8 2 9 1 10
REMARK H PARENT
REMARK Flexibility Score: inf
ROOT
ATOM      1  C   UNL     1      20.762   4.421  24.551  1.00  0.00     0.000 C 
ENDROOT
BRANCH   1   2
ATOM      2  C   UNL     1      21.430   3.379  23.643  1.00  0.00     0.006 C 
BRANCH   2   3
ATOM      3  C   UNL     1      21.963   2.175  24.434  1.00  0.00     0.053 C 
BRANCH   3   4
ATOM      4  C   UNL     1      22.703   2.602  25.663  1.00  0.00     0.041 C 
ATOM      5  O   UNL     1      23.776   3.254  25.563  1.00  0.00    -0.550 OA
ATOM      6  O   UNL     1      22.228   2.250  26.920  1.00  0.00    -0.550 OA
ENDBRANCH   3   4
ENDBRANCH   2   3
ENDBRANCH   1   2
BRANCH   1   7
ATOM      7  C   UNL     1      19.272   4.114  24.736  1.00  0.00     0.000 C 
BRANCH   7   8
ATOM      8  C   UNL     1      19.005   3.490  26.112  1.00  0.00    -0.000 C 
BRANCH   8   9
ATOM      9  C   UNL     1      18.617   2.013  25.981  1.00  0.00    -0.003 C 
ATOM     10  C   UNL     1      18.926   1.246  27.264  1.00  0.00     0.004 C 
ENDBRANCH   8   9
ENDBRANCH   7   8
ENDBRANCH   1   7
TORSDOF 6
ENDMDL
MODEL 8
REMARK VINA RESULT:    -3.288      1.621      2.302
REMARK INTER + INTRA:          -4.685
REMARK INTER:                  -4.229
REMARK INTRA:                  -0.456
REMARK UNBOUND:                -0.244
REMARK SMILES CCCCCCCC(=O)[O-]
REMARK SMILES IDX 5 1 6 2 7 3 8 4 9 5 10 6 4 7 3 8 2 9 1 10
REMARK H PARENT
REMARK Flexibility Score: inf
ROOT
ATOM      1  C   UNL     1      19.221   3.544  26.075  1.00  0.00     0.000 C 
ENDROOT
BRANCH   1   2
ATOM      2  C   UNL     1      19.014   4.243  24.724  1.00  0.00     0.006 C 
BRANCH   2   3
ATOM      3  C   UNL     1      20.053   5.344  24.474  1.00  0.00     0.053 C 
BRANCH   3   4
ATOM      4  C   UNL     1      19.426   6.585  23.919  1.00  0.00     0.041 C 
ATOM      5  O   UNL     1      18.184   6.630  23.712  1.00  0.00    -0.550 OA
ATOM      6  O   UNL     1      20.216   7.681  23.597  1.00  0.00    -0.550 OA
ENDBRANCH   3   4
ENDBRANCH   2   3
ENDBRANCH   1   2
BRANCH   1   7
ATOM      7  C   UNL     1      19.273   2.021  25.903  1.00  0.00     0.000 C 
BRANCH   7   8
ATOM      8  C   UNL     1      20.723   1.521  25.846  1.00  0.00    -0.000 C 
BRANCH   8   9
ATOM      9  C   UNL     1      21.122   1.154  24.412  1.00  0.00    -0.003 C 
ATOM     10  C   UNL     1      22.036   2.215  23.806  1.00  0.00     0.004 C 
ENDBRANCH   8   9
ENDBRANCH   7   8
ENDBRANCH   1   7
TORSDOF 6
ENDMDL
MODEL 9
REMARK VINA RESULT:    -3.205      2.436      3.325
REMARK INTER + INTRA:          -4.574
REMARK INTER:                  -3.965
REMARK INTRA:                  -0.608
REMARK UNBOUND:                -0.244
REMARK SMILES CCCCCCCC(=O)[O-]
REMARK SMILES IDX 5 1 6 2 7 3 8 4 9 5 10 6 4 7 3 8 2 9 1 10
REMARK H PARENT
REMARK Flexibility Score: inf
ROOT
ATOM      1  C   UNL     1      19.282   1.541  26.196  1.00  0.00     0.000 C 
ENDROOT
BRANCH   1   2
ATOM      2  C   UNL     1      18.676   2.899  25.811  1.00  0.00     0.006 C 
BRANCH   2   3
ATOM      3  C   UNL     1      19.534   4.076  26.296  1.00  0.00     0.053 C 
BRANCH   3   4
ATOM      4  C   UNL     1      19.727   5.102  25.223  1.00  0.00     0.041 C 
ATOM      5  O   UNL     1      20.747   5.842  25.229  1.00  0.00    -0.550 OA
ATOM      6  O   UNL     1      18.764   5.267  24.235  1.00  0.00    -0.550 OA
ENDBRANCH   3   4
ENDBRANCH   2   3
ENDBRANCH   1   2
BRANCH   1   7
ATOM      7  C   UNL     1      20.777   1.493  25.863  1.00  0.00     0.000 C 
BRANCH   7   8
ATOM      8  C   UNL     1      21.003   1.154  24.384  1.00  0.00    -0.000 C 
BRANCH   8   9
ATOM      9  C   UNL     1      21.702   2.308  23.657  1.00  0.00    -0.003 C 
ATOM     10  C   UNL     1      22.761   2.957  24.543  1.00  0.00     0.004 C 
ENDBRANCH   8   9
ENDBRANCH   7   8
ENDBRANCH   1   7
TORSDOF 6
ENDMDL
