MODEL 1
REMARK VINA RESULT:    -5.466      0.000      0.000
REMARK INTER + INTRA:          -9.248
REMARK INTER:                  -8.662
REMARK INTRA:                  -0.586
REMARK UNBOUND:                -0.586
REMARK SMILES CCCCCCCCCCCC(=O)[O-]
REMARK SMILES IDX 7 1 8 2 9 3 10 4 11 5 12 6 13 7 14 8 6 9 5 10 4 11 3 12 2 13
REMARK SMILES IDX 1 14
REMARK H PARENT
REMARK Flexibility Score: inf
ROOT
ATOM      1  C   UNL     1      88.621 323.803 192.597  1.00  0.00     0.000 C 
ENDROOT
BRANCH   1   2
ATOM      2  C   UNL     1      88.497 324.337 191.159  1.00  0.00     0.000 C 
BRANCH   2   3
ATOM      3  C   UNL     1      87.853 323.322 190.197  1.00  0.00     0.000 C 
BRANCH   3   4
ATOM      4  C   UNL     1      88.513 323.230 188.809  1.00  0.00     0.006 C 
BRANCH   4   5
ATOM      5  C   UNL     1      89.852 323.974 188.732  1.00  0.00     0.053 C 
BRANCH   5   6
ATOM      6  C   UNL     1      90.932 323.058 188.249  1.00  0.00     0.041 C 
ATOM      7  O   UNL     1      90.638 321.945 187.739  1.00  0.00    -0.550 OA
ATOM      8  O   UNL     1      92.262 323.455 188.316  1.00  0.00    -0.550 OA
ENDBRANCH   5   6
ENDBRANCH   4   5
ENDBRANCH   3   4
ENDBRANCH   2   3
ENDBRANCH   1   2
BRANCH   1   9
ATOM      9  C   UNL     1      87.804 324.630 193.604  1.00  0.00     0.000 C 
BRANCH   9  10
ATOM     10  C   UNL     1      88.100 326.137 193.505  1.00  0.00    -0.000 C 
BRANCH  10  11
ATOM     11  C   UNL     1      87.119 326.985 194.331  1.00  0.00    -0.000 C 
BRANCH  11  12
ATOM     12  C   UNL     1      86.870 326.406 195.734  1.00  0.00    -0.000 C 
BRANCH  12  13
ATOM     13  C   UNL     1      88.057 326.633 196.684  1.00  0.00    -0.003 C 
ATOM     14  C   UNL     1      88.701 325.326 197.145  1.00  0.00     0.004 C 
ENDBRANCH  12  13
ENDBRANCH  11  12
ENDBRANCH  10  11
ENDBRANCH   9  10
ENDBRANCH   1   9
TORSDOF 10
ENDMDL
MODEL 2
REMARK VINA RESULT:    -5.454      3.521      6.845
REMARK INTER + INTRA:          -9.228
REMARK INTER:                  -8.341
REMARK INTRA:                  -0.887
REMARK UNBOUND:                -0.586
REMARK SMILES CCCCCCCCCCCC(=O)[O-]
REMARK SMILES IDX 7 1 8 2 9 3 10 4 11 5 12 6 13 7 14 8 6 9 5 10 4 11 3 12 2 13
REMARK SMILES IDX 1 14
REMARK H PARENT
REMARK Flexibility Score: inf
ROOT
ATOM      1  C   UNL     1      85.881 325.309 193.437  1.00  0.00     0.000 C 
ENDROOT
BRANCH   1   2
ATOM      2  C   UNL     1      86.732 326.472 193.977  1.00  0.00     0.000 C 
BRANCH   2   3
ATOM      3  C   UNL     1      86.378 326.850 195.427  1.00  0.00     0.000 C 
BRANCH   3   4
ATOM      4  C   UNL     1      87.432 326.456 196.479  1.00  0.00     0.006 C 
BRANCH   4   5
ATOM      5  C   UNL     1      88.701 325.857 195.859  1.00  0.00     0.053 C 
BRANCH   5   6
ATOM      6  C   UNL     1      88.831 324.413 196.229  1.00  0.00     0.041 C 
ATOM      7  O   UNL     1      88.170 323.539 195.610  1.00  0.00    -0.550 OA
ATOM      8  O   UNL     1      89.720 324.028 197.224  1.00  0.00    -0.550 OA
ENDBRANCH   5   6
ENDBRANCH   4   5
ENDBRANCH   3   4
ENDBRANCH   2   3
ENDBRANCH   1   2
BRANCH   1   9
ATOM      9  C   UNL     1      86.646 324.440 192.425  1.00  0.00     0.000 C 
BRANCH   9  10
ATOM     10  C   UNL     1      88.098 324.911 192.225  1.00  0.00    -0.000 C 
BRANCH  10  11
ATOM     11  C   UNL     1      88.696 324.424 190.895  1.00  0.00    -0.000 C 
BRANCH  11  12
ATOM     12  C   UNL     1      87.977 323.182 190.340  1.00  0.00    -0.000 C 
BRANCH  12  13
ATOM     13  C   UNL     1      88.159 323.026 188.822  1.00  0.00    -0.003 C 
ATOM     14  C   UNL     1      87.061 322.178 188.181  1.00  0.00     0.004 C 
ENDBRANCH  12  13
ENDBRANCH  11  12
ENDBRANCH  10  11
ENDBRANCH   9  10
ENDBRANCH   1   9
TORSDOF 10
ENDMDL
MODEL 3
REMARK VINA RESULT:    -5.435      5.608      8.803
REMARK INTER + INTRA:          -9.198
REMARK INTER:                  -8.815
REMARK INTRA:                  -0.383
REMARK UNBOUND:                -0.586
REMARK SMILES CCCCCCCCCCCC(=O)[O-]
REMARK SMILES IDX 7 1 8 2 9 3 10 4 11 5 12 6 13 7 14 8 6 9 5 10 4 11 3 12 2 13
REMARK SMILES IDX 1 14
REMARK H PARENT
REMARK Flexibility Score: inf
ROOT
ATOM      1  C   UNL     1      86.760 326.531 195.815  1.00  0.00     0.000 C 
ENDROOT
BRANCH   1   2
ATOM      2  C   UNL     1      87.973 325.796 196.412  1.00  0.00     0.000 C 
BRANCH   2   3
ATOM      3  C   UNL     1      88.703 326.622 197.487  1.00  0.00     0.000 C 
BRANCH   3   4
ATOM      4  C   UNL     1      89.110 325.837 198.748  1.00  0.00     0.006 C 
BRANCH   4   5
ATOM      5  C   UNL     1      89.674 326.735 199.856  1.00  0.00     0.053 C 
BRANCH   5   6
ATOM      6  C   UNL     1      89.103 326.348 201.184  1.00  0.00     0.041 C 
ATOM      7  O   UNL     1      88.288 325.392 201.269  1.00  0.00    -0.550 OA
ATOM      8  O   UNL     1      89.508 327.012 202.335  1.00  0.00    -0.550 OA
ENDBRANCH   5   6
ENDBRANCH   4   5
ENDBRANCH   3   4
ENDBRANCH   2   3
ENDBRANCH   1   2
BRANCH   1   9
ATOM      9  C   UNL     1      87.001 326.983 194.366  1.00  0.00     0.000 C 
BRANCH   9  10
ATOM     10  C   UNL     1      88.063 326.128 193.651  1.00  0.00    -0.000 C 
BRANCH  10  11
ATOM     11  C   UNL     1      87.441 325.022 192.783  1.00  0.00    -0.000 C 
BRANCH  11  12
ATOM     12  C   UNL     1      88.494 324.071 192.188  1.00  0.00    -0.000 C 
BRANCH  12  13
ATOM     13  C   UNL     1      88.633 324.226 190.666  1.00  0.00    -0.003 C 
ATOM     14  C   UNL     1      89.258 322.998 190.003  1.00  0.00     0.004 C 
ENDBRANCH  12  13
ENDBRANCH  11  12
ENDBRANCH  10  11
ENDBRANCH   9  10
ENDBRANCH   1   9
TORSDOF 10
ENDMDL
MODEL 4
REMARK VINA RESULT:    -5.393     19.205     21.288
REMARK INTER + INTRA:          -9.132
REMARK INTER:                  -8.755
REMARK INTRA:                  -0.378
REMARK UNBOUND:                -0.586
REMARK SMILES CCCCCCCCCCCC(=O)[O-]
REMARK SMILES IDX 7 1 8 2 9 3 10 4 11 5 12 6 13 7 14 8 6 9 5 10 4 11 3 12 2 13
REMARK SMILES IDX 1 14
REMARK H PARENT
REMARK Flexibility Score: inf
ROOT
ATOM      1  C   UNL     1     106.074 311.641 194.774  1.00  0.00     0.000 C 
ENDROOT
BRANCH   1   2
ATOM      2  C   UNL     1     104.949 312.385 195.515  1.00  0.00     0.000 C 
BRANCH   2   3
ATOM      3  C   UNL     1     104.328 311.553 196.652  1.00  0.00     0.000 C 
BRANCH   3   4
ATOM      4  C   UNL     1     103.919 312.356 197.900  1.00  0.00     0.006 C 
BRANCH   4   5
ATOM      5  C   UNL     1     103.511 311.464 199.079  1.00  0.00     0.053 C 
BRANCH   5   6
ATOM      6  C   UNL     1     104.120 311.968 200.351  1.00  0.00     0.041 C 
ATOM      7  O   UNL     1     103.892 311.380 201.439  1.00  0.00    -0.550 OA
ATOM      8  O   UNL     1     104.980 313.059 200.324  1.00  0.00    -0.550 OA
ENDBRANCH   5   6
ENDBRANCH   4   5
ENDBRANCH   3   4
ENDBRANCH   2   3
ENDBRANCH   1   2
BRANCH   1   9
ATOM      9  C   UNL     1     105.748 311.410 193.290  1.00  0.00     0.000 C 
BRANCH   9  10
ATOM     10  C   UNL     1     104.581 312.287 192.800  1.00  0.00    -0.000 C 
BRANCH  10  11
ATOM     11  C   UNL     1     105.036 313.371 191.809  1.00  0.00    -0.000 C 
BRANCH  11  12
ATOM     12  C   UNL     1     103.884 314.291 191.367  1.00  0.00    -0.000 C 
BRANCH  12  13
ATOM     13  C   UNL     1     103.512 314.098 189.888  1.00  0.00    -0.003 C 
ATOM     14  C   UNL     1     104.198 315.110 188.971  1.00  0.00     0.004 C 
ENDBRANCH  12  13
ENDBRANCH  11  12
ENDBRANCH  10  11
ENDBRANCH   9  10
ENDBRANCH   1   9
TORSDOF 10
ENDMDL
MODEL 5
REMARK VINA RESULT:    -5.388      3.765      7.134
REMARK INTER + INTRA:          -9.123
REMARK INTER:                  -8.340
REMARK INTRA:                  -0.783
REMARK UNBOUND:                -0.586
REMARK SMILES CCCCCCCCCCCC(=O)[O-]
REMARK SMILES IDX 7 1 8 2 9 3 10 4 11 5 12 6 13 7 14 8 6 9 5 10 4 11 3 12 2 13
REMARK SMILES IDX 1 14
REMARK H PARENT
REMARK Flexibility Score: inf
ROOT
ATOM      1  C   UNL     1      88.235 324.300 192.727  1.00  0.00     0.000 C 
ENDROOT
BRANCH   1   2
ATOM      2  C   UNL     1      86.742 324.111 193.054  1.00  0.00     0.000 C 
BRANCH   2   3
ATOM      3  C   UNL     1      86.023 325.438 193.356  1.00  0.00     0.000 C 
BRANCH   3   4
ATOM      4  C   UNL     1      86.876 326.491 194.087  1.00  0.00     0.006 C 
BRANCH   4   5
ATOM      5  C   UNL     1      86.563 326.578 195.586  1.00  0.00     0.053 C 
BRANCH   5   6
ATOM      6  C   UNL     1      87.715 326.061 196.390  1.00  0.00     0.041 C 
ATOM      7  O   UNL     1      88.067 324.856 196.290  1.00  0.00    -0.550 OA
ATOM      8  O   UNL     1      88.429 326.921 197.213  1.00  0.00    -0.550 OA
ENDBRANCH   5   6
ENDBRANCH   4   5
ENDBRANCH   3   4
ENDBRANCH   2   3
ENDBRANCH   1   2
BRANCH   1   9
ATOM      9  C   UNL     1      88.490 324.470 191.221  1.00  0.00     0.000 C 
BRANCH   9  10
ATOM     10  C   UNL     1      87.763 323.407 190.377  1.00  0.00    -0.000 C 
BRANCH  10  11
ATOM     11  C   UNL     1      88.367 323.257 188.972  1.00  0.00    -0.000 C 
BRANCH  11  12
ATOM     12  C   UNL     1      89.734 323.950 188.836  1.00  0.00    -0.000 C 
BRANCH  12  13
ATOM     13  C   UNL     1      90.807 323.025 188.241  1.00  0.00    -0.003 C 
ATOM     14  C   UNL     1      91.260 321.943 189.221  1.00  0.00     0.004 C 
ENDBRANCH  12  13
ENDBRANCH  11  12
ENDBRANCH  10  11
ENDBRANCH   9  10
ENDBRANCH   1   9
TORSDOF 10
ENDMDL
MODEL 6
REMARK VINA RESULT:    -5.359     16.438     18.716
REMARK INTER + INTRA:          -9.078
REMARK INTER:                  -8.437
REMARK INTRA:                  -0.641
REMARK UNBOUND:                -0.586
REMARK SMILES CCCCCCCCCCCC(=O)[O-]
REMARK SMILES IDX 7 1 8 2 9 3 10 4 11 5 12 6 13 7 14 8 6 9 5 10 4 11 3 12 2 13
REMARK SMILES IDX 1 14
REMARK H PARENT
REMARK Flexibility Score: inf
ROOT
ATOM      1  C   UNL     1     104.649 313.466 191.933  1.00  0.00     0.000 C 
ENDROOT
BRANCH   1   2
ATOM      2  C   UNL     1     103.852 313.698 190.637  1.00  0.00     0.000 C 
BRANCH   2   3
ATOM      3  C   UNL     1     104.439 314.824 189.766  1.00  0.00     0.000 C 
BRANCH   3   4
ATOM      4  C   UNL     1     103.780 314.991 188.385  1.00  0.00     0.006 C 
BRANCH   4   5
ATOM      5  C   UNL     1     102.368 314.396 188.319  1.00  0.00     0.053 C 
BRANCH   5   6
ATOM      6  C   UNL     1     101.406 315.395 187.756  1.00  0.00     0.041 C 
ATOM      7  O   UNL     1     101.810 316.532 187.400  1.00  0.00    -0.550 OA
ATOM      8  O   UNL     1     100.072 315.051 187.579  1.00  0.00    -0.550 OA
ENDBRANCH   5   6
ENDBRANCH   4   5
ENDBRANCH   3   4
ENDBRANCH   2   3
ENDBRANCH   1   2
BRANCH   1   9
ATOM      9  C   UNL     1     104.404 312.071 192.532  1.00  0.00     0.000 C 
BRANCH   9  10
ATOM     10  C   UNL     1     105.617 311.550 193.325  1.00  0.00    -0.000 C 
BRANCH  10  11
ATOM     11  C   UNL     1     105.718 312.177 194.725  1.00  0.00    -0.000 C 
BRANCH  11  12
ATOM     12  C   UNL     1     104.480 311.893 195.594  1.00  0.00    -0.000 C 
BRANCH  12  13
ATOM     13  C   UNL     1     103.917 313.164 196.250  1.00  0.00    -0.003 C 
ATOM     14  C   UNL     1     104.313 314.437 195.503  1.00  0.00     0.004 C 
ENDBRANCH  12  13
ENDBRANCH  11  12
ENDBRANCH  10  11
ENDBRANCH   9  10
ENDBRANCH   1   9
TORSDOF 10
ENDMDL
MODEL 7
REMARK VINA RESULT:    -5.354      1.895      3.145
REMARK INTER + INTRA:          -9.070
REMARK INTER:                  -8.057
REMARK INTRA:                  -1.013
REMARK UNBOUND:                -0.586
REMARK SMILES CCCCCCCCCCCC(=O)[O-]
REMARK SMILES IDX 7 1 8 2 9 3 10 4 11 5 12 6 13 7 14 8 6 9 5 10 4 11 3 12 2 13
REMARK SMILES IDX 1 14
REMARK H PARENT
REMARK Flexibility Score: inf
ROOT
ATOM      1  C   UNL     1      88.156 326.607 193.927  1.00  0.00     0.000 C 
ENDROOT
BRANCH   1   2
ATOM      2  C   UNL     1      88.085 325.626 192.743  1.00  0.00     0.000 C 
BRANCH   2   3
ATOM      3  C   UNL     1      88.394 324.174 193.150  1.00  0.00     0.000 C 
BRANCH   3   4
ATOM      4  C   UNL     1      88.798 323.244 191.991  1.00  0.00     0.006 C 
BRANCH   4   5
ATOM      5  C   UNL     1      88.579 323.877 190.612  1.00  0.00     0.053 C 
BRANCH   5   6
ATOM      6  C   UNL     1      87.623 323.054 189.805  1.00  0.00     0.041 C 
ATOM      7  O   UNL     1      86.555 322.635 190.323  1.00  0.00    -0.550 OA
ATOM      8  O   UNL     1      87.889 322.793 188.467  1.00  0.00    -0.550 OA
ENDBRANCH   5   6
ENDBRANCH   4   5
ENDBRANCH   3   4
ENDBRANCH   2   3
ENDBRANCH   1   2
BRANCH   1   9
ATOM      9  C   UNL     1      86.806 326.757 194.648  1.00  0.00     0.000 C 
BRANCH   9  10
ATOM     10  C   UNL     1      86.925 326.545 196.168  1.00  0.00    -0.000 C 
BRANCH  10  11
ATOM     11  C   UNL     1      88.372 326.679 196.670  1.00  0.00    -0.000 C 
BRANCH  11  12
ATOM     12  C   UNL     1      88.847 325.441 197.450  1.00  0.00    -0.000 C 
BRANCH  12  13
ATOM     13  C   UNL     1      88.434 324.125 196.774  1.00  0.00    -0.003 C 
ATOM     14  C   UNL     1      89.614 323.179 196.555  1.00  0.00     0.004 C 
ENDBRANCH  12  13
ENDBRANCH  11  12
ENDBRANCH  10  11
ENDBRANCH   9  10
ENDBRANCH   1   9
TORSDOF 10
ENDMDL
MODEL 8
REMARK VINA RESULT:    -5.327     19.512     21.657
REMARK INTER + INTRA:          -9.027
REMARK INTER:                  -8.390
REMARK INTRA:                  -0.636
REMARK UNBOUND:                -0.586
REMARK SMILES CCCCCCCCCCCC(=O)[O-]
REMARK SMILES IDX 7 1 8 2 9 3 10 4 11 5 12 6 13 7 14 8 6 9 5 10 4 11 3 12 2 13
REMARK SMILES IDX 1 14
REMARK H PARENT
REMARK Flexibility Score: inf
ROOT
ATOM      1  C   UNL     1     104.212 313.381 196.157  1.00  0.00     0.000 C 
ENDROOT
BRANCH   1   2
ATOM      2  C   UNL     1     103.794 313.433 197.637  1.00  0.00     0.000 C 
BRANCH   2   3
ATOM      3  C   UNL     1     103.979 312.085 198.359  1.00  0.00     0.000 C 
BRANCH   3   4
ATOM      4  C   UNL     1     103.278 311.976 199.726  1.00  0.00     0.006 C 
BRANCH   4   5
ATOM      5  C   UNL     1     104.262 311.838 200.894  1.00  0.00     0.053 C 
BRANCH   5   6
ATOM      6  C   UNL     1     103.601 311.169 202.058  1.00  0.00     0.041 C 
ATOM      7  O   UNL     1     102.362 310.948 202.041  1.00  0.00    -0.550 OA
ATOM      8  O   UNL     1     104.362 310.745 203.140  1.00  0.00    -0.550 OA
ENDBRANCH   5   6
ENDBRANCH   4   5
ENDBRANCH   3   4
ENDBRANCH   2   3
ENDBRANCH   1   2
BRANCH   1   9
ATOM      9  C   UNL     1     104.443 311.944 195.661  1.00  0.00     0.000 C 
BRANCH   9  10
ATOM     10  C   UNL     1     105.828 311.761 195.013  1.00  0.00    -0.000 C 
BRANCH  10  11
ATOM     11  C   UNL     1     105.894 312.342 193.591  1.00  0.00    -0.000 C 
BRANCH  11  12
ATOM     12  C   UNL     1     104.631 312.038 192.766  1.00  0.00    -0.000 C 
BRANCH  12  13
ATOM     13  C   UNL     1     104.298 313.156 191.766  1.00  0.00    -0.003 C 
ATOM     14  C   UNL     1     103.914 314.466 192.454  1.00  0.00     0.004 C 
ENDBRANCH  12  13
ENDBRANCH  11  12
ENDBRANCH  10  11
ENDBRANCH   9  10
ENDBRANCH   1   9
TORSDOF 10
ENDMDL
MODEL 9
REMARK VINA RESULT:    -5.199     17.573     19.147
REMARK INTER + INTRA:          -8.824
REMARK INTER:                  -8.030
REMARK INTRA:                  -0.794
REMARK UNBOUND:                -0.586
REMARK SMILES CCCCCCCCCCCC(=O)[O-]
REMARK SMILES IDX 7 1 8 2 9 3 10 4 11 5 12 6 13 7 14 8 6 9 5 10 4 11 3 12 2 13
REMARK SMILES IDX 1 14
REMARK H PARENT
REMARK Flexibility Score: inf
ROOT
ATOM      1  C   UNL     1     104.252 312.946 192.070  1.00  0.00     0.000 C 
ENDROOT
BRANCH   1   2
ATOM      2  C   UNL     1     105.454 313.730 191.513  1.00  0.00     0.000 C 
BRANCH   2   3
ATOM      3  C   UNL     1     105.065 314.698 190.380  1.00  0.00     0.000 C 
BRANCH   3   4
ATOM      4  C   UNL     1     103.551 314.845 190.139  1.00  0.00     0.006 C 
BRANCH   4   5
ATOM      5  C   UNL     1     103.137 314.495 188.705  1.00  0.00     0.053 C 
BRANCH   5   6
ATOM      6  C   UNL     1     103.318 315.677 187.805  1.00  0.00     0.041 C 
ATOM      7  O   UNL     1     102.351 316.447 187.568  1.00  0.00    -0.550 OA
ATOM      8  O   UNL     1     104.569 315.957 187.269  1.00  0.00    -0.550 OA
ENDBRANCH   5   6
ENDBRANCH   4   5
ENDBRANCH   3   4
ENDBRANCH   2   3
ENDBRANCH   1   2
BRANCH   1   9
ATOM      9  C   UNL     1     104.679 311.706 192.872  1.00  0.00     0.000 C 
BRANCH   9  10
ATOM     10  C   UNL     1     105.979 311.936 193.663  1.00  0.00    -0.000 C 
BRANCH  10  11
ATOM     11  C   UNL     1     105.762 311.874 195.183  1.00  0.00    -0.000 C 
BRANCH  11  12
ATOM     12  C   UNL     1     104.273 311.894 195.572  1.00  0.00    -0.000 C 
BRANCH  12  13
ATOM     13  C   UNL     1     103.883 313.164 196.343  1.00  0.00    -0.003 C 
ATOM     14  C   UNL     1     103.954 314.423 195.479  1.00  0.00     0.004 C 
ENDBRANCH  12  13
ENDBRANCH  11  12
ENDBRANCH  10  11
ENDBRANCH   9  10
ENDBRANCH   1   9
TORSDOF 10
ENDMDL
