MODEL 1
REMARK VINA RESULT:    41.643      0.000      0.000
REMARK INTER + INTRA:          42.860
REMARK INTER:                  42.860
REMARK INTRA:                   0.000
REMARK UNBOUND:                 0.000
REMARK SMILES C=C1CCC[C@]2(C)C[C@@]3(O)OC(=O)C(C)=C3C[C@H]12
REMARK SMILES IDX 15 1 14 2 16 3 17 4 18 5 2 6 1 7 3 8 4 9 5 10 6 11 8 12 9 13
REMARK SMILES IDX 11 14 12 15 13 16 7 17 10 18
REMARK H PARENT 10 19
REMARK Flexibility Score: inf
ROOT
ATOM      1  C   UNL     1      12.637  76.353   4.760  1.00  0.00     0.052 C 
ATOM      2  C   UNL     1      11.266  76.858   4.419  1.00  0.00     0.040 C 
ATOM      3  C   UNL     1      10.855  77.272   3.213  1.00  0.00     0.012 C 
ATOM      4  C   UNL     1      11.560  76.922   1.939  1.00  0.00     0.047 C 
ATOM      5  C   UNL     1      11.060  75.520   1.537  1.00  0.00     0.025 C 
ATOM      6  C   UNL     1      11.891  74.953   0.387  1.00  0.00    -0.073 C 
ATOM      7  C   UNL     1      13.183  74.641   0.595  1.00  0.00     0.008 C 
ATOM      8  C   UNL     1      11.318  74.773  -0.995  1.00  0.00     0.031 C 
ATOM      9  C   UNL     1       9.866  74.330  -0.927  1.00  0.00     0.005 C 
ATOM     10  C   UNL     1       9.052  75.348  -0.138  1.00  0.00     0.008 C 
ATOM     11  C   UNL     1       9.474  75.459   1.361  1.00  0.00    -0.019 C 
ATOM     12  C   UNL     1       8.729  76.726   1.939  1.00  0.00     0.092 C 
ATOM     13  C   UNL     1       9.351  77.393   3.192  1.00  0.00     0.235 C 
ATOM     14  O   UNL     1       8.948  76.755   4.397  1.00  0.00    -0.426 OA
ATOM     15  C   UNL     1      10.071  76.525   5.164  1.00  0.00     0.336 C 
ATOM     16  O   UNL     1      10.042  76.016   6.317  1.00  0.00    -0.246 OA
ATOM     17  C   UNL     1       8.939  74.216   2.119  1.00  0.00     0.012 C 
ENDROOT
BRANCH  13  18
ATOM     18  O   UNL     1       8.972  78.747   3.268  1.00  0.00    -0.353 OA
ATOM     19  H   UNL     1       8.465  78.876   4.112  1.00  0.00     0.215 HD
ENDBRANCH  13  18
TORSDOF 1
ENDMDL
