MODEL 1
REMARK VINA RESULT:    -4.033      0.000      0.000
REMARK INTER + INTRA:          -9.502
REMARK INTER:                  -7.334
REMARK INTRA:                  -2.168
REMARK UNBOUND:                -2.168
REMARK SMILES CCCCCCCCCCCCCC[C@@H](C)C(=O)[O-]
REMARK SMILES IDX 9 1 10 2 11 3 12 4 13 5 14 6 15 7 16 8 17 9 18 10 19 11 8 12
REMARK SMILES IDX 7 13 6 14 5 15 4 16 3 17 2 18 1 19
REMARK H PARENT
REMARK Flexibility Score: inf
ROOT
ATOM      1  C   UNL     1     130.135 143.453 119.519  1.00  0.00     0.000 C 
ENDROOT
BRANCH   1   2
ATOM      2  C   UNL     1     128.598 143.503 119.571  1.00  0.00     0.000 C 
BRANCH   2   3
ATOM      3  C   UNL     1     128.009 144.525 118.584  1.00  0.00     0.000 C 
BRANCH   3   4
ATOM      4  C   UNL     1     126.921 145.402 119.225  1.00  0.00     0.000 C 
BRANCH   4   5
ATOM      5  C   UNL     1     127.477 146.356 120.299  1.00  0.00     0.001 C 
BRANCH   5   6
ATOM      6  C   UNL     1     127.022 146.060 121.743  1.00  0.00     0.009 C 
BRANCH   6   7
ATOM      7  C   UNL     1     128.156 145.687 122.726  1.00  0.00     0.032 C 
ATOM      8  C   UNL     1     128.470 146.818 123.715  1.00  0.00     0.014 C 
BRANCH   7   9
ATOM      9  C   UNL     1     127.786 144.438 123.478  1.00  0.00     0.044 C 
ATOM     10  O   UNL     1     127.729 143.326 122.887  1.00  0.00    -0.550 OA
ATOM     11  O   UNL     1     127.516 144.503 124.839  1.00  0.00    -0.550 OA
ENDBRANCH   7   9
ENDBRANCH   6   7
ENDBRANCH   5   6
ENDBRANCH   4   5
ENDBRANCH   3   4
ENDBRANCH   2   3
ENDBRANCH   1   2
BRANCH   1  12
ATOM     12  C   UNL     1     130.788 143.786 120.873  1.00  0.00     0.000 C 
BRANCH  12  13
ATOM     13  C   UNL     1     131.205 145.260 121.057  1.00  0.00    -0.000 C 
BRANCH  13  14
ATOM     14  C   UNL     1     131.073 146.145 119.804  1.00  0.00    -0.000 C 
BRANCH  14  15
ATOM     15  C   UNL     1     132.309 147.028 119.564  1.00  0.00    -0.000 C 
BRANCH  15  16
ATOM     16  C   UNL     1     133.628 146.321 119.925  1.00  0.00    -0.000 C 
BRANCH  16  17
ATOM     17  C   UNL     1     134.653 146.211 118.778  1.00  0.00    -0.000 C 
BRANCH  17  18
ATOM     18  C   UNL     1     134.976 144.775 118.330  1.00  0.00    -0.003 C 
ATOM     19  C   UNL     1     133.917 143.763 118.766  1.00  0.00     0.004 C 
ENDBRANCH  17  18
ENDBRANCH  16  17
ENDBRANCH  15  16
ENDBRANCH  14  15
ENDBRANCH  13  14
ENDBRANCH  12  13
ENDBRANCH   1  12
TORSDOF 14
ENDMDL
MODEL 2
REMARK VINA RESULT:    -3.911      1.960      4.530
REMARK INTER + INTRA:          -9.281
REMARK INTER:                  -6.379
REMARK INTRA:                  -2.902
REMARK UNBOUND:                -2.168
REMARK SMILES CCCCCCCCCCCCCC[C@@H](C)C(=O)[O-]
REMARK SMILES IDX 9 1 10 2 11 3 12 4 13 5 14 6 15 7 16 8 17 9 18 10 19 11 8 12
REMARK SMILES IDX 7 13 6 14 5 15 4 16 3 17 2 18 1 19
REMARK H PARENT
REMARK Flexibility Score: inf
ROOT
ATOM      1  C   UNL     1     131.548 144.038 120.446  1.00  0.00     0.000 C 
ENDROOT
BRANCH   1   2
ATOM      2  C   UNL     1     131.351 145.435 119.831  1.00  0.00     0.000 C 
BRANCH   2   3
ATOM      3  C   UNL     1     130.628 146.401 120.783  1.00  0.00     0.000 C 
BRANCH   3   4
ATOM      4  C   UNL     1     130.756 145.981 122.257  1.00  0.00     0.000 C 
BRANCH   4   5
ATOM      5  C   UNL     1     129.501 146.311 123.085  1.00  0.00     0.001 C 
BRANCH   5   6
ATOM      6  C   UNL     1     129.614 146.029 124.597  1.00  0.00     0.009 C 
BRANCH   6   7
ATOM      7  C   UNL     1     128.318 145.519 125.269  1.00  0.00     0.032 C 
ATOM      8  C   UNL     1     127.055 145.970 124.522  1.00  0.00     0.014 C 
BRANCH   7   9
ATOM      9  C   UNL     1     128.350 144.018 125.360  1.00  0.00     0.044 C 
ATOM     10  O   UNL     1     129.443 143.408 125.513  1.00  0.00    -0.550 OA
ATOM     11  O   UNL     1     127.167 143.294 125.289  1.00  0.00    -0.550 OA
ENDBRANCH   7   9
ENDBRANCH   6   7
ENDBRANCH   5   6
ENDBRANCH   4   5
ENDBRANCH   3   4
ENDBRANCH   2   3
ENDBRANCH   1   2
BRANCH   1  12
ATOM     12  C   UNL     1     130.938 142.917 119.585  1.00  0.00     0.000 C 
BRANCH  12  13
ATOM     13  C   UNL     1     129.811 142.109 120.259  1.00  0.00    -0.000 C 
BRANCH  13  14
ATOM     14  C   UNL     1     129.535 142.463 121.732  1.00  0.00    -0.000 C 
BRANCH  14  15
ATOM     15  C   UNL     1     128.063 142.827 121.992  1.00  0.00    -0.000 C 
BRANCH  15  16
ATOM     16  C   UNL     1     127.371 143.439 120.760  1.00  0.00    -0.000 C 
BRANCH  16  17
ATOM     17  C   UNL     1     127.211 144.972 120.787  1.00  0.00    -0.000 C 
BRANCH  17  18
ATOM     18  C   UNL     1     127.259 145.655 119.409  1.00  0.00    -0.003 C 
ATOM     19  C   UNL     1     127.958 144.806 118.348  1.00  0.00     0.004 C 
ENDBRANCH  17  18
ENDBRANCH  16  17
ENDBRANCH  15  16
ENDBRANCH  14  15
ENDBRANCH  13  14
ENDBRANCH  12  13
ENDBRANCH   1  12
TORSDOF 14
ENDMDL
MODEL 3
REMARK VINA RESULT:    -3.793      3.047      6.039
REMARK INTER + INTRA:          -9.065
REMARK INTER:                  -6.639
REMARK INTRA:                  -2.426
REMARK UNBOUND:                -2.168
REMARK SMILES CCCCCCCCCCCCCC[C@@H](C)C(=O)[O-]
REMARK SMILES IDX 9 1 10 2 11 3 12 4 13 5 14 6 15 7 16 8 17 9 18 10 19 11 8 12
REMARK SMILES IDX 7 13 6 14 5 15 4 16 3 17 2 18 1 19
REMARK H PARENT
REMARK Flexibility Score: inf
ROOT
ATOM      1  C   UNL     1     128.670 146.539 123.859  1.00  0.00     0.000 C 
ENDROOT
BRANCH   1   2
ATOM      2  C   UNL     1     129.994 145.806 124.137  1.00  0.00     0.000 C 
BRANCH   2   3
ATOM      3  C   UNL     1     130.477 144.985 122.930  1.00  0.00     0.000 C 
BRANCH   3   4
ATOM      4  C   UNL     1     131.753 145.564 122.298  1.00  0.00     0.000 C 
BRANCH   4   5
ATOM      5  C   UNL     1     131.460 146.520 121.127  1.00  0.00     0.001 C 
BRANCH   5   6
ATOM      6  C   UNL     1     132.356 146.337 119.884  1.00  0.00     0.009 C 
BRANCH   6   7
ATOM      7  C   UNL     1     133.672 145.564 120.132  1.00  0.00     0.032 C 
ATOM      8  C   UNL     1     133.983 144.564 119.010  1.00  0.00     0.014 C 
BRANCH   7   9
ATOM      9  C   UNL     1     134.810 146.536 120.281  1.00  0.00     0.044 C 
ATOM     10  O   UNL     1     135.080 147.041 121.404  1.00  0.00    -0.550 OA
ATOM     11  O   UNL     1     135.584 146.873 119.177  1.00  0.00    -0.550 OA
ENDBRANCH   7   9
ENDBRANCH   6   7
ENDBRANCH   5   6
ENDBRANCH   4   5
ENDBRANCH   3   4
ENDBRANCH   2   3
ENDBRANCH   1   2
BRANCH   1  12
ATOM     12  C   UNL     1     127.649 145.661 123.111  1.00  0.00     0.000 C 
BRANCH  12  13
ATOM     13  C   UNL     1     126.990 146.321 121.883  1.00  0.00    -0.000 C 
BRANCH  13  14
ATOM     14  C   UNL     1     127.825 146.292 120.590  1.00  0.00    -0.000 C 
BRANCH  14  15
ATOM     15  C   UNL     1     127.093 145.611 119.421  1.00  0.00    -0.000 C 
BRANCH  15  16
ATOM     16  C   UNL     1     127.816 144.349 118.916  1.00  0.00    -0.000 C 
BRANCH  16  17
ATOM     17  C   UNL     1     128.820 143.724 119.907  1.00  0.00    -0.000 C 
BRANCH  17  18
ATOM     18  C   UNL     1     130.220 143.455 119.329  1.00  0.00    -0.003 C 
ATOM     19  C   UNL     1     130.989 142.386 120.105  1.00  0.00     0.004 C 
ENDBRANCH  17  18
ENDBRANCH  16  17
ENDBRANCH  15  16
ENDBRANCH  14  15
ENDBRANCH  13  14
ENDBRANCH  12  13
ENDBRANCH   1  12
TORSDOF 14
ENDMDL
MODEL 4
REMARK VINA RESULT:    -3.783      2.088      3.657
REMARK INTER + INTRA:          -9.047
REMARK INTER:                  -7.026
REMARK INTRA:                  -2.021
REMARK UNBOUND:                -2.168
REMARK SMILES CCCCCCCCCCCCCC[C@@H](C)C(=O)[O-]
REMARK SMILES IDX 9 1 10 2 11 3 12 4 13 5 14 6 15 7 16 8 17 9 18 10 19 11 8 12
REMARK SMILES IDX 7 13 6 14 5 15 4 16 3 17 2 18 1 19
REMARK H PARENT
REMARK Flexibility Score: inf
ROOT
ATOM      1  C   UNL     1     127.413 146.289 122.814  1.00  0.00     0.000 C 
ENDROOT
BRANCH   1   2
ATOM      2  C   UNL     1     127.205 145.380 121.591  1.00  0.00     0.000 C 
BRANCH   2   3
ATOM      3  C   UNL     1     126.899 146.175 120.311  1.00  0.00     0.000 C 
BRANCH   3   4
ATOM      4  C   UNL     1     127.601 145.592 119.073  1.00  0.00     0.000 C 
BRANCH   4   5
ATOM      5  C   UNL     1     127.733 144.059 119.127  1.00  0.00     0.001 C 
BRANCH   5   6
ATOM      6  C   UNL     1     129.179 143.520 119.113  1.00  0.00     0.009 C 
BRANCH   6   7
ATOM      7  C   UNL     1     129.597 142.727 120.372  1.00  0.00     0.032 C 
ATOM      8  C   UNL     1     128.458 141.854 120.918  1.00  0.00     0.014 C 
BRANCH   7   9
ATOM      9  C   UNL     1     130.793 141.870 120.059  1.00  0.00     0.044 C 
ATOM     10  O   UNL     1     130.986 140.789 120.677  1.00  0.00    -0.550 OA
ATOM     11  O   UNL     1     131.687 142.262 119.071  1.00  0.00    -0.550 OA
ENDBRANCH   7   9
ENDBRANCH   6   7
ENDBRANCH   5   6
ENDBRANCH   4   5
ENDBRANCH   3   4
ENDBRANCH   2   3
ENDBRANCH   1   2
BRANCH   1  12
ATOM     12  C   UNL     1     128.899 146.587 123.089  1.00  0.00     0.000 C 
BRANCH  12  13
ATOM     13  C   UNL     1     129.899 145.648 122.385  1.00  0.00    -0.000 C 
BRANCH  13  14
ATOM     14  C   UNL     1     131.157 146.329 121.817  1.00  0.00    -0.000 C 
BRANCH  14  15
ATOM     15  C   UNL     1     131.244 146.237 120.283  1.00  0.00    -0.000 C 
BRANCH  15  16
ATOM     16  C   UNL     1     132.531 145.545 119.798  1.00  0.00    -0.000 C 
BRANCH  16  17
ATOM     17  C   UNL     1     133.734 146.481 119.562  1.00  0.00    -0.000 C 
BRANCH  17  18
ATOM     18  C   UNL     1     134.827 145.914 118.640  1.00  0.00    -0.003 C 
ATOM     19  C   UNL     1     134.743 144.397 118.478  1.00  0.00     0.004 C 
ENDBRANCH  17  18
ENDBRANCH  16  17
ENDBRANCH  15  16
ENDBRANCH  14  15
ENDBRANCH  13  14
ENDBRANCH  12  13
ENDBRANCH   1  12
TORSDOF 14
ENDMDL
MODEL 5
REMARK VINA RESULT:    -3.727      2.541      6.400
REMARK INTER + INTRA:          -8.946
REMARK INTER:                  -6.799
REMARK INTRA:                  -2.147
REMARK UNBOUND:                -2.168
REMARK SMILES CCCCCCCCCCCCCC[C@@H](C)C(=O)[O-]
REMARK SMILES IDX 9 1 10 2 11 3 12 4 13 5 14 6 15 7 16 8 17 9 18 10 19 11 8 12
REMARK SMILES IDX 7 13 6 14 5 15 4 16 3 17 2 18 1 19
REMARK H PARENT
REMARK Flexibility Score: inf
ROOT
ATOM      1  C   UNL     1     130.923 145.484 121.728  1.00  0.00     0.000 C 
ENDROOT
BRANCH   1   2
ATOM      2  C   UNL     1     130.749 146.457 120.549  1.00  0.00     0.000 C 
BRANCH   2   3
ATOM      3  C   UNL     1     132.093 146.886 119.937  1.00  0.00     0.000 C 
BRANCH   3   4
ATOM      4  C   UNL     1     133.295 146.452 120.792  1.00  0.00     0.000 C 
BRANCH   4   5
ATOM      5  C   UNL     1     134.583 146.275 119.968  1.00  0.00     0.001 C 
BRANCH   5   6
ATOM      6  C   UNL     1     134.393 145.637 118.576  1.00  0.00     0.009 C 
BRANCH   6   7
ATOM      7  C   UNL     1     134.966 144.209 118.424  1.00  0.00     0.032 C 
ATOM      8  C   UNL     1     136.087 143.918 119.432  1.00  0.00     0.014 C 
BRANCH   7   9
ATOM      9  C   UNL     1     133.862 143.200 118.582  1.00  0.00     0.044 C 
ATOM     10  O   UNL     1     132.697 143.567 118.896  1.00  0.00    -0.550 OA
ATOM     11  O   UNL     1     134.118 141.852 118.366  1.00  0.00    -0.550 OA
ENDBRANCH   7   9
ENDBRANCH   6   7
ENDBRANCH   5   6
ENDBRANCH   4   5
ENDBRANCH   3   4
ENDBRANCH   2   3
ENDBRANCH   1   2
BRANCH   1  12
ATOM     12  C   UNL     1     129.647 145.345 122.579  1.00  0.00     0.000 C 
BRANCH  12  13
ATOM     13  C   UNL     1     128.529 146.357 122.257  1.00  0.00    -0.000 C 
BRANCH  13  14
ATOM     14  C   UNL     1     127.245 145.753 121.658  1.00  0.00    -0.000 C 
BRANCH  14  15
ATOM     15  C   UNL     1     126.876 146.366 120.296  1.00  0.00    -0.000 C 
BRANCH  15  16
ATOM     16  C   UNL     1     127.336 145.502 119.108  1.00  0.00    -0.000 C 
BRANCH  16  17
ATOM     17  C   UNL     1     127.572 144.011 119.428  1.00  0.00    -0.000 C 
BRANCH  17  18
ATOM     18  C   UNL     1     129.018 143.524 119.231  1.00  0.00    -0.003 C 
ATOM     19  C   UNL     1     129.420 142.434 120.224  1.00  0.00     0.004 C 
ENDBRANCH  17  18
ENDBRANCH  16  17
ENDBRANCH  15  16
ENDBRANCH  14  15
ENDBRANCH  13  14
ENDBRANCH  12  13
ENDBRANCH   1  12
TORSDOF 14
ENDMDL
MODEL 6
REMARK VINA RESULT:    -3.700      1.604      2.394
REMARK INTER + INTRA:          -8.896
REMARK INTER:                  -7.019
REMARK INTRA:                  -1.877
REMARK UNBOUND:                -2.168
REMARK SMILES CCCCCCCCCCCCCC[C@@H](C)C(=O)[O-]
REMARK SMILES IDX 9 1 10 2 11 3 12 4 13 5 14 6 15 7 16 8 17 9 18 10 19 11 8 12
REMARK SMILES IDX 7 13 6 14 5 15 4 16 3 17 2 18 1 19
REMARK H PARENT
REMARK Flexibility Score: inf
ROOT
ATOM      1  C   UNL     1     127.988 144.921 119.056  1.00  0.00     0.000 C 
ENDROOT
BRANCH   1   2
ATOM      2  C   UNL     1     128.384 143.514 119.538  1.00  0.00     0.000 C 
BRANCH   2   3
ATOM      3  C   UNL     1     127.281 142.847 120.375  1.00  0.00     0.000 C 
BRANCH   3   4
ATOM      4  C   UNL     1     127.769 142.438 121.774  1.00  0.00     0.000 C 
BRANCH   4   5
ATOM      5  C   UNL     1     128.846 143.387 122.333  1.00  0.00     0.001 C 
BRANCH   5   6
ATOM      6  C   UNL     1     128.345 144.423 123.360  1.00  0.00     0.009 C 
BRANCH   6   7
ATOM      7  C   UNL     1     128.905 145.852 123.178  1.00  0.00     0.032 C 
ATOM      8  C   UNL     1     127.795 146.909 123.091  1.00  0.00     0.014 C 
BRANCH   7   9
ATOM      9  C   UNL     1     129.836 146.181 124.312  1.00  0.00     0.044 C 
ATOM     10  O   UNL     1     130.666 147.125 124.209  1.00  0.00    -0.550 OA
ATOM     11  O   UNL     1     129.776 145.451 125.493  1.00  0.00    -0.550 OA
ENDBRANCH   7   9
ENDBRANCH   6   7
ENDBRANCH   5   6
ENDBRANCH   4   5
ENDBRANCH   3   4
ENDBRANCH   2   3
ENDBRANCH   1   2
BRANCH   1  12
ATOM     12  C   UNL     1     128.889 146.026 119.640  1.00  0.00     0.000 C 
BRANCH  12  13
ATOM     13  C   UNL     1     130.385 145.666 119.747  1.00  0.00    -0.000 C 
BRANCH  13  14
ATOM     14  C   UNL     1     131.353 146.863 119.749  1.00  0.00    -0.000 C 
BRANCH  14  15
ATOM     15  C   UNL     1     132.307 146.857 120.956  1.00  0.00    -0.000 C 
BRANCH  15  16
ATOM     16  C   UNL     1     133.651 146.171 120.652  1.00  0.00    -0.000 C 
BRANCH  16  17
ATOM     17  C   UNL     1     134.226 146.441 119.246  1.00  0.00    -0.000 C 
BRANCH  17  18
ATOM     18  C   UNL     1     134.918 145.237 118.584  1.00  0.00    -0.003 C 
ATOM     19  C   UNL     1     134.110 143.945 118.705  1.00  0.00     0.004 C 
ENDBRANCH  17  18
ENDBRANCH  16  17
ENDBRANCH  15  16
ENDBRANCH  14  15
ENDBRANCH  13  14
ENDBRANCH  12  13
ENDBRANCH   1  12
TORSDOF 14
ENDMDL
MODEL 7
REMARK VINA RESULT:    -3.699      3.003      5.767
REMARK INTER + INTRA:          -8.895
REMARK INTER:                  -6.500
REMARK INTRA:                  -2.395
REMARK UNBOUND:                -2.168
REMARK SMILES CCCCCCCCCCCCCC[C@@H](C)C(=O)[O-]
REMARK SMILES IDX 9 1 10 2 11 3 12 4 13 5 14 6 15 7 16 8 17 9 18 10 19 11 8 12
REMARK SMILES IDX 7 13 6 14 5 15 4 16 3 17 2 18 1 19
REMARK H PARENT
REMARK Flexibility Score: inf
ROOT
ATOM      1  C   UNL     1     127.241 145.973 122.804  1.00  0.00     0.000 C 
ENDROOT
BRANCH   1   2
ATOM      2  C   UNL     1     126.929 146.416 121.364  1.00  0.00     0.000 C 
BRANCH   2   3
ATOM      3  C   UNL     1     127.147 145.288 120.342  1.00  0.00     0.000 C 
BRANCH   3   4
ATOM      4  C   UNL     1     128.322 145.574 119.392  1.00  0.00     0.000 C 
BRANCH   4   5
ATOM      5  C   UNL     1     129.692 145.273 120.027  1.00  0.00     0.001 C 
BRANCH   5   6
ATOM      6  C   UNL     1     130.664 146.469 120.098  1.00  0.00     0.009 C 
BRANCH   6   7
ATOM      7  C   UNL     1     131.636 146.455 121.300  1.00  0.00     0.032 C 
ATOM      8  C   UNL     1     131.559 145.147 122.100  1.00  0.00     0.014 C 
BRANCH   7   9
ATOM      9  C   UNL     1     133.043 146.678 120.818  1.00  0.00     0.044 C 
ATOM     10  O   UNL     1     133.313 146.639 119.588  1.00  0.00    -0.550 OA
ATOM     11  O   UNL     1     134.055 146.944 121.732  1.00  0.00    -0.550 OA
ENDBRANCH   7   9
ENDBRANCH   6   7
ENDBRANCH   5   6
ENDBRANCH   4   5
ENDBRANCH   3   4
ENDBRANCH   2   3
ENDBRANCH   1   2
BRANCH   1  12
ATOM     12  C   UNL     1     128.375 146.794 123.447  1.00  0.00     0.000 C 
BRANCH  12  13
ATOM     13  C   UNL     1     129.173 146.064 124.547  1.00  0.00    -0.000 C 
BRANCH  13  14
ATOM     14  C   UNL     1     128.348 145.128 125.450  1.00  0.00    -0.000 C 
BRANCH  14  15
ATOM     15  C   UNL     1     128.867 143.680 125.440  1.00  0.00    -0.000 C 
BRANCH  15  16
ATOM     16  C   UNL     1     128.032 142.751 124.539  1.00  0.00    -0.000 C 
BRANCH  16  17
ATOM     17  C   UNL     1     128.712 142.322 123.223  1.00  0.00    -0.000 C 
BRANCH  17  18
ATOM     18  C   UNL     1     127.755 142.098 122.040  1.00  0.00    -0.003 C 
ATOM     19  C   UNL     1     128.485 141.785 120.734  1.00  0.00     0.004 C 
ENDBRANCH  17  18
ENDBRANCH  16  17
ENDBRANCH  15  16
ENDBRANCH  14  15
ENDBRANCH  13  14
ENDBRANCH  12  13
ENDBRANCH   1  12
TORSDOF 14
ENDMDL
MODEL 8
REMARK VINA RESULT:    -3.691      2.795      6.233
REMARK INTER + INTRA:          -8.879
REMARK INTER:                  -6.661
REMARK INTRA:                  -2.219
REMARK UNBOUND:                -2.168
REMARK SMILES CCCCCCCCCCCCCC[C@@H](C)C(=O)[O-]
REMARK SMILES IDX 9 1 10 2 11 3 12 4 13 5 14 6 15 7 16 8 17 9 18 10 19 11 8 12
REMARK SMILES IDX 7 13 6 14 5 15 4 16 3 17 2 18 1 19
REMARK H PARENT
REMARK Flexibility Score: inf
ROOT
ATOM      1  C   UNL     1     128.826 145.170 123.101  1.00  0.00     0.000 C 
ENDROOT
BRANCH   1   2
ATOM      2  C   UNL     1     130.261 145.282 122.556  1.00  0.00     0.000 C 
BRANCH   2   3
ATOM      3  C   UNL     1     130.461 146.528 121.678  1.00  0.00     0.000 C 
BRANCH   3   4
ATOM      4  C   UNL     1     130.753 146.174 120.211  1.00  0.00     0.000 C 
BRANCH   4   5
ATOM      5  C   UNL     1     132.003 146.886 119.660  1.00  0.00     0.001 C 
BRANCH   5   6
ATOM      6  C   UNL     1     133.352 146.345 120.177  1.00  0.00     0.009 C 
BRANCH   6   7
ATOM      7  C   UNL     1     134.374 145.972 119.079  1.00  0.00     0.032 C 
ATOM      8  C   UNL     1     135.781 146.505 119.384  1.00  0.00     0.014 C 
BRANCH   7   9
ATOM      9  C   UNL     1     134.418 144.478 118.912  1.00  0.00     0.044 C 
ATOM     10  O   UNL     1     133.444 143.764 119.274  1.00  0.00    -0.550 OA
ATOM     11  O   UNL     1     135.533 143.876 118.342  1.00  0.00    -0.550 OA
ENDBRANCH   7   9
ENDBRANCH   6   7
ENDBRANCH   5   6
ENDBRANCH   4   5
ENDBRANCH   3   4
ENDBRANCH   2   3
ENDBRANCH   1   2
BRANCH   1  12
ATOM     12  C   UNL     1     127.924 146.332 122.646  1.00  0.00     0.000 C 
BRANCH  12  13
ATOM     13  C   UNL     1     126.875 145.970 121.575  1.00  0.00    -0.000 C 
BRANCH  13  14
ATOM     14  C   UNL     1     127.088 146.620 120.195  1.00  0.00    -0.000 C 
BRANCH  14  15
ATOM     15  C   UNL     1     127.262 145.586 119.069  1.00  0.00    -0.000 C 
BRANCH  15  16
ATOM     16  C   UNL     1     127.298 144.137 119.588  1.00  0.00    -0.000 C 
BRANCH  16  17
ATOM     17  C   UNL     1     128.631 143.393 119.373  1.00  0.00    -0.000 C 
BRANCH  17  18
ATOM     18  C   UNL     1     128.978 142.356 120.455  1.00  0.00    -0.003 C 
ATOM     19  C   UNL     1     127.818 142.082 121.412  1.00  0.00     0.004 C 
ENDBRANCH  17  18
ENDBRANCH  16  17
ENDBRANCH  15  16
ENDBRANCH  14  15
ENDBRANCH  13  14
ENDBRANCH  12  13
ENDBRANCH   1  12
TORSDOF 14
ENDMDL
MODEL 9
REMARK VINA RESULT:    -3.684      1.903      3.022
REMARK INTER + INTRA:          -8.868
REMARK INTER:                  -6.504
REMARK INTRA:                  -2.364
REMARK UNBOUND:                -2.168
REMARK SMILES CCCCCCCCCCCCCC[C@@H](C)C(=O)[O-]
REMARK SMILES IDX 9 1 10 2 11 3 12 4 13 5 14 6 15 7 16 8 17 9 18 10 19 11 8 12
REMARK SMILES IDX 7 13 6 14 5 15 4 16 3 17 2 18 1 19
REMARK H PARENT
REMARK Flexibility Score: inf
ROOT
ATOM      1  C   UNL     1     129.405 141.951 121.322  1.00  0.00     0.000 C 
ENDROOT
BRANCH   1   2
ATOM      2  C   UNL     1     127.992 142.435 121.693  1.00  0.00     0.000 C 
BRANCH   2   3
ATOM      3  C   UNL     1     127.456 143.492 120.713  1.00  0.00     0.000 C 
BRANCH   3   4
ATOM      4  C   UNL     1     128.243 143.522 119.392  1.00  0.00     0.000 C 
BRANCH   4   5
ATOM      5  C   UNL     1     128.393 144.944 118.818  1.00  0.00     0.001 C 
BRANCH   5   6
ATOM      6  C   UNL     1     128.767 146.033 119.844  1.00  0.00     0.009 C 
BRANCH   6   7
ATOM      7  C   UNL     1     130.202 145.937 120.412  1.00  0.00     0.032 C 
ATOM      8  C   UNL     1     131.177 146.886 119.701  1.00  0.00     0.014 C 
BRANCH   7   9
ATOM      9  C   UNL     1     130.185 146.232 121.887  1.00  0.00     0.044 C 
ATOM     10  O   UNL     1     129.129 146.082 122.559  1.00  0.00    -0.550 OA
ATOM     11  O   UNL     1     131.344 146.660 122.521  1.00  0.00    -0.550 OA
ENDBRANCH   7   9
ENDBRANCH   6   7
ENDBRANCH   5   6
ENDBRANCH   4   5
ENDBRANCH   3   4
ENDBRANCH   2   3
ENDBRANCH   1   2
BRANCH   1  12
ATOM     12  C   UNL     1     130.504 142.614 122.173  1.00  0.00     0.000 C 
BRANCH  12  13
ATOM     13  C   UNL     1     131.824 142.906 121.430  1.00  0.00    -0.000 C 
BRANCH  13  14
ATOM     14  C   UNL     1     131.897 142.384 119.984  1.00  0.00    -0.000 C 
BRANCH  14  15
ATOM     15  C   UNL     1     132.552 143.387 119.019  1.00  0.00    -0.000 C 
BRANCH  15  16
ATOM     16  C   UNL     1     134.016 143.696 119.381  1.00  0.00    -0.000 C 
BRANCH  16  17
ATOM     17  C   UNL     1     134.784 144.551 118.352  1.00  0.00    -0.000 C 
BRANCH  17  18
ATOM     18  C   UNL     1     134.784 146.064 118.634  1.00  0.00    -0.003 C 
ATOM     19  C   UNL     1     135.006 146.394 120.110  1.00  0.00     0.004 C 
ENDBRANCH  17  18
ENDBRANCH  16  17
ENDBRANCH  15  16
ENDBRANCH  14  15
ENDBRANCH  13  14
ENDBRANCH  12  13
ENDBRANCH   1  12
TORSDOF 14
ENDMDL
