MODEL 1
REMARK VINA RESULT:    -6.109      0.000      0.000
REMARK INTER + INTRA:          -8.361
REMARK INTER:                  -7.716
REMARK INTRA:                  -0.646
REMARK UNBOUND:                -0.646
REMARK SMILES O=C(C=Cc1ccc(O)cc1)c1ccc(O)cc1O
REMARK SMILES IDX 4 1 3 2 5 3 6 4 7 5 8 6 11 7 10 8 9 9 2 11 1 12 12 13 18 14
REMARK SMILES IDX 13 15 17 16 14 17 15 18 19 19 16 21
REMARK H PARENT 9 10 19 20 16 22
REMARK Flexibility Score: inf
ROOT
ATOM      1  C   UNL     1      13.345 -11.768 -43.443  1.00  0.00     0.012 C 
ATOM      2  C   UNL     1      12.666 -10.863 -44.163  1.00  0.00     0.053 C 
ENDROOT
BRANCH   1   3
ATOM      3  C   UNL     1      14.781 -12.077 -43.652  1.00  0.00    -0.025 A 
ATOM      4  C   UNL     1      15.790 -11.616 -42.782  1.00  0.00     0.012 A 
ATOM      5  C   UNL     1      17.129 -11.944 -43.016  1.00  0.00     0.047 A 
ATOM      6  C   UNL     1      17.480 -12.741 -44.109  1.00  0.00     0.115 A 
ATOM      7  C   UNL     1      15.144 -12.891 -44.739  1.00  0.00     0.012 A 
ATOM      8  C   UNL     1      16.484 -13.216 -44.969  1.00  0.00     0.047 A 
BRANCH   6   9
ATOM      9  O   UNL     1      18.819 -13.057 -44.328  1.00  0.00    -0.508 OA
ATOM     10  H   UNL     1      19.562 -12.409 -44.092  1.00  0.00     0.293 HD
ENDBRANCH   6   9
ENDBRANCH   1   3
BRANCH   2  11
ATOM     11  C   UNL     1      11.227 -10.595 -43.937  1.00  0.00     0.189 C 
ATOM     12  O   UNL     1      10.863  -9.960 -42.910  1.00  0.00    -0.289 OA
BRANCH  11  13
ATOM     13  C   UNL     1      10.202 -11.073 -44.900  1.00  0.00     0.064 A 
ATOM     14  C   UNL     1       9.051 -10.302 -45.175  1.00  0.00     0.130 A 
ATOM     15  C   UNL     1      10.377 -12.299 -45.571  1.00  0.00     0.020 A 
ATOM     16  C   UNL     1       8.103 -10.764 -46.101  1.00  0.00     0.093 A 
ATOM     17  C   UNL     1       9.425 -12.750 -46.489  1.00  0.00     0.047 A 
ATOM     18  C   UNL     1       8.288 -11.986 -46.756  1.00  0.00     0.119 A 
BRANCH  14  19
ATOM     19  O   UNL     1       8.840  -9.088 -44.522  1.00  0.00    -0.507 OA
ATOM     20  H   UNL     1       7.909  -8.717 -44.373  1.00  0.00     0.293 HD
ENDBRANCH  14  19
BRANCH  18  21
ATOM     21  O   UNL     1       7.349 -12.450 -47.675  1.00  0.00    -0.508 OA
ATOM     22  H   UNL     1       7.124 -11.926 -48.513  1.00  0.00     0.293 HD
ENDBRANCH  18  21
ENDBRANCH  11  13
ENDBRANCH   2  11
TORSDOF 6
ENDMDL
MODEL 2
REMARK VINA RESULT:    -6.011     13.111     13.918
REMARK INTER + INTRA:          -8.238
REMARK INTER:                  -7.587
REMARK INTRA:                  -0.650
REMARK UNBOUND:                -0.646
REMARK SMILES O=C(C=Cc1ccc(O)cc1)c1ccc(O)cc1O
REMARK SMILES IDX 4 1 3 2 5 3 6 4 7 5 8 6 11 7 10 8 9 9 2 11 1 12 12 13 18 14
REMARK SMILES IDX 13 15 17 16 14 17 15 18 19 19 16 21
REMARK H PARENT 9 10 19 20 16 22
REMARK Flexibility Score: inf
ROOT
ATOM      1  C   UNL     1       6.619 -20.305 -36.571  1.00  0.00     0.012 C 
ATOM      2  C   UNL     1       6.832 -19.107 -36.007  1.00  0.00     0.053 C 
ENDROOT
BRANCH   1   3
ATOM      3  C   UNL     1       7.539 -21.459 -36.422  1.00  0.00    -0.025 A 
ATOM      4  C   UNL     1       7.597 -22.509 -37.361  1.00  0.00     0.012 A 
ATOM      5  C   UNL     1       8.491 -23.569 -37.182  1.00  0.00     0.047 A 
ATOM      6  C   UNL     1       9.343 -23.594 -36.075  1.00  0.00     0.115 A 
ATOM      7  C   UNL     1       8.413 -21.486 -35.322  1.00  0.00     0.012 A 
ATOM      8  C   UNL     1       9.305 -22.549 -35.146  1.00  0.00     0.047 A 
BRANCH   6   9
ATOM      9  O   UNL     1      10.227 -24.659 -35.912  1.00  0.00    -0.508 OA
ATOM     10  H   UNL     1       9.910 -25.565 -35.585  1.00  0.00     0.293 HD
ENDBRANCH   6   9
ENDBRANCH   1   3
BRANCH   2  11
ATOM     11  C   UNL     1       5.899 -17.972 -36.193  1.00  0.00     0.189 C 
ATOM     12  O   UNL     1       5.366 -17.779 -37.320  1.00  0.00    -0.289 OA
BRANCH  11  13
ATOM     13  C   UNL     1       5.586 -17.049 -35.072  1.00  0.00     0.064 A 
ATOM     14  C   UNL     1       5.660 -15.649 -35.244  1.00  0.00     0.130 A 
ATOM     15  C   UNL     1       5.188 -17.561 -33.822  1.00  0.00     0.020 A 
ATOM     16  C   UNL     1       5.344 -14.794 -34.177  1.00  0.00     0.093 A 
ATOM     17  C   UNL     1       4.879 -16.701 -32.766  1.00  0.00     0.047 A 
ATOM     18  C   UNL     1       4.955 -15.318 -32.939  1.00  0.00     0.119 A 
BRANCH  14  19
ATOM     19  O   UNL     1       6.060 -15.106 -36.465  1.00  0.00    -0.507 OA
ATOM     20  H   UNL     1       6.607 -15.639 -37.131  1.00  0.00     0.293 HD
ENDBRANCH  14  19
BRANCH  18  21
ATOM     21  O   UNL     1       4.642 -14.474 -31.875  1.00  0.00    -0.508 OA
ATOM     22  H   UNL     1       3.921 -14.713 -31.204  1.00  0.00     0.293 HD
ENDBRANCH  18  21
ENDBRANCH  11  13
ENDBRANCH   2  11
TORSDOF 6
ENDMDL
MODEL 3
REMARK VINA RESULT:    -5.991     13.074     13.815
REMARK INTER + INTRA:          -8.212
REMARK INTER:                  -7.552
REMARK INTRA:                  -0.661
REMARK UNBOUND:                -0.646
REMARK SMILES O=C(C=Cc1ccc(O)cc1)c1ccc(O)cc1O
REMARK SMILES IDX 4 1 3 2 5 3 6 4 7 5 8 6 11 7 10 8 9 9 2 11 1 12 12 13 18 14
REMARK SMILES IDX 13 15 17 16 14 17 15 18 19 19 16 21
REMARK H PARENT 9 10 19 20 16 22
REMARK Flexibility Score: inf
ROOT
ATOM      1  C   UNL     1       6.692 -20.273 -36.332  1.00  0.00     0.012 C 
ATOM      2  C   UNL     1       7.008 -18.980 -36.162  1.00  0.00     0.053 C 
ENDROOT
BRANCH   1   3
ATOM      3  C   UNL     1       7.672 -21.381 -36.215  1.00  0.00    -0.025 A 
ATOM      4  C   UNL     1       8.679 -21.402 -35.229  1.00  0.00     0.012 A 
ATOM      5  C   UNL     1       9.572 -22.476 -35.152  1.00  0.00     0.047 A 
ATOM      6  C   UNL     1       9.468 -23.545 -36.046  1.00  0.00     0.115 A 
ATOM      7  C   UNL     1       7.566 -22.469 -37.098  1.00  0.00     0.012 A 
ATOM      8  C   UNL     1       8.461 -23.541 -37.018  1.00  0.00     0.047 A 
BRANCH   6   9
ATOM      9  O   UNL     1      10.365 -24.606 -35.957  1.00  0.00    -0.508 OA
ATOM     10  H   UNL     1      10.956 -24.868 -36.738  1.00  0.00     0.293 HD
ENDBRANCH   6   9
ENDBRANCH   1   3
BRANCH   2  11
ATOM     11  C   UNL     1       6.005 -17.900 -36.305  1.00  0.00     0.189 C 
ATOM     12  O   UNL     1       5.449 -17.708 -37.421  1.00  0.00    -0.289 OA
BRANCH  11  13
ATOM     13  C   UNL     1       5.651 -17.030 -35.155  1.00  0.00     0.064 A 
ATOM     14  C   UNL     1       5.679 -15.623 -35.274  1.00  0.00     0.130 A 
ATOM     15  C   UNL     1       5.259 -17.601 -33.929  1.00  0.00     0.020 A 
ATOM     16  C   UNL     1       5.325 -14.819 -34.180  1.00  0.00     0.093 A 
ATOM     17  C   UNL     1       4.910 -16.791 -32.845  1.00  0.00     0.047 A 
ATOM     18  C   UNL     1       4.941 -15.402 -32.967  1.00  0.00     0.119 A 
BRANCH  14  19
ATOM     19  O   UNL     1       6.072 -15.023 -36.470  1.00  0.00    -0.507 OA
ATOM     20  H   UNL     1       7.045 -14.982 -36.752  1.00  0.00     0.293 HD
ENDBRANCH  14  19
BRANCH  18  21
ATOM     21  O   UNL     1       4.589 -14.608 -31.876  1.00  0.00    -0.508 OA
ATOM     22  H   UNL     1       3.622 -14.493 -31.596  1.00  0.00     0.293 HD
ENDBRANCH  18  21
ENDBRANCH  11  13
ENDBRANCH   2  11
TORSDOF 6
ENDMDL
MODEL 4
REMARK VINA RESULT:    -5.853      2.915      7.438
REMARK INTER + INTRA:          -8.038
REMARK INTER:                  -7.402
REMARK INTRA:                  -0.636
REMARK UNBOUND:                -0.646
REMARK SMILES O=C(C=Cc1ccc(O)cc1)c1ccc(O)cc1O
REMARK SMILES IDX 4 1 3 2 5 3 6 4 7 5 8 6 11 7 10 8 9 9 2 11 1 12 12 13 18 14
REMARK SMILES IDX 13 15 17 16 14 17 15 18 19 19 16 21
REMARK H PARENT 9 10 19 20 16 22
REMARK Flexibility Score: inf
ROOT
ATOM      1  C   UNL     1      12.482 -10.868 -44.020  1.00  0.00     0.012 C 
ATOM      2  C   UNL     1      12.582 -11.983 -43.281  1.00  0.00     0.053 C 
ENDROOT
BRANCH   1   3
ATOM      3  C   UNL     1      11.624  -9.713 -43.656  1.00  0.00    -0.025 A 
ATOM      4  C   UNL     1      11.262  -8.714 -44.582  1.00  0.00     0.012 A 
ATOM      5  C   UNL     1      10.442  -7.652 -44.192  1.00  0.00     0.047 A 
ATOM      6  C   UNL     1       9.964  -7.574 -42.882  1.00  0.00     0.115 A 
ATOM      7  C   UNL     1      11.124  -9.634 -42.344  1.00  0.00     0.012 A 
ATOM      8  C   UNL     1      10.304  -8.569 -41.959  1.00  0.00     0.047 A 
BRANCH   6   9
ATOM      9  O   UNL     1       9.148  -6.508 -42.509  1.00  0.00    -0.508 OA
ATOM     10  H   UNL     1       9.320  -5.566 -42.845  1.00  0.00     0.293 HD
ENDBRANCH   6   9
ENDBRANCH   1   3
BRANCH   2  11
ATOM     11  C   UNL     1      13.435 -13.123 -43.687  1.00  0.00     0.189 C 
ATOM     12  O   UNL     1      12.922 -14.267 -43.832  1.00  0.00    -0.289 OA
BRANCH  11  13
ATOM     13  C   UNL     1      14.891 -12.942 -43.918  1.00  0.00     0.064 A 
ATOM     14  C   UNL     1      15.553 -13.638 -44.953  1.00  0.00     0.130 A 
ATOM     15  C   UNL     1      15.631 -12.052 -43.116  1.00  0.00     0.020 A 
ATOM     16  C   UNL     1      16.926 -13.441 -45.165  1.00  0.00     0.093 A 
ATOM     17  C   UNL     1      16.998 -11.865 -43.334  1.00  0.00     0.047 A 
ATOM     18  C   UNL     1      17.648 -12.556 -44.356  1.00  0.00     0.119 A 
BRANCH  14  19
ATOM     19  O   UNL     1      14.854 -14.536 -45.761  1.00  0.00    -0.507 OA
ATOM     20  H   UNL     1      13.853 -14.663 -45.674  1.00  0.00     0.293 HD
ENDBRANCH  14  19
BRANCH  18  21
ATOM     21  O   UNL     1      19.012 -12.357 -44.561  1.00  0.00    -0.508 OA
ATOM     22  H   UNL     1      19.357 -11.830 -45.355  1.00  0.00     0.293 HD
ENDBRANCH  18  21
ENDBRANCH  11  13
ENDBRANCH   2  11
TORSDOF 6
ENDMDL
MODEL 5
REMARK VINA RESULT:    -5.669      2.122      3.286
REMARK INTER + INTRA:          -7.806
REMARK INTER:                  -7.145
REMARK INTRA:                  -0.661
REMARK UNBOUND:                -0.646
REMARK SMILES O=C(C=Cc1ccc(O)cc1)c1ccc(O)cc1O
REMARK SMILES IDX 4 1 3 2 5 3 6 4 7 5 8 6 11 7 10 8 9 9 2 11 1 12 12 13 18 14
REMARK SMILES IDX 13 15 17 16 14 17 15 18 19 19 16 21
REMARK H PARENT 9 10 19 20 16 22
REMARK Flexibility Score: inf
ROOT
ATOM      1  C   UNL     1      13.538 -11.992 -44.207  1.00  0.00     0.012 C 
ATOM      2  C   UNL     1      12.768 -11.821 -43.123  1.00  0.00     0.053 C 
ENDROOT
BRANCH   1   3
ATOM      3  C   UNL     1      14.999 -12.245 -44.147  1.00  0.00    -0.025 A 
ATOM      4  C   UNL     1      15.832 -11.655 -43.174  1.00  0.00     0.012 A 
ATOM      5  C   UNL     1      17.202 -11.935 -43.152  1.00  0.00     0.047 A 
ATOM      6  C   UNL     1      17.758 -12.810 -44.088  1.00  0.00     0.115 A 
ATOM      7  C   UNL     1      15.567 -13.137 -45.073  1.00  0.00     0.012 A 
ATOM      8  C   UNL     1      16.937 -13.413 -45.047  1.00  0.00     0.047 A 
BRANCH   6   9
ATOM      9  O   UNL     1      19.125 -13.077 -44.053  1.00  0.00    -0.508 OA
ATOM     10  H   UNL     1      19.584 -13.379 -43.201  1.00  0.00     0.293 HD
ENDBRANCH   6   9
ENDBRANCH   1   3
BRANCH   2  11
ATOM     11  C   UNL     1      11.315 -11.552 -43.224  1.00  0.00     0.189 C 
ATOM     12  O   UNL     1      10.515 -12.507 -43.419  1.00  0.00    -0.289 OA
BRANCH  11  13
ATOM     13  C   UNL     1      10.785 -10.169 -43.109  1.00  0.00     0.064 A 
ATOM     14  C   UNL     1      10.136  -9.549 -44.199  1.00  0.00     0.130 A 
ATOM     15  C   UNL     1      10.905  -9.463 -41.897  1.00  0.00     0.020 A 
ATOM     16  C   UNL     1       9.627  -8.248 -44.064  1.00  0.00     0.093 A 
ATOM     17  C   UNL     1      10.398  -8.167 -41.775  1.00  0.00     0.047 A 
ATOM     18  C   UNL     1       9.759  -7.557 -42.854  1.00  0.00     0.119 A 
BRANCH  14  19
ATOM     19  O   UNL     1      10.007 -10.215 -45.418  1.00  0.00    -0.507 OA
ATOM     20  H   UNL     1       9.161 -10.714 -45.666  1.00  0.00     0.293 HD
ENDBRANCH  14  19
BRANCH  18  21
ATOM     21  O   UNL     1       9.257  -6.264 -42.715  1.00  0.00    -0.508 OA
ATOM     22  H   UNL     1       9.708  -5.471 -43.157  1.00  0.00     0.293 HD
ENDBRANCH  18  21
ENDBRANCH  11  13
ENDBRANCH   2  11
TORSDOF 6
ENDMDL
MODEL 6
REMARK VINA RESULT:    -5.652     13.409     15.062
REMARK INTER + INTRA:          -7.785
REMARK INTER:                  -7.182
REMARK INTRA:                  -0.603
REMARK UNBOUND:                -0.646
REMARK SMILES O=C(C=Cc1ccc(O)cc1)c1ccc(O)cc1O
REMARK SMILES IDX 4 1 3 2 5 3 6 4 7 5 8 6 11 7 10 8 9 9 2 11 1 12 12 13 18 14
REMARK SMILES IDX 13 15 17 16 14 17 15 18 19 19 16 21
REMARK H PARENT 9 10 19 20 16 22
REMARK Flexibility Score: inf
ROOT
ATOM      1  C   UNL     1       5.638 -17.720 -35.932  1.00  0.00     0.012 C 
ATOM      2  C   UNL     1       6.387 -18.797 -35.655  1.00  0.00     0.053 C 
ENDROOT
BRANCH   1   3
ATOM      3  C   UNL     1       5.127 -16.786 -34.899  1.00  0.00    -0.025 A 
ATOM      4  C   UNL     1       4.474 -15.579 -35.224  1.00  0.00     0.012 A 
ATOM      5  C   UNL     1       3.999 -14.737 -34.213  1.00  0.00     0.047 A 
ATOM      6  C   UNL     1       4.158 -15.089 -32.870  1.00  0.00     0.115 A 
ATOM      7  C   UNL     1       5.266 -17.137 -33.545  1.00  0.00     0.012 A 
ATOM      8  C   UNL     1       4.790 -16.292 -32.538  1.00  0.00     0.047 A 
BRANCH   6   9
ATOM      9  O   UNL     1       3.681 -14.239 -31.875  1.00  0.00    -0.508 OA
ATOM     10  H   UNL     1       2.961 -13.551 -32.067  1.00  0.00     0.293 HD
ENDBRANCH   6   9
ENDBRANCH   1   3
BRANCH   2  11
ATOM     11  C   UNL     1       6.864 -19.717 -36.713  1.00  0.00     0.189 C 
ATOM     12  O   UNL     1       6.672 -19.429 -37.926  1.00  0.00    -0.289 OA
BRANCH  11  13
ATOM     13  C   UNL     1       7.559 -20.983 -36.366  1.00  0.00     0.064 A 
ATOM     14  C   UNL     1       7.336 -22.161 -37.114  1.00  0.00     0.130 A 
ATOM     15  C   UNL     1       8.472 -21.020 -35.295  1.00  0.00     0.020 A 
ATOM     16  C   UNL     1       8.015 -23.342 -36.780  1.00  0.00     0.093 A 
ATOM     17  C   UNL     1       9.141 -22.203 -34.970  1.00  0.00     0.047 A 
ATOM     18  C   UNL     1       8.916 -23.365 -35.709  1.00  0.00     0.119 A 
BRANCH  14  19
ATOM     19  O   UNL     1       6.431 -22.164 -38.175  1.00  0.00    -0.507 OA
ATOM     20  H   UNL     1       6.721 -22.379 -39.123  1.00  0.00     0.293 HD
ENDBRANCH  14  19
BRANCH  18  21
ATOM     21  O   UNL     1       9.592 -24.536 -35.373  1.00  0.00    -0.508 OA
ATOM     22  H   UNL     1      10.590 -24.632 -35.522  1.00  0.00     0.293 HD
ENDBRANCH  18  21
ENDBRANCH  11  13
ENDBRANCH   2  11
TORSDOF 6
ENDMDL
MODEL 7
REMARK VINA RESULT:    -5.455      1.793      2.466
REMARK INTER + INTRA:          -7.536
REMARK INTER:                  -6.782
REMARK INTRA:                  -0.753
REMARK UNBOUND:                -0.646
REMARK SMILES O=C(C=Cc1ccc(O)cc1)c1ccc(O)cc1O
REMARK SMILES IDX 4 1 3 2 5 3 6 4 7 5 8 6 11 7 10 8 9 9 2 11 1 12 12 13 18 14
REMARK SMILES IDX 13 15 17 16 14 17 15 18 19 19 16 21
REMARK H PARENT 9 10 19 20 16 22
REMARK Flexibility Score: inf
ROOT
ATOM      1  C   UNL     1      13.079 -13.176 -43.951  1.00  0.00     0.012 C 
ATOM      2  C   UNL     1      12.215 -12.555 -43.134  1.00  0.00     0.053 C 
ENDROOT
BRANCH   1   3
ATOM      3  C   UNL     1      14.520 -12.834 -44.039  1.00  0.00    -0.025 A 
ATOM      4  C   UNL     1      15.397 -13.468 -44.942  1.00  0.00     0.012 A 
ATOM      5  C   UNL     1      16.745 -13.102 -44.994  1.00  0.00     0.047 A 
ATOM      6  C   UNL     1      17.236 -12.096 -44.158  1.00  0.00     0.115 A 
ATOM      7  C   UNL     1      15.021 -11.812 -43.213  1.00  0.00     0.012 A 
ATOM      8  C   UNL     1      16.370 -11.450 -43.269  1.00  0.00     0.047 A 
BRANCH   6   9
ATOM      9  O   UNL     1      18.582 -11.744 -44.222  1.00  0.00    -0.508 OA
ATOM     10  H   UNL     1      18.872 -10.788 -44.394  1.00  0.00     0.293 HD
ENDBRANCH   6   9
ENDBRANCH   1   3
BRANCH   2  11
ATOM     11  C   UNL     1      10.779 -12.912 -43.088  1.00  0.00     0.189 C 
ATOM     12  O   UNL     1      10.283 -13.371 -42.023  1.00  0.00    -0.289 OA
BRANCH  11  13
ATOM     13  C   UNL     1       9.913 -12.747 -44.283  1.00  0.00     0.064 A 
ATOM     14  C   UNL     1       9.113 -13.813 -44.751  1.00  0.00     0.130 A 
ATOM     15  C   UNL     1       9.862 -11.511 -44.956  1.00  0.00     0.020 A 
ATOM     16  C   UNL     1       8.289 -13.631 -45.872  1.00  0.00     0.093 A 
ATOM     17  C   UNL     1       9.040 -11.342 -46.073  1.00  0.00     0.047 A 
ATOM     18  C   UNL     1       8.252 -12.398 -46.534  1.00  0.00     0.119 A 
BRANCH  14  19
ATOM     19  O   UNL     1       9.146 -15.054 -44.116  1.00  0.00    -0.507 OA
ATOM     20  H   UNL     1       8.529 -15.810 -44.390  1.00  0.00     0.293 HD
ENDBRANCH  14  19
BRANCH  18  21
ATOM     21  O   UNL     1       7.437 -12.212 -47.648  1.00  0.00    -0.508 OA
ATOM     22  H   UNL     1       7.781 -12.373 -48.588  1.00  0.00     0.293 HD
ENDBRANCH  18  21
ENDBRANCH  11  13
ENDBRANCH   2  11
TORSDOF 6
ENDMDL
MODEL 8
REMARK VINA RESULT:    -5.428     10.685     11.701
REMARK INTER + INTRA:          -7.501
REMARK INTER:                  -6.953
REMARK INTRA:                  -0.549
REMARK UNBOUND:                -0.646
REMARK SMILES O=C(C=Cc1ccc(O)cc1)c1ccc(O)cc1O
REMARK SMILES IDX 4 1 3 2 5 3 6 4 7 5 8 6 11 7 10 8 9 9 2 11 1 12 12 13 18 14
REMARK SMILES IDX 13 15 17 16 14 17 15 18 19 19 16 21
REMARK H PARENT 9 10 19 20 16 22
REMARK Flexibility Score: inf
ROOT
ATOM      1  C   UNL     1      16.389 -21.309 -39.544  1.00  0.00     0.012 C 
ATOM      2  C   UNL     1      15.131 -21.014 -39.186  1.00  0.00     0.053 C 
ENDROOT
BRANCH   1   3
ATOM      3  C   UNL     1      16.983 -20.930 -40.850  1.00  0.00    -0.025 A 
ATOM      4  C   UNL     1      16.236 -20.907 -42.045  1.00  0.00     0.012 A 
ATOM      5  C   UNL     1      16.839 -20.531 -43.249  1.00  0.00     0.047 A 
ATOM      6  C   UNL     1      18.187 -20.165 -43.279  1.00  0.00     0.115 A 
ATOM      7  C   UNL     1      18.334 -20.544 -40.889  1.00  0.00     0.012 A 
ATOM      8  C   UNL     1      18.933 -20.170 -42.095  1.00  0.00     0.047 A 
BRANCH   6   9
ATOM      9  O   UNL     1      18.773 -19.795 -44.487  1.00  0.00    -0.508 OA
ATOM     10  H   UNL     1      19.679 -20.153 -44.769  1.00  0.00     0.293 HD
ENDBRANCH   6   9
ENDBRANCH   1   3
BRANCH   2  11
ATOM     11  C   UNL     1      14.567 -21.425 -37.880  1.00  0.00     0.189 C 
ATOM     12  O   UNL     1      15.287 -22.058 -37.059  1.00  0.00    -0.289 OA
BRANCH  11  13
ATOM     13  C   UNL     1      13.160 -21.112 -37.524  1.00  0.00     0.064 A 
ATOM     14  C   UNL     1      12.175 -22.124 -37.503  1.00  0.00     0.130 A 
ATOM     15  C   UNL     1      12.791 -19.798 -37.178  1.00  0.00     0.020 A 
ATOM     16  C   UNL     1      10.854 -21.811 -37.147  1.00  0.00     0.093 A 
ATOM     17  C   UNL     1      11.473 -19.497 -36.828  1.00  0.00     0.047 A 
ATOM     18  C   UNL     1      10.503 -20.499 -36.811  1.00  0.00     0.119 A 
BRANCH  14  19
ATOM     19  O   UNL     1      12.501 -23.436 -37.849  1.00  0.00    -0.507 OA
ATOM     20  H   UNL     1      12.905 -24.080 -37.179  1.00  0.00     0.293 HD
ENDBRANCH  14  19
BRANCH  18  21
ATOM     21  O   UNL     1       9.192 -20.182 -36.458  1.00  0.00    -0.508 OA
ATOM     22  H   UNL     1       8.667 -19.473 -36.957  1.00  0.00     0.293 HD
ENDBRANCH  18  21
ENDBRANCH  11  13
ENDBRANCH   2  11
TORSDOF 6
ENDMDL
MODEL 9
REMARK VINA RESULT:    -5.376     12.731     13.300
REMARK INTER + INTRA:          -7.436
REMARK INTER:                  -6.714
REMARK INTRA:                  -0.722
REMARK UNBOUND:                -0.646
REMARK SMILES O=C(C=Cc1ccc(O)cc1)c1ccc(O)cc1O
REMARK SMILES IDX 4 1 3 2 5 3 6 4 7 5 8 6 11 7 10 8 9 9 2 11 1 12 12 13 18 14
REMARK SMILES IDX 13 15 17 16 14 17 15 18 19 19 16 21
REMARK H PARENT 9 10 19 20 16 22
REMARK Flexibility Score: inf
ROOT
ATOM      1  C   UNL     1       7.146 -19.545 -36.018  1.00  0.00     0.012 C 
ATOM      2  C   UNL     1       7.062 -18.820 -37.142  1.00  0.00     0.053 C 
ENDROOT
BRANCH   1   3
ATOM      3  C   UNL     1       7.700 -20.921 -35.965  1.00  0.00    -0.025 A 
ATOM      4  C   UNL     1       7.348 -21.917 -36.898  1.00  0.00     0.012 A 
ATOM      5  C   UNL     1       7.907 -23.196 -36.813  1.00  0.00     0.047 A 
ATOM      6  C   UNL     1       8.829 -23.497 -35.807  1.00  0.00     0.115 A 
ATOM      7  C   UNL     1       8.640 -21.230 -34.967  1.00  0.00     0.012 A 
ATOM      8  C   UNL     1       9.197 -22.510 -34.886  1.00  0.00     0.047 A 
BRANCH   6   9
ATOM      9  O   UNL     1       9.375 -24.776 -35.736  1.00  0.00    -0.508 OA
ATOM     10  H   UNL     1       9.373 -25.399 -36.536  1.00  0.00     0.293 HD
ENDBRANCH   6   9
ENDBRANCH   1   3
BRANCH   2  11
ATOM     11  C   UNL     1       6.485 -17.456 -37.159  1.00  0.00     0.189 C 
ATOM     12  O   UNL     1       7.234 -16.464 -37.375  1.00  0.00    -0.289 OA
BRANCH  11  13
ATOM     13  C   UNL     1       5.037 -17.237 -36.914  1.00  0.00     0.064 A 
ATOM     14  C   UNL     1       4.595 -16.229 -36.029  1.00  0.00     0.130 A 
ATOM     15  C   UNL     1       4.078 -18.023 -37.582  1.00  0.00     0.020 A 
ATOM     16  C   UNL     1       3.222 -16.027 -35.825  1.00  0.00     0.093 A 
ATOM     17  C   UNL     1       2.713 -17.815 -37.369  1.00  0.00     0.047 A 
ATOM     18  C   UNL     1       2.282 -16.819 -36.493  1.00  0.00     0.119 A 
BRANCH  14  19
ATOM     19  O   UNL     1       5.517 -15.438 -35.342  1.00  0.00    -0.507 OA
ATOM     20  H   UNL     1       5.616 -14.448 -35.533  1.00  0.00     0.293 HD
ENDBRANCH  14  19
BRANCH  18  21
ATOM     21  O   UNL     1       0.916 -16.624 -36.292  1.00  0.00    -0.508 OA
ATOM     22  H   UNL     1       0.540 -15.711 -36.064  1.00  0.00     0.293 HD
ENDBRANCH  18  21
ENDBRANCH  11  13
ENDBRANCH   2  11
TORSDOF 6
ENDMDL
