MODEL 1
REMARK VINA RESULT:    -4.068      0.000      0.000
REMARK INTER + INTRA:          -5.750
REMARK INTER:                  -5.495
REMARK INTRA:                  -0.255
REMARK UNBOUND:                -0.255
REMARK SMILES [NH3+]CCCC[C@H]([NH3+])C(=O)[O-]
REMARK SMILES IDX 4 1 3 2 2 3 1 4 5 8 6 9 7 10 8 14 9 15 10 16
REMARK H PARENT 1 5 1 6 1 7 7 11 7 12 7 13
REMARK Flexibility Score: inf
ROOT
ATOM      1  C   UNL     1     -20.409  -4.258   0.606  1.00  0.00     0.012 C 
ENDROOT
BRANCH   1   2
ATOM      2  C   UNL     1     -19.471  -4.415   1.809  1.00  0.00     0.061 C 
BRANCH   2   3
ATOM      3  C   UNL     1     -18.096  -4.934   1.372  1.00  0.00     0.258 C 
BRANCH   3   4
ATOM      4  N   UNL     1     -17.054  -3.942   1.639  1.00  0.00    -0.358 N 
ATOM      5  H   UNL     1     -16.141  -4.264   1.244  1.00  0.00     0.344 HD
ATOM      6  H   UNL     1     -16.961  -3.787   2.668  1.00  0.00     0.344 HD
ATOM      7  H   UNL     1     -17.318  -3.038   1.185  1.00  0.00     0.344 HD
ENDBRANCH   3   4
ENDBRANCH   2   3
ENDBRANCH   1   2
BRANCH   1   8
ATOM      8  C   UNL     1     -20.173  -5.372  -0.426  1.00  0.00     0.072 C 
BRANCH   8   9
ATOM      9  C   UNL     1     -21.281  -6.447  -0.389  1.00  0.00     0.227 C 
BRANCH   9  10
ATOM     10  N   UNL     1     -22.326  -6.075   0.573  1.00  0.00    -0.350 N 
ATOM     11  H   UNL     1     -22.597  -5.074   0.432  1.00  0.00     0.345 HD
ATOM     12  H   UNL     1     -21.964  -6.181   1.548  1.00  0.00     0.345 HD
ATOM     13  H   UNL     1     -23.171  -6.681   0.454  1.00  0.00     0.345 HD
ENDBRANCH   9  10
BRANCH   9  14
ATOM     14  C   UNL     1     -20.714  -7.800  -0.042  1.00  0.00     0.099 C 
ATOM     15  O   UNL     1     -20.074  -7.971   1.029  1.00  0.00    -0.544 OA
ATOM     16  O   UNL     1     -20.890  -8.869  -0.913  1.00  0.00    -0.544 OA
ENDBRANCH   9  14
ENDBRANCH   8   9
ENDBRANCH   1   8
TORSDOF 7
ENDMDL
MODEL 2
REMARK VINA RESULT:    -3.906      2.508      3.873
REMARK INTER + INTRA:          -5.532
REMARK INTER:                  -5.447
REMARK INTRA:                  -0.085
REMARK UNBOUND:                -0.255
REMARK SMILES [NH3+]CCCC[C@H]([NH3+])C(=O)[O-]
REMARK SMILES IDX 4 1 3 2 2 3 1 4 5 8 6 9 7 10 8 14 9 15 10 16
REMARK H PARENT 1 5 1 6 1 7 7 11 7 12 7 13
REMARK Flexibility Score: inf
ROOT
ATOM      1  C   UNL     1     -21.544  -6.669   0.037  1.00  0.00     0.012 C 
ENDROOT
BRANCH   1   2
ATOM      2  C   UNL     1     -21.304  -8.122  -0.392  1.00  0.00     0.061 C 
BRANCH   2   3
ATOM      3  C   UNL     1     -20.185  -8.764   0.437  1.00  0.00     0.258 C 
BRANCH   3   4
ATOM      4  N   UNL     1     -19.746  -7.868   1.507  1.00  0.00    -0.358 N 
ATOM      5  H   UNL     1     -19.191  -7.077   1.108  1.00  0.00     0.344 HD
ATOM      6  H   UNL     1     -19.168  -8.394   2.201  1.00  0.00     0.344 HD
ATOM      7  H   UNL     1     -20.587  -7.480   1.993  1.00  0.00     0.344 HD
ENDBRANCH   3   4
ENDBRANCH   2   3
ENDBRANCH   1   2
BRANCH   1   8
ATOM      8  C   UNL     1     -20.553  -5.720  -0.654  1.00  0.00     0.072 C 
BRANCH   8   9
ATOM      9  C   UNL     1     -20.452  -4.356   0.065  1.00  0.00     0.227 C 
BRANCH   9  10
ATOM     10  N   UNL     1     -19.928  -3.332  -0.849  1.00  0.00    -0.350 N 
ATOM     11  H   UNL     1     -18.884  -3.302  -0.786  1.00  0.00     0.345 HD
ATOM     12  H   UNL     1     -20.298  -2.393  -0.577  1.00  0.00     0.345 HD
ATOM     13  H   UNL     1     -20.208  -3.539  -1.836  1.00  0.00     0.345 HD
ENDBRANCH   9  10
BRANCH   9  14
ATOM     14  C   UNL     1     -19.582  -4.451   1.291  1.00  0.00     0.099 C 
ATOM     15  O   UNL     1     -19.835  -3.755   2.311  1.00  0.00    -0.544 OA
ATOM     16  O   UNL     1     -18.485  -5.305   1.300  1.00  0.00    -0.544 OA
ENDBRANCH   9  14
ENDBRANCH   8   9
ENDBRANCH   1   8
TORSDOF 7
ENDMDL
MODEL 3
REMARK VINA RESULT:    -3.887      1.764      2.295
REMARK INTER + INTRA:          -5.506
REMARK INTER:                  -5.415
REMARK INTRA:                  -0.090
REMARK UNBOUND:                -0.255
REMARK SMILES [NH3+]CCCC[C@H]([NH3+])C(=O)[O-]
REMARK SMILES IDX 4 1 3 2 2 3 1 4 5 8 6 9 7 10 8 14 9 15 10 16
REMARK H PARENT 1 5 1 6 1 7 7 11 7 12 7 13
REMARK Flexibility Score: inf
ROOT
ATOM      1  C   UNL     1     -18.245  -5.283   1.732  1.00  0.00     0.012 C 
ENDROOT
BRANCH   1   2
ATOM      2  C   UNL     1     -16.987  -4.451   1.456  1.00  0.00     0.061 C 
BRANCH   2   3
ATOM      3  C   UNL     1     -15.848  -4.842   2.406  1.00  0.00     0.258 C 
BRANCH   3   4
ATOM      4  N   UNL     1     -14.551  -4.733   1.739  1.00  0.00    -0.358 N 
ATOM      5  H   UNL     1     -14.128  -5.682   1.618  1.00  0.00     0.344 HD
ATOM      6  H   UNL     1     -13.909  -4.127   2.299  1.00  0.00     0.344 HD
ATOM      7  H   UNL     1     -14.686  -4.301   0.796  1.00  0.00     0.344 HD
ENDBRANCH   3   4
ENDBRANCH   2   3
ENDBRANCH   1   2
BRANCH   1   8
ATOM      8  C   UNL     1     -19.482  -4.645   1.082  1.00  0.00     0.072 C 
BRANCH   8   9
ATOM      9  C   UNL     1     -20.020  -5.483  -0.099  1.00  0.00     0.227 C 
BRANCH   9  10
ATOM     10  N   UNL     1     -20.718  -4.623  -1.063  1.00  0.00    -0.350 N 
ATOM     11  H   UNL     1     -21.695  -4.440  -0.733  1.00  0.00     0.345 HD
ATOM     12  H   UNL     1     -20.772  -5.102  -1.990  1.00  0.00     0.345 HD
ATOM     13  H   UNL     1     -20.217  -3.711  -1.176  1.00  0.00     0.345 HD
ENDBRANCH   9  10
BRANCH   9  14
ATOM     14  C   UNL     1     -20.940  -6.574   0.384  1.00  0.00     0.099 C 
ATOM     15  O   UNL     1     -22.180  -6.371   0.480  1.00  0.00    -0.544 OA
ATOM     16  O   UNL     1     -20.420  -7.814   0.736  1.00  0.00    -0.544 OA
ENDBRANCH   9  14
ENDBRANCH   8   9
ENDBRANCH   1   8
TORSDOF 7
ENDMDL
MODEL 4
REMARK VINA RESULT:    -3.601     17.532     18.374
REMARK INTER + INTRA:          -5.120
REMARK INTER:                  -5.034
REMARK INTRA:                  -0.086
REMARK UNBOUND:                -0.255
REMARK SMILES [NH3+]CCCC[C@H]([NH3+])C(=O)[O-]
REMARK SMILES IDX 4 1 3 2 2 3 1 4 5 8 6 9 7 10 8 14 9 15 10 16
REMARK H PARENT 1 5 1 6 1 7 7 11 7 12 7 13
REMARK Flexibility Score: inf
ROOT
ATOM      1  C   UNL     1     -21.102   7.916  10.757  1.00  0.00     0.012 C 
ENDROOT
BRANCH   1   2
ATOM      2  C   UNL     1     -22.577   8.322  10.858  1.00  0.00     0.061 C 
BRANCH   2   3
ATOM      3  C   UNL     1     -23.442   7.145  11.327  1.00  0.00     0.258 C 
BRANCH   3   4
ATOM      4  N   UNL     1     -24.762   7.605  11.755  1.00  0.00    -0.358 N 
ATOM      5  H   UNL     1     -25.508   7.123  11.202  1.00  0.00     0.344 HD
ATOM      6  H   UNL     1     -24.841   8.640  11.630  1.00  0.00     0.344 HD
ATOM      7  H   UNL     1     -24.892   7.377  12.768  1.00  0.00     0.344 HD
ENDBRANCH   3   4
ENDBRANCH   2   3
ENDBRANCH   1   2
BRANCH   1   8
ATOM      8  C   UNL     1     -20.188   9.152  10.771  1.00  0.00     0.072 C 
BRANCH   8   9
ATOM      9  C   UNL     1     -18.713   8.785  11.047  1.00  0.00     0.227 C 
BRANCH   9  10
ATOM     10  N   UNL     1     -18.220   9.499  12.231  1.00  0.00    -0.350 N 
ATOM     11  H   UNL     1     -17.452  10.155  11.956  1.00  0.00     0.345 HD
ATOM     12  H   UNL     1     -17.832   8.816  12.921  1.00  0.00     0.345 HD
ATOM     13  H   UNL     1     -18.991  10.043  12.684  1.00  0.00     0.345 HD
ENDBRANCH   9  10
BRANCH   9  14
ATOM     14  C   UNL     1     -17.844   9.094   9.855  1.00  0.00     0.099 C 
ATOM     15  O   UNL     1     -17.109  10.117   9.846  1.00  0.00    -0.544 OA
ATOM     16  O   UNL     1     -17.857   8.250   8.750  1.00  0.00    -0.544 OA
ENDBRANCH   9  14
ENDBRANCH   8   9
ENDBRANCH   1   8
TORSDOF 7
ENDMDL
MODEL 5
REMARK VINA RESULT:    -3.253     16.160     16.899
REMARK INTER + INTRA:          -4.649
REMARK INTER:                  -4.479
REMARK INTRA:                  -0.170
REMARK UNBOUND:                -0.255
REMARK SMILES [NH3+]CCCC[C@H]([NH3+])C(=O)[O-]
REMARK SMILES IDX 4 1 3 2 2 3 1 4 5 8 6 9 7 10 8 14 9 15 10 16
REMARK H PARENT 1 5 1 6 1 7 7 11 7 12 7 13
REMARK Flexibility Score: inf
ROOT
ATOM      1  C   UNL     1     -17.192  -5.173  18.605  1.00  0.00     0.012 C 
ENDROOT
BRANCH   1   2
ATOM      2  C   UNL     1     -15.885  -5.078  17.808  1.00  0.00     0.061 C 
BRANCH   2   3
ATOM      3  C   UNL     1     -15.212  -6.451  17.686  1.00  0.00     0.258 C 
BRANCH   3   4
ATOM      4  N   UNL     1     -15.306  -6.959  16.318  1.00  0.00    -0.358 N 
ATOM      5  H   UNL     1     -14.600  -6.486  15.709  1.00  0.00     0.344 HD
ATOM      6  H   UNL     1     -16.267  -6.796  15.939  1.00  0.00     0.344 HD
ATOM      7  H   UNL     1     -15.115  -7.987  16.321  1.00  0.00     0.344 HD
ENDBRANCH   3   4
ENDBRANCH   2   3
ENDBRANCH   1   2
BRANCH   1   8
ATOM      8  C   UNL     1     -18.399  -4.799  17.732  1.00  0.00     0.072 C 
BRANCH   8   9
ATOM      9  C   UNL     1     -18.672  -5.848  16.631  1.00  0.00     0.227 C 
BRANCH   9  10
ATOM     10  N   UNL     1     -18.932  -5.188  15.346  1.00  0.00    -0.350 N 
ATOM     11  H   UNL     1     -18.729  -5.849  14.560  1.00  0.00     0.345 HD
ATOM     12  H   UNL     1     -18.307  -4.357  15.241  1.00  0.00     0.345 HD
ATOM     13  H   UNL     1     -19.929  -4.877  15.285  1.00  0.00     0.345 HD
ENDBRANCH   9  10
BRANCH   9  14
ATOM     14  C   UNL     1     -19.831  -6.737  17.002  1.00  0.00     0.099 C 
ATOM     15  O   UNL     1     -19.655  -7.966  17.211  1.00  0.00    -0.544 OA
ATOM     16  O   UNL     1     -21.110  -6.201  17.108  1.00  0.00    -0.544 OA
ENDBRANCH   9  14
ENDBRANCH   8   9
ENDBRANCH   1   8
TORSDOF 7
ENDMDL
MODEL 6
REMARK VINA RESULT:    -3.174     16.671     17.794
REMARK INTER + INTRA:          -4.543
REMARK INTER:                  -4.085
REMARK INTRA:                  -0.458
REMARK UNBOUND:                -0.255
REMARK SMILES [NH3+]CCCC[C@H]([NH3+])C(=O)[O-]
REMARK SMILES IDX 4 1 3 2 2 3 1 4 5 8 6 9 7 10 8 14 9 15 10 16
REMARK H PARENT 1 5 1 6 1 7 7 11 7 12 7 13
REMARK Flexibility Score: inf
ROOT
ATOM      1  C   UNL     1     -17.858  -7.431  17.229  1.00  0.00     0.012 C 
ENDROOT
BRANCH   1   2
ATOM      2  C   UNL     1     -18.876  -6.312  17.478  1.00  0.00     0.061 C 
BRANCH   2   3
ATOM      3  C   UNL     1     -18.997  -5.394  16.256  1.00  0.00     0.258 C 
BRANCH   3   4
ATOM      4  N   UNL     1     -18.386  -4.091  16.518  1.00  0.00    -0.358 N 
ATOM      5  H   UNL     1     -17.781  -3.809  15.713  1.00  0.00     0.344 HD
ATOM      6  H   UNL     1     -17.817  -4.131  17.393  1.00  0.00     0.344 HD
ATOM      7  H   UNL     1     -19.141  -3.378  16.639  1.00  0.00     0.344 HD
ENDBRANCH   3   4
ENDBRANCH   2   3
ENDBRANCH   1   2
BRANCH   1   8
ATOM      8  C   UNL     1     -16.573  -7.197  18.038  1.00  0.00     0.072 C 
BRANCH   8   9
ATOM      9  C   UNL     1     -15.588  -6.254  17.311  1.00  0.00     0.227 C 
BRANCH   9  10
ATOM     10  N   UNL     1     -14.336  -6.957  17.005  1.00  0.00    -0.350 N 
ATOM     11  H   UNL     1     -13.545  -6.519  17.532  1.00  0.00     0.345 HD
ATOM     12  H   UNL     1     -14.128  -6.881  15.983  1.00  0.00     0.345 HD
ATOM     13  H   UNL     1     -14.406  -7.968  17.266  1.00  0.00     0.345 HD
ENDBRANCH   9  10
BRANCH   9  14
ATOM     14  C   UNL     1     -15.305  -5.025  18.134  1.00  0.00     0.099 C 
ATOM     15  O   UNL     1     -14.172  -4.475  18.096  1.00  0.00    -0.544 OA
ATOM     16  O   UNL     1     -16.296  -4.493  18.951  1.00  0.00    -0.544 OA
ENDBRANCH   9  14
ENDBRANCH   8   9
ENDBRANCH   1   8
TORSDOF 7
ENDMDL
MODEL 7
REMARK VINA RESULT:    -3.153     16.573     17.598
REMARK INTER + INTRA:          -4.514
REMARK INTER:                  -4.289
REMARK INTRA:                  -0.225
REMARK UNBOUND:                -0.255
REMARK SMILES [NH3+]CCCC[C@H]([NH3+])C(=O)[O-]
REMARK SMILES IDX 4 1 3 2 2 3 1 4 5 8 6 9 7 10 8 14 9 15 10 16
REMARK H PARENT 1 5 1 6 1 7 7 11 7 12 7 13
REMARK Flexibility Score: inf
ROOT
ATOM      1  C   UNL     1     -19.867  -6.263  16.878  1.00  0.00     0.012 C 
ENDROOT
BRANCH   1   2
ATOM      2  C   UNL     1     -21.307  -6.291  17.407  1.00  0.00     0.061 C 
BRANCH   2   3
ATOM      3  C   UNL     1     -21.461  -5.385  18.635  1.00  0.00     0.258 C 
BRANCH   3   4
ATOM      4  N   UNL     1     -22.088  -4.115  18.273  1.00  0.00    -0.358 N 
ATOM      5  H   UNL     1     -21.906  -3.400  19.014  1.00  0.00     0.344 HD
ATOM      6  H   UNL     1     -23.118  -4.244  18.150  1.00  0.00     0.344 HD
ATOM      7  H   UNL     1     -21.680  -3.777  17.371  1.00  0.00     0.344 HD
ENDBRANCH   3   4
ENDBRANCH   2   3
ENDBRANCH   1   2
BRANCH   1   8
ATOM      8  C   UNL     1     -18.866  -6.022  18.018  1.00  0.00     0.072 C 
BRANCH   8   9
ATOM      9  C   UNL     1     -17.902  -4.854  17.713  1.00  0.00     0.227 C 
BRANCH   9  10
ATOM     10  N   UNL     1     -18.347  -4.119  16.522  1.00  0.00    -0.350 N 
ATOM     11  H   UNL     1     -18.086  -4.651  15.659  1.00  0.00     0.345 HD
ATOM     12  H   UNL     1     -17.875  -3.187  16.485  1.00  0.00     0.345 HD
ATOM     13  H   UNL     1     -19.384  -3.978  16.539  1.00  0.00     0.345 HD
ENDBRANCH   9  10
BRANCH   9  14
ATOM     14  C   UNL     1     -16.492  -5.349  17.521  1.00  0.00     0.099 C 
ATOM     15  O   UNL     1     -16.270  -6.431  16.915  1.00  0.00    -0.544 OA
ATOM     16  O   UNL     1     -15.424  -4.614  18.023  1.00  0.00    -0.544 OA
ENDBRANCH   9  14
ENDBRANCH   8   9
ENDBRANCH   1   8
TORSDOF 7
ENDMDL
MODEL 8
REMARK VINA RESULT:    -3.128     16.293     17.342
REMARK INTER + INTRA:          -4.481
REMARK INTER:                  -4.408
REMARK INTRA:                  -0.073
REMARK UNBOUND:                -0.255
REMARK SMILES [NH3+]CCCC[C@H]([NH3+])C(=O)[O-]
REMARK SMILES IDX 4 1 3 2 2 3 1 4 5 8 6 9 7 10 8 14 9 15 10 16
REMARK H PARENT 1 5 1 6 1 7 7 11 7 12 7 13
REMARK Flexibility Score: inf
ROOT
ATOM      1  C   UNL     1     -15.952  -5.381  17.678  1.00  0.00     0.012 C 
ENDROOT
BRANCH   1   2
ATOM      2  C   UNL     1     -15.031  -4.918  18.814  1.00  0.00     0.061 C 
BRANCH   2   3
ATOM      3  C   UNL     1     -13.590  -4.744  18.319  1.00  0.00     0.258 C 
BRANCH   3   4
ATOM      4  N   UNL     1     -13.160  -5.907  17.543  1.00  0.00    -0.358 N 
ATOM      5  H   UNL     1     -13.804  -6.057  16.734  1.00  0.00     0.344 HD
ATOM      6  H   UNL     1     -13.147  -6.759  18.149  1.00  0.00     0.344 HD
ATOM      7  H   UNL     1     -12.195  -5.737  17.180  1.00  0.00     0.344 HD
ENDBRANCH   3   4
ENDBRANCH   2   3
ENDBRANCH   1   2
BRANCH   1   8
ATOM      8  C   UNL     1     -17.408  -4.969  17.947  1.00  0.00     0.072 C 
BRANCH   8   9
ATOM      9  C   UNL     1     -18.308  -5.157  16.705  1.00  0.00     0.227 C 
BRANCH   9  10
ATOM     10  N   UNL     1     -18.590  -3.862  16.074  1.00  0.00    -0.350 N 
ATOM     11  H   UNL     1     -17.767  -3.559  15.502  1.00  0.00     0.345 HD
ATOM     12  H   UNL     1     -18.758  -3.138  16.810  1.00  0.00     0.345 HD
ATOM     13  H   UNL     1     -19.433  -3.926  15.458  1.00  0.00     0.345 HD
ENDBRANCH   9  10
BRANCH   9  14
ATOM     14  C   UNL     1     -19.596  -5.849  17.068  1.00  0.00     0.099 C 
ATOM     15  O   UNL     1     -20.539  -5.208  17.604  1.00  0.00    -0.544 OA
ATOM     16  O   UNL     1     -19.748  -7.208  16.818  1.00  0.00    -0.544 OA
ENDBRANCH   9  14
ENDBRANCH   8   9
ENDBRANCH   1   8
TORSDOF 7
ENDMDL
MODEL 9
REMARK VINA RESULT:    -3.078      2.347      2.840
REMARK INTER + INTRA:          -4.412
REMARK INTER:                  -4.334
REMARK INTRA:                  -0.078
REMARK UNBOUND:                -0.255
REMARK SMILES [NH3+]CCCC[C@H]([NH3+])C(=O)[O-]
REMARK SMILES IDX 4 1 3 2 2 3 1 4 5 8 6 9 7 10 8 14 9 15 10 16
REMARK H PARENT 1 5 1 6 1 7 7 11 7 12 7 13
REMARK Flexibility Score: inf
ROOT
ATOM      1  C   UNL     1     -17.645  -5.363   1.824  1.00  0.00     0.012 C 
ENDROOT
BRANCH   1   2
ATOM      2  C   UNL     1     -16.567  -4.277   1.923  1.00  0.00     0.061 C 
BRANCH   2   3
ATOM      3  C   UNL     1     -15.166  -4.896   2.006  1.00  0.00     0.258 C 
BRANCH   3   4
ATOM      4  N   UNL     1     -14.572  -4.671   3.323  1.00  0.00    -0.358 N 
ATOM      5  H   UNL     1     -13.785  -3.986   3.250  1.00  0.00     0.344 HD
ATOM      6  H   UNL     1     -14.222  -5.573   3.718  1.00  0.00     0.344 HD
ATOM      7  H   UNL     1     -15.300  -4.281   3.964  1.00  0.00     0.344 HD
ENDBRANCH   3   4
ENDBRANCH   2   3
ENDBRANCH   1   2
BRANCH   1   8
ATOM      8  C   UNL     1     -18.903  -4.829   1.122  1.00  0.00     0.072 C 
BRANCH   8   9
ATOM      9  C   UNL     1     -20.071  -5.839   1.165  1.00  0.00     0.227 C 
BRANCH   9  10
ATOM     10  N   UNL     1     -19.581  -7.175   1.528  1.00  0.00    -0.350 N 
ATOM     11  H   UNL     1     -19.289  -7.185   2.532  1.00  0.00     0.345 HD
ATOM     12  H   UNL     1     -18.748  -7.417   0.944  1.00  0.00     0.345 HD
ATOM     13  H   UNL     1     -20.325  -7.896   1.378  1.00  0.00     0.345 HD
ENDBRANCH   9  10
BRANCH   9  14
ATOM     14  C   UNL     1     -20.793  -5.892  -0.156  1.00  0.00     0.099 C 
ATOM     15  O   UNL     1     -21.622  -6.809  -0.397  1.00  0.00    -0.544 OA
ATOM     16  O   UNL     1     -20.538  -4.928  -1.125  1.00  0.00    -0.544 OA
ENDBRANCH   9  14
ENDBRANCH   8   9
ENDBRANCH   1   8
TORSDOF 7
ENDMDL
