MODEL 1
REMARK VINA RESULT:    -4.399      0.000      0.000
REMARK INTER + INTRA:          -7.473
REMARK INTER:                  -6.713
REMARK INTRA:                  -0.760
REMARK UNBOUND:                -0.760
REMARK SMILES O=C([O-])CCCCCCCCC(=O)[O-]
REMARK SMILES IDX 7 1 6 2 5 3 4 4 2 5 1 6 3 7 8 8 9 9 10 10 11 11 12 12 13 13
REMARK SMILES IDX 14 14
REMARK H PARENT
REMARK Flexibility Score: inf
ROOT
ATOM      1  C   UNL     1      21.961  21.300  -5.795  1.00  0.00     0.000 C 
ENDROOT
BRANCH   1   2
ATOM      2  C   UNL     1      21.098  22.364  -6.485  1.00  0.00     0.000 C 
BRANCH   2   3
ATOM      3  C   UNL     1      20.313  21.761  -7.659  1.00  0.00     0.006 C 
BRANCH   3   4
ATOM      4  C   UNL     1      18.817  22.092  -7.589  1.00  0.00     0.053 C 
BRANCH   4   5
ATOM      5  C   UNL     1      18.047  21.030  -6.865  1.00  0.00     0.041 C 
ATOM      6  O   UNL     1      17.582  20.044  -7.493  1.00  0.00    -0.550 OA
ATOM      7  O   UNL     1      17.815  21.149  -5.501  1.00  0.00    -0.550 OA
ENDBRANCH   4   5
ENDBRANCH   3   4
ENDBRANCH   2   3
ENDBRANCH   1   2
BRANCH   1   8
ATOM      8  C   UNL     1      21.323  19.908  -5.923  1.00  0.00     0.000 C 
BRANCH   8   9
ATOM      9  C   UNL     1      22.354  18.808  -6.223  1.00  0.00     0.000 C 
BRANCH   9  10
ATOM     10  C   UNL     1      21.984  17.973  -7.461  1.00  0.00     0.006 C 
BRANCH  10  11
ATOM     11  C   UNL     1      20.579  18.304  -7.983  1.00  0.00     0.053 C 
BRANCH  11  12
ATOM     12  C   UNL     1      19.944  17.126  -8.656  1.00  0.00     0.041 C 
ATOM     13  O   UNL     1      20.596  16.446  -9.490  1.00  0.00    -0.550 OA
ATOM     14  O   UNL     1      18.622  16.798  -8.383  1.00  0.00    -0.550 OA
ENDBRANCH  11  12
ENDBRANCH  10  11
ENDBRANCH   9  10
ENDBRANCH   8   9
ENDBRANCH   1   8
TORSDOF 9
ENDMDL
MODEL 2
REMARK VINA RESULT:    -4.306      1.905      2.501
REMARK INTER + INTRA:          -7.331
REMARK INTER:                  -6.506
REMARK INTRA:                  -0.825
REMARK UNBOUND:                -0.760
REMARK SMILES O=C([O-])CCCCCCCCC(=O)[O-]
REMARK SMILES IDX 7 1 6 2 5 3 4 4 2 5 1 6 3 7 8 8 9 9 10 10 11 11 12 12 13 13
REMARK SMILES IDX 14 14
REMARK H PARENT
REMARK Flexibility Score: inf
ROOT
ATOM      1  C   UNL     1      19.665  18.847  -5.301  1.00  0.00     0.000 C 
ENDROOT
BRANCH   1   2
ATOM      2  C   UNL     1      18.901  20.175  -5.380  1.00  0.00     0.000 C 
BRANCH   2   3
ATOM      3  C   UNL     1      18.231  20.344  -6.751  1.00  0.00     0.006 C 
BRANCH   3   4
ATOM      4  C   UNL     1      18.413  21.759  -7.316  1.00  0.00     0.053 C 
BRANCH   4   5
ATOM      5  C   UNL     1      19.791  21.962  -7.869  1.00  0.00     0.041 C 
ATOM      6  O   UNL     1      20.018  21.778  -9.094  1.00  0.00    -0.550 OA
ATOM      7  O   UNL     1      20.833  22.321  -7.024  1.00  0.00    -0.550 OA
ENDBRANCH   4   5
ENDBRANCH   3   4
ENDBRANCH   2   3
ENDBRANCH   1   2
BRANCH   1   8
ATOM      8  C   UNL     1      21.107  19.012  -5.804  1.00  0.00     0.000 C 
BRANCH   8   9
ATOM      9  C   UNL     1      21.348  18.318  -7.154  1.00  0.00     0.000 C 
BRANCH   9  10
ATOM     10  C   UNL     1      20.486  17.056  -7.333  1.00  0.00     0.006 C 
BRANCH  10  11
ATOM     11  C   UNL     1      19.649  17.106  -8.619  1.00  0.00     0.053 C 
BRANCH  11  12
ATOM     12  C   UNL     1      18.201  16.831  -8.350  1.00  0.00     0.041 C 
ATOM     13  O   UNL     1      17.740  16.944  -7.184  1.00  0.00    -0.550 OA
ATOM     14  O   UNL     1      17.367  16.422  -9.383  1.00  0.00    -0.550 OA
ENDBRANCH  11  12
ENDBRANCH  10  11
ENDBRANCH   9  10
ENDBRANCH   8   9
ENDBRANCH   1   8
TORSDOF 9
ENDMDL
MODEL 3
REMARK VINA RESULT:    -4.196      1.910      3.093
REMARK INTER + INTRA:          -7.163
REMARK INTER:                  -6.205
REMARK INTRA:                  -0.958
REMARK UNBOUND:                -0.760
REMARK SMILES O=C([O-])CCCCCCCCC(=O)[O-]
REMARK SMILES IDX 7 1 6 2 5 3 4 4 2 5 1 6 3 7 8 8 9 9 10 10 11 11 12 12 13 13
REMARK SMILES IDX 14 14
REMARK H PARENT
REMARK Flexibility Score: inf
ROOT
ATOM      1  C   UNL     1      19.114  17.849  -5.188  1.00  0.00     0.000 C 
ENDROOT
BRANCH   1   2
ATOM      2  C   UNL     1      20.526  18.448  -5.185  1.00  0.00     0.000 C 
BRANCH   2   3
ATOM      3  C   UNL     1      20.474  19.981  -5.106  1.00  0.00     0.006 C 
BRANCH   3   4
ATOM      4  C   UNL     1      20.346  20.630  -6.489  1.00  0.00     0.053 C 
BRANCH   4   5
ATOM      5  C   UNL     1      19.019  21.305  -6.665  1.00  0.00     0.041 C 
ATOM      6  O   UNL     1      18.825  22.080  -7.637  1.00  0.00    -0.550 OA
ATOM      7  O   UNL     1      18.009  21.104  -5.734  1.00  0.00    -0.550 OA
ENDBRANCH   4   5
ENDBRANCH   3   4
ENDBRANCH   2   3
ENDBRANCH   1   2
BRANCH   1   8
ATOM      8  C   UNL     1      18.988  16.745  -6.248  1.00  0.00     0.000 C 
BRANCH   8   9
ATOM      9  C   UNL     1      18.628  17.293  -7.638  1.00  0.00     0.000 C 
BRANCH   9  10
ATOM     10  C   UNL     1      19.636  16.869  -8.720  1.00  0.00     0.006 C 
BRANCH  10  11
ATOM     11  C   UNL     1      20.852  17.805  -8.775  1.00  0.00     0.053 C 
BRANCH  11  12
ATOM     12  C   UNL     1      22.092  17.136  -8.266  1.00  0.00     0.041 C 
ATOM     13  O   UNL     1      22.201  15.883  -8.310  1.00  0.00    -0.550 OA
ATOM     14  O   UNL     1      23.116  17.897  -7.715  1.00  0.00    -0.550 OA
ENDBRANCH  11  12
ENDBRANCH  10  11
ENDBRANCH   9  10
ENDBRANCH   8   9
ENDBRANCH   1   8
TORSDOF 9
ENDMDL
MODEL 4
REMARK VINA RESULT:    -4.186      7.722      9.955
REMARK INTER + INTRA:          -7.149
REMARK INTER:                  -6.467
REMARK INTRA:                  -0.682
REMARK UNBOUND:                -0.760
REMARK SMILES O=C([O-])CCCCCCCCC(=O)[O-]
REMARK SMILES IDX 7 1 6 2 5 3 4 4 2 5 1 6 3 7 8 8 9 9 10 10 11 11 12 12 13 13
REMARK SMILES IDX 14 14
REMARK H PARENT
REMARK Flexibility Score: inf
ROOT
ATOM      1  C   UNL     1      26.051  16.200 -10.733  1.00  0.00     0.000 C 
ENDROOT
BRANCH   1   2
ATOM      2  C   UNL     1      25.943  15.621  -9.317  1.00  0.00     0.000 C 
BRANCH   2   3
ATOM      3  C   UNL     1      27.269  14.984  -8.879  1.00  0.00     0.006 C 
BRANCH   3   4
ATOM      4  C   UNL     1      28.261  14.850 -10.041  1.00  0.00     0.053 C 
BRANCH   4   5
ATOM      5  C   UNL     1      28.734  13.437 -10.207  1.00  0.00     0.041 C 
ATOM      6  O   UNL     1      29.499  13.131 -11.159  1.00  0.00    -0.550 OA
ATOM      7  O   UNL     1      28.300  12.452  -9.329  1.00  0.00    -0.550 OA
ENDBRANCH   4   5
ENDBRANCH   3   4
ENDBRANCH   2   3
ENDBRANCH   1   2
BRANCH   1   8
ATOM      8  C   UNL     1      25.243  17.501 -10.858  1.00  0.00     0.000 C 
BRANCH   8   9
ATOM      9  C   UNL     1      25.929  18.542 -11.758  1.00  0.00     0.000 C 
BRANCH   9  10
ATOM     10  C   UNL     1      26.918  17.907 -12.750  1.00  0.00     0.006 C 
BRANCH  10  11
ATOM     11  C   UNL     1      26.351  17.849 -14.175  1.00  0.00     0.053 C 
BRANCH  11  12
ATOM     12  C   UNL     1      25.731  16.519 -14.474  1.00  0.00     0.041 C 
ATOM     13  O   UNL     1      26.437  15.574 -14.911  1.00  0.00    -0.550 OA
ATOM     14  O   UNL     1      24.365  16.332 -14.295  1.00  0.00    -0.550 OA
ENDBRANCH  11  12
ENDBRANCH  10  11
ENDBRANCH   9  10
ENDBRANCH   8   9
ENDBRANCH   1   8
TORSDOF 9
ENDMDL
MODEL 5
REMARK VINA RESULT:    -4.175      8.174      9.520
REMARK INTER + INTRA:          -7.131
REMARK INTER:                  -6.428
REMARK INTRA:                  -0.703
REMARK UNBOUND:                -0.760
REMARK SMILES O=C([O-])CCCCCCCCC(=O)[O-]
REMARK SMILES IDX 7 1 6 2 5 3 4 4 2 5 1 6 3 7 8 8 9 9 10 10 11 11 12 12 13 13
REMARK SMILES IDX 14 14
REMARK H PARENT
REMARK Flexibility Score: inf
ROOT
ATOM      1  C   UNL     1      25.862  16.179 -10.832  1.00  0.00     0.000 C 
ENDROOT
BRANCH   1   2
ATOM      2  C   UNL     1      25.266  17.590 -10.739  1.00  0.00     0.000 C 
BRANCH   2   3
ATOM      3  C   UNL     1      25.902  18.526 -11.777  1.00  0.00     0.006 C 
BRANCH   3   4
ATOM      4  C   UNL     1      27.098  17.880 -12.487  1.00  0.00     0.053 C 
BRANCH   4   5
ATOM      5  C   UNL     1      26.839  17.690 -13.951  1.00  0.00     0.041 C 
ATOM      6  O   UNL     1      27.007  18.645 -14.754  1.00  0.00    -0.550 OA
ATOM      7  O   UNL     1      26.379  16.468 -14.423  1.00  0.00    -0.550 OA
ENDBRANCH   4   5
ENDBRANCH   3   4
ENDBRANCH   2   3
ENDBRANCH   1   2
BRANCH   1   8
ATOM      8  C   UNL     1      25.980  15.539  -9.441  1.00  0.00     0.000 C 
BRANCH   8   9
ATOM      9  C   UNL     1      27.418  15.114  -9.103  1.00  0.00     0.000 C 
BRANCH   9  10
ATOM     10  C   UNL     1      28.328  15.069 -10.342  1.00  0.00     0.006 C 
BRANCH  10  11
ATOM     11  C   UNL     1      28.807  13.645 -10.656  1.00  0.00     0.053 C 
BRANCH  11  12
ATOM     12  C   UNL     1      27.752  12.845 -11.357  1.00  0.00     0.041 C 
ATOM     13  O   UNL     1      26.933  12.157 -10.693  1.00  0.00    -0.550 OA
ATOM     14  O   UNL     1      27.692  12.838 -12.745  1.00  0.00    -0.550 OA
ENDBRANCH  11  12
ENDBRANCH  10  11
ENDBRANCH   9  10
ENDBRANCH   8   9
ENDBRANCH   1   8
TORSDOF 9
ENDMDL
MODEL 6
REMARK VINA RESULT:    -4.170      7.631     10.096
REMARK INTER + INTRA:          -7.123
REMARK INTER:                  -6.374
REMARK INTRA:                  -0.750
REMARK UNBOUND:                -0.760
REMARK SMILES O=C([O-])CCCCCCCCC(=O)[O-]
REMARK SMILES IDX 7 1 6 2 5 3 4 4 2 5 1 6 3 7 8 8 9 9 10 10 11 11 12 12 13 13
REMARK SMILES IDX 14 14
REMARK H PARENT
REMARK Flexibility Score: inf
ROOT
ATOM      1  C   UNL     1      27.279  15.171  -8.895  1.00  0.00     0.000 C 
ENDROOT
BRANCH   1   2
ATOM      2  C   UNL     1      28.389  15.123  -9.953  1.00  0.00     0.000 C 
BRANCH   2   3
ATOM      3  C   UNL     1      29.042  13.735 -10.004  1.00  0.00     0.006 C 
BRANCH   3   4
ATOM      4  C   UNL     1      28.873  13.063 -11.372  1.00  0.00     0.053 C 
BRANCH   4   5
ATOM      5  C   UNL     1      27.437  12.755 -11.666  1.00  0.00     0.041 C 
ATOM      6  O   UNL     1      26.927  13.092 -12.767  1.00  0.00    -0.550 OA
ATOM      7  O   UNL     1      26.651  12.126 -10.709  1.00  0.00    -0.550 OA
ENDBRANCH   4   5
ENDBRANCH   3   4
ENDBRANCH   2   3
ENDBRANCH   1   2
BRANCH   1   8
ATOM      8  C   UNL     1      25.940  15.586  -9.521  1.00  0.00     0.000 C 
BRANCH   8   9
ATOM      9  C   UNL     1      26.114  16.364 -10.835  1.00  0.00     0.000 C 
BRANCH   9  10
ATOM     10  C   UNL     1      25.218  17.612 -10.907  1.00  0.00     0.006 C 
BRANCH  10  11
ATOM     11  C   UNL     1      25.803  18.692 -11.828  1.00  0.00     0.053 C 
BRANCH  11  12
ATOM     12  C   UNL     1      25.909  18.218 -13.245  1.00  0.00     0.041 C 
ATOM     13  O   UNL     1      24.875  17.882 -13.880  1.00  0.00    -0.550 OA
ATOM     14  O   UNL     1      27.154  18.119 -13.854  1.00  0.00    -0.550 OA
ENDBRANCH  11  12
ENDBRANCH  10  11
ENDBRANCH   9  10
ENDBRANCH   8   9
ENDBRANCH   1   8
TORSDOF 9
ENDMDL
MODEL 7
REMARK VINA RESULT:    -4.094      2.150      5.440
REMARK INTER + INTRA:          -7.008
REMARK INTER:                  -6.406
REMARK INTRA:                  -0.603
REMARK UNBOUND:                -0.760
REMARK SMILES O=C([O-])CCCCCCCCC(=O)[O-]
REMARK SMILES IDX 7 1 6 2 5 3 4 4 2 5 1 6 3 7 8 8 9 9 10 10 11 11 12 12 13 13
REMARK SMILES IDX 14 14
REMARK H PARENT
REMARK Flexibility Score: inf
ROOT
ATOM      1  C   UNL     1      21.660  18.304  -6.372  1.00  0.00     0.000 C 
ENDROOT
BRANCH   1   2
ATOM      2  C   UNL     1      21.045  18.224  -7.775  1.00  0.00     0.000 C 
BRANCH   2   3
ATOM      3  C   UNL     1      21.435  16.913  -8.473  1.00  0.00     0.006 C 
BRANCH   3   4
ATOM      4  C   UNL     1      20.629  16.676  -9.757  1.00  0.00     0.053 C 
BRANCH   4   5
ATOM      5  C   UNL     1      21.437  15.959 -10.795  1.00  0.00     0.041 C 
ATOM      6  O   UNL     1      21.840  14.784 -10.587  1.00  0.00    -0.550 OA
ATOM      7  O   UNL     1      21.773  16.602 -11.979  1.00  0.00    -0.550 OA
ENDBRANCH   4   5
ENDBRANCH   3   4
ENDBRANCH   2   3
ENDBRANCH   1   2
BRANCH   1   8
ATOM      8  C   UNL     1      20.763  19.116  -5.425  1.00  0.00     0.000 C 
BRANCH   8   9
ATOM      9  C   UNL     1      19.313  19.220  -5.924  1.00  0.00     0.000 C 
BRANCH   9  10
ATOM     10  C   UNL     1      18.742  20.643  -5.789  1.00  0.00     0.006 C 
BRANCH  10  11
ATOM     11  C   UNL     1      18.494  21.298  -7.154  1.00  0.00     0.053 C 
BRANCH  11  12
ATOM     12  C   UNL     1      19.749  21.879  -7.728  1.00  0.00     0.041 C 
ATOM     13  O   UNL     1      19.894  21.968  -8.975  1.00  0.00    -0.550 OA
ATOM     14  O   UNL     1      20.771  22.297  -6.885  1.00  0.00    -0.550 OA
ENDBRANCH  11  12
ENDBRANCH  10  11
ENDBRANCH   9  10
ENDBRANCH   8   9
ENDBRANCH   1   8
TORSDOF 9
ENDMDL
MODEL 8
REMARK VINA RESULT:    -4.081      9.007     10.684
REMARK INTER + INTRA:          -6.988
REMARK INTER:                  -6.489
REMARK INTRA:                  -0.499
REMARK UNBOUND:                -0.760
REMARK SMILES O=C([O-])CCCCCCCCC(=O)[O-]
REMARK SMILES IDX 7 1 6 2 5 3 4 4 2 5 1 6 3 7 8 8 9 9 10 10 11 11 12 12 13 13
REMARK SMILES IDX 14 14
REMARK H PARENT
REMARK Flexibility Score: inf
ROOT
ATOM      1  C   UNL     1      26.070  18.059 -11.742  1.00  0.00     0.000 C 
ENDROOT
BRANCH   1   2
ATOM      2  C   UNL     1      27.237  17.813 -12.707  1.00  0.00     0.000 C 
BRANCH   2   3
ATOM      3  C   UNL     1      26.827  18.116 -14.156  1.00  0.00     0.006 C 
BRANCH   3   4
ATOM      4  C   UNL     1      28.039  18.259 -15.085  1.00  0.00     0.053 C 
BRANCH   4   5
ATOM      5  C   UNL     1      27.897  17.417 -16.316  1.00  0.00     0.041 C 
ATOM      6  O   UNL     1      28.220  17.879 -17.442  1.00  0.00    -0.550 OA
ATOM      7  O   UNL     1      27.376  16.133 -16.224  1.00  0.00    -0.550 OA
ENDBRANCH   4   5
ENDBRANCH   3   4
ENDBRANCH   2   3
ENDBRANCH   1   2
BRANCH   1   8
ATOM      8  C   UNL     1      25.635  16.752 -11.062  1.00  0.00     0.000 C 
BRANCH   8   9
ATOM      9  C   UNL     1      26.701  15.649 -11.157  1.00  0.00     0.000 C 
BRANCH   9  10
ATOM     10  C   UNL     1      27.405  15.389  -9.814  1.00  0.00     0.006 C 
BRANCH  10  11
ATOM     11  C   UNL     1      28.843  14.887 -10.003  1.00  0.00     0.053 C 
BRANCH  11  12
ATOM     12  C   UNL     1      28.885  13.422 -10.313  1.00  0.00     0.041 C 
ATOM     13  O   UNL     1      29.433  13.013 -11.369  1.00  0.00    -0.550 OA
ATOM     14  O   UNL     1      28.291  12.511  -9.448  1.00  0.00    -0.550 OA
ENDBRANCH  11  12
ENDBRANCH  10  11
ENDBRANCH   9  10
ENDBRANCH   8   9
ENDBRANCH   1   8
TORSDOF 9
ENDMDL
MODEL 9
REMARK VINA RESULT:    -4.068      8.397     10.065
REMARK INTER + INTRA:          -6.969
REMARK INTER:                  -5.969
REMARK INTRA:                  -0.999
REMARK UNBOUND:                -0.760
REMARK SMILES O=C([O-])CCCCCCCCC(=O)[O-]
REMARK SMILES IDX 7 1 6 2 5 3 4 4 2 5 1 6 3 7 8 8 9 9 10 10 11 11 12 12 13 13
REMARK SMILES IDX 14 14
REMARK H PARENT
REMARK Flexibility Score: inf
ROOT
ATOM      1  C   UNL     1      26.366  13.464 -13.492  1.00  0.00     0.000 C 
ENDROOT
BRANCH   1   2
ATOM      2  C   UNL     1      25.312  13.798 -12.430  1.00  0.00     0.000 C 
BRANCH   2   3
ATOM      3  C   UNL     1      25.010  15.303 -12.408  1.00  0.00     0.006 C 
BRANCH   3   4
ATOM      4  C   UNL     1      26.173  16.137 -12.960  1.00  0.00     0.053 C 
BRANCH   4   5
ATOM      5  C   UNL     1      26.545  17.253 -12.031  1.00  0.00     0.041 C 
ATOM      6  O   UNL     1      27.714  17.720 -12.037  1.00  0.00    -0.550 OA
ATOM      7  O   UNL     1      25.609  17.753 -11.136  1.00  0.00    -0.550 OA
ENDBRANCH   4   5
ENDBRANCH   3   4
ENDBRANCH   2   3
ENDBRANCH   1   2
BRANCH   1   8
ATOM      8  C   UNL     1      27.517  12.646 -12.887  1.00  0.00     0.000 C 
BRANCH   8   9
ATOM      9  C   UNL     1      27.637  12.826 -11.365  1.00  0.00     0.000 C 
BRANCH   9  10
ATOM     10  C   UNL     1      29.000  13.401 -10.943  1.00  0.00     0.006 C 
BRANCH  10  11
ATOM     11  C   UNL     1      28.860  14.742 -10.209  1.00  0.00     0.053 C 
BRANCH  11  12
ATOM     12  C   UNL     1      27.894  14.653  -9.068  1.00  0.00     0.041 C 
ATOM     13  O   UNL     1      28.190  13.992  -8.038  1.00  0.00    -0.550 OA
ATOM     14  O   UNL     1      26.656  15.276  -9.154  1.00  0.00    -0.550 OA
ENDBRANCH  11  12
ENDBRANCH  10  11
ENDBRANCH   9  10
ENDBRANCH   8   9
ENDBRANCH   1   8
TORSDOF 9
ENDMDL
