MODEL 1
REMARK VINA RESULT:    -3.694      0.000      0.000
REMARK INTER + INTRA:          -4.379
REMARK INTER:                  -4.342
REMARK INTRA:                  -0.037
REMARK UNBOUND:                -0.037
REMARK SMILES CCCCC(=O)[O-]
REMARK SMILES IDX 4 1 5 2 6 3 7 4 3 5 2 6 1 7
REMARK H PARENT
REMARK Flexibility Score: inf
ROOT
ATOM      1  C   UNL     1      -3.075   3.867  30.890  1.00  0.00     0.053 C 
ENDROOT
BRANCH   1   2
ATOM      2  C   UNL     1      -1.737   3.385  31.360  1.00  0.00     0.041 C 
ATOM      3  O   UNL     1      -0.812   3.171  30.532  1.00  0.00    -0.550 OA
ATOM      4  O   UNL     1      -1.521   3.141  32.711  1.00  0.00    -0.550 OA
ENDBRANCH   1   2
BRANCH   1   5
ATOM      5  C   UNL     1      -3.847   4.579  32.008  1.00  0.00     0.006 C 
BRANCH   5   6
ATOM      6  C   UNL     1      -3.963   6.090  31.763  1.00  0.00    -0.003 C 
ATOM      7  C   UNL     1      -4.325   6.829  33.048  1.00  0.00     0.004 C 
ENDBRANCH   5   6
ENDBRANCH   1   5
TORSDOF 3
ENDMDL
MODEL 2
REMARK VINA RESULT:    -3.549      2.680      3.867
REMARK INTER + INTRA:          -4.209
REMARK INTER:                  -4.164
REMARK INTRA:                  -0.045
REMARK UNBOUND:                -0.037
REMARK SMILES CCCCC(=O)[O-]
REMARK SMILES IDX 4 1 5 2 6 3 7 4 3 5 2 6 1 7
REMARK H PARENT
REMARK Flexibility Score: inf
ROOT
ATOM      1  C   UNL     1      -3.517   4.026  31.076  1.00  0.00     0.053 C 
ENDROOT
BRANCH   1   2
ATOM      2  C   UNL     1      -4.466   5.179  31.199  1.00  0.00     0.041 C 
ATOM      3  O   UNL     1      -5.705   4.998  31.069  1.00  0.00    -0.550 OA
ATOM      4  O   UNL     1      -3.978   6.459  31.427  1.00  0.00    -0.550 OA
ENDBRANCH   1   2
BRANCH   1   5
ATOM      5  C   UNL     1      -2.773   3.759  32.391  1.00  0.00     0.006 C 
BRANCH   5   6
ATOM      6  C   UNL     1      -1.404   3.102  32.160  1.00  0.00    -0.003 C 
ATOM      7  C   UNL     1      -0.987   3.200  30.695  1.00  0.00     0.004 C 
ENDBRANCH   5   6
ENDBRANCH   1   5
TORSDOF 3
ENDMDL
MODEL 3
REMARK VINA RESULT:    -3.341      1.068      1.990
REMARK INTER + INTRA:          -3.964
REMARK INTER:                  -3.922
REMARK INTRA:                  -0.042
REMARK UNBOUND:                -0.037
REMARK SMILES CCCCC(=O)[O-]
REMARK SMILES IDX 4 1 5 2 6 3 7 4 3 5 2 6 1 7
REMARK H PARENT
REMARK Flexibility Score: inf
ROOT
ATOM      1  C   UNL     1      -3.028   3.728  30.840  1.00  0.00     0.053 C 
ENDROOT
BRANCH   1   2
ATOM      2  C   UNL     1      -1.705   3.278  31.378  1.00  0.00     0.041 C 
ATOM      3  O   UNL     1      -1.521   3.191  32.621  1.00  0.00    -0.550 OA
ATOM      4  O   UNL     1      -0.663   2.984  30.507  1.00  0.00    -0.550 OA
ENDBRANCH   1   2
BRANCH   1   5
ATOM      5  C   UNL     1      -3.474   5.055  31.466  1.00  0.00     0.006 C 
BRANCH   5   6
ATOM      6  C   UNL     1      -4.984   5.292  31.310  1.00  0.00    -0.003 C 
ATOM      7  C   UNL     1      -5.690   4.031  30.823  1.00  0.00     0.004 C 
ENDBRANCH   5   6
ENDBRANCH   1   5
TORSDOF 3
ENDMDL
MODEL 4
REMARK VINA RESULT:    -3.329     16.267     17.122
REMARK INTER + INTRA:          -3.950
REMARK INTER:                  -3.833
REMARK INTRA:                  -0.117
REMARK UNBOUND:                -0.037
REMARK SMILES CCCCC(=O)[O-]
REMARK SMILES IDX 4 1 5 2 6 3 7 4 3 5 2 6 1 7
REMARK H PARENT
REMARK Flexibility Score: inf
ROOT
ATOM      1  C   UNL     1       5.492   0.823  16.761  1.00  0.00     0.053 C 
ENDROOT
BRANCH   1   2
ATOM      2  C   UNL     1       4.221   1.516  17.148  1.00  0.00     0.041 C 
ATOM      3  O   UNL     1       4.052   1.920  18.329  1.00  0.00    -0.550 OA
ATOM      4  O   UNL     1       3.210   1.687  16.211  1.00  0.00    -0.550 OA
ENDBRANCH   1   2
BRANCH   1   5
ATOM      5  C   UNL     1       5.275  -0.679  16.540  1.00  0.00     0.006 C 
BRANCH   5   6
ATOM      6  C   UNL     1       5.077  -1.438  17.860  1.00  0.00    -0.003 C 
ATOM      7  C   UNL     1       6.206  -1.137  18.842  1.00  0.00     0.004 C 
ENDBRANCH   5   6
ENDBRANCH   1   5
TORSDOF 3
ENDMDL
MODEL 5
REMARK VINA RESULT:    -3.259     16.560     17.138
REMARK INTER + INTRA:          -3.868
REMARK INTER:                  -3.852
REMARK INTRA:                  -0.016
REMARK UNBOUND:                -0.037
REMARK SMILES CCCCC(=O)[O-]
REMARK SMILES IDX 4 1 5 2 6 3 7 4 3 5 2 6 1 7
REMARK H PARENT
REMARK Flexibility Score: inf
ROOT
ATOM      1  C   UNL     1       4.240   1.731  17.595  1.00  0.00     0.053 C 
ENDROOT
BRANCH   1   2
ATOM      2  C   UNL     1       3.831   2.292  16.269  1.00  0.00     0.041 C 
ATOM      3  O   UNL     1       4.408   3.310  15.804  1.00  0.00    -0.550 OA
ATOM      4  O   UNL     1       2.788   1.708  15.559  1.00  0.00    -0.550 OA
ENDBRANCH   1   2
BRANCH   1   5
ATOM      5  C   UNL     1       5.291   0.623  17.445  1.00  0.00     0.006 C 
BRANCH   5   6
ATOM      6  C   UNL     1       5.390  -0.258  18.698  1.00  0.00    -0.003 C 
ATOM      7  C   UNL     1       5.907  -1.651  18.351  1.00  0.00     0.004 C 
ENDBRANCH   5   6
ENDBRANCH   1   5
TORSDOF 3
ENDMDL
MODEL 6
REMARK VINA RESULT:    -3.153     15.974     16.673
REMARK INTER + INTRA:          -3.743
REMARK INTER:                  -3.722
REMARK INTRA:                  -0.021
REMARK UNBOUND:                -0.037
REMARK SMILES CCCCC(=O)[O-]
REMARK SMILES IDX 4 1 5 2 6 3 7 4 3 5 2 6 1 7
REMARK H PARENT
REMARK Flexibility Score: inf
ROOT
ATOM      1  C   UNL     1       5.343   0.498  17.266  1.00  0.00     0.053 C 
ENDROOT
BRANCH   1   2
ATOM      2  C   UNL     1       5.474  -0.290  18.532  1.00  0.00     0.041 C 
ATOM      3  O   UNL     1       4.864   0.073  19.572  1.00  0.00    -0.550 OA
ATOM      4  O   UNL     1       6.297  -1.409  18.572  1.00  0.00    -0.550 OA
ENDBRANCH   1   2
BRANCH   1   5
ATOM      5  C   UNL     1       4.300   1.616  17.397  1.00  0.00     0.006 C 
BRANCH   5   6
ATOM      6  C   UNL     1       4.282   2.540  16.171  1.00  0.00    -0.003 C 
ATOM      7  C   UNL     1       3.088   2.235  15.271  1.00  0.00     0.004 C 
ENDBRANCH   5   6
ENDBRANCH   1   5
TORSDOF 3
ENDMDL
MODEL 7
REMARK VINA RESULT:    -3.135     16.495     17.619
REMARK INTER + INTRA:          -3.722
REMARK INTER:                  -3.663
REMARK INTRA:                  -0.059
REMARK UNBOUND:                -0.037
REMARK SMILES CCCCC(=O)[O-]
REMARK SMILES IDX 4 1 5 2 6 3 7 4 3 5 2 6 1 7
REMARK H PARENT
REMARK Flexibility Score: inf
ROOT
ATOM      1  C   UNL     1       2.862   1.583  15.949  1.00  0.00     0.053 C 
ENDROOT
BRANCH   1   2
ATOM      2  C   UNL     1       4.082   1.583  16.818  1.00  0.00     0.041 C 
ATOM      3  O   UNL     1       4.004   1.943  18.022  1.00  0.00    -0.550 OA
ATOM      4  O   UNL     1       5.313   1.216  16.288  1.00  0.00    -0.550 OA
ENDBRANCH   1   2
BRANCH   1   5
ATOM      5  C   UNL     1       3.148   0.978  14.568  1.00  0.00     0.006 C 
BRANCH   5   6
ATOM      6  C   UNL     1       2.344  -0.307  14.319  1.00  0.00    -0.003 C 
ATOM      7  C   UNL     1       0.913  -0.168  14.830  1.00  0.00     0.004 C 
ENDBRANCH   5   6
ENDBRANCH   1   5
TORSDOF 3
ENDMDL
MODEL 8
REMARK VINA RESULT:    -3.120     16.599     17.693
REMARK INTER + INTRA:          -3.704
REMARK INTER:                  -3.595
REMARK INTRA:                  -0.108
REMARK UNBOUND:                -0.037
REMARK SMILES CCCCC(=O)[O-]
REMARK SMILES IDX 4 1 5 2 6 3 7 4 3 5 2 6 1 7
REMARK H PARENT
REMARK Flexibility Score: inf
ROOT
ATOM      1  C   UNL     1       4.044   1.999  16.891  1.00  0.00     0.053 C 
ENDROOT
BRANCH   1   2
ATOM      2  C   UNL     1       5.221   1.073  16.885  1.00  0.00     0.041 C 
ATOM      3  O   UNL     1       5.984   1.021  15.884  1.00  0.00    -0.550 OA
ATOM      4  O   UNL     1       5.458   0.244  17.975  1.00  0.00    -0.550 OA
ENDBRANCH   1   2
BRANCH   1   5
ATOM      5  C   UNL     1       3.269   1.940  15.568  1.00  0.00     0.006 C 
BRANCH   5   6
ATOM      6  C   UNL     1       3.293   3.282  14.821  1.00  0.00    -0.003 C 
ATOM      7  C   UNL     1       4.285   3.249  13.663  1.00  0.00     0.004 C 
ENDBRANCH   5   6
ENDBRANCH   1   5
TORSDOF 3
ENDMDL
MODEL 9
REMARK VINA RESULT:    -3.083     17.691     18.197
REMARK INTER + INTRA:          -3.660
REMARK INTER:                  -3.625
REMARK INTRA:                  -0.035
REMARK UNBOUND:                -0.037
REMARK SMILES CCCCC(=O)[O-]
REMARK SMILES IDX 4 1 5 2 6 3 7 4 3 5 2 6 1 7
REMARK H PARENT
REMARK Flexibility Score: inf
ROOT
ATOM      1  C   UNL     1       2.589   1.239  15.395  1.00  0.00     0.053 C 
ENDROOT
BRANCH   1   2
ATOM      2  C   UNL     1       1.833  -0.050  15.300  1.00  0.00     0.041 C 
ATOM      3  O   UNL     1       0.602  -0.046  15.032  1.00  0.00    -0.550 OA
ATOM      4  O   UNL     1       2.480  -1.256  15.541  1.00  0.00    -0.550 OA
ENDBRANCH   1   2
BRANCH   1   5
ATOM      5  C   UNL     1       3.701   1.324  14.341  1.00  0.00     0.006 C 
BRANCH   5   6
ATOM      6  C   UNL     1       4.213   2.759  14.151  1.00  0.00    -0.003 C 
ATOM      7  C   UNL     1       3.170   3.778  14.600  1.00  0.00     0.004 C 
ENDBRANCH   5   6
ENDBRANCH   1   5
TORSDOF 3
ENDMDL
