MODEL 1
REMARK VINA RESULT:    -3.737      0.000      0.000
REMARK INTER + INTRA:          -6.413
REMARK INTER:                  -5.703
REMARK INTRA:                  -0.711
REMARK UNBOUND:                -0.711
REMARK SMILES CCCCCCCCCC=CC(=O)[O-]
REMARK SMILES IDX 7 1 8 2 9 3 10 4 11 5 12 6 13 7 14 8 6 9 5 10 4 11 3 12 2 13
REMARK SMILES IDX 1 14
REMARK H PARENT
REMARK Flexibility Score: inf
ROOT
ATOM      1  C   UNL     1     161.834 170.566  19.140  1.00  0.00     0.000 C 
ENDROOT
BRANCH   1   2
ATOM      2  C   UNL     1     160.856 170.998  20.245  1.00  0.00     0.004 C 
BRANCH   2   3
ATOM      3  C   UNL     1     159.490 171.428  19.689  1.00  0.00     0.027 C 
BRANCH   3   4
ATOM      4  C   UNL     1     158.802 172.384  20.622  1.00  0.00    -0.025 C 
ATOM      5  C   UNL     1     159.407 173.496  21.055  1.00  0.00     0.020 C 
BRANCH   5   6
ATOM      6  C   UNL     1     158.758 174.437  21.980  1.00  0.00     0.064 C 
ATOM      7  O   UNL     1     159.068 174.469  23.201  1.00  0.00    -0.545 OA
ATOM      8  O   UNL     1     157.786 175.306  21.500  1.00  0.00    -0.545 OA
ENDBRANCH   5   6
ENDBRANCH   3   4
ENDBRANCH   2   3
ENDBRANCH   1   2
BRANCH   1   9
ATOM      9  C   UNL     1     161.132 169.856  17.972  1.00  0.00     0.000 C 
BRANCH   9  10
ATOM     10  C   UNL     1     161.565 170.454  16.628  1.00  0.00     0.000 C 
BRANCH  10  11
ATOM     11  C   UNL     1     162.929 171.144  16.744  1.00  0.00    -0.000 C 
BRANCH  11  12
ATOM     12  C   UNL     1     163.809 170.832  15.524  1.00  0.00    -0.000 C 
BRANCH  12  13
ATOM     13  C   UNL     1     164.912 169.809  15.839  1.00  0.00    -0.003 C 
ATOM     14  C   UNL     1     164.957 169.423  17.317  1.00  0.00     0.004 C 
ENDBRANCH  12  13
ENDBRANCH  11  12
ENDBRANCH  10  11
ENDBRANCH   9  10
ENDBRANCH   1   9
TORSDOF 9
ENDMDL
MODEL 2
REMARK VINA RESULT:    -3.691      1.011      1.722
REMARK INTER + INTRA:          -6.344
REMARK INTER:                  -5.754
REMARK INTRA:                  -0.590
REMARK UNBOUND:                -0.711
REMARK SMILES CCCCCCCCCC=CC(=O)[O-]
REMARK SMILES IDX 7 1 8 2 9 3 10 4 11 5 12 6 13 7 14 8 6 9 5 10 4 11 3 12 2 13
REMARK SMILES IDX 1 14
REMARK H PARENT
REMARK Flexibility Score: inf
ROOT
ATOM      1  C   UNL     1     162.007 170.139  18.627  1.00  0.00     0.000 C 
ENDROOT
BRANCH   1   2
ATOM      2  C   UNL     1     161.449 170.630  19.972  1.00  0.00     0.004 C 
BRANCH   2   3
ATOM      3  C   UNL     1     159.986 171.089  19.873  1.00  0.00     0.027 C 
BRANCH   3   4
ATOM      4  C   UNL     1     159.599 171.929  21.056  1.00  0.00    -0.025 C 
ATOM      5  C   UNL     1     159.484 173.259  20.961  1.00  0.00     0.020 C 
BRANCH   5   6
ATOM      6  C   UNL     1     159.122 174.103  22.110  1.00  0.00     0.064 C 
ATOM      7  O   UNL     1     159.499 173.812  23.277  1.00  0.00    -0.545 OA
ATOM      8  O   UNL     1     158.351 175.240  21.906  1.00  0.00    -0.545 OA
ENDBRANCH   5   6
ENDBRANCH   3   4
ENDBRANCH   2   3
ENDBRANCH   1   2
BRANCH   1   9
ATOM      9  C   UNL     1     163.184 169.166  18.793  1.00  0.00     0.000 C 
BRANCH   9  10
ATOM     10  C   UNL     1     163.969 169.025  17.484  1.00  0.00     0.000 C 
BRANCH  10  11
ATOM     11  C   UNL     1     164.600 170.361  17.073  1.00  0.00    -0.000 C 
BRANCH  11  12
ATOM     12  C   UNL     1     164.666 170.490  15.544  1.00  0.00    -0.000 C 
BRANCH  12  13
ATOM     13  C   UNL     1     163.297 170.283  14.875  1.00  0.00    -0.003 C 
ATOM     14  C   UNL     1     162.319 171.420  15.167  1.00  0.00     0.004 C 
ENDBRANCH  12  13
ENDBRANCH  11  12
ENDBRANCH  10  11
ENDBRANCH   9  10
ENDBRANCH   1   9
TORSDOF 9
ENDMDL
MODEL 3
REMARK VINA RESULT:    -3.663     18.613     20.638
REMARK INTER + INTRA:          -6.301
REMARK INTER:                  -5.417
REMARK INTRA:                  -0.884
REMARK UNBOUND:                -0.711
REMARK SMILES CCCCCCCCCC=CC(=O)[O-]
REMARK SMILES IDX 7 1 8 2 9 3 10 4 11 5 12 6 13 7 14 8 6 9 5 10 4 11 3 12 2 13
REMARK SMILES IDX 1 14
REMARK H PARENT
REMARK Flexibility Score: inf
ROOT
ATOM      1  C   UNL     1     170.728 185.030  31.430  1.00  0.00     0.000 C 
ENDROOT
BRANCH   1   2
ATOM      2  C   UNL     1     169.767 185.370  30.280  1.00  0.00     0.004 C 
BRANCH   2   3
ATOM      3  C   UNL     1     168.616 186.286  30.725  1.00  0.00     0.027 C 
BRANCH   3   4
ATOM      4  C   UNL     1     167.305 185.552  30.719  1.00  0.00    -0.025 C 
ATOM      5  C   UNL     1     166.834 184.953  31.819  1.00  0.00     0.020 C 
BRANCH   5   6
ATOM      6  C   UNL     1     165.562 184.216  31.832  1.00  0.00     0.064 C 
ATOM      7  O   UNL     1     165.325 183.308  30.991  1.00  0.00    -0.545 OA
ATOM      8  O   UNL     1     164.602 184.527  32.788  1.00  0.00    -0.545 OA
ENDBRANCH   5   6
ENDBRANCH   3   4
ENDBRANCH   2   3
ENDBRANCH   1   2
BRANCH   1   9
ATOM      9  C   UNL     1     171.260 186.280  32.147  1.00  0.00     0.000 C 
BRANCH   9  10
ATOM     10  C   UNL     1     171.605 185.969  33.608  1.00  0.00     0.000 C 
BRANCH  10  11
ATOM     11  C   UNL     1     171.152 184.555  33.993  1.00  0.00    -0.000 C 
BRANCH  11  12
ATOM     12  C   UNL     1     172.331 183.727  34.527  1.00  0.00    -0.000 C 
BRANCH  12  13
ATOM     13  C   UNL     1     172.790 182.648  33.533  1.00  0.00    -0.003 C 
ATOM     14  C   UNL     1     173.772 183.181  32.492  1.00  0.00     0.004 C 
ENDBRANCH  12  13
ENDBRANCH  11  12
ENDBRANCH  10  11
ENDBRANCH   9  10
ENDBRANCH   1   9
TORSDOF 9
ENDMDL
MODEL 4
REMARK VINA RESULT:    -3.600     17.285     19.826
REMARK INTER + INTRA:          -6.204
REMARK INTER:                  -5.282
REMARK INTRA:                  -0.923
REMARK UNBOUND:                -0.711
REMARK SMILES CCCCCCCCCC=CC(=O)[O-]
REMARK SMILES IDX 7 1 8 2 9 3 10 4 11 5 12 6 13 7 14 8 6 9 5 10 4 11 3 12 2 13
REMARK SMILES IDX 1 14
REMARK H PARENT
REMARK Flexibility Score: inf
ROOT
ATOM      1  C   UNL     1     168.954 185.842  30.358  1.00  0.00     0.000 C 
ENDROOT
BRANCH   1   2
ATOM      2  C   UNL     1     168.345 186.612  31.541  1.00  0.00     0.004 C 
BRANCH   2   3
ATOM      3  C   UNL     1     167.405 185.741  32.390  1.00  0.00     0.027 C 
BRANCH   3   4
ATOM      4  C   UNL     1     166.553 184.859  31.523  1.00  0.00    -0.025 C 
ATOM      5  C   UNL     1     165.951 183.769  32.013  1.00  0.00     0.020 C 
BRANCH   5   6
ATOM      6  C   UNL     1     165.125 182.883  31.179  1.00  0.00     0.064 C 
ATOM      7  O   UNL     1     165.081 181.641  31.392  1.00  0.00    -0.545 OA
ATOM      8  O   UNL     1     164.381 183.423  30.138  1.00  0.00    -0.545 OA
ENDBRANCH   5   6
ENDBRANCH   3   4
ENDBRANCH   2   3
ENDBRANCH   1   2
BRANCH   1   9
ATOM      9  C   UNL     1     170.277 185.150  30.719  1.00  0.00     0.000 C 
BRANCH   9  10
ATOM     10  C   UNL     1     171.124 186.033  31.643  1.00  0.00     0.000 C 
BRANCH  10  11
ATOM     11  C   UNL     1     171.650 185.234  32.841  1.00  0.00    -0.000 C 
BRANCH  11  12
ATOM     12  C   UNL     1     170.961 183.864  32.933  1.00  0.00    -0.000 C 
BRANCH  12  13
ATOM     13  C   UNL     1     171.948 182.696  32.783  1.00  0.00    -0.003 C 
ATOM     14  C   UNL     1     173.406 183.152  32.764  1.00  0.00     0.004 C 
ENDBRANCH  12  13
ENDBRANCH  11  12
ENDBRANCH  10  11
ENDBRANCH   9  10
ENDBRANCH   1   9
TORSDOF 9
ENDMDL
MODEL 5
REMARK VINA RESULT:    -3.590     18.895     21.288
REMARK INTER + INTRA:          -6.189
REMARK INTER:                  -4.751
REMARK INTRA:                  -1.438
REMARK UNBOUND:                -0.711
REMARK SMILES CCCCCCCCCC=CC(=O)[O-]
REMARK SMILES IDX 7 1 8 2 9 3 10 4 11 5 12 6 13 7 14 8 6 9 5 10 4 11 3 12 2 13
REMARK SMILES IDX 1 14
REMARK H PARENT
REMARK Flexibility Score: inf
ROOT
ATOM      1  C   UNL     1     171.164 185.724  31.546  1.00  0.00     0.000 C 
ENDROOT
BRANCH   1   2
ATOM      2  C   UNL     1     170.048 185.105  30.689  1.00  0.00     0.004 C 
BRANCH   2   3
ATOM      3  C   UNL     1     168.986 186.133  30.269  1.00  0.00     0.027 C 
BRANCH   3   4
ATOM      4  C   UNL     1     167.600 185.619  30.534  1.00  0.00    -0.025 C 
ATOM      5  C   UNL     1     167.305 184.950  31.655  1.00  0.00     0.020 C 
BRANCH   5   6
ATOM      6  C   UNL     1     165.959 184.424  31.928  1.00  0.00     0.064 C 
ATOM      7  O   UNL     1     165.447 184.507  33.077  1.00  0.00    -0.545 OA
ATOM      8  O   UNL     1     165.239 183.824  30.903  1.00  0.00    -0.545 OA
ENDBRANCH   5   6
ENDBRANCH   3   4
ENDBRANCH   2   3
ENDBRANCH   1   2
BRANCH   1   9
ATOM      9  C   UNL     1     171.577 184.825  32.721  1.00  0.00     0.000 C 
BRANCH   9  10
ATOM     10  C   UNL     1     171.277 185.504  34.063  1.00  0.00     0.000 C 
BRANCH  10  11
ATOM     11  C   UNL     1     170.496 186.808  33.860  1.00  0.00    -0.000 C 
BRANCH  11  12
ATOM     12  C   UNL     1     169.105 186.721  34.503  1.00  0.00    -0.000 C 
BRANCH  12  13
ATOM     13  C   UNL     1     168.112 187.728  33.901  1.00  0.00    -0.003 C 
ATOM     14  C   UNL     1     168.778 188.713  32.941  1.00  0.00     0.004 C 
ENDBRANCH  12  13
ENDBRANCH  11  12
ENDBRANCH  10  11
ENDBRANCH   9  10
ENDBRANCH   1   9
TORSDOF 9
ENDMDL
MODEL 6
REMARK VINA RESULT:    -3.546     20.399     22.260
REMARK INTER + INTRA:          -6.122
REMARK INTER:                  -4.976
REMARK INTRA:                  -1.145
REMARK UNBOUND:                -0.711
REMARK SMILES CCCCCCCCCC=CC(=O)[O-]
REMARK SMILES IDX 7 1 8 2 9 3 10 4 11 5 12 6 13 7 14 8 6 9 5 10 4 11 3 12 2 13
REMARK SMILES IDX 1 14
REMARK H PARENT
REMARK Flexibility Score: inf
ROOT
ATOM      1  C   UNL     1     169.911 185.403  30.683  1.00  0.00     0.000 C 
ENDROOT
BRANCH   1   2
ATOM      2  C   UNL     1     171.273 185.655  31.350  1.00  0.00     0.004 C 
BRANCH   2   3
ATOM      3  C   UNL     1     171.165 185.800  32.876  1.00  0.00     0.027 C 
BRANCH   3   4
ATOM      4  C   UNL     1     172.003 184.771  33.579  1.00  0.00    -0.025 C 
ATOM      5  C   UNL     1     172.712 183.863  32.898  1.00  0.00     0.020 C 
BRANCH   5   6
ATOM      6  C   UNL     1     173.527 182.836  33.565  1.00  0.00     0.064 C 
ATOM      7  O   UNL     1     173.077 181.678  33.771  1.00  0.00    -0.545 OA
ATOM      8  O   UNL     1     174.817 183.150  33.976  1.00  0.00    -0.545 OA
ENDBRANCH   5   6
ENDBRANCH   3   4
ENDBRANCH   2   3
ENDBRANCH   1   2
BRANCH   1   9
ATOM      9  C   UNL     1     168.812 185.048  31.696  1.00  0.00     0.000 C 
BRANCH   9  10
ATOM     10  C   UNL     1     167.519 185.814  31.393  1.00  0.00     0.000 C 
BRANCH  10  11
ATOM     11  C   UNL     1     167.821 187.239  30.913  1.00  0.00    -0.000 C 
BRANCH  11  12
ATOM     12  C   UNL     1     167.509 188.266  32.011  1.00  0.00    -0.000 C 
BRANCH  12  13
ATOM     13  C   UNL     1     168.694 188.491  32.964  1.00  0.00    -0.003 C 
ATOM     14  C   UNL     1     168.422 187.977  34.377  1.00  0.00     0.004 C 
ENDBRANCH  12  13
ENDBRANCH  11  12
ENDBRANCH  10  11
ENDBRANCH   9  10
ENDBRANCH   1   9
TORSDOF 9
ENDMDL
MODEL 7
REMARK VINA RESULT:    -3.531     19.921     22.107
REMARK INTER + INTRA:          -6.099
REMARK INTER:                  -4.794
REMARK INTRA:                  -1.305
REMARK UNBOUND:                -0.711
REMARK SMILES CCCCCCCCCC=CC(=O)[O-]
REMARK SMILES IDX 7 1 8 2 9 3 10 4 11 5 12 6 13 7 14 8 6 9 5 10 4 11 3 12 2 13
REMARK SMILES IDX 1 14
REMARK H PARENT
REMARK Flexibility Score: inf
ROOT
ATOM      1  C   UNL     1     169.715 187.012  34.668  1.00  0.00     0.000 C 
ENDROOT
BRANCH   1   2
ATOM      2  C   UNL     1     170.240 187.584  33.342  1.00  0.00     0.004 C 
BRANCH   2   3
ATOM      3  C   UNL     1     171.486 186.843  32.832  1.00  0.00     0.027 C 
BRANCH   3   4
ATOM      4  C   UNL     1     171.618 185.495  33.480  1.00  0.00    -0.025 C 
ATOM      5  C   UNL     1     172.252 184.485  32.872  1.00  0.00     0.020 C 
BRANCH   5   6
ATOM      6  C   UNL     1     172.380 183.153  33.481  1.00  0.00     0.064 C 
ATOM      7  O   UNL     1     173.247 182.921  34.366  1.00  0.00    -0.545 OA
ATOM      8  O   UNL     1     171.531 182.132  33.074  1.00  0.00    -0.545 OA
ENDBRANCH   5   6
ENDBRANCH   3   4
ENDBRANCH   2   3
ENDBRANCH   1   2
BRANCH   1   9
ATOM      9  C   UNL     1     168.249 186.561  34.580  1.00  0.00     0.000 C 
BRANCH   9  10
ATOM     10  C   UNL     1     167.574 187.129  33.326  1.00  0.00     0.000 C 
BRANCH  10  11
ATOM     11  C   UNL     1     166.775 186.046  32.591  1.00  0.00    -0.000 C 
BRANCH  11  12
ATOM     12  C   UNL     1     167.710 185.092  31.833  1.00  0.00    -0.000 C 
BRANCH  12  13
ATOM     13  C   UNL     1     168.236 185.699  30.522  1.00  0.00    -0.003 C 
ATOM     14  C   UNL     1     169.688 185.321  30.236  1.00  0.00     0.004 C 
ENDBRANCH  12  13
ENDBRANCH  11  12
ENDBRANCH  10  11
ENDBRANCH   9  10
ENDBRANCH   1   9
TORSDOF 9
ENDMDL
MODEL 8
REMARK VINA RESULT:    -3.513     19.776     21.617
REMARK INTER + INTRA:          -6.072
REMARK INTER:                  -4.893
REMARK INTRA:                  -1.179
REMARK UNBOUND:                -0.711
REMARK SMILES CCCCCCCCCC=CC(=O)[O-]
REMARK SMILES IDX 7 1 8 2 9 3 10 4 11 5 12 6 13 7 14 8 6 9 5 10 4 11 3 12 2 13
REMARK SMILES IDX 1 14
REMARK H PARENT
REMARK Flexibility Score: inf
ROOT
ATOM      1  C   UNL     1     169.585 186.498  34.983  1.00  0.00     0.000 C 
ENDROOT
BRANCH   1   2
ATOM      2  C   UNL     1     168.544 185.367  34.961  1.00  0.00     0.004 C 
BRANCH   2   3
ATOM      3  C   UNL     1     167.369 185.665  34.017  1.00  0.00     0.027 C 
BRANCH   3   4
ATOM      4  C   UNL     1     167.856 186.122  32.672  1.00  0.00    -0.025 C 
ATOM      5  C   UNL     1     168.165 185.248  31.707  1.00  0.00     0.020 C 
BRANCH   5   6
ATOM      6  C   UNL     1     168.659 185.672  30.388  1.00  0.00     0.064 C 
ATOM      7  O   UNL     1     169.787 185.302  29.964  1.00  0.00    -0.545 OA
ATOM      8  O   UNL     1     167.869 186.496  29.595  1.00  0.00    -0.545 OA
ENDBRANCH   5   6
ENDBRANCH   3   4
ENDBRANCH   2   3
ENDBRANCH   1   2
BRANCH   1   9
ATOM      9  C   UNL     1     171.028 185.977  34.907  1.00  0.00     0.000 C 
BRANCH   9  10
ATOM     10  C   UNL     1     171.620 186.204  33.511  1.00  0.00     0.000 C 
BRANCH  10  11
ATOM     11  C   UNL     1     171.686 184.892  32.719  1.00  0.00    -0.000 C 
BRANCH  11  12
ATOM     12  C   UNL     1     171.646 183.680  33.661  1.00  0.00    -0.000 C 
BRANCH  12  13
ATOM     13  C   UNL     1     173.003 182.966  33.763  1.00  0.00    -0.003 C 
ATOM     14  C   UNL     1     173.882 183.189  32.533  1.00  0.00     0.004 C 
ENDBRANCH  12  13
ENDBRANCH  11  12
ENDBRANCH  10  11
ENDBRANCH   9  10
ENDBRANCH   1   9
TORSDOF 9
ENDMDL
MODEL 9
REMARK VINA RESULT:    -3.499     20.226     21.981
REMARK INTER + INTRA:          -6.050
REMARK INTER:                  -4.611
REMARK INTRA:                  -1.439
REMARK UNBOUND:                -0.711
REMARK SMILES CCCCCCCCCC=CC(=O)[O-]
REMARK SMILES IDX 7 1 8 2 9 3 10 4 11 5 12 6 13 7 14 8 6 9 5 10 4 11 3 12 2 13
REMARK SMILES IDX 1 14
REMARK H PARENT
REMARK Flexibility Score: inf
ROOT
ATOM      1  C   UNL     1     167.888 187.186  30.746  1.00  0.00     0.000 C 
ENDROOT
BRANCH   1   2
ATOM      2  C   UNL     1     168.262 185.703  30.903  1.00  0.00     0.004 C 
BRANCH   2   3
ATOM      3  C   UNL     1     169.622 185.368  30.271  1.00  0.00     0.027 C 
BRANCH   3   4
ATOM      4  C   UNL     1     170.701 185.294  31.313  1.00  0.00    -0.025 C 
ATOM      5  C   UNL     1     171.230 184.125  31.691  1.00  0.00     0.020 C 
BRANCH   5   6
ATOM      6  C   UNL     1     172.276 184.028  32.720  1.00  0.00     0.064 C 
ATOM      7  O   UNL     1     172.203 184.693  33.788  1.00  0.00    -0.545 OA
ATOM      8  O   UNL     1     173.364 183.190  32.511  1.00  0.00    -0.545 OA
ENDBRANCH   5   6
ENDBRANCH   3   4
ENDBRANCH   2   3
ENDBRANCH   1   2
BRANCH   1   9
ATOM      9  C   UNL     1     167.486 187.840  32.077  1.00  0.00     0.000 C 
BRANCH   9  10
ATOM     10  C   UNL     1     168.695 187.973  33.010  1.00  0.00     0.000 C 
BRANCH  10  11
ATOM     11  C   UNL     1     168.300 187.698  34.467  1.00  0.00    -0.000 C 
BRANCH  11  12
ATOM     12  C   UNL     1     167.754 186.272  34.628  1.00  0.00    -0.000 C 
BRANCH  12  13
ATOM     13  C   UNL     1     168.861 185.207  34.574  1.00  0.00    -0.003 C 
ATOM     14  C   UNL     1     168.352 183.848  34.097  1.00  0.00     0.004 C 
ENDBRANCH  12  13
ENDBRANCH  11  12
ENDBRANCH  10  11
ENDBRANCH   9  10
ENDBRANCH   1   9
TORSDOF 9
ENDMDL
