MODEL 1
REMARK VINA RESULT:    -3.202      0.000      0.000
REMARK INTER + INTRA:          -3.978
REMARK INTER:                  -3.764
REMARK INTRA:                  -0.214
REMARK UNBOUND:                -0.214
REMARK SMILES [NH3+][C@@H](CO)C(=O)[O-]
REMARK SMILES IDX 3 1 2 2 1 3 5 7 6 8 7 9 4 10
REMARK H PARENT 1 4 1 5 1 6 4 11
REMARK Flexibility Score: inf
ROOT
ATOM      1  C   UNL     1      26.476  26.168  23.244  1.00  0.00     0.227 C 
ENDROOT
BRANCH   1   2
ATOM      2  C   UNL     1      27.590  26.797  22.388  1.00  0.00     0.253 C 
BRANCH   2   3
ATOM      3  N   UNL     1      27.198  26.832  20.974  1.00  0.00    -0.348 N 
ATOM      4  H   UNL     1      26.623  27.686  20.787  1.00  0.00     0.345 HD
ATOM      5  H   UNL     1      28.041  26.842  20.355  1.00  0.00     0.345 HD
ATOM      6  H   UNL     1      26.618  25.991  20.747  1.00  0.00     0.345 HD
ENDBRANCH   2   3
BRANCH   2   7
ATOM      7  C   UNL     1      28.882  26.042  22.556  1.00  0.00     0.102 C 
ATOM      8  O   UNL     1      29.734  26.413  23.406  1.00  0.00    -0.544 OA
ATOM      9  O   UNL     1      29.147  24.935  21.759  1.00  0.00    -0.544 OA
ENDBRANCH   2   7
ENDBRANCH   1   2
BRANCH   1  10
ATOM     10  O   UNL     1      26.238  24.841  22.855  1.00  0.00    -0.390 OA
ATOM     11  H   UNL     1      25.288  24.794  22.574  1.00  0.00     0.210 HD
ENDBRANCH   1  10
TORSDOF 4
ENDMDL
MODEL 2
REMARK VINA RESULT:    -3.078      1.863      3.259
REMARK INTER + INTRA:          -3.832
REMARK INTER:                  -3.609
REMARK INTRA:                  -0.223
REMARK UNBOUND:                -0.214
REMARK SMILES [NH3+][C@@H](CO)C(=O)[O-]
REMARK SMILES IDX 3 1 2 2 1 3 5 7 6 8 7 9 4 10
REMARK H PARENT 1 4 1 5 1 6 4 11
REMARK Flexibility Score: inf
ROOT
ATOM      1  C   UNL     1      28.833  26.535  22.767  1.00  0.00     0.227 C 
ENDROOT
BRANCH   1   2
ATOM      2  C   UNL     1      27.344  26.539  22.375  1.00  0.00     0.253 C 
BRANCH   2   3
ATOM      3  N   UNL     1      27.187  26.823  20.944  1.00  0.00    -0.348 N 
ATOM      4  H   UNL     1      26.747  26.004  20.465  1.00  0.00     0.345 HD
ATOM      5  H   UNL     1      26.590  27.670  20.797  1.00  0.00     0.345 HD
ATOM      6  H   UNL     1      28.126  26.988  20.511  1.00  0.00     0.345 HD
ENDBRANCH   2   3
BRANCH   2   7
ATOM      7  C   UNL     1      26.579  27.542  23.198  1.00  0.00     0.102 C 
ATOM      8  O   UNL     1      25.341  27.405  23.383  1.00  0.00    -0.544 OA
ATOM      9  O   UNL     1      27.238  28.636  23.745  1.00  0.00    -0.544 OA
ENDBRANCH   2   7
ENDBRANCH   1   2
BRANCH   1  10
ATOM     10  O   UNL     1      29.523  27.566  22.113  1.00  0.00    -0.390 OA
ATOM     11  H   UNL     1      30.228  27.878  22.738  1.00  0.00     0.210 HD
ENDBRANCH   1  10
TORSDOF 4
ENDMDL
MODEL 3
REMARK VINA RESULT:    -3.058      1.908      1.931
REMARK INTER + INTRA:          -3.809
REMARK INTER:                  -3.471
REMARK INTRA:                  -0.337
REMARK UNBOUND:                -0.214
REMARK SMILES [NH3+][C@@H](CO)C(=O)[O-]
REMARK SMILES IDX 3 1 2 2 1 3 5 7 6 8 7 9 4 10
REMARK H PARENT 1 4 1 5 1 6 4 11
REMARK Flexibility Score: inf
ROOT
ATOM      1  C   UNL     1      26.953  26.810  22.366  1.00  0.00     0.227 C 
ENDROOT
BRANCH   1   2
ATOM      2  C   UNL     1      28.305  26.924  23.093  1.00  0.00     0.253 C 
BRANCH   2   3
ATOM      3  N   UNL     1      28.529  28.298  23.556  1.00  0.00    -0.348 N 
ATOM      4  H   UNL     1      27.725  28.905  23.269  1.00  0.00     0.345 HD
ATOM      5  H   UNL     1      28.628  28.328  24.597  1.00  0.00     0.345 HD
ATOM      6  H   UNL     1      29.399  28.681  23.119  1.00  0.00     0.345 HD
ENDBRANCH   2   3
BRANCH   2   7
ATOM      7  C   UNL     1      29.431  26.482  22.196  1.00  0.00     0.102 C 
ATOM      8  O   UNL     1      30.266  27.317  21.759  1.00  0.00    -0.544 OA
ATOM      9  O   UNL     1      29.544  25.145  21.833  1.00  0.00    -0.544 OA
ENDBRANCH   2   7
ENDBRANCH   1   2
BRANCH   1  10
ATOM     10  O   UNL     1      27.129  26.868  20.976  1.00  0.00    -0.390 OA
ATOM     11  H   UNL     1      27.281  25.936  20.669  1.00  0.00     0.210 HD
ENDBRANCH   1  10
TORSDOF 4
ENDMDL
MODEL 4
REMARK VINA RESULT:    -3.047      1.989      2.557
REMARK INTER + INTRA:          -3.795
REMARK INTER:                  -3.570
REMARK INTRA:                  -0.226
REMARK UNBOUND:                -0.214
REMARK SMILES [NH3+][C@@H](CO)C(=O)[O-]
REMARK SMILES IDX 3 1 2 2 1 3 5 7 6 8 7 9 4 10
REMARK H PARENT 1 4 1 5 1 6 4 11
REMARK Flexibility Score: inf
ROOT
ATOM      1  C   UNL     1      28.780  25.947  20.753  1.00  0.00     0.227 C 
ENDROOT
BRANCH   1   2
ATOM      2  C   UNL     1      27.959  26.242  22.022  1.00  0.00     0.253 C 
BRANCH   2   3
ATOM      3  N   UNL     1      26.754  27.011  21.691  1.00  0.00    -0.348 N 
ATOM      4  H   UNL     1      26.844  27.987  22.058  1.00  0.00     0.345 HD
ATOM      5  H   UNL     1      26.608  27.045  20.656  1.00  0.00     0.345 HD
ATOM      6  H   UNL     1      25.918  26.570  22.139  1.00  0.00     0.345 HD
ENDBRANCH   2   3
BRANCH   2   7
ATOM      7  C   UNL     1      28.792  26.981  23.036  1.00  0.00     0.102 C 
ATOM      8  O   UNL     1      28.394  27.102  24.225  1.00  0.00    -0.544 OA
ATOM      9  O   UNL     1      30.002  27.548  22.657  1.00  0.00    -0.544 OA
ENDBRANCH   2   7
ENDBRANCH   1   2
BRANCH   1  10
ATOM     10  O   UNL     1      28.874  27.089  19.945  1.00  0.00    -0.390 OA
ATOM     11  H   UNL     1      28.138  27.695  20.222  1.00  0.00     0.210 HD
ENDBRANCH   1  10
TORSDOF 4
ENDMDL
MODEL 5
REMARK VINA RESULT:    -3.044      6.409      7.236
REMARK INTER + INTRA:          -3.792
REMARK INTER:                  -3.579
REMARK INTRA:                  -0.213
REMARK UNBOUND:                -0.214
REMARK SMILES [NH3+][C@@H](CO)C(=O)[O-]
REMARK SMILES IDX 3 1 2 2 1 3 5 7 6 8 7 9 4 10
REMARK H PARENT 1 4 1 5 1 6 4 11
REMARK Flexibility Score: inf
ROOT
ATOM      1  C   UNL     1      21.555  21.922  22.284  1.00  0.00     0.227 C 
ENDROOT
BRANCH   1   2
ATOM      2  C   UNL     1      22.071  23.340  22.590  1.00  0.00     0.253 C 
BRANCH   2   3
ATOM      3  N   UNL     1      23.538  23.367  22.595  1.00  0.00    -0.348 N 
ATOM      4  H   UNL     1      23.911  22.441  22.278  1.00  0.00     0.345 HD
ATOM      5  H   UNL     1      23.898  24.118  21.962  1.00  0.00     0.345 HD
ATOM      6  H   UNL     1      23.886  23.543  23.566  1.00  0.00     0.345 HD
ENDBRANCH   2   3
BRANCH   2   7
ATOM      7  C   UNL     1      21.533  23.829  23.908  1.00  0.00     0.102 C 
ATOM      8  O   UNL     1      20.291  23.872  24.116  1.00  0.00    -0.544 OA
ATOM      9  O   UNL     1      22.408  24.253  24.900  1.00  0.00    -0.544 OA
ENDBRANCH   2   7
ENDBRANCH   1   2
BRANCH   1  10
ATOM     10  O   UNL     1      20.966  21.351  23.421  1.00  0.00    -0.390 OA
ATOM     11  H   UNL     1      21.385  20.458  23.540  1.00  0.00     0.210 HD
ENDBRANCH   1  10
TORSDOF 4
ENDMDL
MODEL 6
REMARK VINA RESULT:    -3.044      2.833      3.598
REMARK INTER + INTRA:          -3.792
REMARK INTER:                  -3.582
REMARK INTRA:                  -0.209
REMARK UNBOUND:                -0.214
REMARK SMILES [NH3+][C@@H](CO)C(=O)[O-]
REMARK SMILES IDX 3 1 2 2 1 3 5 7 6 8 7 9 4 10
REMARK H PARENT 1 4 1 5 1 6 4 11
REMARK Flexibility Score: inf
ROOT
ATOM      1  C   UNL     1      27.283  26.402  22.561  1.00  0.00     0.227 C 
ENDROOT
BRANCH   1   2
ATOM      2  C   UNL     1      26.161  26.687  23.576  1.00  0.00     0.253 C 
BRANCH   2   3
ATOM      3  N   UNL     1      24.921  26.011  23.178  1.00  0.00    -0.348 N 
ATOM      4  H   UNL     1      25.105  25.382  22.362  1.00  0.00     0.345 HD
ATOM      5  H   UNL     1      24.536  25.445  23.970  1.00  0.00     0.345 HD
ATOM      6  H   UNL     1      24.208  26.721  22.889  1.00  0.00     0.345 HD
ENDBRANCH   2   3
BRANCH   2   7
ATOM      7  C   UNL     1      25.931  28.169  23.713  1.00  0.00     0.102 C 
ATOM      8  O   UNL     1      26.901  28.972  23.685  1.00  0.00    -0.544 OA
ATOM      9  O   UNL     1      24.642  28.657  23.888  1.00  0.00    -0.544 OA
ENDBRANCH   2   7
ENDBRANCH   1   2
BRANCH   1  10
ATOM     10  O   UNL     1      26.969  26.944  21.306  1.00  0.00    -0.390 OA
ATOM     11  H   UNL     1      26.002  26.775  21.158  1.00  0.00     0.210 HD
ENDBRANCH   1  10
TORSDOF 4
ENDMDL
MODEL 7
REMARK VINA RESULT:    -3.031      1.953      2.617
REMARK INTER + INTRA:          -3.777
REMARK INTER:                  -3.552
REMARK INTRA:                  -0.226
REMARK UNBOUND:                -0.214
REMARK SMILES [NH3+][C@@H](CO)C(=O)[O-]
REMARK SMILES IDX 3 1 2 2 1 3 5 7 6 8 7 9 4 10
REMARK H PARENT 1 4 1 5 1 6 4 11
REMARK Flexibility Score: inf
ROOT
ATOM      1  C   UNL     1      28.733  25.955  20.701  1.00  0.00     0.227 C 
ENDROOT
BRANCH   1   2
ATOM      2  C   UNL     1      27.944  26.228  21.995  1.00  0.00     0.253 C 
BRANCH   2   3
ATOM      3  N   UNL     1      26.737  27.012  21.709  1.00  0.00    -0.348 N 
ATOM      4  H   UNL     1      26.959  28.033  21.752  1.00  0.00     0.345 HD
ATOM      5  H   UNL     1      26.360  26.780  20.761  1.00  0.00     0.345 HD
ATOM      6  H   UNL     1      26.004  26.807  22.427  1.00  0.00     0.345 HD
ENDBRANCH   2   3
BRANCH   2   7
ATOM      7  C   UNL     1      28.806  26.939  23.005  1.00  0.00     0.102 C 
ATOM      8  O   UNL     1      29.949  27.359  22.686  1.00  0.00    -0.544 OA
ATOM      9  O   UNL     1      28.345  27.121  24.303  1.00  0.00    -0.544 OA
ENDBRANCH   2   7
ENDBRANCH   1   2
BRANCH   1  10
ATOM     10  O   UNL     1      28.856  27.125  19.937  1.00  0.00    -0.390 OA
ATOM     11  H   UNL     1      28.042  27.181  19.371  1.00  0.00     0.210 HD
ENDBRANCH   1  10
TORSDOF 4
ENDMDL
MODEL 8
REMARK VINA RESULT:    -2.928     19.433     19.975
REMARK INTER + INTRA:          -3.656
REMARK INTER:                  -3.420
REMARK INTRA:                  -0.235
REMARK UNBOUND:                -0.214
REMARK SMILES [NH3+][C@@H](CO)C(=O)[O-]
REMARK SMILES IDX 3 1 2 2 1 3 5 7 6 8 7 9 4 10
REMARK H PARENT 1 4 1 5 1 6 4 11
REMARK Flexibility Score: inf
ROOT
ATOM      1  C   UNL     1      13.747  13.104  14.215  1.00  0.00     0.227 C 
ENDROOT
BRANCH   1   2
ATOM      2  C   UNL     1      15.260  12.875  14.047  1.00  0.00     0.253 C 
BRANCH   2   3
ATOM      3  N   UNL     1      15.986  13.321  15.241  1.00  0.00    -0.348 N 
ATOM      4  H   UNL     1      15.420  14.037  15.754  1.00  0.00     0.345 HD
ATOM      5  H   UNL     1      16.182  12.516  15.879  1.00  0.00     0.345 HD
ATOM      6  H   UNL     1      16.893  13.762  14.960  1.00  0.00     0.345 HD
ENDBRANCH   2   3
BRANCH   2   7
ATOM      7  C   UNL     1      15.774  13.587  12.823  1.00  0.00     0.102 C 
ATOM      8  O   UNL     1      16.003  14.825  12.853  1.00  0.00    -0.544 OA
ATOM      9  O   UNL     1      15.983  12.879  11.646  1.00  0.00    -0.544 OA
ENDBRANCH   2   7
ENDBRANCH   1   2
BRANCH   1  10
ATOM     10  O   UNL     1      13.450  14.474  14.234  1.00  0.00    -0.390 OA
ATOM     11  H   UNL     1      14.310  14.950  14.374  1.00  0.00     0.210 HD
ENDBRANCH   1  10
TORSDOF 4
ENDMDL
MODEL 9
REMARK VINA RESULT:    -2.861      3.885      4.782
REMARK INTER + INTRA:          -3.577
REMARK INTER:                  -3.194
REMARK INTRA:                  -0.383
REMARK UNBOUND:                -0.214
REMARK SMILES [NH3+][C@@H](CO)C(=O)[O-]
REMARK SMILES IDX 3 1 2 2 1 3 5 7 6 8 7 9 4 10
REMARK H PARENT 1 4 1 5 1 6 4 11
REMARK Flexibility Score: inf
ROOT
ATOM      1  C   UNL     1      25.373  30.500  23.694  1.00  0.00     0.227 C 
ENDROOT
BRANCH   1   2
ATOM      2  C   UNL     1      26.078  29.269  24.291  1.00  0.00     0.253 C 
BRANCH   2   3
ATOM      3  N   UNL     1      27.365  29.036  23.625  1.00  0.00    -0.348 N 
ATOM      4  H   UNL     1      27.209  28.552  22.710  1.00  0.00     0.345 HD
ATOM      5  H   UNL     1      27.864  29.940  23.456  1.00  0.00     0.345 HD
ATOM      6  H   UNL     1      27.966  28.421  24.222  1.00  0.00     0.345 HD
ENDBRANCH   2   3
BRANCH   2   7
ATOM      7  C   UNL     1      25.202  28.048  24.182  1.00  0.00     0.102 C 
ATOM      8  O   UNL     1      25.375  27.219  23.250  1.00  0.00    -0.544 OA
ATOM      9  O   UNL     1      24.185  27.841  25.105  1.00  0.00    -0.544 OA
ENDBRANCH   2   7
ENDBRANCH   1   2
BRANCH   1  10
ATOM     10  O   UNL     1      24.250  30.117  22.946  1.00  0.00    -0.390 OA
ATOM     11  H   UNL     1      24.340  30.547  22.056  1.00  0.00     0.210 HD
ENDBRANCH   1  10
TORSDOF 4
ENDMDL
