MODEL 1
REMARK VINA RESULT:    -4.992      0.000      0.000
REMARK INTER + INTRA:          -8.635
REMARK INTER:                  -8.056
REMARK INTRA:                  -0.579
REMARK UNBOUND:                -0.579
REMARK SMILES CCCCCCCCCCCCO
REMARK SMILES IDX 7 1 6 2 5 3 4 4 3 5 2 6 1 7 8 8 9 9 10 10 11 11 12 12 13 13
REMARK H PARENT 13 14
REMARK Flexibility Score: inf
ROOT
ATOM      1  C   UNL     1      -5.324 -20.205 -11.780  1.00  0.00     0.000 C 
ENDROOT
BRANCH   1   2
ATOM      2  C   UNL     1      -5.152 -19.501 -13.135  1.00  0.00    -0.000 C 
BRANCH   2   3
ATOM      3  C   UNL     1      -6.176 -19.968 -14.180  1.00  0.00    -0.000 C 
BRANCH   3   4
ATOM      4  C   UNL     1      -6.357 -18.912 -15.280  1.00  0.00    -0.000 C 
BRANCH   4   5
ATOM      5  C   UNL     1      -7.702 -18.173 -15.177  1.00  0.00    -0.000 C 
BRANCH   5   6
ATOM      6  C   UNL     1      -7.621 -16.921 -14.292  1.00  0.00    -0.003 C 
ATOM      7  C   UNL     1      -8.603 -17.007 -13.128  1.00  0.00     0.004 C 
ENDBRANCH   5   6
ENDBRANCH   4   5
ENDBRANCH   3   4
ENDBRANCH   2   3
ENDBRANCH   1   2
BRANCH   1   8
ATOM      8  C   UNL     1      -5.093 -21.721 -11.865  1.00  0.00     0.000 C 
BRANCH   8   9
ATOM      9  C   UNL     1      -3.877 -22.140 -11.025  1.00  0.00     0.000 C 
BRANCH   9  10
ATOM     10  C   UNL     1      -2.536 -21.860 -11.728  1.00  0.00     0.002 C 
BRANCH  10  11
ATOM     11  C   UNL     1      -1.726 -23.114 -12.107  1.00  0.00     0.028 C 
BRANCH  11  12
ATOM     12  C   UNL     1      -2.563 -24.397 -12.194  1.00  0.00     0.156 C 
BRANCH  12  13
ATOM     13  O   UNL     1      -1.771 -25.482 -12.599  1.00  0.00    -0.396 OA
ATOM     14  H   UNL     1      -2.241 -26.307 -12.308  1.00  0.00     0.210 HD
ENDBRANCH  12  13
ENDBRANCH  11  12
ENDBRANCH  10  11
ENDBRANCH   9  10
ENDBRANCH   8   9
ENDBRANCH   1   8
TORSDOF 11
ENDMDL
MODEL 2
REMARK VINA RESULT:    -4.971      0.861      1.637
REMARK INTER + INTRA:          -8.601
REMARK INTER:                  -8.042
REMARK INTRA:                  -0.559
REMARK UNBOUND:                -0.579
REMARK SMILES CCCCCCCCCCCCO
REMARK SMILES IDX 7 1 6 2 5 3 4 4 3 5 2 6 1 7 8 8 9 9 10 10 11 11 12 12 13 13
REMARK H PARENT 13 14
REMARK Flexibility Score: inf
ROOT
ATOM      1  C   UNL     1      -4.816 -21.728 -11.108  1.00  0.00     0.000 C 
ENDROOT
BRANCH   1   2
ATOM      2  C   UNL     1      -5.472 -20.369 -11.397  1.00  0.00    -0.000 C 
BRANCH   2   3
ATOM      3  C   UNL     1      -4.988 -19.745 -12.715  1.00  0.00    -0.000 C 
BRANCH   3   4
ATOM      4  C   UNL     1      -6.109 -18.936 -13.384  1.00  0.00    -0.000 C 
BRANCH   4   5
ATOM      5  C   UNL     1      -6.403 -19.403 -14.819  1.00  0.00    -0.000 C 
BRANCH   5   6
ATOM      6  C   UNL     1      -6.911 -18.267 -15.718  1.00  0.00    -0.003 C 
ATOM      7  C   UNL     1      -7.459 -17.111 -14.886  1.00  0.00     0.004 C 
ENDBRANCH   5   6
ENDBRANCH   4   5
ENDBRANCH   3   4
ENDBRANCH   2   3
ENDBRANCH   1   2
BRANCH   1   8
ATOM      8  C   UNL     1      -3.984 -21.723  -9.816  1.00  0.00     0.000 C 
BRANCH   8   9
ATOM      9  C   UNL     1      -2.531 -22.133 -10.097  1.00  0.00     0.000 C 
BRANCH   9  10
ATOM     10  C   UNL     1      -2.123 -21.932 -11.567  1.00  0.00     0.002 C 
BRANCH  10  11
ATOM     11  C   UNL     1      -1.438 -23.145 -12.224  1.00  0.00     0.028 C 
BRANCH  11  12
ATOM     12  C   UNL     1      -2.297 -24.416 -12.240  1.00  0.00     0.156 C 
BRANCH  12  13
ATOM     13  O   UNL     1      -1.497 -25.557 -12.406  1.00  0.00    -0.396 OA
ATOM     14  H   UNL     1      -1.531 -25.795 -13.369  1.00  0.00     0.210 HD
ENDBRANCH  12  13
ENDBRANCH  11  12
ENDBRANCH  10  11
ENDBRANCH   9  10
ENDBRANCH   8   9
ENDBRANCH   1   8
TORSDOF 11
ENDMDL
MODEL 3
REMARK VINA RESULT:    -4.858      1.334      1.505
REMARK INTER + INTRA:          -8.419
REMARK INTER:                  -7.872
REMARK INTRA:                  -0.546
REMARK UNBOUND:                -0.579
REMARK SMILES CCCCCCCCCCCCO
REMARK SMILES IDX 7 1 6 2 5 3 4 4 3 5 2 6 1 7 8 8 9 9 10 10 11 11 12 12 13 13
REMARK H PARENT 13 14
REMARK Flexibility Score: inf
ROOT
ATOM      1  C   UNL     1      -5.292 -20.052 -11.657  1.00  0.00     0.000 C 
ENDROOT
BRANCH   1   2
ATOM      2  C   UNL     1      -5.183 -19.413 -13.051  1.00  0.00    -0.000 C 
BRANCH   2   3
ATOM      3  C   UNL     1      -6.219 -19.968 -14.040  1.00  0.00    -0.000 C 
BRANCH   3   4
ATOM      4  C   UNL     1      -6.286 -19.102 -15.307  1.00  0.00    -0.000 C 
BRANCH   4   5
ATOM      5  C   UNL     1      -7.539 -18.211 -15.351  1.00  0.00    -0.000 C 
BRANCH   5   6
ATOM      6  C   UNL     1      -7.420 -16.979 -14.443  1.00  0.00    -0.003 C 
ATOM      7  C   UNL     1      -8.384 -17.070 -13.264  1.00  0.00     0.004 C 
ENDBRANCH   5   6
ENDBRANCH   4   5
ENDBRANCH   3   4
ENDBRANCH   2   3
ENDBRANCH   1   2
BRANCH   1   8
ATOM      8  C   UNL     1      -5.065 -21.571 -11.682  1.00  0.00     0.000 C 
BRANCH   8   9
ATOM      9  C   UNL     1      -3.960 -21.977 -10.695  1.00  0.00     0.000 C 
BRANCH   9  10
ATOM     10  C   UNL     1      -2.767 -22.669 -11.379  1.00  0.00     0.002 C 
BRANCH  10  11
ATOM     11  C   UNL     1      -1.571 -21.749 -11.689  1.00  0.00     0.028 C 
BRANCH  11  12
ATOM     12  C   UNL     1      -0.206 -22.441 -11.592  1.00  0.00     0.156 C 
BRANCH  12  13
ATOM     13  O   UNL     1       0.561 -22.193 -12.740  1.00  0.00    -0.396 OA
ATOM     14  H   UNL     1       0.330 -21.279 -13.050  1.00  0.00     0.210 HD
ENDBRANCH  12  13
ENDBRANCH  11  12
ENDBRANCH  10  11
ENDBRANCH   9  10
ENDBRANCH   8   9
ENDBRANCH   1   8
TORSDOF 11
ENDMDL
MODEL 4
REMARK VINA RESULT:    -4.818      3.232      7.012
REMARK INTER + INTRA:          -8.354
REMARK INTER:                  -7.734
REMARK INTRA:                  -0.620
REMARK UNBOUND:                -0.579
REMARK SMILES CCCCCCCCCCCCO
REMARK SMILES IDX 7 1 6 2 5 3 4 4 3 5 2 6 1 7 8 8 9 9 10 10 11 11 12 12 13 13
REMARK H PARENT 13 14
REMARK Flexibility Score: inf
ROOT
ATOM      1  C   UNL     1      -5.200 -21.256 -11.966  1.00  0.00     0.000 C 
ENDROOT
BRANCH   1   2
ATOM      2  C   UNL     1      -4.835 -21.378 -10.478  1.00  0.00    -0.000 C 
BRANCH   2   3
ATOM      3  C   UNL     1      -3.618 -22.285 -10.238  1.00  0.00    -0.000 C 
BRANCH   3   4
ATOM      4  C   UNL     1      -3.303 -23.122 -11.487  1.00  0.00    -0.000 C 
BRANCH   4   5
ATOM      5  C   UNL     1      -1.802 -23.154 -11.816  1.00  0.00    -0.000 C 
BRANCH   5   6
ATOM      6  C   UNL     1      -1.134 -21.780 -11.666  1.00  0.00    -0.003 C 
ATOM      7  C   UNL     1      -0.002 -21.827 -10.644  1.00  0.00     0.004 C 
ENDBRANCH   5   6
ENDBRANCH   4   5
ENDBRANCH   3   4
ENDBRANCH   2   3
ENDBRANCH   1   2
BRANCH   1   8
ATOM      8  C   UNL     1      -4.813 -19.895 -12.563  1.00  0.00     0.000 C 
BRANCH   8   9
ATOM      9  C   UNL     1      -6.037 -19.192 -13.168  1.00  0.00     0.000 C 
BRANCH   9  10
ATOM     10  C   UNL     1      -6.223 -19.492 -14.666  1.00  0.00     0.002 C 
BRANCH  10  11
ATOM     11  C   UNL     1      -6.869 -18.356 -15.481  1.00  0.00     0.028 C 
BRANCH  11  12
ATOM     12  C   UNL     1      -7.768 -17.426 -14.657  1.00  0.00     0.156 C 
BRANCH  12  13
ATOM     13  O   UNL     1      -7.178 -16.162 -14.510  1.00  0.00    -0.396 OA
ATOM     14  H   UNL     1      -6.345 -16.169 -15.050  1.00  0.00     0.210 HD
ENDBRANCH  12  13
ENDBRANCH  11  12
ENDBRANCH  10  11
ENDBRANCH   9  10
ENDBRANCH   8   9
ENDBRANCH   1   8
TORSDOF 11
ENDMDL
MODEL 5
REMARK VINA RESULT:    -4.805      3.225      6.914
REMARK INTER + INTRA:          -8.333
REMARK INTER:                  -7.493
REMARK INTRA:                  -0.839
REMARK UNBOUND:                -0.579
REMARK SMILES CCCCCCCCCCCCO
REMARK SMILES IDX 7 1 6 2 5 3 4 4 3 5 2 6 1 7 8 8 9 9 10 10 11 11 12 12 13 13
REMARK H PARENT 13 14
REMARK Flexibility Score: inf
ROOT
ATOM      1  C   UNL     1      -5.933 -21.391 -12.221  1.00  0.00     0.000 C 
ENDROOT
BRANCH   1   2
ATOM      2  C   UNL     1      -5.943 -21.694 -10.714  1.00  0.00    -0.000 C 
BRANCH   2   3
ATOM      3  C   UNL     1      -4.733 -21.097  -9.981  1.00  0.00    -0.000 C 
BRANCH   3   4
ATOM      4  C   UNL     1      -3.772 -22.202  -9.518  1.00  0.00    -0.000 C 
BRANCH   4   5
ATOM      5  C   UNL     1      -2.372 -22.071 -10.140  1.00  0.00    -0.000 C 
BRANCH   5   6
ATOM      6  C   UNL     1      -2.342 -22.479 -11.620  1.00  0.00    -0.003 C 
ATOM      7  C   UNL     1      -2.711 -23.949 -11.792  1.00  0.00     0.004 C 
ENDBRANCH   5   6
ENDBRANCH   4   5
ENDBRANCH   3   4
ENDBRANCH   2   3
ENDBRANCH   1   2
BRANCH   1   8
ATOM      8  C   UNL     1      -5.092 -20.155 -12.572  1.00  0.00     0.000 C 
BRANCH   8   9
ATOM      9  C   UNL     1      -5.954 -19.078 -13.246  1.00  0.00     0.000 C 
BRANCH   9  10
ATOM     10  C   UNL     1      -6.280 -19.402 -14.715  1.00  0.00     0.002 C 
BRANCH  10  11
ATOM     11  C   UNL     1      -6.842 -18.222 -15.532  1.00  0.00     0.028 C 
BRANCH  11  12
ATOM     12  C   UNL     1      -7.778 -17.301 -14.740  1.00  0.00     0.156 C 
BRANCH  12  13
ATOM     13  O   UNL     1      -7.142 -16.091 -14.430  1.00  0.00    -0.396 OA
ATOM     14  H   UNL     1      -7.033 -15.595 -15.283  1.00  0.00     0.210 HD
ENDBRANCH  12  13
ENDBRANCH  11  12
ENDBRANCH  10  11
ENDBRANCH   9  10
ENDBRANCH   8   9
ENDBRANCH   1   8
TORSDOF 11
ENDMDL
MODEL 6
REMARK VINA RESULT:    -4.493      2.868      6.598
REMARK INTER + INTRA:          -7.830
REMARK INTER:                  -6.906
REMARK INTRA:                  -0.924
REMARK UNBOUND:                -0.579
REMARK SMILES CCCCCCCCCCCCO
REMARK SMILES IDX 7 1 6 2 5 3 4 4 3 5 2 6 1 7 8 8 9 9 10 10 11 11 12 12 13 13
REMARK H PARENT 13 14
REMARK Flexibility Score: inf
ROOT
ATOM      1  C   UNL     1      -4.694 -21.792 -10.901  1.00  0.00     0.000 C 
ENDROOT
BRANCH   1   2
ATOM      2  C   UNL     1      -3.793 -21.967  -9.669  1.00  0.00    -0.000 C 
BRANCH   2   3
ATOM      3  C   UNL     1      -2.306 -22.095 -10.035  1.00  0.00    -0.000 C 
BRANCH   3   4
ATOM      4  C   UNL     1      -2.074 -21.749 -11.513  1.00  0.00    -0.000 C 
BRANCH   4   5
ATOM      5  C   UNL     1      -1.367 -22.878 -12.282  1.00  0.00    -0.000 C 
BRANCH   5   6
ATOM      6  C   UNL     1      -1.730 -24.272 -11.751  1.00  0.00    -0.003 C 
ATOM      7  C   UNL     1      -2.864 -24.891 -12.561  1.00  0.00     0.004 C 
ENDBRANCH   5   6
ENDBRANCH   4   5
ENDBRANCH   3   4
ENDBRANCH   2   3
ENDBRANCH   1   2
BRANCH   1   8
ATOM      8  C   UNL     1      -5.869 -20.835 -10.646  1.00  0.00     0.000 C 
BRANCH   8   9
ATOM      9  C   UNL     1      -5.825 -19.643 -11.613  1.00  0.00     0.000 C 
BRANCH   9  10
ATOM     10  C   UNL     1      -5.097 -19.964 -12.931  1.00  0.00     0.002 C 
BRANCH  10  11
ATOM     11  C   UNL     1      -5.966 -19.851 -14.198  1.00  0.00     0.028 C 
BRANCH  11  12
ATOM     12  C   UNL     1      -6.755 -18.540 -14.302  1.00  0.00     0.156 C 
BRANCH  12  13
ATOM     13  O   UNL     1      -7.952 -18.732 -15.007  1.00  0.00    -0.396 OA
ATOM     14  H   UNL     1      -7.899 -18.171 -15.824  1.00  0.00     0.210 HD
ENDBRANCH  12  13
ENDBRANCH  11  12
ENDBRANCH  10  11
ENDBRANCH   9  10
ENDBRANCH   8   9
ENDBRANCH   1   8
TORSDOF 11
ENDMDL
MODEL 7
REMARK VINA RESULT:    -4.308      3.616      7.566
REMARK INTER + INTRA:          -7.531
REMARK INTER:                  -7.165
REMARK INTRA:                  -0.366
REMARK UNBOUND:                -0.579
REMARK SMILES CCCCCCCCCCCCO
REMARK SMILES IDX 7 1 6 2 5 3 4 4 3 5 2 6 1 7 8 8 9 9 10 10 11 11 12 12 13 13
REMARK H PARENT 13 14
REMARK Flexibility Score: inf
ROOT
ATOM      1  C   UNL     1      -5.763 -20.164 -13.409  1.00  0.00     0.000 C 
ENDROOT
BRANCH   1   2
ATOM      2  C   UNL     1      -4.819 -20.032 -12.204  1.00  0.00    -0.000 C 
BRANCH   2   3
ATOM      3  C   UNL     1      -5.117 -21.059 -11.101  1.00  0.00    -0.000 C 
BRANCH   3   4
ATOM      4  C   UNL     1      -4.142 -22.243 -11.176  1.00  0.00    -0.000 C 
BRANCH   4   5
ATOM      5  C   UNL     1      -2.677 -21.797 -11.317  1.00  0.00    -0.000 C 
BRANCH   5   6
ATOM      6  C   UNL     1      -1.853 -22.745 -12.200  1.00  0.00    -0.003 C 
ATOM      7  C   UNL     1      -2.175 -24.204 -11.890  1.00  0.00     0.004 C 
ENDBRANCH   5   6
ENDBRANCH   4   5
ENDBRANCH   3   4
ENDBRANCH   2   3
ENDBRANCH   1   2
BRANCH   1   8
ATOM      8  C   UNL     1      -6.115 -18.807 -14.038  1.00  0.00     0.000 C 
BRANCH   8   9
ATOM      9  C   UNL     1      -6.639 -18.987 -15.471  1.00  0.00     0.000 C 
BRANCH   9  10
ATOM     10  C   UNL     1      -7.403 -17.754 -15.990  1.00  0.00     0.002 C 
BRANCH  10  11
ATOM     11  C   UNL     1      -8.937 -17.847 -15.882  1.00  0.00     0.028 C 
BRANCH  11  12
ATOM     12  C   UNL     1      -9.661 -17.846 -17.234  1.00  0.00     0.156 C 
BRANCH  12  13
ATOM     13  O   UNL     1      -8.947 -17.098 -18.182  1.00  0.00    -0.396 OA
ATOM     14  H   UNL     1      -9.471 -17.124 -19.024  1.00  0.00     0.210 HD
ENDBRANCH  12  13
ENDBRANCH  11  12
ENDBRANCH  10  11
ENDBRANCH   9  10
ENDBRANCH   8   9
ENDBRANCH   1   8
TORSDOF 11
ENDMDL
MODEL 8
REMARK VINA RESULT:    -4.306      2.385      4.245
REMARK INTER + INTRA:          -7.529
REMARK INTER:                  -6.858
REMARK INTRA:                  -0.671
REMARK UNBOUND:                -0.579
REMARK SMILES CCCCCCCCCCCCO
REMARK SMILES IDX 7 1 6 2 5 3 4 4 3 5 2 6 1 7 8 8 9 9 10 10 11 11 12 12 13 13
REMARK H PARENT 13 14
REMARK Flexibility Score: inf
ROOT
ATOM      1  C   UNL     1      -1.584 -22.788 -11.940  1.00  0.00     0.000 C 
ENDROOT
BRANCH   1   2
ATOM      2  C   UNL     1      -2.722 -21.758 -11.875  1.00  0.00    -0.000 C 
BRANCH   2   3
ATOM      3  C   UNL     1      -3.769 -22.098 -10.803  1.00  0.00    -0.000 C 
BRANCH   3   4
ATOM      4  C   UNL     1      -4.920 -21.081 -10.819  1.00  0.00    -0.000 C 
BRANCH   4   5
ATOM      5  C   UNL     1      -5.581 -20.954 -12.201  1.00  0.00    -0.000 C 
BRANCH   5   6
ATOM      6  C   UNL     1      -5.526 -19.522 -12.753  1.00  0.00    -0.003 C 
ATOM      7  C   UNL     1      -6.044 -19.466 -14.187  1.00  0.00     0.004 C 
ENDBRANCH   5   6
ENDBRANCH   4   5
ENDBRANCH   3   4
ENDBRANCH   2   3
ENDBRANCH   1   2
BRANCH   1   8
ATOM      8  C   UNL     1      -0.193 -22.142 -11.853  1.00  0.00     0.000 C 
BRANCH   8   9
ATOM      9  C   UNL     1       0.154 -21.780 -10.401  1.00  0.00     0.000 C 
BRANCH   9  10
ATOM     10  C   UNL     1      -0.261 -22.868  -9.394  1.00  0.00     0.002 C 
BRANCH  10  11
ATOM     11  C   UNL     1       0.855 -23.859  -9.012  1.00  0.00     0.028 C 
BRANCH  11  12
ATOM     12  C   UNL     1       0.904 -25.115  -9.891  1.00  0.00     0.156 C 
BRANCH  12  13
ATOM     13  O   UNL     1       1.927 -25.016 -10.845  1.00  0.00    -0.396 OA
ATOM     14  H   UNL     1       2.647 -24.466 -10.441  1.00  0.00     0.210 HD
ENDBRANCH  12  13
ENDBRANCH  11  12
ENDBRANCH  10  11
ENDBRANCH   9  10
ENDBRANCH   8   9
ENDBRANCH   1   8
TORSDOF 11
ENDMDL
MODEL 9
REMARK VINA RESULT:    -4.301      3.198      7.299
REMARK INTER + INTRA:          -7.520
REMARK INTER:                  -7.082
REMARK INTRA:                  -0.438
REMARK UNBOUND:                -0.579
REMARK SMILES CCCCCCCCCCCCO
REMARK SMILES IDX 7 1 6 2 5 3 4 4 3 5 2 6 1 7 8 8 9 9 10 10 11 11 12 12 13 13
REMARK H PARENT 13 14
REMARK Flexibility Score: inf
ROOT
ATOM      1  C   UNL     1      -4.105 -21.991 -11.512  1.00  0.00     0.000 C 
ENDROOT
BRANCH   1   2
ATOM      2  C   UNL     1      -2.649 -22.069 -11.025  1.00  0.00    -0.000 C 
BRANCH   2   3
ATOM      3  C   UNL     1      -1.719 -22.744 -12.043  1.00  0.00    -0.000 C 
BRANCH   3   4
ATOM      4  C   UNL     1      -0.267 -22.278 -11.854  1.00  0.00    -0.000 C 
BRANCH   4   5
ATOM      5  C   UNL     1      -0.042 -21.572 -10.507  1.00  0.00    -0.000 C 
BRANCH   5   6
ATOM      6  C   UNL     1       0.874 -22.368  -9.567  1.00  0.00    -0.003 C 
ATOM      7  C   UNL     1       0.610 -23.866  -9.681  1.00  0.00     0.004 C 
ENDBRANCH   5   6
ENDBRANCH   4   5
ENDBRANCH   3   4
ENDBRANCH   2   3
ENDBRANCH   1   2
BRANCH   1   8
ATOM      8  C   UNL     1      -4.844 -20.754 -10.980  1.00  0.00     0.000 C 
BRANCH   8   9
ATOM      9  C   UNL     1      -5.969 -20.333 -11.937  1.00  0.00     0.000 C 
BRANCH   9  10
ATOM     10  C   UNL     1      -5.485 -19.400 -13.061  1.00  0.00     0.002 C 
BRANCH  10  11
ATOM     11  C   UNL     1      -6.111 -19.667 -14.443  1.00  0.00     0.028 C 
BRANCH  11  12
ATOM     12  C   UNL     1      -7.000 -18.529 -14.959  1.00  0.00     0.156 C 
BRANCH  12  13
ATOM     13  O   UNL     1      -6.349 -17.293 -14.835  1.00  0.00    -0.396 OA
ATOM     14  H   UNL     1      -5.579 -17.308 -15.461  1.00  0.00     0.210 HD
ENDBRANCH  12  13
ENDBRANCH  11  12
ENDBRANCH  10  11
ENDBRANCH   9  10
ENDBRANCH   8   9
ENDBRANCH   1   8
TORSDOF 11
ENDMDL
