MODEL 1
REMARK VINA RESULT:    29.018      0.000      0.000
REMARK INTER + INTRA:          34.160
REMARK INTER:                  34.107
REMARK INTRA:                   0.052
REMARK UNBOUND:                 0.052
REMARK SMILES O=c1c(O)c(-c2ccc(O)cc2)oc2cc(O)cc(O)c12
REMARK SMILES IDX 5 1 3 2 2 3 1 4 21 5 19 6 18 7 16 8 15 9 14 10 13 11 6 12
REMARK SMILES IDX 7 13 8 14 9 15 12 16 11 17 10 18 4 20 20 22 17 24
REMARK H PARENT 10 19 4 21 20 23 17 25
REMARK Flexibility Score: inf
ROOT
ATOM      1  C   UNL     1     -26.138   0.381 -13.821  1.00  0.00     0.180 A 
ATOM      2  C   UNL     1     -26.570  -0.367 -12.713  1.00  0.00     0.208 A 
ATOM      3  C   UNL     1     -26.401  -1.761 -12.725  1.00  0.00     0.238 A 
ATOM      4  O   UNL     1     -26.741  -2.420 -11.708  1.00  0.00    -0.285 OA
ATOM      5  C   UNL     1     -25.817  -2.391 -13.851  1.00  0.00     0.111 A 
ATOM      6  C   UNL     1     -25.634  -3.800 -13.987  1.00  0.00     0.134 A 
ATOM      7  C   UNL     1     -24.925  -4.300 -15.087  1.00  0.00     0.093 A 
ATOM      8  C   UNL     1     -24.452  -3.448 -16.087  1.00  0.00     0.123 A 
ATOM      9  C   UNL     1     -24.678  -2.077 -15.993  1.00  0.00     0.094 A 
ATOM     10  C   UNL     1     -25.349  -1.544 -14.889  1.00  0.00     0.146 A 
ATOM     11  O   UNL     1     -25.534  -0.230 -14.833  1.00  0.00    -0.452 OA
ENDROOT
BRANCH   1  12
ATOM     12  C   UNL     1     -26.305   1.850 -13.893  1.00  0.00     0.021 A 
ATOM     13  C   UNL     1     -25.899   2.687 -12.836  1.00  0.00     0.016 A 
ATOM     14  C   UNL     1     -26.089   4.070 -12.917  1.00  0.00     0.047 A 
ATOM     15  C   UNL     1     -26.700   4.634 -14.045  1.00  0.00     0.115 A 
ATOM     16  C   UNL     1     -26.936   2.422 -15.010  1.00  0.00     0.016 A 
ATOM     17  C   UNL     1     -27.125   3.805 -15.088  1.00  0.00     0.047 A 
BRANCH  15  18
ATOM     18  O   UNL     1     -26.894   6.009 -14.137  1.00  0.00    -0.508 OA
ATOM     19  H   UNL     1     -27.234   6.440 -14.989  1.00  0.00     0.293 HD
ENDBRANCH  15  18
ENDBRANCH   1  12
BRANCH   2  20
ATOM     20  O   UNL     1     -27.125   0.276 -11.603  1.00  0.00    -0.502 OA
ATOM     21  H   UNL     1     -28.117   0.253 -11.400  1.00  0.00     0.293 HD
ENDBRANCH   2  20
BRANCH   6  22
ATOM     22  O   UNL     1     -26.147  -4.744 -13.093  1.00  0.00    -0.507 OA
ATOM     23  H   UNL     1     -25.712  -5.627 -12.879  1.00  0.00     0.293 HD
ENDBRANCH   6  22
BRANCH   8  24
ATOM     24  O   UNL     1     -23.762  -3.956 -17.186  1.00  0.00    -0.508 OA
ATOM     25  H   UNL     1     -23.208  -3.357 -17.787  1.00  0.00     0.293 HD
ENDBRANCH   8  24
TORSDOF 5
ENDMDL
