MODEL 1
REMARK VINA RESULT:    -6.130      0.000      0.000
REMARK INTER + INTRA:         -10.492
REMARK INTER:                  -8.639
REMARK INTRA:                  -1.853
REMARK UNBOUND:                -1.853
REMARK SMILES C=C(CC[C@@H](C(=O)[O-])[C@@H]1[C@@H](O)C[C@@]2(C)C3=C(CC[C@@]12C)[C@]1(C)CC[C@H](O)C(C)(C)[C@@H]1CC3)C(C)C
REMARK SMILES IDX 4 1 5 2 6 3 7 4 8 5 9 6 10 7 19 8 12 9 13 10 18 11 20 12
REMARK SMILES IDX 14 13 15 14 17 15 16 16 32 17 21 18 31 19 30 20 23 21 22 22
REMARK SMILES IDX 27 23 24 24 25 25 28 26 29 27 11 28 26 30 3 32 2 33 1 34
REMARK SMILES IDX 33 35 34 36 35 37
REMARK H PARENT 11 29 26 31
REMARK Flexibility Score: inf
ROOT
ATOM      1  C   UNL     1      -1.651 -30.077   7.286  1.00  0.00     0.014 C 
ENDROOT
BRANCH   1   2
ATOM      2  C   UNL     1      -0.416 -30.562   6.486  1.00  0.00     0.042 C 
BRANCH   2   3
ATOM      3  C   UNL     1      -0.822 -31.707   5.580  1.00  0.00     0.045 C 
ATOM      4  O   UNL     1      -1.890 -31.629   4.915  1.00  0.00    -0.550 OA
ATOM      5  O   UNL     1       0.025 -32.788   5.359  1.00  0.00    -0.550 OA
ENDBRANCH   2   3
BRANCH   2   6
ATOM      6  C   UNL     1       0.318 -29.356   5.789  1.00  0.00     0.033 C 
ATOM      7  C   UNL     1       0.566 -29.527   4.279  1.00  0.00     0.119 C 
ATOM      8  C   UNL     1       1.665 -28.793   6.412  1.00  0.00    -0.017 C 
ATOM      9  C   UNL     1       1.813 -28.708   3.977  1.00  0.00     0.043 C 
ATOM     10  C   UNL     1       2.708 -28.808   5.228  1.00  0.00    -0.003 C 
ATOM     11  C   UNL     1       1.406 -27.324   6.842  1.00  0.00     0.012 C 
ATOM     12  C   UNL     1       2.157 -29.577   7.667  1.00  0.00     0.013 C 
ATOM     13  C   UNL     1       3.488 -30.157   5.170  1.00  0.00     0.017 C 
ATOM     14  C   UNL     1       3.732 -27.636   5.210  1.00  0.00    -0.064 C 
ATOM     15  C   UNL     1       2.688 -26.606   7.225  1.00  0.00     0.032 C 
ATOM     16  C   UNL     1       3.699 -26.585   6.089  1.00  0.00    -0.064 C 
ATOM     17  C   UNL     1       4.796 -27.685   4.138  1.00  0.00     0.032 C 
ATOM     18  C   UNL     1       4.652 -25.345   5.981  1.00  0.00    -0.008 C 
ATOM     19  C   UNL     1       5.225 -26.307   3.686  1.00  0.00     0.009 C 
ATOM     20  C   UNL     1       5.793 -25.519   4.886  1.00  0.00     0.007 C 
ATOM     21  C   UNL     1       3.764 -24.114   5.624  1.00  0.00     0.014 C 
ATOM     22  C   UNL     1       5.296 -25.163   7.384  1.00  0.00     0.016 C 
ATOM     23  C   UNL     1       6.548 -24.178   4.439  1.00  0.00    -0.006 C 
ATOM     24  C   UNL     1       4.548 -22.834   5.332  1.00  0.00     0.033 C 
ATOM     25  C   UNL     1       5.537 -23.021   4.173  1.00  0.00     0.120 C 
ATOM     26  C   UNL     1       7.390 -24.396   3.144  1.00  0.00     0.014 C 
ATOM     27  C   UNL     1       7.591 -23.731   5.514  1.00  0.00     0.014 C 
BRANCH   7  28
ATOM     28  O   UNL     1      -0.530 -29.059   3.533  1.00  0.00    -0.393 OA
ATOM     29  H   UNL     1      -0.462 -28.070   3.516  1.00  0.00     0.210 HD
ENDBRANCH   7  28
BRANCH  25  30
ATOM     30  O   UNL     1       4.820 -23.250   2.983  1.00  0.00    -0.393 OA
ATOM     31  H   UNL     1       4.052 -22.620   2.981  1.00  0.00     0.210 HD
ENDBRANCH  25  30
ENDBRANCH   2   6
ENDBRANCH   1   2
BRANCH   1  32
ATOM     32  C   UNL     1      -1.279 -29.488   8.667  1.00  0.00     0.031 C 
BRANCH  32  33
ATOM     33  C   UNL     1      -2.106 -28.262   8.987  1.00  0.00    -0.075 C 
ATOM     34  C   UNL     1      -3.413 -28.241   8.675  1.00  0.00     0.008 C 
BRANCH  33  35
ATOM     35  C   UNL     1      -1.421 -27.052   9.608  1.00  0.00     0.008 C 
ATOM     36  C   UNL     1      -0.018 -27.395  10.125  1.00  0.00     0.012 C 
ATOM     37  C   UNL     1      -1.376 -25.877   8.624  1.00  0.00     0.012 C 
ENDBRANCH  33  35
ENDBRANCH  32  33
ENDBRANCH   1  32
TORSDOF 8
ENDMDL
MODEL 2
REMARK VINA RESULT:    -6.048      1.242      2.140
REMARK INTER + INTRA:         -10.376
REMARK INTER:                  -8.715
REMARK INTRA:                  -1.661
REMARK UNBOUND:                -1.853
REMARK SMILES C=C(CC[C@@H](C(=O)[O-])[C@@H]1[C@@H](O)C[C@@]2(C)C3=C(CC[C@@]12C)[C@]1(C)CC[C@H](O)C(C)(C)[C@@H]1CC3)C(C)C
REMARK SMILES IDX 4 1 5 2 6 3 7 4 8 5 9 6 10 7 19 8 12 9 13 10 18 11 20 12
REMARK SMILES IDX 14 13 15 14 17 15 16 16 32 17 21 18 31 19 30 20 23 21 22 22
REMARK SMILES IDX 27 23 24 24 25 25 28 26 29 27 11 28 26 30 3 32 2 33 1 34
REMARK SMILES IDX 33 35 34 36 35 37
REMARK H PARENT 11 29 26 31
REMARK Flexibility Score: inf
ROOT
ATOM      1  C   UNL     1      -1.545 -30.226   7.327  1.00  0.00     0.014 C 
ENDROOT
BRANCH   1   2
ATOM      2  C   UNL     1      -0.448 -30.689   6.335  1.00  0.00     0.042 C 
BRANCH   2   3
ATOM      3  C   UNL     1      -1.035 -31.708   5.378  1.00  0.00     0.045 C 
ATOM      4  O   UNL     1      -0.503 -32.846   5.274  1.00  0.00    -0.550 OA
ATOM      5  O   UNL     1      -2.229 -31.465   4.708  1.00  0.00    -0.550 OA
ENDBRANCH   2   3
BRANCH   2   6
ATOM      6  C   UNL     1       0.276 -29.457   5.674  1.00  0.00     0.033 C 
ATOM      7  C   UNL     1       0.490 -29.565   4.153  1.00  0.00     0.119 C 
ATOM      8  C   UNL     1       1.639 -28.928   6.290  1.00  0.00    -0.017 C 
ATOM      9  C   UNL     1       1.734 -28.738   3.859  1.00  0.00     0.043 C 
ATOM     10  C   UNL     1       2.656 -28.895   5.083  1.00  0.00    -0.003 C 
ATOM     11  C   UNL     1       1.397 -27.477   6.789  1.00  0.00     0.012 C 
ATOM     12  C   UNL     1       2.155 -29.766   7.499  1.00  0.00     0.013 C 
ATOM     13  C   UNL     1       3.427 -30.244   4.951  1.00  0.00     0.017 C 
ATOM     14  C   UNL     1       3.685 -27.728   5.093  1.00  0.00    -0.064 C 
ATOM     15  C   UNL     1       2.691 -26.781   7.173  1.00  0.00     0.032 C 
ATOM     16  C   UNL     1       3.677 -26.715   6.017  1.00  0.00    -0.064 C 
ATOM     17  C   UNL     1       4.724 -27.736   3.997  1.00  0.00     0.032 C 
ATOM     18  C   UNL     1       4.633 -25.476   5.940  1.00  0.00    -0.008 C 
ATOM     19  C   UNL     1       5.150 -26.341   3.594  1.00  0.00     0.009 C 
ATOM     20  C   UNL     1       5.748 -25.607   4.814  1.00  0.00     0.007 C 
ATOM     21  C   UNL     1       3.743 -24.227   5.656  1.00  0.00     0.014 C 
ATOM     22  C   UNL     1       5.308 -25.356   7.335  1.00  0.00     0.016 C 
ATOM     23  C   UNL     1       6.500 -24.251   4.408  1.00  0.00    -0.006 C 
ATOM     24  C   UNL     1       4.526 -22.938   5.401  1.00  0.00     0.033 C 
ATOM     25  C   UNL     1       5.489 -23.079   4.214  1.00  0.00     0.120 C 
ATOM     26  C   UNL     1       7.312 -24.417   3.087  1.00  0.00     0.014 C 
ATOM     27  C   UNL     1       7.569 -23.854   5.478  1.00  0.00     0.014 C 
BRANCH   7  28
ATOM     28  O   UNL     1      -0.620 -29.061   3.452  1.00  0.00    -0.393 OA
ATOM     29  H   UNL     1      -1.223 -29.830   3.282  1.00  0.00     0.210 HD
ENDBRANCH   7  28
BRANCH  25  30
ATOM     30  O   UNL     1       4.745 -23.255   3.032  1.00  0.00    -0.393 OA
ATOM     31  H   UNL     1       5.383 -23.187   2.274  1.00  0.00     0.210 HD
ENDBRANCH  25  30
ENDBRANCH   2   6
ENDBRANCH   1   2
BRANCH   1  32
ATOM     32  C   UNL     1      -1.803 -31.251   8.456  1.00  0.00     0.031 C 
BRANCH  32  33
ATOM     33  C   UNL     1      -0.781 -31.121   9.565  1.00  0.00    -0.075 C 
ATOM     34  C   UNL     1      -0.424 -29.901  10.001  1.00  0.00     0.008 C 
BRANCH  33  35
ATOM     35  C   UNL     1      -0.137 -32.383  10.125  1.00  0.00     0.008 C 
ATOM     36  C   UNL     1      -0.747 -33.652   9.516  1.00  0.00     0.012 C 
ATOM     37  C   UNL     1       1.384 -32.355   9.940  1.00  0.00     0.012 C 
ENDBRANCH  33  35
ENDBRANCH  32  33
ENDBRANCH   1  32
TORSDOF 8
ENDMDL
MODEL 3
REMARK VINA RESULT:    -5.962      3.489      5.611
REMARK INTER + INTRA:         -10.254
REMARK INTER:                  -8.336
REMARK INTRA:                  -1.918
REMARK UNBOUND:                -1.853
REMARK SMILES C=C(CC[C@@H](C(=O)[O-])[C@@H]1[C@@H](O)C[C@@]2(C)C3=C(CC[C@@]12C)[C@]1(C)CC[C@H](O)C(C)(C)[C@@H]1CC3)C(C)C
REMARK SMILES IDX 4 1 5 2 6 3 7 4 8 5 9 6 10 7 19 8 12 9 13 10 18 11 20 12
REMARK SMILES IDX 14 13 15 14 17 15 16 16 32 17 21 18 31 19 30 20 23 21 22 22
REMARK SMILES IDX 27 23 24 24 25 25 28 26 29 27 11 28 26 30 3 32 2 33 1 34
REMARK SMILES IDX 33 35 34 36 35 37
REMARK H PARENT 11 29 26 31
REMARK Flexibility Score: inf
ROOT
ATOM      1  C   UNL     1       0.597 -29.856  10.125  1.00  0.00     0.014 C 
ENDROOT
BRANCH   1   2
ATOM      2  C   UNL     1       0.380 -29.228   8.725  1.00  0.00     0.042 C 
BRANCH   2   3
ATOM      3  C   UNL     1      -0.375 -27.922   8.873  1.00  0.00     0.045 C 
ATOM      4  O   UNL     1      -1.401 -27.711   8.173  1.00  0.00    -0.550 OA
ATOM      5  O   UNL     1      -0.040 -27.002   9.861  1.00  0.00    -0.550 OA
ENDBRANCH   2   3
BRANCH   2   6
ATOM      6  C   UNL     1       1.730 -29.158   7.918  1.00  0.00     0.033 C 
ATOM      7  C   UNL     1       2.327 -27.747   7.764  1.00  0.00     0.119 C 
ATOM      8  C   UNL     1       1.828 -29.854   6.495  1.00  0.00    -0.017 C 
ATOM      9  C   UNL     1       3.116 -27.781   6.463  1.00  0.00     0.043 C 
ATOM     10  C   UNL     1       2.352 -28.729   5.519  1.00  0.00    -0.003 C 
ATOM     11  C   UNL     1       2.894 -30.978   6.593  1.00  0.00     0.012 C 
ATOM     12  C   UNL     1       0.494 -30.503   6.016  1.00  0.00     0.013 C 
ATOM     13  C   UNL     1       1.173 -27.939   4.873  1.00  0.00     0.017 C 
ATOM     14  C   UNL     1       3.315 -29.203   4.392  1.00  0.00    -0.064 C 
ATOM     15  C   UNL     1       3.251 -31.549   5.232  1.00  0.00     0.032 C 
ATOM     16  C   UNL     1       3.783 -30.487   4.282  1.00  0.00    -0.064 C 
ATOM     17  C   UNL     1       3.752 -28.157   3.394  1.00  0.00     0.032 C 
ATOM     18  C   UNL     1       4.855 -30.922   3.225  1.00  0.00    -0.008 C 
ATOM     19  C   UNL     1       5.145 -28.412   2.861  1.00  0.00     0.009 C 
ATOM     20  C   UNL     1       5.192 -29.787   2.162  1.00  0.00     0.007 C 
ATOM     21  C   UNL     1       6.146 -31.306   4.011  1.00  0.00     0.014 C 
ATOM     22  C   UNL     1       4.272 -32.166   2.497  1.00  0.00     0.016 C 
ATOM     23  C   UNL     1       6.532 -29.999   1.309  1.00  0.00    -0.006 C 
ATOM     24  C   UNL     1       7.354 -31.618   3.127  1.00  0.00     0.033 C 
ATOM     25  C   UNL     1       7.720 -30.435   2.219  1.00  0.00     0.120 C 
ATOM     26  C   UNL     1       6.946 -28.696   0.558  1.00  0.00     0.014 C 
ATOM     27  C   UNL     1       6.320 -31.055   0.175  1.00  0.00     0.014 C 
BRANCH   7  28
ATOM     28  O   UNL     1       3.165 -27.435   8.848  1.00  0.00    -0.393 OA
ATOM     29  H   UNL     1       3.160 -26.447   8.937  1.00  0.00     0.210 HD
ENDBRANCH   7  28
BRANCH  25  30
ATOM     30  O   UNL     1       8.159 -29.359   3.014  1.00  0.00    -0.393 OA
ATOM     31  H   UNL     1       7.570 -28.586   2.808  1.00  0.00     0.210 HD
ENDBRANCH  25  30
ENDBRANCH   2   6
ENDBRANCH   1   2
BRANCH   1  32
ATOM     32  C   UNL     1       1.672 -30.969  10.122  1.00  0.00     0.031 C 
BRANCH  32  33
ATOM     33  C   UNL     1       1.050 -32.338   9.949  1.00  0.00    -0.075 C 
ATOM     34  C   UNL     1      -0.278 -32.489  10.092  1.00  0.00     0.008 C 
BRANCH  33  35
ATOM     35  C   UNL     1       1.956 -33.529   9.671  1.00  0.00     0.008 C 
ATOM     36  C   UNL     1       1.714 -34.115   8.274  1.00  0.00     0.012 C 
ATOM     37  C   UNL     1       3.431 -33.160   9.868  1.00  0.00     0.012 C 
ENDBRANCH  33  35
ENDBRANCH  32  33
ENDBRANCH   1  32
TORSDOF 8
ENDMDL
MODEL 4
REMARK VINA RESULT:    -5.957      4.018      5.738
REMARK INTER + INTRA:         -10.248
REMARK INTER:                  -8.472
REMARK INTRA:                  -1.776
REMARK UNBOUND:                -1.853
REMARK SMILES C=C(CC[C@@H](C(=O)[O-])[C@@H]1[C@@H](O)C[C@@]2(C)C3=C(CC[C@@]12C)[C@]1(C)CC[C@H](O)C(C)(C)[C@@H]1CC3)C(C)C
REMARK SMILES IDX 4 1 5 2 6 3 7 4 8 5 9 6 10 7 19 8 12 9 13 10 18 11 20 12
REMARK SMILES IDX 14 13 15 14 17 15 16 16 32 17 21 18 31 19 30 20 23 21 22 22
REMARK SMILES IDX 27 23 24 24 25 25 28 26 29 27 11 28 26 30 3 32 2 33 1 34
REMARK SMILES IDX 33 35 34 36 35 37
REMARK H PARENT 11 29 26 31
REMARK Flexibility Score: inf
ROOT
ATOM      1  C   UNL     1       3.764 -33.504   2.180  1.00  0.00     0.014 C 
ENDROOT
BRANCH   1   2
ATOM      2  C   UNL     1       5.079 -32.897   1.631  1.00  0.00     0.042 C 
BRANCH   2   3
ATOM      3  C   UNL     1       5.441 -33.580   0.327  1.00  0.00     0.045 C 
ATOM      4  O   UNL     1       6.571 -34.125   0.200  1.00  0.00    -0.550 OA
ATOM      5  O   UNL     1       4.505 -33.738  -0.689  1.00  0.00    -0.550 OA
ENDBRANCH   2   3
BRANCH   2   6
ATOM      6  C   UNL     1       5.005 -31.324   1.590  1.00  0.00     0.033 C 
ATOM      7  C   UNL     1       5.582 -30.677   0.317  1.00  0.00     0.119 C 
ATOM      8  C   UNL     1       5.552 -30.483   2.819  1.00  0.00    -0.017 C 
ATOM      9  C   UNL     1       6.065 -29.299   0.747  1.00  0.00     0.043 C 
ATOM     10  C   UNL     1       6.570 -29.450   2.195  1.00  0.00    -0.003 C 
ATOM     11  C   UNL     1       4.353 -29.708   3.428  1.00  0.00     0.012 C 
ATOM     12  C   UNL     1       6.181 -31.351   3.950  1.00  0.00     0.013 C 
ATOM     13  C   UNL     1       8.018 -30.029   2.154  1.00  0.00     0.017 C 
ATOM     14  C   UNL     1       6.609 -28.046   2.865  1.00  0.00    -0.064 C 
ATOM     15  C   UNL     1       4.797 -28.680   4.454  1.00  0.00     0.032 C 
ATOM     16  C   UNL     1       5.760 -27.659   3.868  1.00  0.00    -0.064 C 
ATOM     17  C   UNL     1       7.643 -27.077   2.340  1.00  0.00     0.032 C 
ATOM     18  C   UNL     1       5.719 -26.201   4.444  1.00  0.00    -0.008 C 
ATOM     19  C   UNL     1       7.185 -25.638   2.430  1.00  0.00     0.009 C 
ATOM     20  C   UNL     1       6.894 -25.275   3.902  1.00  0.00     0.007 C 
ATOM     21  C   UNL     1       4.342 -25.588   4.046  1.00  0.00     0.014 C 
ATOM     22  C   UNL     1       5.829 -26.338   5.988  1.00  0.00     0.016 C 
ATOM     23  C   UNL     1       6.705 -23.699   4.122  1.00  0.00    -0.006 C 
ATOM     24  C   UNL     1       4.183 -24.109   4.400  1.00  0.00     0.033 C 
ATOM     25  C   UNL     1       5.264 -23.243   3.737  1.00  0.00     0.120 C 
ATOM     26  C   UNL     1       7.719 -22.875   3.271  1.00  0.00     0.014 C 
ATOM     27  C   UNL     1       7.010 -23.293   5.600  1.00  0.00     0.014 C 
BRANCH   7  28
ATOM     28  O   UNL     1       4.600 -30.572  -0.683  1.00  0.00    -0.393 OA
ATOM     29  H   UNL     1       4.890 -29.844  -1.292  1.00  0.00     0.210 HD
ENDBRANCH   7  28
BRANCH  25  30
ATOM     30  O   UNL     1       5.089 -23.272   2.341  1.00  0.00    -0.393 OA
ATOM     31  H   UNL     1       5.995 -23.264   1.934  1.00  0.00     0.210 HD
ENDBRANCH  25  30
ENDBRANCH   2   6
ENDBRANCH   1   2
BRANCH   1  32
ATOM     32  C   UNL     1       3.925 -34.101   3.598  1.00  0.00     0.031 C 
BRANCH  32  33
ATOM     33  C   UNL     1       2.834 -33.618   4.529  1.00  0.00    -0.075 C 
ATOM     34  C   UNL     1       1.593 -34.123   4.419  1.00  0.00     0.008 C 
BRANCH  33  35
ATOM     35  C   UNL     1       3.157 -32.524   5.538  1.00  0.00     0.008 C 
ATOM     36  C   UNL     1       1.997 -31.531   5.691  1.00  0.00     0.012 C 
ATOM     37  C   UNL     1       3.557 -33.121   6.891  1.00  0.00     0.012 C 
ENDBRANCH  33  35
ENDBRANCH  32  33
ENDBRANCH   1  32
TORSDOF 8
ENDMDL
MODEL 5
REMARK VINA RESULT:    -5.760      2.551      4.879
REMARK INTER + INTRA:          -9.970
REMARK INTER:                  -7.785
REMARK INTRA:                  -2.185
REMARK UNBOUND:                -1.853
REMARK SMILES C=C(CC[C@@H](C(=O)[O-])[C@@H]1[C@@H](O)C[C@@]2(C)C3=C(CC[C@@]12C)[C@]1(C)CC[C@H](O)C(C)(C)[C@@H]1CC3)C(C)C
REMARK SMILES IDX 4 1 5 2 6 3 7 4 8 5 9 6 10 7 19 8 12 9 13 10 18 11 20 12
REMARK SMILES IDX 14 13 15 14 17 15 16 16 32 17 21 18 31 19 30 20 23 21 22 22
REMARK SMILES IDX 27 23 24 24 25 25 28 26 29 27 11 28 26 30 3 32 2 33 1 34
REMARK SMILES IDX 33 35 34 36 35 37
REMARK H PARENT 11 29 26 31
REMARK Flexibility Score: inf
ROOT
ATOM      1  C   UNL     1       0.982 -33.395   8.173  1.00  0.00     0.014 C 
ENDROOT
BRANCH   1   2
ATOM      2  C   UNL     1       0.344 -32.007   7.912  1.00  0.00     0.042 C 
BRANCH   2   3
ATOM      3  C   UNL     1      -0.796 -31.788   8.887  1.00  0.00     0.045 C 
ATOM      4  O   UNL     1      -1.794 -31.102   8.537  1.00  0.00    -0.550 OA
ATOM      5  O   UNL     1      -0.829 -32.437  10.117  1.00  0.00    -0.550 OA
ENDBRANCH   2   3
BRANCH   2   6
ATOM      6  C   UNL     1       1.441 -30.878   7.866  1.00  0.00     0.033 C 
ATOM      7  C   UNL     1       1.505 -29.978   9.114  1.00  0.00     0.119 C 
ATOM      8  C   UNL     1       1.521 -29.917   6.605  1.00  0.00    -0.017 C 
ATOM      9  C   UNL     1       2.031 -28.637   8.620  1.00  0.00     0.043 C 
ATOM     10  C   UNL     1       1.475 -28.454   7.196  1.00  0.00    -0.003 C 
ATOM     11  C   UNL     1       2.898 -30.146   5.926  1.00  0.00     0.012 C 
ATOM     12  C   UNL     1       0.415 -30.179   5.538  1.00  0.00     0.013 C 
ATOM     13  C   UNL     1       0.010 -27.927   7.301  1.00  0.00     0.017 C 
ATOM     14  C   UNL     1       2.336 -27.393   6.450  1.00  0.00    -0.064 C 
ATOM     15  C   UNL     1       3.189 -29.109   4.856  1.00  0.00     0.032 C 
ATOM     16  C   UNL     1       3.174 -27.692   5.408  1.00  0.00    -0.064 C 
ATOM     17  C   UNL     1       2.230 -25.969   6.945  1.00  0.00     0.032 C 
ATOM     18  C   UNL     1       4.136 -26.642   4.752  1.00  0.00    -0.008 C 
ATOM     19  C   UNL     1       3.519 -25.198   6.765  1.00  0.00     0.009 C 
ATOM     20  C   UNL     1       3.897 -25.156   5.269  1.00  0.00     0.007 C 
ATOM     21  C   UNL     1       5.594 -27.085   5.083  1.00  0.00     0.014 C 
ATOM     22  C   UNL     1       3.881 -26.711   3.220  1.00  0.00     0.016 C 
ATOM     23  C   UNL     1       5.069 -24.107   4.959  1.00  0.00    -0.006 C 
ATOM     24  C   UNL     1       6.671 -26.092   4.645  1.00  0.00     0.033 C 
ATOM     25  C   UNL     1       6.469 -24.711   5.284  1.00  0.00     0.120 C 
ATOM     26  C   UNL     1       4.899 -22.796   5.786  1.00  0.00     0.014 C 
ATOM     27  C   UNL     1       5.028 -23.639   3.468  1.00  0.00     0.014 C 
BRANCH   7  28
ATOM     28  O   UNL     1       2.364 -30.524  10.084  1.00  0.00    -0.393 OA
ATOM     29  H   UNL     1       3.286 -30.443   9.727  1.00  0.00     0.210 HD
ENDBRANCH   7  28
BRANCH  25  30
ATOM     30  O   UNL     1       6.657 -24.812   6.676  1.00  0.00    -0.393 OA
ATOM     31  H   UNL     1       7.351 -24.146   6.925  1.00  0.00     0.210 HD
ENDBRANCH  25  30
ENDBRANCH   2   6
ENDBRANCH   1   2
BRANCH   1  32
ATOM     32  C   UNL     1       1.383 -34.125   6.869  1.00  0.00     0.031 C 
BRANCH  32  33
ATOM     33  C   UNL     1       2.854 -33.944   6.564  1.00  0.00    -0.075 C 
ATOM     34  C   UNL     1       3.720 -33.725   7.568  1.00  0.00     0.008 C 
BRANCH  33  35
ATOM     35  C   UNL     1       3.312 -33.960   5.112  1.00  0.00     0.008 C 
ATOM     36  C   UNL     1       2.276 -33.317   4.180  1.00  0.00     0.012 C 
ATOM     37  C   UNL     1       4.684 -33.292   4.958  1.00  0.00     0.012 C 
ENDBRANCH  33  35
ENDBRANCH  32  33
ENDBRANCH   1  32
TORSDOF 8
ENDMDL
MODEL 6
REMARK VINA RESULT:    -5.728      4.390      6.762
REMARK INTER + INTRA:          -9.925
REMARK INTER:                  -7.922
REMARK INTRA:                  -2.003
REMARK UNBOUND:                -1.853
REMARK SMILES C=C(CC[C@@H](C(=O)[O-])[C@@H]1[C@@H](O)C[C@@]2(C)C3=C(CC[C@@]12C)[C@]1(C)CC[C@H](O)C(C)(C)[C@@H]1CC3)C(C)C
REMARK SMILES IDX 4 1 5 2 6 3 7 4 8 5 9 6 10 7 19 8 12 9 13 10 18 11 20 12
REMARK SMILES IDX 14 13 15 14 17 15 16 16 32 17 21 18 31 19 30 20 23 21 22 22
REMARK SMILES IDX 27 23 24 24 25 25 28 26 29 27 11 28 26 30 3 32 2 33 1 34
REMARK SMILES IDX 33 35 34 36 35 37
REMARK H PARENT 11 29 26 31
REMARK Flexibility Score: inf
ROOT
ATOM      1  C   UNL     1       6.623 -32.944   1.686  1.00  0.00     0.014 C 
ENDROOT
BRANCH   1   2
ATOM      2  C   UNL     1       7.376 -31.733   1.080  1.00  0.00     0.042 C 
BRANCH   2   3
ATOM      3  C   UNL     1       7.638 -31.989  -0.391  1.00  0.00     0.045 C 
ATOM      4  O   UNL     1       8.821 -31.990  -0.824  1.00  0.00    -0.550 OA
ATOM      5  O   UNL     1       6.611 -32.358  -1.253  1.00  0.00    -0.550 OA
ENDBRANCH   2   3
BRANCH   2   6
ATOM      6  C   UNL     1       6.648 -30.380   1.427  1.00  0.00     0.033 C 
ATOM      7  C   UNL     1       6.620 -29.343   0.289  1.00  0.00     0.119 C 
ATOM      8  C   UNL     1       7.041 -29.596   2.749  1.00  0.00    -0.017 C 
ATOM      9  C   UNL     1       6.565 -27.987   0.977  1.00  0.00     0.043 C 
ATOM     10  C   UNL     1       7.380 -28.129   2.277  1.00  0.00    -0.003 C 
ATOM     11  C   UNL     1       5.786 -29.558   3.663  1.00  0.00     0.012 C 
ATOM     12  C   UNL     1       8.198 -30.259   3.557  1.00  0.00     0.013 C 
ATOM     13  C   UNL     1       8.893 -27.976   1.930  1.00  0.00     0.017 C 
ATOM     14  C   UNL     1       6.972 -26.989   3.255  1.00  0.00    -0.064 C 
ATOM     15  C   UNL     1       5.968 -28.624   4.846  1.00  0.00     0.032 C 
ATOM     16  C   UNL     1       6.271 -27.197   4.414  1.00  0.00    -0.064 C 
ATOM     17  C   UNL     1       7.373 -25.587   2.861  1.00  0.00     0.032 C 
ATOM     18  C   UNL     1       5.751 -26.031   5.324  1.00  0.00    -0.008 C 
ATOM     19  C   UNL     1       6.389 -24.546   3.347  1.00  0.00     0.009 C 
ATOM     20  C   UNL     1       6.291 -24.600   4.887  1.00  0.00     0.007 C 
ATOM     21  C   UNL     1       4.193 -26.051   5.249  1.00  0.00     0.014 C 
ATOM     22  C   UNL     1       6.231 -26.354   6.767  1.00  0.00     0.016 C 
ATOM     23  C   UNL     1       5.514 -23.339   5.499  1.00  0.00    -0.006 C 
ATOM     24  C   UNL     1       3.512 -24.883   5.963  1.00  0.00     0.033 C 
ATOM     25  C   UNL     1       3.969 -23.527   5.406  1.00  0.00     0.120 C 
ATOM     26  C   UNL     1       5.889 -22.019   4.759  1.00  0.00     0.014 C 
ATOM     27  C   UNL     1       5.927 -23.087   6.985  1.00  0.00     0.014 C 
BRANCH   7  28
ATOM     28  O   UNL     1       5.497 -29.531  -0.536  1.00  0.00    -0.393 OA
ATOM     29  H   UNL     1       5.549 -30.458  -0.883  1.00  0.00     0.210 HD
ENDBRANCH   7  28
BRANCH  25  30
ATOM     30  O   UNL     1       3.531 -23.402   4.074  1.00  0.00    -0.393 OA
ATOM     31  H   UNL     1       2.590 -23.719   4.047  1.00  0.00     0.210 HD
ENDBRANCH  25  30
ENDBRANCH   2   6
ENDBRANCH   1   2
BRANCH   1  32
ATOM     32  C   UNL     1       5.133 -32.642   1.970  1.00  0.00     0.031 C 
BRANCH  32  33
ATOM     33  C   UNL     1       4.755 -33.008   3.389  1.00  0.00    -0.075 C 
ATOM     34  C   UNL     1       5.549 -33.827   4.099  1.00  0.00     0.008 C 
BRANCH  33  35
ATOM     35  C   UNL     1       3.447 -32.479   3.962  1.00  0.00     0.008 C 
ATOM     36  C   UNL     1       3.625 -31.944   5.389  1.00  0.00     0.012 C 
ATOM     37  C   UNL     1       2.830 -31.417   3.045  1.00  0.00     0.012 C 
ENDBRANCH  33  35
ENDBRANCH  32  33
ENDBRANCH   1  32
TORSDOF 8
ENDMDL
MODEL 7
REMARK VINA RESULT:    -5.698      3.838      6.963
REMARK INTER + INTRA:          -9.883
REMARK INTER:                  -7.792
REMARK INTRA:                  -2.090
REMARK UNBOUND:                -1.853
REMARK SMILES C=C(CC[C@@H](C(=O)[O-])[C@@H]1[C@@H](O)C[C@@]2(C)C3=C(CC[C@@]12C)[C@]1(C)CC[C@H](O)C(C)(C)[C@@H]1CC3)C(C)C
REMARK SMILES IDX 4 1 5 2 6 3 7 4 8 5 9 6 10 7 19 8 12 9 13 10 18 11 20 12
REMARK SMILES IDX 14 13 15 14 17 15 16 16 32 17 21 18 31 19 30 20 23 21 22 22
REMARK SMILES IDX 27 23 24 24 25 25 28 26 29 27 11 28 26 30 3 32 2 33 1 34
REMARK SMILES IDX 33 35 34 36 35 37
REMARK H PARENT 11 29 26 31
REMARK Flexibility Score: inf
ROOT
ATOM      1  C   UNL     1       2.690 -26.607   7.727  1.00  0.00     0.014 C 
ENDROOT
BRANCH   1   2
ATOM      2  C   UNL     1       3.304 -26.142   6.383  1.00  0.00     0.042 C 
BRANCH   2   3
ATOM      3  C   UNL     1       3.896 -24.756   6.554  1.00  0.00     0.045 C 
ATOM      4  O   UNL     1       4.556 -24.482   7.592  1.00  0.00    -0.550 OA
ATOM      5  O   UNL     1       3.843 -23.818   5.529  1.00  0.00    -0.550 OA
ENDBRANCH   2   3
BRANCH   2   6
ATOM      6  C   UNL     1       4.270 -27.237   5.791  1.00  0.00     0.033 C 
ATOM      7  C   UNL     1       5.729 -26.786   5.600  1.00  0.00     0.119 C 
ATOM      8  C   UNL     1       3.855 -28.014   4.471  1.00  0.00    -0.017 C 
ATOM      9  C   UNL     1       6.264 -27.621   4.445  1.00  0.00     0.043 C 
ATOM     10  C   UNL     1       5.077 -27.843   3.487  1.00  0.00    -0.003 C 
ATOM     11  C   UNL     1       3.705 -29.515   4.837  1.00  0.00     0.012 C 
ATOM     12  C   UNL     1       2.504 -27.538   3.854  1.00  0.00     0.013 C 
ATOM     13  C   UNL     1       4.919 -26.573   2.596  1.00  0.00     0.017 C 
ATOM     14  C   UNL     1       5.388 -29.062   2.572  1.00  0.00    -0.064 C 
ATOM     15  C   UNL     1       3.552 -30.392   3.607  1.00  0.00     0.032 C 
ATOM     16  C   UNL     1       4.731 -30.262   2.656  1.00  0.00    -0.064 C 
ATOM     17  C   UNL     1       6.495 -28.881   1.560  1.00  0.00     0.032 C 
ATOM     18  C   UNL     1       5.141 -31.525   1.822  1.00  0.00    -0.008 C 
ATOM     19  C   UNL     1       7.234 -30.169   1.274  1.00  0.00     0.009 C 
ATOM     20  C   UNL     1       6.250 -31.223   0.722  1.00  0.00     0.007 C 
ATOM     21  C   UNL     1       5.675 -32.588   2.830  1.00  0.00     0.014 C 
ATOM     22  C   UNL     1       3.844 -32.033   1.131  1.00  0.00     0.016 C 
ATOM     23  C   UNL     1       6.998 -32.502   0.109  1.00  0.00    -0.006 C 
ATOM     24  C   UNL     1       6.261 -33.840   2.176  1.00  0.00     0.033 C 
ATOM     25  C   UNL     1       7.421 -33.501   1.229  1.00  0.00     0.120 C 
ATOM     26  C   UNL     1       8.275 -32.093  -0.687  1.00  0.00     0.014 C 
ATOM     27  C   UNL     1       6.099 -33.234  -0.939  1.00  0.00     0.014 C 
BRANCH   7  28
ATOM     28  O   UNL     1       6.482 -27.009   6.766  1.00  0.00    -0.393 OA
ATOM     29  H   UNL     1       7.324 -26.495   6.665  1.00  0.00     0.210 HD
ENDBRANCH   7  28
BRANCH  25  30
ATOM     30  O   UNL     1       8.494 -32.984   1.978  1.00  0.00    -0.393 OA
ATOM     31  H   UNL     1       8.830 -33.721   2.554  1.00  0.00     0.210 HD
ENDBRANCH  25  30
ENDBRANCH   2   6
ENDBRANCH   1   2
BRANCH   1  32
ATOM     32  C   UNL     1       1.228 -27.091   7.582  1.00  0.00     0.031 C 
BRANCH  32  33
ATOM     33  C   UNL     1       1.159 -28.592   7.401  1.00  0.00    -0.075 C 
ATOM     34  C   UNL     1       0.335 -29.114   6.475  1.00  0.00     0.008 C 
BRANCH  33  35
ATOM     35  C   UNL     1       1.988 -29.484   8.315  1.00  0.00     0.008 C 
ATOM     36  C   UNL     1       1.490 -29.434   9.765  1.00  0.00     0.012 C 
ATOM     37  C   UNL     1       2.029 -30.925   7.793  1.00  0.00     0.012 C 
ENDBRANCH  33  35
ENDBRANCH  32  33
ENDBRANCH   1  32
TORSDOF 8
ENDMDL
MODEL 8
REMARK VINA RESULT:    -5.681      4.923      8.467
REMARK INTER + INTRA:          -9.859
REMARK INTER:                  -8.134
REMARK INTRA:                  -1.724
REMARK UNBOUND:                -1.853
REMARK SMILES C=C(CC[C@@H](C(=O)[O-])[C@@H]1[C@@H](O)C[C@@]2(C)C3=C(CC[C@@]12C)[C@]1(C)CC[C@H](O)C(C)(C)[C@@H]1CC3)C(C)C
REMARK SMILES IDX 4 1 5 2 6 3 7 4 8 5 9 6 10 7 19 8 12 9 13 10 18 11 20 12
REMARK SMILES IDX 14 13 15 14 17 15 16 16 32 17 21 18 31 19 30 20 23 21 22 22
REMARK SMILES IDX 27 23 24 24 25 25 28 26 29 27 11 28 26 30 3 32 2 33 1 34
REMARK SMILES IDX 33 35 34 36 35 37
REMARK H PARENT 11 29 26 31
REMARK Flexibility Score: inf
ROOT
ATOM      1  C   UNL     1       8.707 -32.330   0.455  1.00  0.00     0.014 C 
ENDROOT
BRANCH   1   2
ATOM      2  C   UNL     1       7.369 -31.896   1.103  1.00  0.00     0.042 C 
BRANCH   2   3
ATOM      3  C   UNL     1       6.721 -33.094   1.769  1.00  0.00     0.045 C 
ATOM      4  O   UNL     1       5.468 -33.228   1.733  1.00  0.00    -0.550 OA
ATOM      5  O   UNL     1       7.487 -34.124   2.305  1.00  0.00    -0.550 OA
ENDBRANCH   2   3
BRANCH   2   6
ATOM      6  C   UNL     1       7.563 -30.623   2.010  1.00  0.00     0.033 C 
ATOM      7  C   UNL     1       7.765 -30.914   3.509  1.00  0.00     0.119 C 
ATOM      8  C   UNL     1       6.525 -29.427   1.912  1.00  0.00    -0.017 C 
ATOM      9  C   UNL     1       7.228 -29.689   4.235  1.00  0.00     0.043 C 
ATOM     10  C   UNL     1       6.044 -29.173   3.394  1.00  0.00    -0.003 C 
ATOM     11  C   UNL     1       7.294 -28.177   1.407  1.00  0.00     0.012 C 
ATOM     12  C   UNL     1       5.346 -29.691   0.926  1.00  0.00     0.013 C 
ATOM     13  C   UNL     1       4.785 -30.024   3.740  1.00  0.00     0.017 C 
ATOM     14  C   UNL     1       5.766 -27.689   3.772  1.00  0.00    -0.064 C 
ATOM     15  C   UNL     1       6.461 -26.912   1.508  1.00  0.00     0.032 C 
ATOM     16  C   UNL     1       6.008 -26.633   2.933  1.00  0.00    -0.064 C 
ATOM     17  C   UNL     1       5.216 -27.437   5.157  1.00  0.00     0.032 C 
ATOM     18  C   UNL     1       5.849 -25.135   3.370  1.00  0.00    -0.008 C 
ATOM     19  C   UNL     1       5.663 -26.108   5.723  1.00  0.00     0.009 C 
ATOM     20  C   UNL     1       5.184 -24.963   4.805  1.00  0.00     0.007 C 
ATOM     21  C   UNL     1       7.275 -24.505   3.372  1.00  0.00     0.014 C 
ATOM     22  C   UNL     1       4.956 -24.457   2.293  1.00  0.00     0.016 C 
ATOM     23  C   UNL     1       5.345 -23.520   5.485  1.00  0.00    -0.006 C 
ATOM     24  C   UNL     1       7.334 -23.078   3.918  1.00  0.00     0.033 C 
ATOM     25  C   UNL     1       6.807 -22.994   5.358  1.00  0.00     0.120 C 
ATOM     26  C   UNL     1       4.968 -23.553   6.998  1.00  0.00     0.014 C 
ATOM     27  C   UNL     1       4.355 -22.486   4.856  1.00  0.00     0.014 C 
BRANCH   7  28
ATOM     28  O   UNL     1       9.125 -31.112   3.804  1.00  0.00    -0.393 OA
ATOM     29  H   UNL     1       9.574 -30.236   3.684  1.00  0.00     0.210 HD
ENDBRANCH   7  28
BRANCH  25  30
ATOM     30  O   UNL     1       7.670 -23.712   6.209  1.00  0.00    -0.393 OA
ATOM     31  H   UNL     1       8.132 -24.390   5.649  1.00  0.00     0.210 HD
ENDBRANCH  25  30
ENDBRANCH   2   6
ENDBRANCH   1   2
BRANCH   1  32
ATOM     32  C   UNL     1       8.583 -32.582  -1.066  1.00  0.00     0.031 C 
BRANCH  32  33
ATOM     33  C   UNL     1       8.273 -31.304  -1.814  1.00  0.00    -0.075 C 
ATOM     34  C   UNL     1       8.925 -30.172  -1.497  1.00  0.00     0.008 C 
BRANCH  33  35
ATOM     35  C   UNL     1       7.183 -31.318  -2.878  1.00  0.00     0.008 C 
ATOM     36  C   UNL     1       7.443 -32.388  -3.946  1.00  0.00     0.012 C 
ATOM     37  C   UNL     1       5.797 -31.492  -2.247  1.00  0.00     0.012 C 
ENDBRANCH  33  35
ENDBRANCH  32  33
ENDBRANCH   1  32
TORSDOF 8
ENDMDL
MODEL 9
REMARK VINA RESULT:    -5.666      2.403      5.368
REMARK INTER + INTRA:          -9.838
REMARK INTER:                  -7.756
REMARK INTRA:                  -2.082
REMARK UNBOUND:                -1.853
REMARK SMILES C=C(CC[C@@H](C(=O)[O-])[C@@H]1[C@@H](O)C[C@@]2(C)C3=C(CC[C@@]12C)[C@]1(C)CC[C@H](O)C(C)(C)[C@@H]1CC3)C(C)C
REMARK SMILES IDX 4 1 5 2 6 3 7 4 8 5 9 6 10 7 19 8 12 9 13 10 18 11 20 12
REMARK SMILES IDX 14 13 15 14 17 15 16 16 32 17 21 18 31 19 30 20 23 21 22 22
REMARK SMILES IDX 27 23 24 24 25 25 28 26 29 27 11 28 26 30 3 32 2 33 1 34
REMARK SMILES IDX 33 35 34 36 35 37
REMARK H PARENT 11 29 26 31
REMARK Flexibility Score: inf
ROOT
ATOM      1  C   UNL     1       2.088 -33.354   4.262  1.00  0.00     0.014 C 
ENDROOT
BRANCH   1   2
ATOM      2  C   UNL     1       1.327 -32.206   4.972  1.00  0.00     0.042 C 
BRANCH   2   3
ATOM      3  C   UNL     1       0.414 -32.790   6.033  1.00  0.00     0.045 C 
ATOM      4  O   UNL     1       0.846 -33.690   6.802  1.00  0.00    -0.550 OA
ATOM      5  O   UNL     1      -0.851 -32.261   6.267  1.00  0.00    -0.550 OA
ENDBRANCH   2   3
BRANCH   2   6
ATOM      6  C   UNL     1       2.318 -31.082   5.457  1.00  0.00     0.033 C 
ATOM      7  C   UNL     1       2.344 -30.846   6.979  1.00  0.00     0.119 C 
ATOM      8  C   UNL     1       2.272 -29.651   4.774  1.00  0.00    -0.017 C 
ATOM      9  C   UNL     1       2.733 -29.385   7.156  1.00  0.00     0.043 C 
ATOM     10  C   UNL     1       2.117 -28.627   5.965  1.00  0.00    -0.003 C 
ATOM     11  C   UNL     1       3.642 -29.418   4.080  1.00  0.00     0.012 C 
ATOM     12  C   UNL     1       1.160 -29.502   3.692  1.00  0.00     0.013 C 
ATOM     13  C   UNL     1       0.616 -28.344   6.282  1.00  0.00     0.017 C 
ATOM     14  C   UNL     1       2.858 -27.269   5.793  1.00  0.00    -0.064 C 
ATOM     15  C   UNL     1       3.805 -27.986   3.602  1.00  0.00     0.032 C 
ATOM     16  C   UNL     1       3.685 -26.982   4.739  1.00  0.00    -0.064 C 
ATOM     17  C   UNL     1       2.643 -26.242   6.881  1.00  0.00     0.032 C 
ATOM     18  C   UNL     1       4.529 -25.664   4.643  1.00  0.00    -0.008 C 
ATOM     19  C   UNL     1       3.853 -25.357   7.086  1.00  0.00     0.009 C 
ATOM     20  C   UNL     1       4.177 -24.605   5.777  1.00  0.00     0.007 C 
ATOM     21  C   UNL     1       6.030 -26.072   4.752  1.00  0.00     0.014 C 
ATOM     22  C   UNL     1       4.231 -25.054   3.245  1.00  0.00     0.016 C 
ATOM     23  C   UNL     1       5.241 -23.426   5.992  1.00  0.00    -0.006 C 
ATOM     24  C   UNL     1       7.001 -24.893   4.826  1.00  0.00     0.033 C 
ATOM     25  C   UNL     1       6.699 -23.978   6.022  1.00  0.00     0.120 C 
ATOM     26  C   UNL     1       4.984 -22.656   7.323  1.00  0.00     0.014 C 
ATOM     27  C   UNL     1       5.112 -22.338   4.877  1.00  0.00     0.014 C 
BRANCH   7  28
ATOM     28  O   UNL     1       3.278 -31.690   7.603  1.00  0.00    -0.393 OA
ATOM     29  H   UNL     1       2.762 -32.307   8.184  1.00  0.00     0.210 HD
ENDBRANCH   7  28
BRANCH  25  30
ATOM     30  O   UNL     1       6.940 -24.683   7.217  1.00  0.00    -0.393 OA
ATOM     31  H   UNL     1       7.749 -25.240   7.067  1.00  0.00     0.210 HD
ENDBRANCH  25  30
ENDBRANCH   2   6
ENDBRANCH   1   2
BRANCH   1  32
ATOM     32  C   UNL     1       3.619 -33.275   4.468  1.00  0.00     0.031 C 
BRANCH  32  33
ATOM     33  C   UNL     1       4.329 -32.885   3.189  1.00  0.00    -0.075 C 
ATOM     34  C   UNL     1       5.629 -32.544   3.226  1.00  0.00     0.008 C 
BRANCH  33  35
ATOM     35  C   UNL     1       3.535 -32.835   1.891  1.00  0.00     0.008 C 
ATOM     36  C   UNL     1       3.779 -31.529   1.123  1.00  0.00     0.012 C 
ATOM     37  C   UNL     1       3.832 -34.057   1.014  1.00  0.00     0.012 C 
ENDBRANCH  33  35
ENDBRANCH  32  33
ENDBRANCH   1  32
TORSDOF 8
ENDMDL
