MODEL 1
REMARK VINA RESULT:    -4.265      0.000      0.000
REMARK INTER + INTRA:          -9.728
REMARK INTER:                  -7.756
REMARK INTRA:                  -1.973
REMARK UNBOUND:                -1.973
REMARK SMILES CCCCCCCCCCCCCC[C@@H](C)C(=O)[O-]
REMARK SMILES IDX 9 1 10 2 11 3 12 4 13 5 14 6 15 7 16 8 17 9 18 10 19 11 8 12
REMARK SMILES IDX 7 13 6 14 5 15 4 16 3 17 2 18 1 19
REMARK H PARENT
REMARK Flexibility Score: inf
ROOT
ATOM      1  C   UNL     1      43.761  13.236  24.090  1.00  0.00     0.000 C 
ENDROOT
BRANCH   1   2
ATOM      2  C   UNL     1      45.184  13.470  23.551  1.00  0.00     0.000 C 
BRANCH   2   3
ATOM      3  C   UNL     1      45.865  12.172  23.085  1.00  0.00     0.000 C 
BRANCH   3   4
ATOM      4  C   UNL     1      45.674  11.913  21.581  1.00  0.00     0.000 C 
BRANCH   4   5
ATOM      5  C   UNL     1      45.468  10.421  21.265  1.00  0.00     0.001 C 
BRANCH   5   6
ATOM      6  C   UNL     1      44.118   9.891  21.787  1.00  0.00     0.009 C 
BRANCH   6   7
ATOM      7  C   UNL     1      44.226   8.607  22.640  1.00  0.00     0.032 C 
ATOM      8  C   UNL     1      45.505   7.807  22.355  1.00  0.00     0.014 C 
BRANCH   7   9
ATOM      9  C   UNL     1      44.060   8.898  24.108  1.00  0.00     0.044 C 
ATOM     10  O   UNL     1      43.351   9.862  24.501  1.00  0.00    -0.550 OA
ATOM     11  O   UNL     1      44.649   8.059  25.046  1.00  0.00    -0.550 OA
ENDBRANCH   7   9
ENDBRANCH   6   7
ENDBRANCH   5   6
ENDBRANCH   4   5
ENDBRANCH   3   4
ENDBRANCH   2   3
ENDBRANCH   1   2
BRANCH   1  12
ATOM     12  C   UNL     1      42.715  13.140  22.968  1.00  0.00     0.000 C 
BRANCH  12  13
ATOM     13  C   UNL     1      41.556  14.134  23.157  1.00  0.00    -0.000 C 
BRANCH  13  14
ATOM     14  C   UNL     1      41.965  15.585  22.857  1.00  0.00    -0.000 C 
BRANCH  14  15
ATOM     15  C   UNL     1      41.728  15.975  21.390  1.00  0.00    -0.000 C 
BRANCH  15  16
ATOM     16  C   UNL     1      42.942  16.722  20.817  1.00  0.00    -0.000 C 
BRANCH  16  17
ATOM     17  C   UNL     1      44.264  15.958  21.014  1.00  0.00    -0.000 C 
BRANCH  17  18
ATOM     18  C   UNL     1      45.445  16.822  21.495  1.00  0.00    -0.003 C 
ATOM     19  C   UNL     1      45.420  17.084  23.000  1.00  0.00     0.004 C 
ENDBRANCH  17  18
ENDBRANCH  16  17
ENDBRANCH  15  16
ENDBRANCH  14  15
ENDBRANCH  13  14
ENDBRANCH  12  13
ENDBRANCH   1  12
TORSDOF 14
ENDMDL
MODEL 2
REMARK VINA RESULT:    -4.220      2.704      6.608
REMARK INTER + INTRA:          -9.646
REMARK INTER:                  -7.374
REMARK INTRA:                  -2.272
REMARK UNBOUND:                -1.973
REMARK SMILES CCCCCCCCCCCCCC[C@@H](C)C(=O)[O-]
REMARK SMILES IDX 9 1 10 2 11 3 12 4 13 5 14 6 15 7 16 8 17 9 18 10 19 11 8 12
REMARK SMILES IDX 7 13 6 14 5 15 4 16 3 17 2 18 1 19
REMARK H PARENT
REMARK Flexibility Score: inf
ROOT
ATOM      1  C   UNL     1      42.798  11.276  24.217  1.00  0.00     0.000 C 
ENDROOT
BRANCH   1   2
ATOM      2  C   UNL     1      41.807  11.953  25.181  1.00  0.00     0.000 C 
BRANCH   2   3
ATOM      3  C   UNL     1      40.975  13.054  24.501  1.00  0.00     0.000 C 
BRANCH   3   4
ATOM      4  C   UNL     1      41.335  13.236  23.017  1.00  0.00     0.000 C 
BRANCH   4   5
ATOM      5  C   UNL     1      41.508  14.715  22.633  1.00  0.00     0.001 C 
BRANCH   5   6
ATOM      6  C   UNL     1      42.927  15.239  22.935  1.00  0.00     0.009 C 
BRANCH   6   7
ATOM      7  C   UNL     1      43.750  15.607  21.681  1.00  0.00     0.032 C 
ATOM      8  C   UNL     1      43.030  16.609  20.766  1.00  0.00     0.014 C 
BRANCH   7   9
ATOM      9  C   UNL     1      45.137  16.072  22.041  1.00  0.00     0.044 C 
ATOM     10  O   UNL     1      46.120  15.285  21.978  1.00  0.00    -0.550 OA
ATOM     11  O   UNL     1      45.347  17.399  22.392  1.00  0.00    -0.550 OA
ENDBRANCH   7   9
ENDBRANCH   6   7
ENDBRANCH   5   6
ENDBRANCH   4   5
ENDBRANCH   3   4
ENDBRANCH   2   3
ENDBRANCH   1   2
BRANCH   1  12
ATOM     12  C   UNL     1      44.264  11.523  24.611  1.00  0.00     0.000 C 
BRANCH  12  13
ATOM     13  C   UNL     1      45.073  12.187  23.482  1.00  0.00    -0.000 C 
BRANCH  13  14
ATOM     14  C   UNL     1      44.547  11.824  22.084  1.00  0.00    -0.000 C 
BRANCH  14  15
ATOM     15  C   UNL     1      45.357  10.700  21.421  1.00  0.00    -0.000 C 
BRANCH  15  16
ATOM     16  C   UNL     1      44.446   9.530  21.019  1.00  0.00    -0.000 C 
BRANCH  16  17
ATOM     17  C   UNL     1      44.477   8.369  22.031  1.00  0.00    -0.000 C 
BRANCH  17  18
ATOM     18  C   UNL     1      45.843   8.129  22.699  1.00  0.00    -0.003 C 
ATOM     19  C   UNL     1      45.752   8.001  24.218  1.00  0.00     0.004 C 
ENDBRANCH  17  18
ENDBRANCH  16  17
ENDBRANCH  15  16
ENDBRANCH  14  15
ENDBRANCH  13  14
ENDBRANCH  12  13
ENDBRANCH   1  12
TORSDOF 14
ENDMDL
MODEL 3
REMARK VINA RESULT:    -4.140      1.874      6.289
REMARK INTER + INTRA:          -9.502
REMARK INTER:                  -7.605
REMARK INTRA:                  -1.896
REMARK UNBOUND:                -1.973
REMARK SMILES CCCCCCCCCCCCCC[C@@H](C)C(=O)[O-]
REMARK SMILES IDX 9 1 10 2 11 3 12 4 13 5 14 6 15 7 16 8 17 9 18 10 19 11 8 12
REMARK SMILES IDX 7 13 6 14 5 15 4 16 3 17 2 18 1 19
REMARK H PARENT
REMARK Flexibility Score: inf
ROOT
ATOM      1  C   UNL     1      45.726  13.534  22.121  1.00  0.00     0.000 C 
ENDROOT
BRANCH   1   2
ATOM      2  C   UNL     1      45.549  14.592  21.017  1.00  0.00     0.000 C 
BRANCH   2   3
ATOM      3  C   UNL     1      45.746  16.028  21.532  1.00  0.00     0.000 C 
BRANCH   3   4
ATOM      4  C   UNL     1      44.413  16.748  21.797  1.00  0.00     0.000 C 
BRANCH   4   5
ATOM      5  C   UNL     1      43.274  16.219  20.910  1.00  0.00     0.001 C 
BRANCH   5   6
ATOM      6  C   UNL     1      41.976  15.971  21.705  1.00  0.00     0.009 C 
BRANCH   6   7
ATOM      7  C   UNL     1      42.151  15.064  22.943  1.00  0.00     0.032 C 
ATOM      8  C   UNL     1      41.718  15.746  24.249  1.00  0.00     0.014 C 
BRANCH   7   9
ATOM      9  C   UNL     1      41.478  13.729  22.756  1.00  0.00     0.044 C 
ATOM     10  O   UNL     1      40.642  13.550  21.830  1.00  0.00    -0.550 OA
ATOM     11  O   UNL     1      41.823  12.664  23.577  1.00  0.00    -0.550 OA
ENDBRANCH   7   9
ENDBRANCH   6   7
ENDBRANCH   5   6
ENDBRANCH   4   5
ENDBRANCH   3   4
ENDBRANCH   2   3
ENDBRANCH   1   2
BRANCH   1  12
ATOM     12  C   UNL     1      44.883  12.274  21.868  1.00  0.00     0.000 C 
BRANCH  12  13
ATOM     13  C   UNL     1      45.744  11.058  21.481  1.00  0.00    -0.000 C 
BRANCH  13  14
ATOM     14  C   UNL     1      44.899   9.839  21.074  1.00  0.00    -0.000 C 
BRANCH  14  15
ATOM     15  C   UNL     1      45.406   8.532  21.702  1.00  0.00    -0.000 C 
BRANCH  15  16
ATOM     16  C   UNL     1      45.445   8.637  23.233  1.00  0.00    -0.000 C 
BRANCH  16  17
ATOM     17  C   UNL     1      44.045   8.746  23.864  1.00  0.00    -0.000 C 
BRANCH  17  18
ATOM     18  C   UNL     1      43.842   9.965  24.783  1.00  0.00    -0.003 C 
ATOM     19  C   UNL     1      45.156  10.618  25.209  1.00  0.00     0.004 C 
ENDBRANCH  17  18
ENDBRANCH  16  17
ENDBRANCH  15  16
ENDBRANCH  14  15
ENDBRANCH  13  14
ENDBRANCH  12  13
ENDBRANCH   1  12
TORSDOF 14
ENDMDL
MODEL 4
REMARK VINA RESULT:    -4.106      2.593      6.655
REMARK INTER + INTRA:          -9.439
REMARK INTER:                  -7.285
REMARK INTRA:                  -2.154
REMARK UNBOUND:                -1.973
REMARK SMILES CCCCCCCCCCCCCC[C@@H](C)C(=O)[O-]
REMARK SMILES IDX 9 1 10 2 11 3 12 4 13 5 14 6 15 7 16 8 17 9 18 10 19 11 8 12
REMARK SMILES IDX 7 13 6 14 5 15 4 16 3 17 2 18 1 19
REMARK H PARENT
REMARK Flexibility Score: inf
ROOT
ATOM      1  C   UNL     1      43.950   9.757  21.465  1.00  0.00     0.000 C 
ENDROOT
BRANCH   1   2
ATOM      2  C   UNL     1      45.355  10.284  21.123  1.00  0.00     0.000 C 
BRANCH   2   3
ATOM      3  C   UNL     1      45.759  11.498  21.976  1.00  0.00     0.000 C 
BRANCH   3   4
ATOM      4  C   UNL     1      44.723  12.634  21.916  1.00  0.00     0.000 C 
BRANCH   4   5
ATOM      5  C   UNL     1      45.363  14.021  22.099  1.00  0.00     0.001 C 
BRANCH   5   6
ATOM      6  C   UNL     1      44.405  15.025  22.772  1.00  0.00     0.009 C 
BRANCH   6   7
ATOM      7  C   UNL     1      43.820  16.086  21.813  1.00  0.00     0.032 C 
ATOM      8  C   UNL     1      44.514  16.100  20.443  1.00  0.00     0.014 C 
BRANCH   7   9
ATOM      9  C   UNL     1      42.325  15.955  21.684  1.00  0.00     0.044 C 
ATOM     10  O   UNL     1      41.652  16.810  21.047  1.00  0.00    -0.550 OA
ATOM     11  O   UNL     1      41.683  14.849  22.225  1.00  0.00    -0.550 OA
ENDBRANCH   7   9
ENDBRANCH   6   7
ENDBRANCH   5   6
ENDBRANCH   4   5
ENDBRANCH   3   4
ENDBRANCH   2   3
ENDBRANCH   1   2
BRANCH   1  12
ATOM     12  C   UNL     1      43.985   8.363  22.111  1.00  0.00     0.000 C 
BRANCH  12  13
ATOM     13  C   UNL     1      45.420   7.870  22.371  1.00  0.00    -0.000 C 
BRANCH  13  14
ATOM     14  C   UNL     1      45.870   8.100  23.823  1.00  0.00    -0.000 C 
BRANCH  14  15
ATOM     15  C   UNL     1      44.689   8.322  24.780  1.00  0.00    -0.000 C 
BRANCH  15  16
ATOM     16  C   UNL     1      44.973   9.486  25.741  1.00  0.00    -0.000 C 
BRANCH  16  17
ATOM     17  C   UNL     1      44.380  10.823  25.257  1.00  0.00    -0.000 C 
BRANCH  17  18
ATOM     18  C   UNL     1      42.893  10.765  24.861  1.00  0.00    -0.003 C 
ATOM     19  C   UNL     1      42.295  12.143  24.583  1.00  0.00     0.004 C 
ENDBRANCH  17  18
ENDBRANCH  16  17
ENDBRANCH  15  16
ENDBRANCH  14  15
ENDBRANCH  13  14
ENDBRANCH  12  13
ENDBRANCH   1  12
TORSDOF 14
ENDMDL
MODEL 5
REMARK VINA RESULT:    -4.085      7.781      9.363
REMARK INTER + INTRA:          -9.401
REMARK INTER:                  -7.148
REMARK INTRA:                  -2.254
REMARK UNBOUND:                -1.973
REMARK SMILES CCCCCCCCCCCCCC[C@@H](C)C(=O)[O-]
REMARK SMILES IDX 9 1 10 2 11 3 12 4 13 5 14 6 15 7 16 8 17 9 18 10 19 11 8 12
REMARK SMILES IDX 7 13 6 14 5 15 4 16 3 17 2 18 1 19
REMARK H PARENT
REMARK Flexibility Score: inf
ROOT
ATOM      1  C   UNL     1      38.937  12.472  28.510  1.00  0.00     0.000 C 
ENDROOT
BRANCH   1   2
ATOM      2  C   UNL     1      38.567  12.824  27.057  1.00  0.00     0.000 C 
BRANCH   2   3
ATOM      3  C   UNL     1      38.854  11.674  26.076  1.00  0.00     0.000 C 
BRANCH   3   4
ATOM      4  C   UNL     1      39.457  10.442  26.770  1.00  0.00     0.000 C 
BRANCH   4   5
ATOM      5  C   UNL     1      38.570   9.193  26.624  1.00  0.00     0.001 C 
BRANCH   5   6
ATOM      6  C   UNL     1      37.410   9.174  27.639  1.00  0.00     0.009 C 
BRANCH   6   7
ATOM      7  C   UNL     1      36.005   9.266  27.002  1.00  0.00     0.032 C 
ATOM      8  C   UNL     1      35.796   8.251  25.869  1.00  0.00     0.014 C 
BRANCH   7   9
ATOM      9  C   UNL     1      34.917   9.183  28.040  1.00  0.00     0.044 C 
ATOM     10  O   UNL     1      33.719   8.978  27.707  1.00  0.00    -0.550 OA
ATOM     11  O   UNL     1      35.243   9.275  29.387  1.00  0.00    -0.550 OA
ENDBRANCH   7   9
ENDBRANCH   6   7
ENDBRANCH   5   6
ENDBRANCH   4   5
ENDBRANCH   3   4
ENDBRANCH   2   3
ENDBRANCH   1   2
BRANCH   1  12
ATOM     12  C   UNL     1      37.717  12.472  29.445  1.00  0.00     0.000 C 
BRANCH  12  13
ATOM     13  C   UNL     1      36.387  12.590  28.678  1.00  0.00    -0.000 C 
BRANCH  13  14
ATOM     14  C   UNL     1      35.227  13.054  29.573  1.00  0.00    -0.000 C 
BRANCH  14  15
ATOM     15  C   UNL     1      34.476  14.261  28.988  1.00  0.00    -0.000 C 
BRANCH  15  16
ATOM     16  C   UNL     1      35.414  15.132  28.140  1.00  0.00    -0.000 C 
BRANCH  16  17
ATOM     17  C   UNL     1      35.914  16.382  28.888  1.00  0.00    -0.000 C 
BRANCH  17  18
ATOM     18  C   UNL     1      37.185  17.023  28.299  1.00  0.00    -0.003 C 
ATOM     19  C   UNL     1      38.442  16.191  28.542  1.00  0.00     0.004 C 
ENDBRANCH  17  18
ENDBRANCH  16  17
ENDBRANCH  15  16
ENDBRANCH  14  15
ENDBRANCH  13  14
ENDBRANCH  12  13
ENDBRANCH   1  12
TORSDOF 14
ENDMDL
MODEL 6
REMARK VINA RESULT:    -4.059      2.574      6.817
REMARK INTER + INTRA:          -9.354
REMARK INTER:                  -7.302
REMARK INTRA:                  -2.052
REMARK UNBOUND:                -1.973
REMARK SMILES CCCCCCCCCCCCCC[C@@H](C)C(=O)[O-]
REMARK SMILES IDX 9 1 10 2 11 3 12 4 13 5 14 6 15 7 16 8 17 9 18 10 19 11 8 12
REMARK SMILES IDX 7 13 6 14 5 15 4 16 3 17 2 18 1 19
REMARK H PARENT
REMARK Flexibility Score: inf
ROOT
ATOM      1  C   UNL     1      43.924  11.899  22.549  1.00  0.00     0.000 C 
ENDROOT
BRANCH   1   2
ATOM      2  C   UNL     1      43.907  12.934  23.689  1.00  0.00     0.000 C 
BRANCH   2   3
ATOM      3  C   UNL     1      45.318  13.380  24.107  1.00  0.00     0.000 C 
BRANCH   3   4
ATOM      4  C   UNL     1      45.411  14.897  24.348  1.00  0.00     0.000 C 
BRANCH   4   5
ATOM      5  C   UNL     1      46.021  15.645  23.150  1.00  0.00     0.001 C 
BRANCH   5   6
ATOM      6  C   UNL     1      45.090  16.749  22.611  1.00  0.00     0.009 C 
BRANCH   6   7
ATOM      7  C   UNL     1      44.500  16.458  21.213  1.00  0.00     0.032 C 
ATOM      8  C   UNL     1      45.159  15.251  20.527  1.00  0.00     0.014 C 
BRANCH   7   9
ATOM      9  C   UNL     1      43.000  16.329  21.256  1.00  0.00     0.044 C 
ATOM     10  O   UNL     1      42.263  17.134  20.626  1.00  0.00    -0.550 OA
ATOM     11  O   UNL     1      42.420  15.277  21.952  1.00  0.00    -0.550 OA
ENDBRANCH   7   9
ENDBRANCH   6   7
ENDBRANCH   5   6
ENDBRANCH   4   5
ENDBRANCH   3   4
ENDBRANCH   2   3
ENDBRANCH   1   2
BRANCH   1  12
ATOM     12  C   UNL     1      45.345  11.428  22.203  1.00  0.00     0.000 C 
BRANCH  12  13
ATOM     13  C   UNL     1      45.353  10.309  21.145  1.00  0.00    -0.000 C 
BRANCH  13  14
ATOM     14  C   UNL     1      44.047   9.499  21.131  1.00  0.00    -0.000 C 
BRANCH  14  15
ATOM     15  C   UNL     1      44.159   8.183  21.915  1.00  0.00    -0.000 C 
BRANCH  15  16
ATOM     16  C   UNL     1      45.597   7.957  22.406  1.00  0.00    -0.000 C 
BRANCH  16  17
ATOM     17  C   UNL     1      45.730   8.046  23.938  1.00  0.00    -0.000 C 
BRANCH  17  18
ATOM     18  C   UNL     1      44.466   8.535  24.669  1.00  0.00    -0.003 C 
ATOM     19  C   UNL     1      44.719   9.761  25.545  1.00  0.00     0.004 C 
ENDBRANCH  17  18
ENDBRANCH  16  17
ENDBRANCH  15  16
ENDBRANCH  14  15
ENDBRANCH  13  14
ENDBRANCH  12  13
ENDBRANCH   1  12
TORSDOF 14
ENDMDL
MODEL 7
REMARK VINA RESULT:    -4.039      1.775      3.950
REMARK INTER + INTRA:          -9.318
REMARK INTER:                  -7.528
REMARK INTRA:                  -1.790
REMARK UNBOUND:                -1.973
REMARK SMILES CCCCCCCCCCCCCC[C@@H](C)C(=O)[O-]
REMARK SMILES IDX 9 1 10 2 11 3 12 4 13 5 14 6 15 7 16 8 17 9 18 10 19 11 8 12
REMARK SMILES IDX 7 13 6 14 5 15 4 16 3 17 2 18 1 19
REMARK H PARENT
REMARK Flexibility Score: inf
ROOT
ATOM      1  C   UNL     1      44.331  16.388  21.554  1.00  0.00     0.000 C 
ENDROOT
BRANCH   1   2
ATOM      2  C   UNL     1      45.303  15.262  21.155  1.00  0.00     0.000 C 
BRANCH   2   3
ATOM      3  C   UNL     1      46.005  14.626  22.366  1.00  0.00     0.000 C 
BRANCH   3   4
ATOM      4  C   UNL     1      45.246  13.407  22.916  1.00  0.00     0.000 C 
BRANCH   4   5
ATOM      5  C   UNL     1      44.999  12.335  21.840  1.00  0.00     0.001 C 
BRANCH   5   6
ATOM      6  C   UNL     1      43.802  11.425  22.180  1.00  0.00     0.009 C 
BRANCH   6   7
ATOM      7  C   UNL     1      44.112   9.913  22.108  1.00  0.00     0.032 C 
ATOM      8  C   UNL     1      45.057   9.552  20.952  1.00  0.00     0.014 C 
BRANCH   7   9
ATOM      9  C   UNL     1      44.609   9.382  23.427  1.00  0.00     0.044 C 
ATOM     10  O   UNL     1      44.432  10.031  24.493  1.00  0.00    -0.550 OA
ATOM     11  O   UNL     1      45.218   8.136  23.481  1.00  0.00    -0.550 OA
ENDBRANCH   7   9
ENDBRANCH   6   7
ENDBRANCH   5   6
ENDBRANCH   4   5
ENDBRANCH   3   4
ENDBRANCH   2   3
ENDBRANCH   1   2
BRANCH   1  12
ATOM     12  C   UNL     1      43.093  16.447  20.645  1.00  0.00     0.000 C 
BRANCH  12  13
ATOM     13  C   UNL     1      41.801  16.055  21.384  1.00  0.00    -0.000 C 
BRANCH  13  14
ATOM     14  C   UNL     1      42.065  15.552  22.813  1.00  0.00    -0.000 C 
BRANCH  14  15
ATOM     15  C   UNL     1      41.427  14.181  23.085  1.00  0.00    -0.000 C 
BRANCH  15  16
ATOM     16  C   UNL     1      41.808  13.667  24.481  1.00  0.00    -0.000 C 
BRANCH  16  17
ATOM     17  C   UNL     1      41.270  12.252  24.767  1.00  0.00    -0.000 C 
BRANCH  17  18
ATOM     18  C   UNL     1      40.078  12.197  25.739  1.00  0.00    -0.003 C 
ATOM     19  C   UNL     1      39.693  10.773  26.134  1.00  0.00     0.004 C 
ENDBRANCH  17  18
ENDBRANCH  16  17
ENDBRANCH  15  16
ENDBRANCH  14  15
ENDBRANCH  13  14
ENDBRANCH  12  13
ENDBRANCH   1  12
TORSDOF 14
ENDMDL
MODEL 8
REMARK VINA RESULT:    -4.030      2.662      6.868
REMARK INTER + INTRA:          -9.302
REMARK INTER:                  -7.138
REMARK INTRA:                  -2.164
REMARK UNBOUND:                -1.973
REMARK SMILES CCCCCCCCCCCCCC[C@@H](C)C(=O)[O-]
REMARK SMILES IDX 9 1 10 2 11 3 12 4 13 5 14 6 15 7 16 8 17 9 18 10 19 11 8 12
REMARK SMILES IDX 7 13 6 14 5 15 4 16 3 17 2 18 1 19
REMARK H PARENT
REMARK Flexibility Score: inf
ROOT
ATOM      1  C   UNL     1      43.477  11.397  22.360  1.00  0.00     0.000 C 
ENDROOT
BRANCH   1   2
ATOM      2  C   UNL     1      43.150  12.316  23.551  1.00  0.00     0.000 C 
BRANCH   2   3
ATOM      3  C   UNL     1      41.956  13.246  23.275  1.00  0.00     0.000 C 
BRANCH   3   4
ATOM      4  C   UNL     1      42.176  14.668  23.817  1.00  0.00     0.000 C 
BRANCH   4   5
ATOM      5  C   UNL     1      43.393  14.756  24.754  1.00  0.00     0.001 C 
BRANCH   5   6
ATOM      6  C   UNL     1      44.228  16.031  24.514  1.00  0.00     0.009 C 
BRANCH   6   7
ATOM      7  C   UNL     1      45.442  15.830  23.580  1.00  0.00     0.032 C 
ATOM      8  C   UNL     1      46.125  14.468  23.772  1.00  0.00     0.014 C 
BRANCH   7   9
ATOM      9  C   UNL     1      45.082  16.079  22.138  1.00  0.00     0.044 C 
ATOM     10  O   UNL     1      45.159  17.235  21.642  1.00  0.00    -0.550 OA
ATOM     11  O   UNL     1      44.715  15.013  21.328  1.00  0.00    -0.550 OA
ENDBRANCH   7   9
ENDBRANCH   6   7
ENDBRANCH   5   6
ENDBRANCH   4   5
ENDBRANCH   3   4
ENDBRANCH   2   3
ENDBRANCH   1   2
BRANCH   1  12
ATOM     12  C   UNL     1      44.939  11.524  21.902  1.00  0.00     0.000 C 
BRANCH  12  13
ATOM     13  C   UNL     1      45.427  10.279  21.140  1.00  0.00    -0.000 C 
BRANCH  13  14
ATOM     14  C   UNL     1      44.323   9.225  20.959  1.00  0.00    -0.000 C 
BRANCH  14  15
ATOM     15  C   UNL     1      44.616   7.924  21.723  1.00  0.00    -0.000 C 
BRANCH  15  16
ATOM     16  C   UNL     1      45.930   8.035  22.511  1.00  0.00    -0.000 C 
BRANCH  16  17
ATOM     17  C   UNL     1      45.735   7.866  24.029  1.00  0.00    -0.000 C 
BRANCH  17  18
ATOM     18  C   UNL     1      45.069   9.062  24.734  1.00  0.00    -0.003 C 
ATOM     19  C   UNL     1      43.615   8.795  25.119  1.00  0.00     0.004 C 
ENDBRANCH  17  18
ENDBRANCH  16  17
ENDBRANCH  15  16
ENDBRANCH  14  15
ENDBRANCH  13  14
ENDBRANCH  12  13
ENDBRANCH   1  12
TORSDOF 14
ENDMDL
MODEL 9
REMARK VINA RESULT:    -3.976      1.895      3.047
REMARK INTER + INTRA:          -9.202
REMARK INTER:                  -6.739
REMARK INTRA:                  -2.464
REMARK UNBOUND:                -1.973
REMARK SMILES CCCCCCCCCCCCCC[C@@H](C)C(=O)[O-]
REMARK SMILES IDX 9 1 10 2 11 3 12 4 13 5 14 6 15 7 16 8 17 9 18 10 19 11 8 12
REMARK SMILES IDX 7 13 6 14 5 15 4 16 3 17 2 18 1 19
REMARK H PARENT
REMARK Flexibility Score: inf
ROOT
ATOM      1  C   UNL     1      41.677  14.276  23.543  1.00  0.00     0.000 C 
ENDROOT
BRANCH   1   2
ATOM      2  C   UNL     1      41.376  13.040  24.410  1.00  0.00     0.000 C 
BRANCH   2   3
ATOM      3  C   UNL     1      42.328  11.866  24.124  1.00  0.00     0.000 C 
BRANCH   3   4
ATOM      4  C   UNL     1      43.416  12.225  23.098  1.00  0.00     0.000 C 
BRANCH   4   5
ATOM      5  C   UNL     1      44.833  11.930  23.620  1.00  0.00     0.001 C 
BRANCH   5   6
ATOM      6  C   UNL     1      45.734  11.290  22.544  1.00  0.00     0.009 C 
BRANCH   6   7
ATOM      7  C   UNL     1      45.828   9.750  22.627  1.00  0.00     0.032 C 
ATOM      8  C   UNL     1      45.465   9.204  24.016  1.00  0.00     0.014 C 
BRANCH   7   9
ATOM      9  C   UNL     1      45.033   9.084  21.536  1.00  0.00     0.044 C 
ATOM     10  O   UNL     1      45.111   9.482  20.342  1.00  0.00    -0.550 OA
ATOM     11  O   UNL     1      44.245   7.980  21.836  1.00  0.00    -0.550 OA
ENDBRANCH   7   9
ENDBRANCH   6   7
ENDBRANCH   5   6
ENDBRANCH   4   5
ENDBRANCH   3   4
ENDBRANCH   2   3
ENDBRANCH   1   2
BRANCH   1  12
ATOM     12  C   UNL     1      42.112  15.490  24.379  1.00  0.00     0.000 C 
BRANCH  12  13
ATOM     13  C   UNL     1      43.025  15.098  25.556  1.00  0.00    -0.000 C 
BRANCH  13  14
ATOM     14  C   UNL     1      44.518  15.234  25.217  1.00  0.00    -0.000 C 
BRANCH  14  15
ATOM     15  C   UNL     1      44.769  16.139  24.001  1.00  0.00    -0.000 C 
BRANCH  15  16
ATOM     16  C   UNL     1      45.531  15.382  22.902  1.00  0.00    -0.000 C 
BRANCH  16  17
ATOM     17  C   UNL     1      44.763  15.328  21.568  1.00  0.00    -0.000 C 
BRANCH  17  18
ATOM     18  C   UNL     1      44.123  16.660  21.136  1.00  0.00    -0.003 C 
ATOM     19  C   UNL     1      42.631  16.536  20.832  1.00  0.00     0.004 C 
ENDBRANCH  17  18
ENDBRANCH  16  17
ENDBRANCH  15  16
ENDBRANCH  14  15
ENDBRANCH  13  14
ENDBRANCH  12  13
ENDBRANCH   1  12
TORSDOF 14
ENDMDL
