MODEL 1
REMARK VINA RESULT:    -2.782      0.000      0.000
REMARK INTER + INTRA:          -2.782
REMARK INTER:                  -2.782
REMARK INTRA:                   0.000
REMARK UNBOUND:                 0.000
REMARK SMILES C=C1CCC[C@@]2(C)CC(=O)C(=C(C)C)C[C@@H]12
REMARK SMILES IDX 13 1 12 2 11 3 15 4 16 5 2 6 1 7 3 8 4 9 5 10 6 11 8 12 9 13
REMARK SMILES IDX 10 14 7 15 14 16
REMARK H PARENT
REMARK Flexibility Score: inf
ROOT
ATOM      1  C   UNL     1       7.614 -18.446  -7.238  1.00  0.00     0.039 C 
ATOM      2  C   UNL     1       7.563 -17.186  -8.071  1.00  0.00    -0.070 C 
ATOM      3  C   UNL     1       7.728 -17.213  -9.426  1.00  0.00    -0.006 C 
ATOM      4  C   UNL     1       7.742 -15.929 -10.246  1.00  0.00     0.047 C 
ATOM      5  C   UNL     1       8.630 -16.016 -11.514  1.00  0.00     0.025 C 
ATOM      6  C   UNL     1      10.134 -15.891 -11.259  1.00  0.00    -0.073 C 
ATOM      7  C   UNL     1      10.702 -15.875 -10.038  1.00  0.00     0.008 C 
ATOM      8  C   UNL     1      11.008 -15.876 -12.487  1.00  0.00     0.031 C 
ATOM      9  C   UNL     1      10.763 -17.149 -13.299  1.00  0.00     0.005 C 
ATOM     10  C   UNL     1       9.268 -17.340 -13.613  1.00  0.00     0.008 C 
ATOM     11  C   UNL     1       8.339 -17.299 -12.359  1.00  0.00    -0.018 C 
ATOM     12  C   UNL     1       8.560 -18.560 -11.482  1.00  0.00     0.088 C 
ATOM     13  C   UNL     1       7.788 -18.489 -10.195  1.00  0.00     0.159 C 
ATOM     14  O   UNL     1       7.190 -19.523  -9.793  1.00  0.00    -0.295 OA
ATOM     15  C   UNL     1       6.878 -17.290 -12.880  1.00  0.00     0.012 C 
ATOM     16  C   UNL     1       7.362 -15.883  -7.330  1.00  0.00     0.039 C 
ENDROOT
TORSDOF 0
ENDMDL
MODEL 2
REMARK VINA RESULT:    -1.929     18.199     20.068
REMARK INTER + INTRA:          -1.929
REMARK INTER:                  -1.929
REMARK INTRA:                   0.000
REMARK UNBOUND:                 0.000
REMARK SMILES C=C1CCC[C@@]2(C)CC(=O)C(=C(C)C)C[C@@H]12
REMARK SMILES IDX 13 1 12 2 11 3 15 4 16 5 2 6 1 7 3 8 4 9 5 10 6 11 8 12 9 13
REMARK SMILES IDX 10 14 7 15 14 16
REMARK H PARENT
REMARK Flexibility Score: inf
ROOT
ATOM      1  C   UNL     1      20.737 -15.878   1.855  1.00  0.00     0.039 C 
ATOM      2  C   UNL     1      22.013 -16.109   2.631  1.00  0.00    -0.070 C 
ATOM      3  C   UNL     1      23.155 -16.544   2.022  1.00  0.00    -0.006 C 
ATOM      4  C   UNL     1      24.416 -16.839   2.826  1.00  0.00     0.047 C 
ATOM      5  C   UNL     1      25.295 -17.957   2.207  1.00  0.00     0.025 C 
ATOM      6  C   UNL     1      24.790 -19.382   2.444  1.00  0.00    -0.073 C 
ATOM      7  C   UNL     1      23.598 -19.687   2.991  1.00  0.00     0.008 C 
ATOM      8  C   UNL     1      25.680 -20.486   1.934  1.00  0.00     0.031 C 
ATOM      9  C   UNL     1      25.909 -20.301   0.434  1.00  0.00     0.005 C 
ATOM     10  C   UNL     1      26.436 -18.891   0.112  1.00  0.00     0.008 C 
ATOM     11  C   UNL     1      25.558 -17.732   0.682  1.00  0.00    -0.018 C 
ATOM     12  C   UNL     1      24.206 -17.657  -0.073  1.00  0.00     0.088 C 
ATOM     13  C   UNL     1      23.277 -16.648   0.540  1.00  0.00     0.159 C 
ATOM     14  O   UNL     1      22.619 -15.892  -0.224  1.00  0.00    -0.295 OA
ATOM     15  C   UNL     1      26.345 -16.415   0.451  1.00  0.00     0.012 C 
ATOM     16  C   UNL     1      21.959 -15.877   4.124  1.00  0.00     0.039 C 
ENDROOT
TORSDOF 0
ENDMDL
MODEL 3
REMARK VINA RESULT:    -1.221     18.254     20.266
REMARK INTER + INTRA:          -1.221
REMARK INTER:                  -1.221
REMARK INTRA:                   0.000
REMARK UNBOUND:                 0.000
REMARK SMILES C=C1CCC[C@@]2(C)CC(=O)C(=C(C)C)C[C@@H]12
REMARK SMILES IDX 13 1 12 2 11 3 15 4 16 5 2 6 1 7 3 8 4 9 5 10 6 11 8 12 9 13
REMARK SMILES IDX 10 14 7 15 14 16
REMARK H PARENT
REMARK Flexibility Score: inf
ROOT
ATOM      1  C   UNL     1      25.551 -21.614   1.550  1.00  0.00     0.039 C 
ATOM      2  C   UNL     1      25.936 -20.186   1.239  1.00  0.00    -0.070 C 
ATOM      3  C   UNL     1      25.226 -19.127   1.729  1.00  0.00    -0.006 C 
ATOM      4  C   UNL     1      25.583 -17.694   1.353  1.00  0.00     0.047 C 
ATOM      5  C   UNL     1      24.361 -16.739   1.330  1.00  0.00     0.025 C 
ATOM      6  C   UNL     1      23.470 -16.860   0.092  1.00  0.00    -0.073 C 
ATOM      7  C   UNL     1      23.596 -17.817  -0.848  1.00  0.00     0.008 C 
ATOM      8  C   UNL     1      22.332 -15.875   0.004  1.00  0.00     0.031 C 
ATOM      9  C   UNL     1      21.450 -16.008   1.246  1.00  0.00     0.005 C 
ATOM     10  C   UNL     1      22.273 -15.880   2.540  1.00  0.00     0.008 C 
ATOM     11  C   UNL     1      23.492 -16.853   2.625  1.00  0.00    -0.018 C 
ATOM     12  C   UNL     1      23.005 -18.315   2.797  1.00  0.00     0.088 C 
ATOM     13  C   UNL     1      24.142 -19.295   2.739  1.00  0.00     0.159 C 
ATOM     14  O   UNL     1      24.162 -20.245   3.566  1.00  0.00    -0.295 OA
ATOM     15  C   UNL     1      24.314 -16.439   3.873  1.00  0.00     0.012 C 
ATOM     16  C   UNL     1      27.122 -19.979   0.325  1.00  0.00     0.039 C 
ENDROOT
TORSDOF 0
ENDMDL
MODEL 4
REMARK VINA RESULT:    -0.026      2.471      4.892
REMARK INTER + INTRA:          -0.026
REMARK INTER:                  -0.026
REMARK INTRA:                   0.000
REMARK UNBOUND:                 0.000
REMARK SMILES C=C1CCC[C@@]2(C)CC(=O)C(=C(C)C)C[C@@H]12
REMARK SMILES IDX 13 1 12 2 11 3 15 4 16 5 2 6 1 7 3 8 4 9 5 10 6 11 8 12 9 13
REMARK SMILES IDX 10 14 7 15 14 16
REMARK H PARENT
REMARK Flexibility Score: inf
ROOT
ATOM      1  C   UNL     1      13.478 -15.885 -13.691  1.00  0.00     0.039 C 
ATOM      2  C   UNL     1      12.773 -16.911 -12.833  1.00  0.00    -0.070 C 
ATOM      3  C   UNL     1      11.426 -17.116 -12.920  1.00  0.00    -0.006 C 
ATOM      4  C   UNL     1      10.716 -18.104 -12.002  1.00  0.00     0.047 C 
ATOM      5  C   UNL     1       9.249 -17.710 -11.688  1.00  0.00     0.025 C 
ATOM      6  C   UNL     1       9.088 -16.600 -10.647  1.00  0.00    -0.073 C 
ATOM      7  C   UNL     1      10.104 -15.875 -10.141  1.00  0.00     0.008 C 
ATOM      8  C   UNL     1       7.670 -16.270 -10.256  1.00  0.00     0.031 C 
ATOM      9  C   UNL     1       6.878 -15.877 -11.504  1.00  0.00     0.005 C 
ATOM     10  C   UNL     1       6.977 -16.955 -12.598  1.00  0.00     0.008 C 
ATOM     11  C   UNL     1       8.439 -17.354 -12.976  1.00  0.00    -0.018 C 
ATOM     12  C   UNL     1       9.139 -16.191 -13.726  1.00  0.00     0.088 C 
ATOM     13  C   UNL     1      10.591 -16.483 -13.981  1.00  0.00     0.159 C 
ATOM     14  O   UNL     1      11.076 -16.191 -15.106  1.00  0.00    -0.295 OA
ATOM     15  C   UNL     1       8.342 -18.583 -13.918  1.00  0.00     0.012 C 
ATOM     16  C   UNL     1      13.620 -17.673 -11.840  1.00  0.00     0.039 C 
ENDROOT
TORSDOF 0
ENDMDL
