MODEL 1
REMARK VINA RESULT:    -6.589      0.000      0.000
REMARK INTER + INTRA:          -9.713
REMARK INTER:                  -8.900
REMARK INTRA:                  -0.813
REMARK UNBOUND:                -0.813
REMARK SMILES CC(=O)CCC=C(C)CCC=C(C)C
REMARK SMILES IDX 7 1 6 2 8 3 9 4 10 5 11 6 13 7 12 8 14 9 5 10 4 11 2 12 3 13
REMARK SMILES IDX 1 14
REMARK H PARENT
REMARK Flexibility Score: inf
ROOT
ATOM      1  C   UNL     1      -4.442  29.130  29.005  1.00  0.00    -0.077 C 
ATOM      2  C   UNL     1      -3.744  28.931  27.863  1.00  0.00    -0.028 C 
ATOM      3  C   UNL     1      -3.829  28.892  30.365  1.00  0.00     0.039 C 
ENDROOT
BRANCH   1   4
ATOM      4  C   UNL     1      -5.884  29.579  28.913  1.00  0.00     0.034 C 
BRANCH   4   5
ATOM      5  C   UNL     1      -5.975  31.109  28.864  1.00  0.00     0.032 C 
BRANCH   5   6
ATOM      6  C   UNL     1      -6.040  31.595  27.438  1.00  0.00    -0.028 C 
ATOM      7  C   UNL     1      -5.235  32.648  25.368  1.00  0.00     0.039 C 
ATOM      8  C   UNL     1      -5.042  32.256  26.811  1.00  0.00    -0.080 C 
ATOM      9  C   UNL     1      -3.760  32.627  27.517  1.00  0.00     0.039 C 
ENDBRANCH   5   6
ENDBRANCH   4   5
ENDBRANCH   1   4
BRANCH   2  10
ATOM     10  C   UNL     1      -2.292  28.529  27.810  1.00  0.00     0.035 C 
BRANCH  10  11
ATOM     11  C   UNL     1      -2.150  27.004  27.851  1.00  0.00     0.079 C 
BRANCH  11  12
ATOM     12  C   UNL     1      -0.873  26.605  28.538  1.00  0.00     0.130 C 
ATOM     13  O   UNL     1      -0.577  27.112  29.610  1.00  0.00    -0.300 OA
ATOM     14  C   UNL     1       0.052  25.610  27.904  1.00  0.00     0.087 C 
ENDBRANCH  11  12
ENDBRANCH  10  11
ENDBRANCH   2  10
TORSDOF 6
ENDMDL
MODEL 2
REMARK VINA RESULT:    -6.280      2.728      6.440
REMARK INTER + INTRA:          -9.296
REMARK INTER:                  -8.790
REMARK INTRA:                  -0.505
REMARK UNBOUND:                -0.813
REMARK SMILES CC(=O)CCC=C(C)CCC=C(C)C
REMARK SMILES IDX 7 1 6 2 8 3 9 4 10 5 11 6 13 7 12 8 14 9 5 10 4 11 2 12 3 13
REMARK SMILES IDX 1 14
REMARK H PARENT
REMARK Flexibility Score: inf
ROOT
ATOM      1  C   UNL     1      -4.647  29.381  28.694  1.00  0.00    -0.077 C 
ATOM      2  C   UNL     1      -4.297  30.387  27.860  1.00  0.00    -0.028 C 
ATOM      3  C   UNL     1      -5.923  29.421  29.501  1.00  0.00     0.039 C 
ENDROOT
BRANCH   1   4
ATOM      4  C   UNL     1      -3.718  28.195  28.839  1.00  0.00     0.034 C 
BRANCH   4   5
ATOM      5  C   UNL     1      -2.596  28.252  27.797  1.00  0.00     0.032 C 
BRANCH   5   6
ATOM      6  C   UNL     1      -1.356  27.560  28.306  1.00  0.00    -0.028 C 
ATOM      7  C   UNL     1       0.304  25.761  28.517  1.00  0.00     0.039 C 
ATOM      8  C   UNL     1      -0.982  26.310  27.956  1.00  0.00    -0.080 C 
ATOM      9  C   UNL     1      -1.822  25.449  27.042  1.00  0.00     0.039 C 
ENDBRANCH   5   6
ENDBRANCH   4   5
ENDBRANCH   1   4
BRANCH   2  10
ATOM     10  C   UNL     1      -5.146  31.603  27.587  1.00  0.00     0.035 C 
BRANCH  10  11
ATOM     11  C   UNL     1      -4.299  32.732  26.991  1.00  0.00     0.079 C 
BRANCH  11  12
ATOM     12  C   UNL     1      -5.037  33.421  25.876  1.00  0.00     0.130 C 
ATOM     13  O   UNL     1      -5.181  34.634  25.903  1.00  0.00    -0.300 OA
ATOM     14  C   UNL     1      -5.621  32.627  24.747  1.00  0.00     0.087 C 
ENDBRANCH  11  12
ENDBRANCH  10  11
ENDBRANCH   2  10
TORSDOF 6
ENDMDL
MODEL 3
REMARK VINA RESULT:    -6.222      1.391      1.662
REMARK INTER + INTRA:          -9.217
REMARK INTER:                  -8.534
REMARK INTRA:                  -0.683
REMARK UNBOUND:                -0.813
REMARK SMILES CC(=O)CCC=C(C)CCC=C(C)C
REMARK SMILES IDX 7 1 6 2 8 3 9 4 10 5 11 6 13 7 12 8 14 9 5 10 4 11 2 12 3 13
REMARK SMILES IDX 1 14
REMARK H PARENT
REMARK Flexibility Score: inf
ROOT
ATOM      1  C   UNL     1      -4.169  27.890  29.608  1.00  0.00    -0.077 C 
ATOM      2  C   UNL     1      -2.874  28.276  29.689  1.00  0.00    -0.028 C 
ATOM      3  C   UNL     1      -4.581  26.445  29.759  1.00  0.00     0.039 C 
ENDROOT
BRANCH   1   4
ATOM      4  C   UNL     1      -5.228  28.935  29.330  1.00  0.00     0.034 C 
BRANCH   4   5
ATOM      5  C   UNL     1      -4.584  30.264  28.918  1.00  0.00     0.032 C 
BRANCH   5   6
ATOM      6  C   UNL     1      -5.269  30.835  27.701  1.00  0.00    -0.028 C 
ATOM      7  C   UNL     1      -5.615  32.366  25.810  1.00  0.00     0.039 C 
ATOM      8  C   UNL     1      -4.851  31.934  27.035  1.00  0.00    -0.080 C 
ATOM      9  C   UNL     1      -3.660  32.742  27.492  1.00  0.00     0.039 C 
ENDBRANCH   5   6
ENDBRANCH   4   5
ENDBRANCH   1   4
BRANCH   2  10
ATOM     10  C   UNL     1      -1.726  27.350  30.004  1.00  0.00     0.035 C 
BRANCH  10  11
ATOM     11  C   UNL     1      -0.636  27.457  28.934  1.00  0.00     0.079 C 
BRANCH  11  12
ATOM     12  C   UNL     1      -0.528  26.176  28.152  1.00  0.00     0.130 C 
ATOM     13  O   UNL     1       0.518  25.544  28.164  1.00  0.00    -0.300 OA
ATOM     14  C   UNL     1      -1.687  25.684  27.338  1.00  0.00     0.087 C 
ENDBRANCH  11  12
ENDBRANCH  10  11
ENDBRANCH   2  10
TORSDOF 6
ENDMDL
MODEL 4
REMARK VINA RESULT:    -6.210      1.143      2.099
REMARK INTER + INTRA:          -9.200
REMARK INTER:                  -8.720
REMARK INTRA:                  -0.480
REMARK UNBOUND:                -0.813
REMARK SMILES CC(=O)CCC=C(C)CCC=C(C)C
REMARK SMILES IDX 7 1 6 2 8 3 9 4 10 5 11 6 13 7 12 8 14 9 5 10 4 11 2 12 3 13
REMARK SMILES IDX 1 14
REMARK H PARENT
REMARK Flexibility Score: inf
ROOT
ATOM      1  C   UNL     1      -5.170  30.327  28.343  1.00  0.00    -0.077 C 
ATOM      2  C   UNL     1      -4.017  29.756  27.922  1.00  0.00    -0.028 C 
ATOM      3  C   UNL     1      -6.092  29.635  29.319  1.00  0.00     0.039 C 
ENDROOT
BRANCH   1   4
ATOM      4  C   UNL     1      -5.555  31.686  27.800  1.00  0.00     0.034 C 
BRANCH   4   5
ATOM      5  C   UNL     1      -4.441  32.251  26.910  1.00  0.00     0.032 C 
BRANCH   5   6
ATOM      6  C   UNL     1      -4.809  33.620  26.396  1.00  0.00    -0.028 C 
ATOM      7  C   UNL     1      -5.729  35.276  24.831  1.00  0.00     0.039 C 
ATOM      8  C   UNL     1      -5.381  33.856  25.195  1.00  0.00    -0.080 C 
ATOM      9  C   UNL     1      -5.659  32.746  24.209  1.00  0.00     0.039 C 
ENDBRANCH   5   6
ENDBRANCH   4   5
ENDBRANCH   1   4
BRANCH   2  10
ATOM     10  C   UNL     1      -3.492  28.431  28.414  1.00  0.00     0.035 C 
BRANCH  10  11
ATOM     11  C   UNL     1      -2.296  27.976  27.571  1.00  0.00     0.079 C 
BRANCH  11  12
ATOM     12  C   UNL     1      -1.368  27.116  28.383  1.00  0.00     0.130 C 
ATOM     13  O   UNL     1      -1.112  27.423  29.538  1.00  0.00    -0.300 OA
ATOM     14  C   UNL     1      -0.735  25.900  27.778  1.00  0.00     0.087 C 
ENDBRANCH  11  12
ENDBRANCH  10  11
ENDBRANCH   2  10
TORSDOF 6
ENDMDL
MODEL 5
REMARK VINA RESULT:    -6.208      1.913      5.980
REMARK INTER + INTRA:          -9.198
REMARK INTER:                  -8.797
REMARK INTRA:                  -0.401
REMARK UNBOUND:                -0.813
REMARK SMILES CC(=O)CCC=C(C)CCC=C(C)C
REMARK SMILES IDX 7 1 6 2 8 3 9 4 10 5 11 6 13 7 12 8 14 9 5 10 4 11 2 12 3 13
REMARK SMILES IDX 1 14
REMARK H PARENT
REMARK Flexibility Score: inf
ROOT
ATOM      1  C   UNL     1      -3.877  27.916  30.019  1.00  0.00    -0.077 C 
ATOM      2  C   UNL     1      -4.478  29.125  29.917  1.00  0.00    -0.028 C 
ATOM      3  C   UNL     1      -4.627  26.630  29.765  1.00  0.00     0.039 C 
ENDROOT
BRANCH   1   4
ATOM      4  C   UNL     1      -2.421  27.854  30.424  1.00  0.00     0.034 C 
BRANCH   4   5
ATOM      5  C   UNL     1      -1.510  28.150  29.227  1.00  0.00     0.032 C 
BRANCH   5   6
ATOM      6  C   UNL     1      -0.474  27.067  29.063  1.00  0.00    -0.028 C 
ATOM      7  C   UNL     1       0.581  25.075  28.084  1.00  0.00     0.039 C 
ATOM      8  C   UNL     1      -0.551  26.066  28.159  1.00  0.00    -0.080 C 
ATOM      9  C   UNL     1      -1.742  25.906  27.243  1.00  0.00     0.039 C 
ENDBRANCH   5   6
ENDBRANCH   4   5
ENDBRANCH   1   4
BRANCH   2  10
ATOM     10  C   UNL     1      -5.906  29.334  29.480  1.00  0.00     0.035 C 
BRANCH  10  11
ATOM     11  C   UNL     1      -6.074  30.704  28.815  1.00  0.00     0.079 C 
BRANCH  11  12
ATOM     12  C   UNL     1      -5.018  30.921  27.767  1.00  0.00     0.130 C 
ATOM     13  O   UNL     1      -4.587  29.969  27.133  1.00  0.00    -0.300 OA
ATOM     14  C   UNL     1      -4.471  32.294  27.513  1.00  0.00     0.087 C 
ENDBRANCH  11  12
ENDBRANCH  10  11
ENDBRANCH   2  10
TORSDOF 6
ENDMDL
MODEL 6
REMARK VINA RESULT:    -6.007      1.658      2.826
REMARK INTER + INTRA:          -8.927
REMARK INTER:                  -8.430
REMARK INTRA:                  -0.497
REMARK UNBOUND:                -0.813
REMARK SMILES CC(=O)CCC=C(C)CCC=C(C)C
REMARK SMILES IDX 7 1 6 2 8 3 9 4 10 5 11 6 13 7 12 8 14 9 5 10 4 11 2 12 3 13
REMARK SMILES IDX 1 14
REMARK H PARENT
REMARK Flexibility Score: inf
ROOT
ATOM      1  C   UNL     1      -5.001  30.336  28.187  1.00  0.00    -0.077 C 
ATOM      2  C   UNL     1      -5.348  29.804  29.381  1.00  0.00    -0.028 C 
ATOM      3  C   UNL     1      -4.147  29.581  27.195  1.00  0.00     0.039 C 
ENDROOT
BRANCH   1   4
ATOM      4  C   UNL     1      -5.460  31.738  27.848  1.00  0.00     0.034 C 
BRANCH   4   5
ATOM      5  C   UNL     1      -4.438  32.441  26.948  1.00  0.00     0.032 C 
BRANCH   5   6
ATOM      6  C   UNL     1      -4.997  33.737  26.415  1.00  0.00    -0.028 C 
ATOM      7  C   UNL     1      -5.712  35.364  24.717  1.00  0.00     0.039 C 
ATOM      8  C   UNL     1      -5.095  34.044  25.103  1.00  0.00    -0.080 C 
ATOM      9  C   UNL     1      -4.589  33.116  24.024  1.00  0.00     0.039 C 
ENDBRANCH   5   6
ENDBRANCH   4   5
ENDBRANCH   1   4
BRANCH   2  10
ATOM     10  C   UNL     1      -4.998  28.407  29.827  1.00  0.00     0.035 C 
BRANCH  10  11
ATOM     11  C   UNL     1      -3.638  28.388  30.532  1.00  0.00     0.079 C 
BRANCH  11  12
ATOM     12  C   UNL     1      -2.650  27.554  29.764  1.00  0.00     0.130 C 
ATOM     13  O   UNL     1      -3.044  26.810  28.878  1.00  0.00    -0.300 OA
ATOM     14  C   UNL     1      -1.189  27.610  30.094  1.00  0.00     0.087 C 
ENDBRANCH  11  12
ENDBRANCH  10  11
ENDBRANCH   2  10
TORSDOF 6
ENDMDL
MODEL 7
REMARK VINA RESULT:    -5.651      1.719      2.824
REMARK INTER + INTRA:          -8.446
REMARK INTER:                  -8.050
REMARK INTRA:                  -0.395
REMARK UNBOUND:                -0.813
REMARK SMILES CC(=O)CCC=C(C)CCC=C(C)C
REMARK SMILES IDX 7 1 6 2 8 3 9 4 10 5 11 6 13 7 12 8 14 9 5 10 4 11 2 12 3 13
REMARK SMILES IDX 1 14
REMARK H PARENT
REMARK Flexibility Score: inf
ROOT
ATOM      1  C   UNL     1      -4.844  30.754  28.080  1.00  0.00    -0.077 C 
ATOM      2  C   UNL     1      -4.224  29.551  28.091  1.00  0.00    -0.028 C 
ATOM      3  C   UNL     1      -6.120  31.000  28.849  1.00  0.00     0.039 C 
ENDROOT
BRANCH   1   4
ATOM      4  C   UNL     1      -4.253  31.875  27.252  1.00  0.00     0.034 C 
BRANCH   4   5
ATOM      5  C   UNL     1      -5.359  32.762  26.670  1.00  0.00     0.032 C 
BRANCH   5   6
ATOM      6  C   UNL     1      -5.245  32.843  25.168  1.00  0.00    -0.028 C 
ATOM      7  C   UNL     1      -5.170  33.919  22.960  1.00  0.00     0.039 C 
ATOM      8  C   UNL     1      -5.344  33.987  24.456  1.00  0.00    -0.080 C 
ATOM      9  C   UNL     1      -5.639  35.315  25.111  1.00  0.00     0.039 C 
ENDBRANCH   5   6
ENDBRANCH   4   5
ENDBRANCH   1   4
BRANCH   2  10
ATOM     10  C   UNL     1      -4.677  28.365  28.904  1.00  0.00     0.035 C 
BRANCH  10  11
ATOM     11  C   UNL     1      -3.528  27.371  29.099  1.00  0.00     0.079 C 
BRANCH  11  12
ATOM     12  C   UNL     1      -2.551  27.880  30.122  1.00  0.00     0.130 C 
ATOM     13  O   UNL     1      -2.937  28.620  31.015  1.00  0.00    -0.300 OA
ATOM     14  C   UNL     1      -1.101  27.507  30.040  1.00  0.00     0.087 C 
ENDBRANCH  11  12
ENDBRANCH  10  11
ENDBRANCH   2  10
TORSDOF 6
ENDMDL
MODEL 8
REMARK VINA RESULT:    -5.602      2.061      5.731
REMARK INTER + INTRA:          -8.380
REMARK INTER:                  -7.599
REMARK INTRA:                  -0.780
REMARK UNBOUND:                -0.813
REMARK SMILES CC(=O)CCC=C(C)CCC=C(C)C
REMARK SMILES IDX 7 1 6 2 8 3 9 4 10 5 11 6 13 7 12 8 14 9 5 10 4 11 2 12 3 13
REMARK SMILES IDX 1 14
REMARK H PARENT
REMARK Flexibility Score: inf
ROOT
ATOM      1  C   UNL     1      -5.017  29.022  29.591  1.00  0.00    -0.077 C 
ATOM      2  C   UNL     1      -6.002  29.664  28.922  1.00  0.00    -0.028 C 
ATOM      3  C   UNL     1      -3.799  29.751  30.108  1.00  0.00     0.039 C 
ENDROOT
BRANCH   1   4
ATOM      4  C   UNL     1      -5.128  27.528  29.803  1.00  0.00     0.034 C 
BRANCH   4   5
ATOM      5  C   UNL     1      -3.753  26.917  30.097  1.00  0.00     0.032 C 
BRANCH   5   6
ATOM      6  C   UNL     1      -3.150  26.329  28.846  1.00  0.00    -0.028 C 
ATOM      7  C   UNL     1      -1.397  25.838  27.196  1.00  0.00     0.039 C 
ATOM      8  C   UNL     1      -1.872  26.521  28.452  1.00  0.00    -0.080 C 
ATOM      9  C   UNL     1      -0.923  27.411  29.220  1.00  0.00     0.039 C 
ENDBRANCH   5   6
ENDBRANCH   4   5
ENDBRANCH   1   4
BRANCH   2  10
ATOM     10  C   UNL     1      -6.040  31.152  28.680  1.00  0.00     0.035 C 
BRANCH  10  11
ATOM     11  C   UNL     1      -5.772  31.468  27.205  1.00  0.00     0.079 C 
BRANCH  11  12
ATOM     12  C   UNL     1      -4.655  32.466  27.068  1.00  0.00     0.130 C 
ATOM     13  O   UNL     1      -3.729  32.453  27.865  1.00  0.00    -0.300 OA
ATOM     14  C   UNL     1      -4.684  33.492  25.976  1.00  0.00     0.087 C 
ENDBRANCH  11  12
ENDBRANCH  10  11
ENDBRANCH   2  10
TORSDOF 6
ENDMDL
MODEL 9
REMARK VINA RESULT:    -5.486      3.313      6.901
REMARK INTER + INTRA:          -8.223
REMARK INTER:                  -7.834
REMARK INTRA:                  -0.390
REMARK UNBOUND:                -0.813
REMARK SMILES CC(=O)CCC=C(C)CCC=C(C)C
REMARK SMILES IDX 7 1 6 2 8 3 9 4 10 5 11 6 13 7 12 8 14 9 5 10 4 11 2 12 3 13
REMARK SMILES IDX 1 14
REMARK H PARENT
REMARK Flexibility Score: inf
ROOT
ATOM      1  C   UNL     1      -4.508  31.583  27.678  1.00  0.00    -0.077 C 
ATOM      2  C   UNL     1      -4.063  32.637  26.956  1.00  0.00    -0.028 C 
ATOM      3  C   UNL     1      -5.973  31.394  27.994  1.00  0.00     0.039 C 
ENDROOT
BRANCH   1   4
ATOM      4  C   UNL     1      -3.504  30.581  28.205  1.00  0.00     0.034 C 
BRANCH   4   5
ATOM      5  C   UNL     1      -3.862  29.161  27.748  1.00  0.00     0.032 C 
BRANCH   5   6
ATOM      6  C   UNL     1      -2.627  28.299  27.665  1.00  0.00    -0.028 C 
ATOM      7  C   UNL     1      -0.945  26.679  28.429  1.00  0.00     0.039 C 
ATOM      8  C   UNL     1      -2.173  27.518  28.670  1.00  0.00    -0.080 C 
ATOM      9  C   UNL     1      -2.847  27.479  30.021  1.00  0.00     0.039 C 
ENDBRANCH   5   6
ENDBRANCH   4   5
ENDBRANCH   1   4
BRANCH   2  10
ATOM     10  C   UNL     1      -4.955  33.683  26.335  1.00  0.00     0.035 C 
BRANCH  10  11
ATOM     11  C   UNL     1      -5.412  33.246  24.940  1.00  0.00     0.079 C 
BRANCH  11  12
ATOM     12  C   UNL     1      -5.616  34.438  24.047  1.00  0.00     0.130 C 
ATOM     13  O   UNL     1      -6.033  35.485  24.519  1.00  0.00    -0.300 OA
ATOM     14  C   UNL     1      -5.335  34.343  22.578  1.00  0.00     0.087 C 
ENDBRANCH  11  12
ENDBRANCH  10  11
ENDBRANCH   2  10
TORSDOF 6
ENDMDL
