MODEL 1
REMARK VINA RESULT:    -3.531      0.000      0.000
REMARK INTER + INTRA:          -5.403
REMARK INTER:                  -4.976
REMARK INTRA:                  -0.427
REMARK UNBOUND:                -0.427
REMARK SMILES CCCCCCCCC(=O)[O-]
REMARK SMILES IDX 6 1 7 2 8 3 9 4 10 5 11 6 5 7 4 8 3 9 2 10 1 11
REMARK H PARENT
REMARK Flexibility Score: inf
ROOT
ATOM      1  C   UNL     1       8.982  -7.462 -23.115  1.00  0.00     0.000 C 
ENDROOT
BRANCH   1   2
ATOM      2  C   UNL     1       8.593  -5.992 -23.339  1.00  0.00     0.006 C 
BRANCH   2   3
ATOM      3  C   UNL     1       7.541  -5.869 -24.446  1.00  0.00     0.053 C 
BRANCH   3   4
ATOM      4  C   UNL     1       6.163  -5.916 -23.865  1.00  0.00     0.041 C 
ATOM      5  O   UNL     1       5.393  -6.874 -24.140  1.00  0.00    -0.550 OA
ATOM      6  O   UNL     1       5.710  -4.878 -23.060  1.00  0.00    -0.550 OA
ENDBRANCH   3   4
ENDBRANCH   2   3
ENDBRANCH   1   2
BRANCH   1   7
ATOM      7  C   UNL     1       8.878  -7.885 -21.640  1.00  0.00     0.000 C 
BRANCH   7   8
ATOM      8  C   UNL     1       7.421  -8.072 -21.182  1.00  0.00    -0.000 C 
BRANCH   8   9
ATOM      9  C   UNL     1       7.256  -9.222 -20.171  1.00  0.00    -0.000 C 
BRANCH   9  10
ATOM     10  C   UNL     1       8.506 -10.100 -19.975  1.00  0.00    -0.003 C 
ATOM     11  C   UNL     1       9.086 -10.009 -18.563  1.00  0.00     0.004 C 
ENDBRANCH   9  10
ENDBRANCH   8   9
ENDBRANCH   7   8
ENDBRANCH   1   7
TORSDOF 7
ENDMDL
MODEL 2
REMARK VINA RESULT:    -3.269      2.883      5.501
REMARK INTER + INTRA:          -5.033
REMARK INTER:                  -4.775
REMARK INTRA:                  -0.258
REMARK UNBOUND:                -0.427
REMARK SMILES CCCCCCCCC(=O)[O-]
REMARK SMILES IDX 6 1 7 2 8 3 9 4 10 5 11 6 5 7 4 8 3 9 2 10 1 11
REMARK H PARENT
REMARK Flexibility Score: inf
ROOT
ATOM      1  C   UNL     1       8.712  -7.601 -21.952  1.00  0.00     0.000 C 
ENDROOT
BRANCH   1   2
ATOM      2  C   UNL     1       7.327  -8.134 -21.554  1.00  0.00     0.006 C 
BRANCH   2   3
ATOM      3  C   UNL     1       7.348  -8.699 -20.130  1.00  0.00     0.053 C 
BRANCH   3   4
ATOM      4  C   UNL     1       8.337  -9.817 -20.025  1.00  0.00     0.041 C 
ATOM      5  O   UNL     1       9.124  -9.876 -19.044  1.00  0.00    -0.550 OA
ATOM      6  O   UNL     1       8.424 -10.767 -21.035  1.00  0.00    -0.550 OA
ENDBRANCH   3   4
ENDBRANCH   2   3
ENDBRANCH   1   2
BRANCH   1   7
ATOM      7  C   UNL     1       8.697  -6.100 -22.288  1.00  0.00     0.000 C 
BRANCH   7   8
ATOM      8  C   UNL     1       7.370  -5.652 -22.922  1.00  0.00    -0.000 C 
BRANCH   8   9
ATOM      9  C   UNL     1       7.255  -6.043 -24.407  1.00  0.00    -0.000 C 
BRANCH   9  10
ATOM     10  C   UNL     1       6.000  -5.513 -25.125  1.00  0.00    -0.003 C 
ATOM     11  C   UNL     1       4.729  -6.272 -24.748  1.00  0.00     0.004 C 
ENDBRANCH   9  10
ENDBRANCH   8   9
ENDBRANCH   7   8
ENDBRANCH   1   7
TORSDOF 7
ENDMDL
MODEL 3
REMARK VINA RESULT:    -3.046     18.729     20.080
REMARK INTER + INTRA:          -4.719
REMARK INTER:                  -4.588
REMARK INTRA:                  -0.131
REMARK UNBOUND:                -0.427
REMARK SMILES CCCCCCCCC(=O)[O-]
REMARK SMILES IDX 6 1 7 2 8 3 9 4 10 5 11 6 5 7 4 8 3 9 2 10 1 11
REMARK H PARENT
REMARK Flexibility Score: inf
ROOT
ATOM      1  C   UNL     1      -3.261  -8.875  -4.971  1.00  0.00     0.000 C 
ENDROOT
BRANCH   1   2
ATOM      2  C   UNL     1      -4.306  -9.559  -5.866  1.00  0.00     0.006 C 
BRANCH   2   3
ATOM      3  C   UNL     1      -4.148 -11.082  -5.824  1.00  0.00     0.053 C 
BRANCH   3   4
ATOM      4  C   UNL     1      -5.472 -11.752  -6.013  1.00  0.00     0.041 C 
ATOM      5  O   UNL     1      -5.544 -12.853  -6.620  1.00  0.00    -0.550 OA
ATOM      6  O   UNL     1      -6.634 -11.137  -5.562  1.00  0.00    -0.550 OA
ENDBRANCH   3   4
ENDBRANCH   2   3
ENDBRANCH   1   2
BRANCH   1   7
ATOM      7  C   UNL     1      -2.265  -8.018  -5.769  1.00  0.00     0.000 C 
BRANCH   7   8
ATOM      8  C   UNL     1      -1.193  -7.373  -4.875  1.00  0.00    -0.000 C 
BRANCH   8   9
ATOM      9  C   UNL     1       0.116  -7.079  -5.631  1.00  0.00    -0.000 C 
BRANCH   9  10
ATOM     10  C   UNL     1       1.399  -7.541  -4.915  1.00  0.00    -0.003 C 
ATOM     11  C   UNL     1       2.484  -6.465  -4.876  1.00  0.00     0.004 C 
ENDBRANCH   9  10
ENDBRANCH   8   9
ENDBRANCH   7   8
ENDBRANCH   1   7
TORSDOF 7
ENDMDL
MODEL 4
REMARK VINA RESULT:    -2.589     18.795     20.259
REMARK INTER + INTRA:          -4.075
REMARK INTER:                  -3.882
REMARK INTRA:                  -0.194
REMARK UNBOUND:                -0.427
REMARK SMILES CCCCCCCCC(=O)[O-]
REMARK SMILES IDX 6 1 7 2 8 3 9 4 10 5 11 6 5 7 4 8 3 9 2 10 1 11
REMARK H PARENT
REMARK Flexibility Score: inf
ROOT
ATOM      1  C   UNL     1      -3.256  -9.053  -6.102  1.00  0.00     0.000 C 
ENDROOT
BRANCH   1   2
ATOM      2  C   UNL     1      -3.841  -9.985  -5.029  1.00  0.00     0.006 C 
BRANCH   2   3
ATOM      3  C   UNL     1      -4.263 -11.325  -5.641  1.00  0.00     0.053 C 
BRANCH   3   4
ATOM      4  C   UNL     1      -5.750 -11.480  -5.588  1.00  0.00     0.041 C 
ATOM      5  O   UNL     1      -6.467 -10.558  -5.116  1.00  0.00    -0.550 OA
ATOM      6  O   UNL     1      -6.342 -12.663  -6.012  1.00  0.00    -0.550 OA
ENDBRANCH   3   4
ENDBRANCH   2   3
ENDBRANCH   1   2
BRANCH   1   7
ATOM      7  C   UNL     1      -2.735  -7.730  -5.518  1.00  0.00     0.000 C 
BRANCH   7   8
ATOM      8  C   UNL     1      -1.342  -7.874  -4.880  1.00  0.00    -0.000 C 
BRANCH   8   9
ATOM      9  C   UNL     1      -0.246  -7.133  -5.668  1.00  0.00    -0.000 C 
BRANCH   9  10
ATOM     10  C   UNL     1       1.179  -7.685  -5.475  1.00  0.00    -0.003 C 
ATOM     11  C   UNL     1       2.144  -6.659  -4.883  1.00  0.00     0.004 C 
ENDBRANCH   9  10
ENDBRANCH   8   9
ENDBRANCH   7   8
ENDBRANCH   1   7
TORSDOF 7
ENDMDL
MODEL 5
REMARK VINA RESULT:    -1.236     18.250     19.718
REMARK INTER + INTRA:          -2.169
REMARK INTER:                  -2.024
REMARK INTRA:                  -0.144
REMARK UNBOUND:                -0.427
REMARK SMILES CCCCCCCCC(=O)[O-]
REMARK SMILES IDX 6 1 7 2 8 3 9 4 10 5 11 6 5 7 4 8 3 9 2 10 1 11
REMARK H PARENT
REMARK Flexibility Score: inf
ROOT
ATOM      1  C   UNL     1      -1.727  -7.548  -4.961  1.00  0.00     0.000 C 
ENDROOT
BRANCH   1   2
ATOM      2  C   UNL     1      -0.463  -7.208  -5.767  1.00  0.00     0.006 C 
BRANCH   2   3
ATOM      3  C   UNL     1       0.591  -6.545  -4.875  1.00  0.00     0.053 C 
BRANCH   3   4
ATOM      4  C   UNL     1       1.889  -7.284  -4.961  1.00  0.00     0.041 C 
ATOM      5  O   UNL     1       1.905  -8.543  -4.931  1.00  0.00    -0.550 OA
ATOM      6  O   UNL     1       3.087  -6.582  -5.025  1.00  0.00    -0.550 OA
ENDBRANCH   3   4
ENDBRANCH   2   3
ENDBRANCH   1   2
BRANCH   1   7
ATOM      7  C   UNL     1      -2.801  -8.249  -5.809  1.00  0.00     0.000 C 
BRANCH   7   8
ATOM      8  C   UNL     1      -3.565  -9.326  -5.021  1.00  0.00    -0.000 C 
BRANCH   8   9
ATOM      9  C   UNL     1      -4.500 -10.167  -5.910  1.00  0.00    -0.000 C 
BRANCH   9  10
ATOM     10  C   UNL     1      -4.793 -11.585  -5.388  1.00  0.00    -0.003 C 
ATOM     11  C   UNL     1      -6.244 -12.015  -5.603  1.00  0.00     0.004 C 
ENDBRANCH   9  10
ENDBRANCH   8   9
ENDBRANCH   7   8
ENDBRANCH   1   7
TORSDOF 7
ENDMDL
MODEL 6
REMARK VINA RESULT:    -0.790     15.150     16.329
REMARK INTER + INTRA:          -1.540
REMARK INTER:                  -1.442
REMARK INTRA:                  -0.098
REMARK UNBOUND:                -0.427
REMARK SMILES CCCCCCCCC(=O)[O-]
REMARK SMILES IDX 6 1 7 2 8 3 9 4 10 5 11 6 5 7 4 8 3 9 2 10 1 11
REMARK H PARENT
REMARK Flexibility Score: inf
ROOT
ATOM      1  C   UNL     1      -0.893 -20.010 -25.038  1.00  0.00     0.000 C 
ENDROOT
BRANCH   1   2
ATOM      2  C   UNL     1       0.614 -19.722 -25.125  1.00  0.00     0.006 C 
BRANCH   2   3
ATOM      3  C   UNL     1       0.887 -18.216 -25.055  1.00  0.00     0.053 C 
BRANCH   3   4
ATOM      4  C   UNL     1       2.233 -17.956 -24.457  1.00  0.00     0.041 C 
ATOM      5  O   UNL     1       2.334 -17.309 -23.380  1.00  0.00    -0.550 OA
ATOM      6  O   UNL     1       3.381 -18.384 -25.112  1.00  0.00    -0.550 OA
ENDBRANCH   3   4
ENDBRANCH   2   3
ENDBRANCH   1   2
BRANCH   1   7
ATOM      7  C   UNL     1      -1.217 -21.511 -25.122  1.00  0.00     0.000 C 
BRANCH   7   8
ATOM      8  C   UNL     1      -2.519 -21.876 -24.390  1.00  0.00    -0.000 C 
BRANCH   8   9
ATOM      9  C   UNL     1      -3.264 -23.053 -25.048  1.00  0.00    -0.000 C 
BRANCH   9  10
ATOM     10  C   UNL     1      -4.421 -23.636 -24.216  1.00  0.00    -0.003 C 
ATOM     11  C   UNL     1      -5.592 -24.116 -25.074  1.00  0.00     0.004 C 
ENDBRANCH   9  10
ENDBRANCH   8   9
ENDBRANCH   7   8
ENDBRANCH   1   7
TORSDOF 7
ENDMDL
