MODEL 1
REMARK VINA RESULT:    -3.504      0.000      0.000
REMARK INTER + INTRA:          -5.276
REMARK INTER:                  -4.938
REMARK INTRA:                  -0.338
REMARK UNBOUND:                -0.338
REMARK SMILES CCCCCCCCC(=O)[O-]
REMARK SMILES IDX 6 1 7 2 8 3 9 4 10 5 11 6 5 7 4 8 3 9 2 10 1 11
REMARK H PARENT
REMARK Flexibility Score: inf
ROOT
ATOM      1  C   UNL     1       9.035 -19.384  12.998  1.00  0.00     0.000 C 
ENDROOT
BRANCH   1   2
ATOM      2  C   UNL     1       8.447 -20.120  11.781  1.00  0.00     0.006 C 
BRANCH   2   3
ATOM      3  C   UNL     1       7.223 -19.397  11.203  1.00  0.00     0.053 C 
BRANCH   3   4
ATOM      4  C   UNL     1       7.085 -19.626   9.729  1.00  0.00     0.041 C 
ATOM      5  O   UNL     1       6.286 -18.927   9.051  1.00  0.00    -0.550 OA
ATOM      6  O   UNL     1       7.816 -20.632   9.110  1.00  0.00    -0.550 OA
ENDBRANCH   3   4
ENDBRANCH   2   3
ENDBRANCH   1   2
BRANCH   1   7
ATOM      7  C   UNL     1       8.992 -20.233  14.280  1.00  0.00     0.000 C 
BRANCH   7   8
ATOM      8  C   UNL     1       8.443 -21.648  14.032  1.00  0.00    -0.000 C 
BRANCH   8   9
ATOM      9  C   UNL     1       7.468 -22.113  15.130  1.00  0.00    -0.000 C 
BRANCH   9  10
ATOM     10  C   UNL     1       7.759 -21.557  16.535  1.00  0.00    -0.003 C 
ATOM     11  C   UNL     1       6.555 -21.642  17.473  1.00  0.00     0.004 C 
ENDBRANCH   9  10
ENDBRANCH   8   9
ENDBRANCH   7   8
ENDBRANCH   1   7
TORSDOF 7
ENDMDL
MODEL 2
REMARK VINA RESULT:    -3.190      1.710      2.298
REMARK INTER + INTRA:          -4.834
REMARK INTER:                  -4.427
REMARK INTRA:                  -0.407
REMARK UNBOUND:                -0.338
REMARK SMILES CCCCCCCCC(=O)[O-]
REMARK SMILES IDX 6 1 7 2 8 3 9 4 10 5 11 6 5 7 4 8 3 9 2 10 1 11
REMARK H PARENT
REMARK Flexibility Score: inf
ROOT
ATOM      1  C   UNL     1       7.078 -22.182  13.036  1.00  0.00     0.000 C 
ENDROOT
BRANCH   1   2
ATOM      2  C   UNL     1       7.036 -21.947  11.516  1.00  0.00     0.006 C 
BRANCH   2   3
ATOM      3  C   UNL     1       8.146 -20.998  11.045  1.00  0.00     0.053 C 
BRANCH   3   4
ATOM      4  C   UNL     1       7.878 -19.582  11.450  1.00  0.00     0.041 C 
ATOM      5  O   UNL     1       8.522 -19.061  12.400  1.00  0.00    -0.550 OA
ATOM      6  O   UNL     1       6.895 -18.845  10.799  1.00  0.00    -0.550 OA
ENDBRANCH   3   4
ENDBRANCH   2   3
ENDBRANCH   1   2
BRANCH   1   7
ATOM      7  C   UNL     1       8.434 -22.727  13.513  1.00  0.00     0.000 C 
BRANCH   7   8
ATOM      8  C   UNL     1       8.566 -22.719  15.046  1.00  0.00    -0.000 C 
BRANCH   8   9
ATOM      9  C   UNL     1       7.851 -21.523  15.702  1.00  0.00    -0.000 C 
BRANCH   9  10
ATOM     10  C   UNL     1       7.584 -21.672  17.210  1.00  0.00    -0.003 C 
ATOM     11  C   UNL     1       6.100 -21.823  17.544  1.00  0.00     0.004 C 
ENDBRANCH   9  10
ENDBRANCH   8   9
ENDBRANCH   7   8
ENDBRANCH   1   7
TORSDOF 7
ENDMDL
MODEL 3
REMARK VINA RESULT:    -3.132      3.331      5.875
REMARK INTER + INTRA:          -4.752
REMARK INTER:                  -4.474
REMARK INTRA:                  -0.278
REMARK UNBOUND:                -0.338
REMARK SMILES CCCCCCCCC(=O)[O-]
REMARK SMILES IDX 6 1 7 2 8 3 9 4 10 5 11 6 5 7 4 8 3 9 2 10 1 11
REMARK H PARENT
REMARK Flexibility Score: inf
ROOT
ATOM      1  C   UNL     1       8.932 -19.943  14.276  1.00  0.00     0.000 C 
ENDROOT
BRANCH   1   2
ATOM      2  C   UNL     1       8.940 -21.466  14.492  1.00  0.00     0.006 C 
BRANCH   2   3
ATOM      3  C   UNL     1       8.692 -21.845  15.958  1.00  0.00     0.053 C 
BRANCH   3   4
ATOM      4  C   UNL     1       7.236 -22.050  16.243  1.00  0.00     0.041 C 
ATOM      5  O   UNL     1       6.499 -22.620  15.395  1.00  0.00    -0.550 OA
ATOM      6  O   UNL     1       6.687 -21.585  17.431  1.00  0.00    -0.550 OA
ENDBRANCH   3   4
ENDBRANCH   2   3
ENDBRANCH   1   2
BRANCH   1   7
ATOM      7  C   UNL     1       9.125 -19.553  12.802  1.00  0.00     0.000 C 
BRANCH   7   8
ATOM      8  C   UNL     1       8.150 -20.286  11.865  1.00  0.00    -0.000 C 
BRANCH   8   9
ATOM      9  C   UNL     1       7.262 -19.324  11.053  1.00  0.00    -0.000 C 
BRANCH   9  10
ATOM     10  C   UNL     1       7.111 -19.679   9.564  1.00  0.00    -0.003 C 
ATOM     11  C   UNL     1       8.374 -20.298   8.965  1.00  0.00     0.004 C 
ENDBRANCH   9  10
ENDBRANCH   8   9
ENDBRANCH   7   8
ENDBRANCH   1   7
TORSDOF 7
ENDMDL
MODEL 4
REMARK VINA RESULT:    -2.955      1.332      2.160
REMARK INTER + INTRA:          -4.502
REMARK INTER:                  -4.214
REMARK INTRA:                  -0.288
REMARK UNBOUND:                -0.338
REMARK SMILES CCCCCCCCC(=O)[O-]
REMARK SMILES IDX 6 1 7 2 8 3 9 4 10 5 11 6 5 7 4 8 3 9 2 10 1 11
REMARK H PARENT
REMARK Flexibility Score: inf
ROOT
ATOM      1  C   UNL     1       7.735 -20.378  11.880  1.00  0.00     0.000 C 
ENDROOT
BRANCH   1   2
ATOM      2  C   UNL     1       7.216 -19.601  10.659  1.00  0.00     0.006 C 
BRANCH   2   3
ATOM      3  C   UNL     1       7.862 -20.077   9.351  1.00  0.00     0.053 C 
BRANCH   3   4
ATOM      4  C   UNL     1       7.794 -21.565   9.204  1.00  0.00     0.041 C 
ATOM      5  O   UNL     1       8.842 -22.259   9.282  1.00  0.00    -0.550 OA
ATOM      6  O   UNL     1       6.576 -22.185   8.951  1.00  0.00    -0.550 OA
ENDBRANCH   3   4
ENDBRANCH   2   3
ENDBRANCH   1   2
BRANCH   1   7
ATOM      7  C   UNL     1       8.924 -19.682  12.563  1.00  0.00     0.000 C 
BRANCH   7   8
ATOM      8  C   UNL     1       8.891 -19.826  14.094  1.00  0.00    -0.000 C 
BRANCH   8   9
ATOM      9  C   UNL     1       9.029 -21.286  14.562  1.00  0.00    -0.000 C 
BRANCH   9  10
ATOM     10  C   UNL     1       7.775 -21.877  15.229  1.00  0.00    -0.003 C 
ATOM     11  C   UNL     1       7.653 -21.510  16.708  1.00  0.00     0.004 C 
ENDBRANCH   9  10
ENDBRANCH   8   9
ENDBRANCH   7   8
ENDBRANCH   1   7
TORSDOF 7
ENDMDL
MODEL 5
REMARK VINA RESULT:    -2.829      3.247      5.391
REMARK INTER + INTRA:          -4.324
REMARK INTER:                  -3.674
REMARK INTRA:                  -0.650
REMARK UNBOUND:                -0.338
REMARK SMILES CCCCCCCCC(=O)[O-]
REMARK SMILES IDX 6 1 7 2 8 3 9 4 10 5 11 6 5 7 4 8 3 9 2 10 1 11
REMARK H PARENT
REMARK Flexibility Score: inf
ROOT
ATOM      1  C   UNL     1       6.370 -22.405  12.684  1.00  0.00     0.000 C 
ENDROOT
BRANCH   1   2
ATOM      2  C   UNL     1       6.503 -22.845  14.153  1.00  0.00     0.006 C 
BRANCH   2   3
ATOM      3  C   UNL     1       7.928 -22.652  14.689  1.00  0.00     0.053 C 
BRANCH   3   4
ATOM      4  C   UNL     1       8.063 -21.380  15.468  1.00  0.00     0.041 C 
ATOM      5  O   UNL     1       7.609 -21.303  16.640  1.00  0.00    -0.550 OA
ATOM      6  O   UNL     1       8.663 -20.268  14.889  1.00  0.00    -0.550 OA
ENDBRANCH   3   4
ENDBRANCH   2   3
ENDBRANCH   1   2
BRANCH   1   7
ATOM      7  C   UNL     1       7.509 -22.939  11.801  1.00  0.00     0.000 C 
BRANCH   7   8
ATOM      8  C   UNL     1       8.012 -21.894  10.790  1.00  0.00    -0.000 C 
BRANCH   8   9
ATOM      9  C   UNL     1       8.822 -20.764  11.452  1.00  0.00    -0.000 C 
BRANCH   9  10
ATOM     10  C   UNL     1       8.102 -19.406  11.530  1.00  0.00    -0.003 C 
ATOM     11  C   UNL     1       6.937 -19.289  10.547  1.00  0.00     0.004 C 
ENDBRANCH   9  10
ENDBRANCH   8   9
ENDBRANCH   7   8
ENDBRANCH   1   7
TORSDOF 7
ENDMDL
MODEL 6
REMARK VINA RESULT:    -2.816     17.887     18.730
REMARK INTER + INTRA:          -4.306
REMARK INTER:                  -3.904
REMARK INTRA:                  -0.403
REMARK UNBOUND:                -0.338
REMARK SMILES CCCCCCCCC(=O)[O-]
REMARK SMILES IDX 6 1 7 2 8 3 9 4 10 5 11 6 5 7 4 8 3 9 2 10 1 11
REMARK H PARENT
REMARK Flexibility Score: inf
ROOT
ATOM      1  C   UNL     1      -9.611 -20.839  18.953  1.00  0.00     0.000 C 
ENDROOT
BRANCH   1   2
ATOM      2  C   UNL     1     -10.371 -21.322  17.705  1.00  0.00     0.006 C 
BRANCH   2   3
ATOM      3  C   UNL     1     -10.633 -20.183  16.710  1.00  0.00     0.053 C 
BRANCH   3   4
ATOM      4  C   UNL     1     -10.022 -20.461  15.371  1.00  0.00     0.041 C 
ATOM      5  O   UNL     1     -10.715 -20.356  14.324  1.00  0.00    -0.550 OA
ATOM      6  O   UNL     1      -8.696 -20.866  15.282  1.00  0.00    -0.550 OA
ENDBRANCH   3   4
ENDBRANCH   2   3
ENDBRANCH   1   2
BRANCH   1   7
ATOM      7  C   UNL     1     -10.192 -19.541  19.535  1.00  0.00     0.000 C 
BRANCH   7   8
ATOM      8  C   UNL     1     -10.981 -19.778  20.834  1.00  0.00    -0.000 C 
BRANCH   8   9
ATOM      9  C   UNL     1     -10.422 -20.944  21.670  1.00  0.00    -0.000 C 
BRANCH   9  10
ATOM     10  C   UNL     1      -9.412 -20.539  22.758  1.00  0.00    -0.003 C 
ATOM     11  C   UNL     1      -8.428 -21.655  23.108  1.00  0.00     0.004 C 
ENDBRANCH   9  10
ENDBRANCH   8   9
ENDBRANCH   7   8
ENDBRANCH   1   7
TORSDOF 7
ENDMDL
MODEL 7
REMARK VINA RESULT:    -2.805     18.187     19.995
REMARK INTER + INTRA:          -4.291
REMARK INTER:                  -3.939
REMARK INTRA:                  -0.352
REMARK UNBOUND:                -0.338
REMARK SMILES CCCCCCCCC(=O)[O-]
REMARK SMILES IDX 6 1 7 2 8 3 9 4 10 5 11 6 5 7 4 8 3 9 2 10 1 11
REMARK H PARENT
REMARK Flexibility Score: inf
ROOT
ATOM      1  C   UNL     1     -10.319 -19.660  19.589  1.00  0.00     0.000 C 
ENDROOT
BRANCH   1   2
ATOM      2  C   UNL     1     -10.877 -19.893  21.004  1.00  0.00     0.006 C 
BRANCH   2   3
ATOM      3  C   UNL     1     -10.438 -21.244  21.586  1.00  0.00     0.053 C 
BRANCH   3   4
ATOM      4  C   UNL     1      -9.608 -21.075  22.821  1.00  0.00     0.041 C 
ATOM      5  O   UNL     1      -8.809 -20.106  22.921  1.00  0.00    -0.550 OA
ATOM      6  O   UNL     1      -9.693 -22.006  23.849  1.00  0.00    -0.550 OA
ENDBRANCH   3   4
ENDBRANCH   2   3
ENDBRANCH   1   2
BRANCH   1   7
ATOM      7  C   UNL     1      -9.822 -20.956  18.929  1.00  0.00     0.000 C 
BRANCH   7   8
ATOM      8  C   UNL     1     -10.593 -21.295  17.641  1.00  0.00    -0.000 C 
BRANCH   8   9
ATOM      9  C   UNL     1     -10.753 -20.085  16.703  1.00  0.00    -0.000 C 
BRANCH   9  10
ATOM     10  C   UNL     1     -10.749 -20.421  15.202  1.00  0.00    -0.003 C 
ATOM     11  C   UNL     1      -9.350 -20.403  14.586  1.00  0.00     0.004 C 
ENDBRANCH   9  10
ENDBRANCH   8   9
ENDBRANCH   7   8
ENDBRANCH   1   7
TORSDOF 7
ENDMDL
MODEL 8
REMARK VINA RESULT:    -2.717     16.841     18.740
REMARK INTER + INTRA:          -4.168
REMARK INTER:                  -3.506
REMARK INTRA:                  -0.662
REMARK UNBOUND:                -0.338
REMARK SMILES CCCCCCCCC(=O)[O-]
REMARK SMILES IDX 6 1 7 2 8 3 9 4 10 5 11 6 5 7 4 8 3 9 2 10 1 11
REMARK H PARENT
REMARK Flexibility Score: inf
ROOT
ATOM      1  C   UNL     1     -10.026 -20.217  20.214  1.00  0.00     0.000 C 
ENDROOT
BRANCH   1   2
ATOM      2  C   UNL     1     -10.176 -21.495  19.372  1.00  0.00     0.006 C 
BRANCH   2   3
ATOM      3  C   UNL     1      -8.856 -22.267  19.249  1.00  0.00     0.053 C 
BRANCH   3   4
ATOM      4  C   UNL     1      -8.149 -21.962  17.965  1.00  0.00     0.041 C 
ATOM      5  O   UNL     1      -6.891 -22.005  17.907  1.00  0.00    -0.550 OA
ATOM      6  O   UNL     1      -8.877 -21.599  16.838  1.00  0.00    -0.550 OA
ENDBRANCH   3   4
ENDBRANCH   2   3
ENDBRANCH   1   2
BRANCH   1   7
ATOM      7  C   UNL     1     -11.068 -20.124  21.341  1.00  0.00     0.000 C 
BRANCH   7   8
ATOM      8  C   UNL     1     -10.488 -20.510  22.713  1.00  0.00    -0.000 C 
BRANCH   8   9
ATOM      9  C   UNL     1      -8.954 -20.390  22.770  1.00  0.00    -0.000 C 
BRANCH   9  10
ATOM     10  C   UNL     1      -8.214 -21.685  23.149  1.00  0.00    -0.003 C 
ATOM     11  C   UNL     1      -9.156 -22.807  23.585  1.00  0.00     0.004 C 
ENDBRANCH   9  10
ENDBRANCH   8   9
ENDBRANCH   7   8
ENDBRANCH   1   7
TORSDOF 7
ENDMDL
MODEL 9
REMARK VINA RESULT:    -2.541     17.749     19.074
REMARK INTER + INTRA:          -3.919
REMARK INTER:                  -3.551
REMARK INTRA:                  -0.368
REMARK UNBOUND:                -0.338
REMARK SMILES CCCCCCCCC(=O)[O-]
REMARK SMILES IDX 6 1 7 2 8 3 9 4 10 5 11 6 5 7 4 8 3 9 2 10 1 11
REMARK H PARENT
REMARK Flexibility Score: inf
ROOT
ATOM      1  C   UNL     1     -10.125 -19.881  20.441  1.00  0.00     0.000 C 
ENDROOT
BRANCH   1   2
ATOM      2  C   UNL     1     -11.057 -20.427  19.346  1.00  0.00     0.006 C 
BRANCH   2   3
ATOM      3  C   UNL     1     -11.024 -19.568  18.074  1.00  0.00     0.053 C 
BRANCH   3   4
ATOM      4  C   UNL     1     -10.845 -20.402  16.843  1.00  0.00     0.041 C 
ATOM      5  O   UNL     1     -11.113 -21.632  16.865  1.00  0.00    -0.550 OA
ATOM      6  O   UNL     1     -10.351 -19.826  15.678  1.00  0.00    -0.550 OA
ENDBRANCH   3   4
ENDBRANCH   2   3
ENDBRANCH   1   2
BRANCH   1   7
ATOM      7  C   UNL     1     -10.268 -20.637  21.772  1.00  0.00     0.000 C 
BRANCH   7   8
ATOM      8  C   UNL     1      -9.113 -20.344  22.744  1.00  0.00    -0.000 C 
BRANCH   8   9
ATOM      9  C   UNL     1      -8.330 -21.609  23.142  1.00  0.00    -0.000 C 
BRANCH   9  10
ATOM     10  C   UNL     1      -8.608 -22.847  22.271  1.00  0.00    -0.003 C 
ATOM     11  C   UNL     1      -7.501 -23.125  21.254  1.00  0.00     0.004 C 
ENDBRANCH   9  10
ENDBRANCH   8   9
ENDBRANCH   7   8
ENDBRANCH   1   7
TORSDOF 7
ENDMDL
