MODEL 1
REMARK VINA RESULT:    -5.759      0.000      0.000
REMARK INTER + INTRA:         -11.371
REMARK INTER:                 -10.473
REMARK INTRA:                  -0.899
REMARK UNBOUND:                -0.899
REMARK SMILES CCCCCCCCCCCCCCCC(=O)[O-]
REMARK SMILES IDX 9 1 10 2 11 3 12 4 13 5 14 6 15 7 16 8 17 9 18 10 8 11 7 12
REMARK SMILES IDX 6 13 5 14 4 15 3 16 2 17 1 18
REMARK H PARENT
REMARK Flexibility Score: inf
ROOT
ATOM      1  C   UNL     1     104.443 312.243 195.680  1.00  0.00     0.000 C 
ENDROOT
BRANCH   1   2
ATOM      2  C   UNL     1     104.088 311.427 196.931  1.00  0.00     0.000 C 
BRANCH   2   3
ATOM      3  C   UNL     1     103.747 312.307 198.144  1.00  0.00     0.000 C 
BRANCH   3   4
ATOM      4  C   UNL     1     103.414 311.498 199.416  1.00  0.00     0.000 C 
BRANCH   4   5
ATOM      5  C   UNL     1     103.969 312.161 200.689  1.00  0.00     0.000 C 
BRANCH   5   6
ATOM      6  C   UNL     1     103.238 311.719 201.969  1.00  0.00     0.006 C 
BRANCH   6   7
ATOM      7  C   UNL     1     104.078 310.814 202.887  1.00  0.00     0.053 C 
BRANCH   7   8
ATOM      8  C   UNL     1     103.531 310.744 204.280  1.00  0.00     0.041 C 
ATOM      9  O   UNL     1     104.260 311.043 205.263  1.00  0.00    -0.550 OA
ATOM     10  O   UNL     1     102.206 310.384 204.494  1.00  0.00    -0.550 OA
ENDBRANCH   7   8
ENDBRANCH   6   7
ENDBRANCH   5   6
ENDBRANCH   4   5
ENDBRANCH   3   4
ENDBRANCH   2   3
ENDBRANCH   1   2
BRANCH   1  11
ATOM     11  C   UNL     1     103.601 311.799 194.480  1.00  0.00     0.000 C 
BRANCH  11  12
ATOM     12  C   UNL     1     104.491 311.282 193.338  1.00  0.00    -0.000 C 
BRANCH  12  13
ATOM     13  C   UNL     1     105.885 311.946 193.339  1.00  0.00    -0.000 C 
BRANCH  13  14
ATOM     14  C   UNL     1     106.049 313.045 192.273  1.00  0.00    -0.000 C 
BRANCH  14  15
ATOM     15  C   UNL     1     105.461 314.413 192.659  1.00  0.00    -0.000 C 
BRANCH  15  16
ATOM     16  C   UNL     1     104.064 314.650 192.061  1.00  0.00    -0.000 C 
BRANCH  16  17
ATOM     17  C   UNL     1     103.849 313.874 190.752  1.00  0.00    -0.003 C 
ATOM     18  C   UNL     1     104.027 314.751 189.512  1.00  0.00     0.004 C 
ENDBRANCH  16  17
ENDBRANCH  15  16
ENDBRANCH  14  15
ENDBRANCH  13  14
ENDBRANCH  12  13
ENDBRANCH  11  12
ENDBRANCH   1  11
TORSDOF 14
ENDMDL
MODEL 2
REMARK VINA RESULT:    -5.733     19.991     20.948
REMARK INTER + INTRA:         -11.324
REMARK INTER:                 -10.351
REMARK INTRA:                  -0.973
REMARK UNBOUND:                -0.899
REMARK SMILES CCCCCCCCCCCCCCCC(=O)[O-]
REMARK SMILES IDX 9 1 10 2 11 3 12 4 13 5 14 6 15 7 16 8 17 9 18 10 8 11 7 12
REMARK SMILES IDX 6 13 5 14 4 15 3 16 2 17 1 18
REMARK H PARENT
REMARK Flexibility Score: inf
ROOT
ATOM      1  C   UNL     1      88.440 325.639 196.418  1.00  0.00     0.000 C 
ENDROOT
BRANCH   1   2
ATOM      2  C   UNL     1      88.505 326.486 197.697  1.00  0.00     0.000 C 
BRANCH   2   3
ATOM      3  C   UNL     1      88.956 325.682 198.927  1.00  0.00     0.000 C 
BRANCH   3   4
ATOM      4  C   UNL     1      89.540 326.559 200.055  1.00  0.00     0.000 C 
BRANCH   4   5
ATOM      5  C   UNL     1      88.757 326.411 201.371  1.00  0.00     0.000 C 
BRANCH   5   6
ATOM      6  C   UNL     1      89.661 326.129 202.584  1.00  0.00     0.006 C 
BRANCH   6   7
ATOM      7  C   UNL     1      89.487 327.132 203.738  1.00  0.00     0.053 C 
BRANCH   7   8
ATOM      8  C   UNL     1      89.403 326.459 205.074  1.00  0.00     0.041 C 
ATOM      9  O   UNL     1      89.092 327.122 206.099  1.00  0.00    -0.550 OA
ATOM     10  O   UNL     1      89.632 325.092 205.186  1.00  0.00    -0.550 OA
ENDBRANCH   7   8
ENDBRANCH   6   7
ENDBRANCH   5   6
ENDBRANCH   4   5
ENDBRANCH   3   4
ENDBRANCH   2   3
ENDBRANCH   1   2
BRANCH   1  11
ATOM     11  C   UNL     1      88.860 326.460 195.195  1.00  0.00     0.000 C 
BRANCH  11  12
ATOM     12  C   UNL     1      87.638 326.892 194.370  1.00  0.00    -0.000 C 
BRANCH  12  13
ATOM     13  C   UNL     1      86.387 326.045 194.693  1.00  0.00    -0.000 C 
BRANCH  13  14
ATOM     14  C   UNL     1      86.015 325.041 193.586  1.00  0.00    -0.000 C 
BRANCH  14  15
ATOM     15  C   UNL     1      86.643 323.645 193.741  1.00  0.00    -0.000 C 
BRANCH  15  16
ATOM     16  C   UNL     1      88.015 323.532 193.055  1.00  0.00    -0.000 C 
BRANCH  16  17
ATOM     17  C   UNL     1      88.089 324.348 191.756  1.00  0.00    -0.003 C 
ATOM     18  C   UNL     1      88.141 323.466 190.508  1.00  0.00     0.004 C 
ENDBRANCH  16  17
ENDBRANCH  15  16
ENDBRANCH  14  15
ENDBRANCH  13  14
ENDBRANCH  12  13
ENDBRANCH  11  12
ENDBRANCH   1  11
TORSDOF 14
ENDMDL
MODEL 3
REMARK VINA RESULT:    -5.677     19.560     20.620
REMARK INTER + INTRA:         -11.222
REMARK INTER:                  -9.617
REMARK INTRA:                  -1.606
REMARK UNBOUND:                -0.899
REMARK SMILES CCCCCCCCCCCCCCCC(=O)[O-]
REMARK SMILES IDX 9 1 10 2 11 3 12 4 13 5 14 6 15 7 16 8 17 9 18 10 8 11 7 12
REMARK SMILES IDX 6 13 5 14 4 15 3 16 2 17 1 18
REMARK H PARENT
REMARK Flexibility Score: inf
ROOT
ATOM      1  C   UNL     1      88.909 326.320 195.266  1.00  0.00     0.000 C 
ENDROOT
BRANCH   1   2
ATOM      2  C   UNL     1      88.022 326.071 196.494  1.00  0.00     0.000 C 
BRANCH   2   3
ATOM      3  C   UNL     1      88.550 326.756 197.765  1.00  0.00     0.000 C 
BRANCH   3   4
ATOM      4  C   UNL     1      88.927 325.765 198.886  1.00  0.00     0.000 C 
BRANCH   4   5
ATOM      5  C   UNL     1      89.414 326.483 200.158  1.00  0.00     0.000 C 
BRANCH   5   6
ATOM      6  C   UNL     1      88.594 326.120 201.408  1.00  0.00     0.006 C 
BRANCH   6   7
ATOM      7  C   UNL     1      89.450 325.825 202.652  1.00  0.00     0.053 C 
BRANCH   7   8
ATOM      8  C   UNL     1      89.859 327.073 203.376  1.00  0.00     0.041 C 
ATOM      9  O   UNL     1      89.039 327.668 204.123  1.00  0.00    -0.550 OA
ATOM     10  O   UNL     1      91.155 327.559 203.255  1.00  0.00    -0.550 OA
ENDBRANCH   7   8
ENDBRANCH   6   7
ENDBRANCH   5   6
ENDBRANCH   4   5
ENDBRANCH   3   4
ENDBRANCH   2   3
ENDBRANCH   1   2
BRANCH   1  11
ATOM     11  C   UNL     1      88.069 326.758 194.063  1.00  0.00     0.000 C 
BRANCH  11  12
ATOM     12  C   UNL     1      87.186 325.607 193.555  1.00  0.00    -0.000 C 
BRANCH  12  13
ATOM     13  C   UNL     1      87.967 324.626 192.654  1.00  0.00    -0.000 C 
BRANCH  13  14
ATOM     14  C   UNL     1      88.223 323.254 193.306  1.00  0.00    -0.000 C 
BRANCH  14  15
ATOM     15  C   UNL     1      87.260 322.892 194.449  1.00  0.00    -0.000 C 
BRANCH  15  16
ATOM     16  C   UNL     1      87.991 322.393 195.707  1.00  0.00    -0.000 C 
BRANCH  16  17
ATOM     17  C   UNL     1      89.519 322.408 195.540  1.00  0.00    -0.003 C 
ATOM     18  C   UNL     1      90.232 323.072 196.719  1.00  0.00     0.004 C 
ENDBRANCH  16  17
ENDBRANCH  15  16
ENDBRANCH  14  15
ENDBRANCH  13  14
ENDBRANCH  12  13
ENDBRANCH  11  12
ENDBRANCH   1  11
TORSDOF 14
ENDMDL
MODEL 4
REMARK VINA RESULT:    -5.663      1.344      2.315
REMARK INTER + INTRA:         -11.196
REMARK INTER:                  -9.976
REMARK INTRA:                  -1.220
REMARK UNBOUND:                -0.899
REMARK SMILES CCCCCCCCCCCCCCCC(=O)[O-]
REMARK SMILES IDX 9 1 10 2 11 3 12 4 13 5 14 6 15 7 16 8 17 9 18 10 8 11 7 12
REMARK SMILES IDX 6 13 5 14 4 15 3 16 2 17 1 18
REMARK H PARENT
REMARK Flexibility Score: inf
ROOT
ATOM      1  C   UNL     1     103.470 311.807 194.702  1.00  0.00     0.000 C 
ENDROOT
BRANCH   1   2
ATOM      2  C   UNL     1     104.478 311.884 195.858  1.00  0.00     0.000 C 
BRANCH   2   3
ATOM      3  C   UNL     1     103.935 311.287 197.166  1.00  0.00     0.000 C 
BRANCH   3   4
ATOM      4  C   UNL     1     103.874 312.303 198.327  1.00  0.00     0.000 C 
BRANCH   4   5
ATOM      5  C   UNL     1     103.200 311.716 199.579  1.00  0.00     0.000 C 
BRANCH   5   6
ATOM      6  C   UNL     1     104.104 311.751 200.824  1.00  0.00     0.006 C 
BRANCH   6   7
ATOM      7  C   UNL     1     103.424 311.235 202.104  1.00  0.00     0.053 C 
BRANCH   7   8
ATOM      8  C   UNL     1     104.149 311.653 203.348  1.00  0.00     0.041 C 
ATOM      9  O   UNL     1     104.797 312.733 203.370  1.00  0.00    -0.550 OA
ATOM     10  O   UNL     1     104.079 310.872 204.495  1.00  0.00    -0.550 OA
ENDBRANCH   7   8
ENDBRANCH   6   7
ENDBRANCH   5   6
ENDBRANCH   4   5
ENDBRANCH   3   4
ENDBRANCH   2   3
ENDBRANCH   1   2
BRANCH   1  11
ATOM     11  C   UNL     1     104.160 311.379 193.402  1.00  0.00     0.000 C 
BRANCH  11  12
ATOM     12  C   UNL     1     105.569 311.983 193.297  1.00  0.00    -0.000 C 
BRANCH  12  13
ATOM     13  C   UNL     1     105.647 313.098 192.231  1.00  0.00    -0.000 C 
BRANCH  13  14
ATOM     14  C   UNL     1     104.286 313.452 191.602  1.00  0.00    -0.000 C 
BRANCH  14  15
ATOM     15  C   UNL     1     103.725 314.826 192.006  1.00  0.00    -0.000 C 
BRANCH  15  16
ATOM     16  C   UNL     1     104.126 315.235 193.434  1.00  0.00    -0.000 C 
BRANCH  16  17
ATOM     17  C   UNL     1     102.969 315.892 194.201  1.00  0.00    -0.003 C 
ATOM     18  C   UNL     1     102.747 315.268 195.580  1.00  0.00     0.004 C 
ENDBRANCH  16  17
ENDBRANCH  15  16
ENDBRANCH  14  15
ENDBRANCH  13  14
ENDBRANCH  12  13
ENDBRANCH  11  12
ENDBRANCH   1  11
TORSDOF 14
ENDMDL
MODEL 5
REMARK VINA RESULT:    -5.618     19.683     22.163
REMARK INTER + INTRA:         -11.114
REMARK INTER:                 -10.196
REMARK INTRA:                  -0.918
REMARK UNBOUND:                -0.899
REMARK SMILES CCCCCCCCCCCCCCCC(=O)[O-]
REMARK SMILES IDX 9 1 10 2 11 3 12 4 13 5 14 6 15 7 16 8 17 9 18 10 8 11 7 12
REMARK SMILES IDX 6 13 5 14 4 15 3 16 2 17 1 18
REMARK H PARENT
REMARK Flexibility Score: inf
ROOT
ATOM      1  C   UNL     1      86.698 326.154 194.288  1.00  0.00     0.000 C 
ENDROOT
BRANCH   1   2
ATOM      2  C   UNL     1      86.523 324.948 193.354  1.00  0.00     0.000 C 
BRANCH   2   3
ATOM      3  C   UNL     1      87.855 324.266 192.999  1.00  0.00     0.000 C 
BRANCH   3   4
ATOM      4  C   UNL     1      88.116 324.179 191.480  1.00  0.00     0.000 C 
BRANCH   4   5
ATOM      5  C   UNL     1      87.190 323.163 190.788  1.00  0.00     0.000 C 
BRANCH   5   6
ATOM      6  C   UNL     1      87.766 322.623 189.468  1.00  0.00     0.006 C 
BRANCH   6   7
ATOM      7  C   UNL     1      89.040 323.349 188.999  1.00  0.00     0.053 C 
BRANCH   7   8
ATOM      8  C   UNL     1      90.232 322.442 188.953  1.00  0.00     0.041 C 
ATOM      9  O   UNL     1      91.139 322.631 188.099  1.00  0.00    -0.550 OA
ATOM     10  O   UNL     1      90.363 321.409 189.873  1.00  0.00    -0.550 OA
ENDBRANCH   7   8
ENDBRANCH   6   7
ENDBRANCH   5   6
ENDBRANCH   4   5
ENDBRANCH   3   4
ENDBRANCH   2   3
ENDBRANCH   1   2
BRANCH   1  11
ATOM     11  C   UNL     1      88.133 326.689 194.229  1.00  0.00     0.000 C 
BRANCH  11  12
ATOM     12  C   UNL     1      88.869 326.449 195.556  1.00  0.00    -0.000 C 
BRANCH  12  13
ATOM     13  C   UNL     1      87.916 325.977 196.675  1.00  0.00    -0.000 C 
BRANCH  13  14
ATOM     14  C   UNL     1      88.418 324.735 197.435  1.00  0.00    -0.000 C 
BRANCH  14  15
ATOM     15  C   UNL     1      89.418 325.030 198.566  1.00  0.00    -0.000 C 
BRANCH  15  16
ATOM     16  C   UNL     1      89.227 326.428 199.178  1.00  0.00    -0.000 C 
BRANCH  16  17
ATOM     17  C   UNL     1      89.633 326.479 200.659  1.00  0.00    -0.003 C 
ATOM     18  C   UNL     1      88.531 325.969 201.589  1.00  0.00     0.004 C 
ENDBRANCH  16  17
ENDBRANCH  15  16
ENDBRANCH  14  15
ENDBRANCH  13  14
ENDBRANCH  12  13
ENDBRANCH  11  12
ENDBRANCH   1  11
TORSDOF 14
ENDMDL
MODEL 6
REMARK VINA RESULT:    -5.593     19.748     20.698
REMARK INTER + INTRA:         -11.069
REMARK INTER:                  -9.576
REMARK INTRA:                  -1.493
REMARK UNBOUND:                -0.899
REMARK SMILES CCCCCCCCCCCCCCCC(=O)[O-]
REMARK SMILES IDX 9 1 10 2 11 3 12 4 13 5 14 6 15 7 16 8 17 9 18 10 8 11 7 12
REMARK SMILES IDX 6 13 5 14 4 15 3 16 2 17 1 18
REMARK H PARENT
REMARK Flexibility Score: inf
ROOT
ATOM      1  C   UNL     1      89.261 324.770 196.308  1.00  0.00     0.000 C 
ENDROOT
BRANCH   1   2
ATOM      2  C   UNL     1      88.258 324.004 197.183  1.00  0.00     0.000 C 
BRANCH   2   3
ATOM      3  C   UNL     1      88.673 323.949 198.662  1.00  0.00     0.000 C 
BRANCH   3   4
ATOM      4  C   UNL     1      89.776 324.965 199.029  1.00  0.00     0.000 C 
BRANCH   4   5
ATOM      5  C   UNL     1      89.211 326.203 199.747  1.00  0.00     0.000 C 
BRANCH   5   6
ATOM      6  C   UNL     1      89.625 326.286 201.227  1.00  0.00     0.006 C 
BRANCH   6   7
ATOM      7  C   UNL     1      91.148 326.331 201.447  1.00  0.00     0.053 C 
BRANCH   7   8
ATOM      8  C   UNL     1      91.529 327.134 202.653  1.00  0.00     0.041 C 
ATOM      9  O   UNL     1      90.638 327.646 203.381  1.00  0.00    -0.550 OA
ATOM     10  O   UNL     1      92.867 327.287 202.998  1.00  0.00    -0.550 OA
ENDBRANCH   7   8
ENDBRANCH   6   7
ENDBRANCH   5   6
ENDBRANCH   4   5
ENDBRANCH   3   4
ENDBRANCH   2   3
ENDBRANCH   1   2
BRANCH   1  11
ATOM     11  C   UNL     1      88.686 326.120 195.870  1.00  0.00     0.000 C 
BRANCH  11  12
ATOM     12  C   UNL     1      87.344 326.403 196.563  1.00  0.00    -0.000 C 
BRANCH  12  13
ATOM     13  C   UNL     1      86.180 326.523 195.555  1.00  0.00    -0.000 C 
BRANCH  13  14
ATOM     14  C   UNL     1      86.603 326.301 194.091  1.00  0.00    -0.000 C 
BRANCH  14  15
ATOM     15  C   UNL     1      85.958 325.081 193.411  1.00  0.00    -0.000 C 
BRANCH  15  16
ATOM     16  C   UNL     1      86.744 323.781 193.654  1.00  0.00    -0.000 C 
BRANCH  16  17
ATOM     17  C   UNL     1      88.117 323.789 192.964  1.00  0.00    -0.003 C 
ATOM     18  C   UNL     1      88.026 324.135 191.477  1.00  0.00     0.004 C 
ENDBRANCH  16  17
ENDBRANCH  15  16
ENDBRANCH  14  15
ENDBRANCH  13  14
ENDBRANCH  12  13
ENDBRANCH  11  12
ENDBRANCH   1  11
TORSDOF 14
ENDMDL
MODEL 7
REMARK VINA RESULT:    -5.586     20.132     22.408
REMARK INTER + INTRA:         -11.057
REMARK INTER:                  -9.900
REMARK INTRA:                  -1.157
REMARK UNBOUND:                -0.899
REMARK SMILES CCCCCCCCCCCCCCCC(=O)[O-]
REMARK SMILES IDX 9 1 10 2 11 3 12 4 13 5 14 6 15 7 16 8 17 9 18 10 8 11 7 12
REMARK SMILES IDX 6 13 5 14 4 15 3 16 2 17 1 18
REMARK H PARENT
REMARK Flexibility Score: inf
ROOT
ATOM      1  C   UNL     1      88.811 325.043 195.799  1.00  0.00     0.000 C 
ENDROOT
BRANCH   1   2
ATOM      2  C   UNL     1      88.897 326.460 195.216  1.00  0.00     0.000 C 
BRANCH   2   3
ATOM      3  C   UNL     1      88.026 326.647 193.963  1.00  0.00     0.000 C 
BRANCH   3   4
ATOM      4  C   UNL     1      86.644 325.967 194.068  1.00  0.00     0.000 C 
BRANCH   4   5
ATOM      5  C   UNL     1      86.490 324.804 193.072  1.00  0.00     0.000 C 
BRANCH   5   6
ATOM      6  C   UNL     1      87.755 324.558 192.231  1.00  0.00     0.006 C 
BRANCH   6   7
ATOM      7  C   UNL     1      88.265 323.107 192.280  1.00  0.00     0.053 C 
BRANCH   7   8
ATOM      8  C   UNL     1      88.362 322.488 190.919  1.00  0.00     0.041 C 
ATOM      9  O   UNL     1      89.225 321.599 190.687  1.00  0.00    -0.550 OA
ATOM     10  O   UNL     1      87.478 322.863 189.914  1.00  0.00    -0.550 OA
ENDBRANCH   7   8
ENDBRANCH   6   7
ENDBRANCH   5   6
ENDBRANCH   4   5
ENDBRANCH   3   4
ENDBRANCH   2   3
ENDBRANCH   1   2
BRANCH   1  11
ATOM     11  C   UNL     1      88.497 325.086 197.298  1.00  0.00     0.000 C 
BRANCH  11  12
ATOM     12  C   UNL     1      88.473 326.531 197.818  1.00  0.00    -0.000 C 
BRANCH  12  13
ATOM     13  C   UNL     1      89.217 326.680 199.164  1.00  0.00    -0.000 C 
BRANCH  13  14
ATOM     14  C   UNL     1      89.646 325.338 199.787  1.00  0.00    -0.000 C 
BRANCH  14  15
ATOM     15  C   UNL     1      89.109 325.084 201.206  1.00  0.00    -0.000 C 
BRANCH  15  16
ATOM     16  C   UNL     1      88.732 326.382 201.940  1.00  0.00    -0.000 C 
BRANCH  16  17
ATOM     17  C   UNL     1      89.796 326.806 202.964  1.00  0.00    -0.003 C 
ATOM     18  C   UNL     1      89.185 327.391 204.239  1.00  0.00     0.004 C 
ENDBRANCH  16  17
ENDBRANCH  15  16
ENDBRANCH  14  15
ENDBRANCH  13  14
ENDBRANCH  12  13
ENDBRANCH  11  12
ENDBRANCH   1  11
TORSDOF 14
ENDMDL
MODEL 8
REMARK VINA RESULT:    -5.579     20.357     21.259
REMARK INTER + INTRA:         -11.043
REMARK INTER:                 -10.471
REMARK INTRA:                  -0.571
REMARK UNBOUND:                -0.899
REMARK SMILES CCCCCCCCCCCCCCCC(=O)[O-]
REMARK SMILES IDX 9 1 10 2 11 3 12 4 13 5 14 6 15 7 16 8 17 9 18 10 8 11 7 12
REMARK SMILES IDX 6 13 5 14 4 15 3 16 2 17 1 18
REMARK H PARENT
REMARK Flexibility Score: inf
ROOT
ATOM      1  C   UNL     1      88.855 326.361 201.790  1.00  0.00     0.000 C 
ENDROOT
BRANCH   1   2
ATOM      2  C   UNL     1      89.791 326.492 203.001  1.00  0.00     0.000 C 
BRANCH   2   3
ATOM      3  C   UNL     1      89.156 327.266 204.167  1.00  0.00     0.000 C 
BRANCH   3   4
ATOM      4  C   UNL     1      89.621 326.775 205.555  1.00  0.00     0.000 C 
BRANCH   4   5
ATOM      5  C   UNL     1      88.443 326.567 206.523  1.00  0.00     0.000 C 
BRANCH   5   6
ATOM      6  C   UNL     1      87.985 325.101 206.611  1.00  0.00     0.006 C 
BRANCH   6   7
ATOM      7  C   UNL     1      86.654 324.819 205.891  1.00  0.00     0.053 C 
BRANCH   7   8
ATOM      8  C   UNL     1      86.756 323.683 204.919  1.00  0.00     0.041 C 
ATOM      9  O   UNL     1      86.702 322.493 205.328  1.00  0.00    -0.550 OA
ATOM     10  O   UNL     1      86.875 323.935 203.558  1.00  0.00    -0.550 OA
ENDBRANCH   7   8
ENDBRANCH   6   7
ENDBRANCH   5   6
ENDBRANCH   4   5
ENDBRANCH   3   4
ENDBRANCH   2   3
ENDBRANCH   1   2
BRANCH   1  11
ATOM     11  C   UNL     1      89.633 326.513 200.479  1.00  0.00     0.000 C 
BRANCH  11  12
ATOM     12  C   UNL     1      88.893 325.836 199.314  1.00  0.00    -0.000 C 
BRANCH  12  13
ATOM     13  C   UNL     1      88.801 326.750 198.072  1.00  0.00    -0.000 C 
BRANCH  13  14
ATOM     14  C   UNL     1      88.084 326.099 196.875  1.00  0.00    -0.000 C 
BRANCH  14  15
ATOM     15  C   UNL     1      88.812 326.244 195.528  1.00  0.00    -0.000 C 
BRANCH  15  16
ATOM     16  C   UNL     1      88.557 325.057 194.583  1.00  0.00    -0.000 C 
BRANCH  16  17
ATOM     17  C   UNL     1      87.974 325.501 193.232  1.00  0.00    -0.003 C 
ATOM     18  C   UNL     1      87.903 324.358 192.218  1.00  0.00     0.004 C 
ENDBRANCH  16  17
ENDBRANCH  15  16
ENDBRANCH  14  15
ENDBRANCH  13  14
ENDBRANCH  12  13
ENDBRANCH  11  12
ENDBRANCH   1  11
TORSDOF 14
ENDMDL
MODEL 9
REMARK VINA RESULT:    -5.567      1.311      2.330
REMARK INTER + INTRA:         -11.022
REMARK INTER:                 -10.148
REMARK INTRA:                  -0.873
REMARK UNBOUND:                -0.899
REMARK SMILES CCCCCCCCCCCCCCCC(=O)[O-]
REMARK SMILES IDX 9 1 10 2 11 3 12 4 13 5 14 6 15 7 16 8 17 9 18 10 8 11 7 12
REMARK SMILES IDX 6 13 5 14 4 15 3 16 2 17 1 18
REMARK H PARENT
REMARK Flexibility Score: inf
ROOT
ATOM      1  C   UNL     1     103.855 313.342 197.870  1.00  0.00     0.000 C 
ENDROOT
BRANCH   1   2
ATOM      2  C   UNL     1     103.833 311.907 198.416  1.00  0.00     0.000 C 
BRANCH   2   3
ATOM      3  C   UNL     1     103.826 311.850 199.952  1.00  0.00     0.000 C 
BRANCH   3   4
ATOM      4  C   UNL     1     102.426 311.598 200.552  1.00  0.00     0.000 C 
BRANCH   4   5
ATOM      5  C   UNL     1     102.493 311.191 202.034  1.00  0.00     0.000 C 
BRANCH   5   6
ATOM      6  C   UNL     1     103.928 310.924 202.523  1.00  0.00     0.006 C 
BRANCH   6   7
ATOM      7  C   UNL     1     104.131 311.176 204.027  1.00  0.00     0.053 C 
BRANCH   7   8
ATOM      8  C   UNL     1     104.944 312.406 204.298  1.00  0.00     0.041 C 
ATOM      9  O   UNL     1     104.664 313.490 203.722  1.00  0.00    -0.550 OA
ATOM     10  O   UNL     1     105.989 312.367 205.214  1.00  0.00    -0.550 OA
ENDBRANCH   7   8
ENDBRANCH   6   7
ENDBRANCH   5   6
ENDBRANCH   4   5
ENDBRANCH   3   4
ENDBRANCH   2   3
ENDBRANCH   1   2
BRANCH   1  11
ATOM     11  C   UNL     1     103.713 313.350 196.345  1.00  0.00     0.000 C 
BRANCH  11  12
ATOM     12  C   UNL     1     104.199 312.026 195.736  1.00  0.00    -0.000 C 
BRANCH  12  13
ATOM     13  C   UNL     1     103.309 311.561 194.563  1.00  0.00    -0.000 C 
BRANCH  13  14
ATOM     14  C   UNL     1     104.073 311.382 193.237  1.00  0.00    -0.000 C 
BRANCH  14  15
ATOM     15  C   UNL     1     105.505 311.943 193.236  1.00  0.00    -0.000 C 
BRANCH  15  16
ATOM     16  C   UNL     1     105.640 313.223 192.392  1.00  0.00    -0.000 C 
BRANCH  16  17
ATOM     17  C   UNL     1     104.282 313.886 192.114  1.00  0.00    -0.003 C 
ATOM     18  C   UNL     1     103.922 313.888 190.628  1.00  0.00     0.004 C 
ENDBRANCH  16  17
ENDBRANCH  15  16
ENDBRANCH  14  15
ENDBRANCH  13  14
ENDBRANCH  12  13
ENDBRANCH  11  12
ENDBRANCH   1  11
TORSDOF 14
ENDMDL
