MODEL 1
REMARK VINA RESULT:    62.492      0.000      0.000
REMARK INTER + INTRA:         140.564
REMARK INTER:                 131.904
REMARK INTRA:                   8.660
REMARK UNBOUND:                 8.660
REMARK SMILES CCC(=O)CCCCC[C@@H]1NC(=O)[C@@H]2CCCCN2C(=O)[C@@H]([C@H](C)CC)NC(=O)[C@H](Cc2cn(OC)c3ccccc23)NC1=O
REMARK SMILES IDX 9 1 10 2 44 3 43 4 45 6 30 7 28 8 27 9 29 11 22 12 23 14
REMARK SMILES IDX 24 15 25 16 26 17 31 18 32 19 33 20 42 21 34 22 37 23 41 24
REMARK SMILES IDX 38 25 40 26 39 27 35 28 36 29 11 30 12 31 13 33 14 34 19 35
REMARK SMILES IDX 15 36 18 37 16 38 17 39 20 40 21 41 8 43 7 44 6 45 5 46 3 47
REMARK SMILES IDX 4 48 2 49 1 50
REMARK H PARENT 43 5 27 10 11 32
REMARK Flexibility Score: 80.00
ROOT
ATOM      1  C   UNL     1     -34.811  14.550  21.742  1.00  0.00     0.035 C 
ENDROOT
BRANCH   1   2
ATOM      2  C   UNL     1     -34.712  13.011  21.845  1.00  0.00     0.171 C 
BRANCH   2   3
ATOM      3  C   UNL     1     -33.976  12.403  20.673  1.00  0.00     0.243 C 
ATOM      4  N   UNL     1     -34.208  11.032  20.317  1.00  0.00    -0.342 N 
ATOM      5  H   UNL     1     -35.185  10.664  20.379  1.00  0.00     0.164 HD
ATOM      6  O   UNL     1     -33.093  13.068  20.062  1.00  0.00    -0.273 OA
BRANCH   4   7
ATOM      7  C   UNL     1     -33.119  10.044  20.259  1.00  0.00     0.175 C 
BRANCH   7   8
ATOM      8  C   UNL     1     -33.141   9.194  21.513  1.00  0.00     0.243 C 
ATOM      9  N   UNL     1     -33.938   9.532  22.663  1.00  0.00    -0.342 N 
ATOM     10  H   UNL     1     -34.355  10.487  22.721  1.00  0.00     0.164 HD
ATOM     11  O   UNL     1     -32.374   8.199  21.563  1.00  0.00    -0.273 OA
BRANCH   9  12
ATOM     12  C   UNL     1     -34.342   8.569  23.706  1.00  0.00     0.174 CG0
ATOM     13  G   UNL     1     -34.945   9.280  24.914  1.00  0.00     0.000 G0
BRANCH  12  14
ATOM     14  C   UNL     1     -35.010   7.269  23.112  1.00  0.00     0.018 C 
ATOM     15  C   UNL     1     -35.920   7.668  21.927  1.00  0.00     0.010 C 
BRANCH  14  16
ATOM     16  C   UNL     1     -35.851   6.398  24.088  1.00  0.00     0.002 C 
ATOM     17  C   UNL     1     -35.073   5.902  25.307  1.00  0.00     0.004 C 
ENDBRANCH  14  16
ENDBRANCH  12  14
ENDBRANCH   9  12
ENDBRANCH   7   8
BRANCH   7  18
ATOM     18  C   UNL     1     -31.753  10.721  19.999  1.00  0.00     0.073 C 
BRANCH  18  19
ATOM     19  C   UNL     1     -31.753  11.598  18.773  1.00  0.00    -0.016 A 
ATOM     20  C   UNL     1     -30.698  12.382  18.304  1.00  0.00     0.134 A 
ATOM     21  C   UNL     1     -32.832  11.890  17.955  1.00  0.00     0.006 A 
ATOM     22  N   UNL     1     -31.100  13.094  17.226  1.00  0.00    -0.191 N 
ATOM     23  C   UNL     1     -32.396  12.798  17.024  1.00  0.00     0.087 A 
ATOM     24  C   UNL     1     -34.151  11.434  17.971  1.00  0.00     0.011 A 
ATOM     25  C   UNL     1     -33.244  13.304  16.036  1.00  0.00     0.030 A 
ATOM     26  C   UNL     1     -35.026  11.917  16.980  1.00  0.00     0.001 A 
ATOM     27  C   UNL     1     -34.575  12.848  16.019  1.00  0.00     0.002 A 
BRANCH  22  28
ATOM     28  O   UNL     1     -30.347  13.964  16.452  1.00  0.00    -0.417 OA
ATOM     29  C   UNL     1     -29.068  13.619  15.927  1.00  0.00     0.313 C 
ENDBRANCH  22  28
ENDBRANCH  18  19
ENDBRANCH   7  18
ENDBRANCH   4   7
ENDBRANCH   2   3
BRANCH   2  30
ATOM     30  N   UNL     1     -34.087  12.597  23.111  1.00  0.00    -0.343 N 
ATOM     31  C   UNL     1     -34.817  12.088  24.240  1.00  0.00     0.243 C 
ATOM     32  H   UNL     1     -33.049  12.694  23.190  1.00  0.00     0.164 HD
ATOM     33  O   UNL     1     -36.067  11.946  24.171  1.00  0.00    -0.273 OA
BRANCH  31  34
ATOM     34  C   UNL     1     -34.094  11.650  25.499  1.00  0.00     0.174 C 
ATOM     35  N   UNL     1     -34.287  10.215  25.854  1.00  0.00    -0.329 N 
ATOM     36  C   UNL     1     -32.593  11.968  25.345  1.00  0.00     0.035 C 
ATOM     37  C   UNL     1     -33.481   9.673  26.963  1.00  0.00     0.120 C 
ATOM     38  C   UNL     1     -31.805  11.503  26.567  1.00  0.00     0.004 C 
ATOM     39  C   UNL     1     -31.998  10.001  26.780  1.00  0.00     0.022 C 
BRANCH  35  40
ATOM     40  C   UNL     1     -34.960   9.283  24.979  1.00  0.00     0.246 CG0
ATOM     41  O   UNL     1     -36.168   9.018  25.212  1.00  0.00    -0.272 OA
ATOM     42  G   UNL     1     -34.346   8.656  23.731  1.00  0.00     0.000 G0
ENDBRANCH  35  40
ENDBRANCH  31  34
ENDBRANCH   2  30
ENDBRANCH   1   2
BRANCH   1  43
ATOM     43  C   UNL     1     -34.438  15.061  20.344  1.00  0.00     0.003 C 
BRANCH  43  44
ATOM     44  C   UNL     1     -35.218  16.337  20.004  1.00  0.00     0.001 C 
BRANCH  44  45
ATOM     45  C   UNL     1     -34.814  16.947  18.650  1.00  0.00     0.008 C 
BRANCH  45  46
ATOM     46  C   UNL     1     -35.977  17.549  17.840  1.00  0.00     0.075 C 
BRANCH  46  47
ATOM     47  C   UNL     1     -37.165  16.627  17.757  1.00  0.00     0.132 C 
ATOM     48  O   UNL     1     -37.108  15.633  17.045  1.00  0.00    -0.300 OA
BRANCH  47  49
ATOM     49  C   UNL     1     -38.442  16.978  18.477  1.00  0.00     0.072 C 
ATOM     50  C   UNL     1     -39.693  16.493  17.739  1.00  0.00     0.012 C 
ENDBRANCH  47  49
ENDBRANCH  46  47
ENDBRANCH  45  46
ENDBRANCH  44  45
ENDBRANCH  43  44
ENDBRANCH   1  43
TORSDOF 12
ENDMDL
MODEL 2
REMARK VINA RESULT:    64.748      3.247      8.145
REMARK INTER + INTRA:         145.325
REMARK INTER:                 139.029
REMARK INTRA:                   6.296
REMARK UNBOUND:                 8.660
REMARK SMILES CCC(=O)CCCCC[C@@H]1NC(=O)[C@@H]2CCCCN2C(=O)[C@@H]([C@H](C)CC)NC(=O)[C@H](Cc2cn(OC)c3ccccc23)NC1=O
REMARK SMILES IDX 9 1 10 2 44 3 43 4 45 6 30 7 28 8 27 9 29 11 22 12 23 14
REMARK SMILES IDX 24 15 25 16 26 17 31 18 32 19 33 20 42 21 34 22 37 23 41 24
REMARK SMILES IDX 38 25 40 26 39 27 35 28 36 29 11 30 12 31 13 33 14 34 19 35
REMARK SMILES IDX 15 36 18 37 16 38 17 39 20 40 21 41 8 43 7 44 6 45 5 46 3 47
REMARK SMILES IDX 4 48 2 49 1 50
REMARK H PARENT 43 5 27 10 11 32
REMARK Flexibility Score: 80.00
ROOT
ATOM      1  C   UNL     1     -33.912  12.363  21.524  1.00  0.00     0.035 C 
ENDROOT
BRANCH   1   2
ATOM      2  C   UNL     1     -33.431  13.337  20.425  1.00  0.00     0.171 C 
BRANCH   2   3
ATOM      3  C   UNL     1     -32.794  12.617  19.259  1.00  0.00     0.243 C 
ATOM      4  N   UNL     1     -31.494  13.016  18.796  1.00  0.00    -0.342 N 
ATOM      5  H   UNL     1     -30.778  13.285  19.509  1.00  0.00     0.164 HD
ATOM      6  O   UNL     1     -33.435  11.726  18.633  1.00  0.00    -0.273 OA
BRANCH   4   7
ATOM      7  C   UNL     1     -31.254  13.437  17.406  1.00  0.00     0.175 C 
BRANCH   7   8
ATOM      8  C   UNL     1     -32.548  13.351  16.623  1.00  0.00     0.243 C 
ATOM      9  N   UNL     1     -33.820  13.107  17.253  1.00  0.00    -0.342 N 
ATOM     10  H   UNL     1     -33.834  12.779  18.244  1.00  0.00     0.164 HD
ATOM     11  O   UNL     1     -32.483  13.425  15.370  1.00  0.00    -0.273 OA
BRANCH   9  12
ATOM     12  C   UNL     1     -35.124  13.436  16.645  1.00  0.00     0.174 CG0
ATOM     13  G   UNL     1     -35.177  14.894  16.200  1.00  0.00     0.000 G0
BRANCH  12  14
ATOM     14  C   UNL     1     -35.674  12.283  15.719  1.00  0.00     0.018 C 
ATOM     15  C   UNL     1     -37.072  11.855  16.223  1.00  0.00     0.010 C 
BRANCH  14  16
ATOM     16  C   UNL     1     -34.800  11.002  15.593  1.00  0.00     0.002 C 
ATOM     17  C   UNL     1     -35.532   9.806  14.985  1.00  0.00     0.004 C 
ENDBRANCH  14  16
ENDBRANCH  12  14
ENDBRANCH   9  12
ENDBRANCH   7   8
BRANCH   7  18
ATOM     18  C   UNL     1     -30.093  12.641  16.765  1.00  0.00     0.073 C 
BRANCH  18  19
ATOM     19  C   UNL     1     -28.946  13.516  16.332  1.00  0.00    -0.016 A 
ATOM     20  C   UNL     1     -28.456  14.644  16.992  1.00  0.00     0.134 A 
ATOM     21  C   UNL     1     -28.245  13.444  15.140  1.00  0.00     0.006 A 
ATOM     22  N   UNL     1     -27.474  15.216  16.257  1.00  0.00    -0.191 N 
ATOM     23  C   UNL     1     -27.356  14.490  15.132  1.00  0.00     0.087 A 
ATOM     24  C   UNL     1     -28.332  12.551  14.071  1.00  0.00     0.011 A 
ATOM     25  C   UNL     1     -26.485  14.708  14.062  1.00  0.00     0.030 A 
ATOM     26  C   UNL     1     -27.458  12.737  12.984  1.00  0.00     0.001 A 
ATOM     27  C   UNL     1     -26.540  13.811  12.979  1.00  0.00     0.002 A 
BRANCH  22  28
ATOM     28  O   UNL     1     -26.713  16.330  16.576  1.00  0.00    -0.417 OA
ATOM     29  C   UNL     1     -25.939  16.421  17.768  1.00  0.00     0.313 C 
ENDBRANCH  22  28
ENDBRANCH  18  19
ENDBRANCH   7  18
ENDBRANCH   4   7
ENDBRANCH   2   3
BRANCH   2  30
ATOM     30  N   UNL     1     -34.526  14.200  19.956  1.00  0.00    -0.343 N 
ATOM     31  C   UNL     1     -34.358  15.269  19.009  1.00  0.00     0.243 C 
ATOM     32  H   UNL     1     -35.479  14.028  20.350  1.00  0.00     0.164 HD
ATOM     33  O   UNL     1     -33.226  15.493  18.505  1.00  0.00    -0.273 OA
BRANCH  31  34
ATOM     34  C   UNL     1     -35.546  16.092  18.549  1.00  0.00     0.174 C 
ATOM     35  N   UNL     1     -35.883  15.937  17.105  1.00  0.00    -0.329 N 
ATOM     36  C   UNL     1     -36.764  15.739  19.426  1.00  0.00     0.035 C 
ATOM     37  C   UNL     1     -37.124  16.569  16.624  1.00  0.00     0.120 C 
ATOM     38  C   UNL     1     -38.005  16.506  18.976  1.00  0.00     0.004 C 
ATOM     39  C   UNL     1     -38.314  16.197  17.511  1.00  0.00     0.022 C 
BRANCH  35  40
ATOM     40  C   UNL     1     -35.245  14.954  16.261  1.00  0.00     0.246 CG0
ATOM     41  O   UNL     1     -34.660  15.355  15.221  1.00  0.00    -0.272 OA
ATOM     42  G   UNL     1     -35.143  13.465  16.575  1.00  0.00     0.000 G0
ENDBRANCH  35  40
ENDBRANCH  31  34
ENDBRANCH   2  30
ENDBRANCH   1   2
BRANCH   1  43
ATOM     43  C   UNL     1     -34.288  10.988  20.954  1.00  0.00     0.003 C 
BRANCH  43  44
ATOM     44  C   UNL     1     -33.086  10.036  20.991  1.00  0.00     0.001 C 
BRANCH  44  45
ATOM     45  C   UNL     1     -33.461   8.610  21.431  1.00  0.00     0.008 C 
BRANCH  45  46
ATOM     46  C   UNL     1     -33.927   8.486  22.894  1.00  0.00     0.075 C 
BRANCH  46  47
ATOM     47  C   UNL     1     -34.578   7.159  23.186  1.00  0.00     0.132 C 
ATOM     48  O   UNL     1     -34.805   6.384  22.267  1.00  0.00    -0.300 OA
BRANCH  47  49
ATOM     49  C   UNL     1     -35.023   6.831  24.588  1.00  0.00     0.072 C 
ATOM     50  C   UNL     1     -33.880   6.897  25.606  1.00  0.00     0.012 C 
ENDBRANCH  47  49
ENDBRANCH  46  47
ENDBRANCH  45  46
ENDBRANCH  44  45
ENDBRANCH  43  44
ENDBRANCH   1  43
TORSDOF 12
ENDMDL
MODEL 3
REMARK VINA RESULT:    65.191      1.142      2.044
REMARK INTER + INTRA:         146.261
REMARK INTER:                 140.886
REMARK INTRA:                   5.376
REMARK UNBOUND:                 8.660
REMARK SMILES CCC(=O)CCCCC[C@@H]1NC(=O)[C@@H]2CCCCN2C(=O)[C@@H]([C@H](C)CC)NC(=O)[C@H](Cc2cn(OC)c3ccccc23)NC1=O
REMARK SMILES IDX 9 1 10 2 44 3 43 4 45 6 30 7 28 8 27 9 29 11 22 12 23 14
REMARK SMILES IDX 24 15 25 16 26 17 31 18 32 19 33 20 42 21 34 22 37 23 41 24
REMARK SMILES IDX 38 25 40 26 39 27 35 28 36 29 11 30 12 31 13 33 14 34 19 35
REMARK SMILES IDX 15 36 18 37 16 38 17 39 20 40 21 41 8 43 7 44 6 45 5 46 3 47
REMARK SMILES IDX 4 48 2 49 1 50
REMARK H PARENT 43 5 27 10 11 32
REMARK Flexibility Score: 80.00
ROOT
ATOM      1  C   UNL     1     -34.570  14.531  22.419  1.00  0.00     0.035 C 
ENDROOT
BRANCH   1   2
ATOM      2  C   UNL     1     -34.635  12.987  22.427  1.00  0.00     0.171 C 
BRANCH   2   3
ATOM      3  C   UNL     1     -34.055  12.381  21.170  1.00  0.00     0.243 C 
ATOM      4  N   UNL     1     -34.634  11.188  20.619  1.00  0.00    -0.342 N 
ATOM      5  H   UNL     1     -35.674  11.091  20.637  1.00  0.00     0.164 HD
ATOM      6  O   UNL     1     -33.009  12.867  20.653  1.00  0.00    -0.273 OA
BRANCH   4   7
ATOM      7  C   UNL     1     -33.845   9.964  20.402  1.00  0.00     0.175 C 
BRANCH   7   8
ATOM      8  C   UNL     1     -33.587   9.289  21.733  1.00  0.00     0.243 C 
ATOM      9  N   UNL     1     -34.434   9.489  22.880  1.00  0.00    -0.342 N 
ATOM     10  H   UNL     1     -35.126  10.271  22.864  1.00  0.00     0.164 HD
ATOM     11  O   UNL     1     -32.549   8.589  21.847  1.00  0.00    -0.273 OA
BRANCH   9  12
ATOM     12  C   UNL     1     -34.506   8.567  24.031  1.00  0.00     0.174 CG0
ATOM     13  G   UNL     1     -34.878   9.307  25.312  1.00  0.00     0.000 G0
BRANCH  12  14
ATOM     14  C   UNL     1     -35.177   7.186  23.666  1.00  0.00     0.018 C 
ATOM     15  C   UNL     1     -34.617   6.091  24.602  1.00  0.00     0.010 C 
BRANCH  14  16
ATOM     16  C   UNL     1     -35.018   6.690  22.201  1.00  0.00     0.002 C 
ATOM     17  C   UNL     1     -33.574   6.396  21.796  1.00  0.00     0.004 C 
ENDBRANCH  14  16
ENDBRANCH  12  14
ENDBRANCH   9  12
ENDBRANCH   7   8
BRANCH   7  18
ATOM     18  C   UNL     1     -32.556  10.255  19.600  1.00  0.00     0.073 C 
BRANCH  18  19
ATOM     19  C   UNL     1     -32.728  11.354  18.583  1.00  0.00    -0.016 A 
ATOM     20  C   UNL     1     -33.910  11.721  17.938  1.00  0.00     0.134 A 
ATOM     21  C   UNL     1     -31.729  12.120  18.004  1.00  0.00     0.006 A 
ATOM     22  N   UNL     1     -33.655  12.694  17.033  1.00  0.00    -0.191 N 
ATOM     23  C   UNL     1     -32.332  12.926  17.072  1.00  0.00     0.087 A 
ATOM     24  C   UNL     1     -30.352  12.157  18.224  1.00  0.00     0.011 A 
ATOM     25  C   UNL     1     -31.600  13.833  16.301  1.00  0.00     0.030 A 
ATOM     26  C   UNL     1     -29.589  13.071  17.471  1.00  0.00     0.001 A 
ATOM     27  C   UNL     1     -30.211  13.903  16.514  1.00  0.00     0.002 A 
BRANCH  22  28
ATOM     28  O   UNL     1     -34.560  13.351  16.213  1.00  0.00    -0.417 OA
ATOM     29  C   UNL     1     -34.283  14.611  15.610  1.00  0.00     0.313 C 
ENDBRANCH  22  28
ENDBRANCH  18  19
ENDBRANCH   7  18
ENDBRANCH   4   7
ENDBRANCH   2   3
BRANCH   2  30
ATOM     30  N   UNL     1     -33.972  12.428  23.616  1.00  0.00    -0.343 N 
ATOM     31  C   UNL     1     -34.648  12.134  24.851  1.00  0.00     0.243 C 
ATOM     32  H   UNL     1     -32.944  12.249  23.555  1.00  0.00     0.164 HD
ATOM     33  O   UNL     1     -35.889  12.325  24.951  1.00  0.00    -0.273 OA
BRANCH  31  34
ATOM     34  C   UNL     1     -33.898  11.527  26.020  1.00  0.00     0.174 C 
ATOM     35  N   UNL     1     -34.189  10.084  26.257  1.00  0.00    -0.329 N 
ATOM     36  C   UNL     1     -32.387  11.742  25.807  1.00  0.00     0.035 C 
ATOM     37  C   UNL     1     -33.373   9.381  27.264  1.00  0.00     0.120 C 
ATOM     38  C   UNL     1     -31.577  11.106  26.934  1.00  0.00     0.004 C 
ATOM     39  C   UNL     1     -31.880   9.611  27.024  1.00  0.00     0.022 C 
BRANCH  35  40
ATOM     40  C   UNL     1     -34.980   9.292  25.345  1.00  0.00     0.246 CG0
ATOM     41  O   UNL     1     -36.218   9.202  25.556  1.00  0.00    -0.272 OA
ATOM     42  G   UNL     1     -34.448   8.621  24.082  1.00  0.00     0.000 G0
ENDBRANCH  35  40
ENDBRANCH  31  34
ENDBRANCH   2  30
ENDBRANCH   1   2
BRANCH   1  43
ATOM     43  C   UNL     1     -35.505  15.143  21.367  1.00  0.00     0.003 C 
BRANCH  43  44
ATOM     44  C   UNL     1     -34.848  15.135  19.982  1.00  0.00     0.001 C 
BRANCH  44  45
ATOM     45  C   UNL     1     -34.416  16.536  19.512  1.00  0.00     0.008 C 
BRANCH  45  46
ATOM     46  C   UNL     1     -35.512  17.342  18.790  1.00  0.00     0.075 C 
BRANCH  46  47
ATOM     47  C   UNL     1     -35.839  16.788  17.428  1.00  0.00     0.132 C 
ATOM     48  O   UNL     1     -35.178  17.140  16.460  1.00  0.00    -0.300 OA
BRANCH  47  49
ATOM     49  C   UNL     1     -37.027  15.877  17.251  1.00  0.00     0.072 C 
ATOM     50  C   UNL     1     -38.195  16.238  18.174  1.00  0.00     0.012 C 
ENDBRANCH  47  49
ENDBRANCH  46  47
ENDBRANCH  45  46
ENDBRANCH  44  45
ENDBRANCH  43  44
ENDBRANCH   1  43
TORSDOF 12
ENDMDL
MODEL 4
REMARK VINA RESULT:    65.457      2.522      8.488
REMARK INTER + INTRA:         146.823
REMARK INTER:                 141.288
REMARK INTRA:                   5.535
REMARK UNBOUND:                 8.660
REMARK SMILES CCC(=O)CCCCC[C@@H]1NC(=O)[C@@H]2CCCCN2C(=O)[C@@H]([C@H](C)CC)NC(=O)[C@H](Cc2cn(OC)c3ccccc23)NC1=O
REMARK SMILES IDX 9 1 10 2 44 3 43 4 45 6 30 7 28 8 27 9 29 11 22 12 23 14
REMARK SMILES IDX 24 15 25 16 26 17 31 18 32 19 33 20 42 21 34 22 37 23 41 24
REMARK SMILES IDX 38 25 40 26 39 27 35 28 36 29 11 30 12 31 13 33 14 34 19 35
REMARK SMILES IDX 15 36 18 37 16 38 17 39 20 40 21 41 8 43 7 44 6 45 5 46 3 47
REMARK SMILES IDX 4 48 2 49 1 50
REMARK H PARENT 43 5 27 10 11 32
REMARK Flexibility Score: 80.00
ROOT
ATOM      1  C   UNL     1     -35.066  13.127  23.418  1.00  0.00     0.035 C 
ENDROOT
BRANCH   1   2
ATOM      2  C   UNL     1     -34.143  12.878  22.205  1.00  0.00     0.171 C 
BRANCH   2   3
ATOM      3  C   UNL     1     -34.276  11.474  21.661  1.00  0.00     0.243 C 
ATOM      4  N   UNL     1     -33.199  10.539  21.825  1.00  0.00    -0.342 N 
ATOM      5  H   UNL     1     -32.675  10.544  22.730  1.00  0.00     0.164 HD
ATOM      6  O   UNL     1     -35.293  11.146  20.985  1.00  0.00    -0.273 OA
BRANCH   4   7
ATOM      7  C   UNL     1     -32.558   9.874  20.678  1.00  0.00     0.175 C 
BRANCH   7   8
ATOM      8  C   UNL     1     -33.131  10.428  19.391  1.00  0.00     0.243 C 
ATOM      9  N   UNL     1     -32.676  11.665  18.810  1.00  0.00    -0.342 N 
ATOM     10  H   UNL     1     -32.084  12.303  19.387  1.00  0.00     0.164 HD
ATOM     11  O   UNL     1     -34.088   9.811  18.858  1.00  0.00    -0.273 OA
BRANCH   9  12
ATOM     12  C   UNL     1     -32.859  12.035  17.393  1.00  0.00     0.174 CG0
ATOM     13  G   UNL     1     -34.051  12.969  17.213  1.00  0.00     0.000 G0
BRANCH  12  14
ATOM     14  C   UNL     1     -31.492  12.309  16.652  1.00  0.00     0.018 C 
ATOM     15  C   UNL     1     -30.865  10.958  16.237  1.00  0.00     0.010 C 
BRANCH  14  16
ATOM     16  C   UNL     1     -30.416  13.115  17.433  1.00  0.00     0.002 C 
ATOM     17  C   UNL     1     -29.194  13.495  16.597  1.00  0.00     0.004 C 
ENDBRANCH  14  16
ENDBRANCH  12  14
ENDBRANCH   9  12
ENDBRANCH   7   8
BRANCH   7  18
ATOM     18  C   UNL     1     -32.662   8.335  20.785  1.00  0.00     0.073 C 
BRANCH  18  19
ATOM     19  C   UNL     1     -33.921   7.874  21.473  1.00  0.00    -0.016 A 
ATOM     20  C   UNL     1     -35.204   7.823  20.927  1.00  0.00     0.134 A 
ATOM     21  C   UNL     1     -34.067   7.537  22.809  1.00  0.00     0.006 A 
ATOM     22  N   UNL     1     -36.090   7.435  21.873  1.00  0.00    -0.191 N 
ATOM     23  C   UNL     1     -35.397   7.271  23.013  1.00  0.00     0.087 A 
ATOM     24  C   UNL     1     -33.137   7.456  23.846  1.00  0.00     0.011 A 
ATOM     25  C   UNL     1     -35.889   6.895  24.265  1.00  0.00     0.030 A 
ATOM     26  C   UNL     1     -33.601   7.066  25.117  1.00  0.00     0.001 A 
ATOM     27  C   UNL     1     -34.970   6.789  25.325  1.00  0.00     0.002 A 
BRANCH  22  28
ATOM     28  O   UNL     1     -37.454   7.230  21.727  1.00  0.00    -0.417 OA
ATOM     29  C   UNL     1     -38.134   7.410  20.488  1.00  0.00     0.313 C 
ENDBRANCH  22  28
ENDBRANCH  18  19
ENDBRANCH   7  18
ENDBRANCH   4   7
ENDBRANCH   2   3
BRANCH   2  30
ATOM     30  N   UNL     1     -34.381  13.863  21.138  1.00  0.00    -0.343 N 
ATOM     31  C   UNL     1     -33.636  13.914  19.909  1.00  0.00     0.243 C 
ATOM     32  H   UNL     1     -35.130  14.574  21.297  1.00  0.00     0.164 HD
ATOM     33  O   UNL     1     -32.736  13.062  19.681  1.00  0.00    -0.273 OA
BRANCH  31  34
ATOM     34  C   UNL     1     -33.967  14.941  18.843  1.00  0.00     0.174 C 
ATOM     35  N   UNL     1     -34.065  14.387  17.463  1.00  0.00    -0.329 N 
ATOM     36  C   UNL     1     -35.277  15.654  19.231  1.00  0.00     0.035 C 
ATOM     37  C   UNL     1     -34.550  15.288  16.401  1.00  0.00     0.120 C 
ATOM     38  C   UNL     1     -35.685  16.669  18.165  1.00  0.00     0.004 C 
ATOM     39  C   UNL     1     -35.852  15.977  16.813  1.00  0.00     0.022 C 
BRANCH  35  40
ATOM     40  C   UNL     1     -34.024  12.969  17.190  1.00  0.00     0.246 CG0
ATOM     41  O   UNL     1     -35.026  12.442  16.639  1.00  0.00    -0.272 OA
ATOM     42  G   UNL     1     -32.820  12.066  17.437  1.00  0.00     0.000 G0
ENDBRANCH  35  40
ENDBRANCH  31  34
ENDBRANCH   2  30
ENDBRANCH   1   2
BRANCH   1  43
ATOM     43  C   UNL     1     -34.357  12.851  24.751  1.00  0.00     0.003 C 
BRANCH  43  44
ATOM     44  C   UNL     1     -33.987  11.368  24.875  1.00  0.00     0.001 C 
BRANCH  44  45
ATOM     45  C   UNL     1     -35.023  10.553  25.671  1.00  0.00     0.008 C 
BRANCH  45  46
ATOM     46  C   UNL     1     -34.500   9.961  26.994  1.00  0.00     0.075 C 
BRANCH  46  47
ATOM     47  C   UNL     1     -33.007   9.765  26.992  1.00  0.00     0.132 C 
ATOM     48  O   UNL     1     -32.548   8.637  27.117  1.00  0.00    -0.300 OA
BRANCH  47  49
ATOM     49  C   UNL     1     -32.091  10.959  26.927  1.00  0.00     0.072 C 
ATOM     50  C   UNL     1     -32.500  12.076  27.891  1.00  0.00     0.012 C 
ENDBRANCH  47  49
ENDBRANCH  46  47
ENDBRANCH  45  46
ENDBRANCH  44  45
ENDBRANCH  43  44
ENDBRANCH   1  43
TORSDOF 12
ENDMDL
