MODEL 1
REMARK VINA RESULT:    -6.808      0.000      0.000
REMARK INTER + INTRA:          -7.471
REMARK INTER:                  -7.206
REMARK INTRA:                  -0.265
REMARK UNBOUND:                -0.265
REMARK SMILES O=c1cc(-c2ccccc2)oc2ccccc12
REMARK SMILES IDX 4 1 3 2 2 3 1 4 17 5 16 6 15 7 14 8 13 9 12 10 11 11 5 12
REMARK SMILES IDX 8 13 7 14 9 15 6 16 10 17
REMARK H PARENT
REMARK Flexibility Score: inf
ROOT
ATOM      1  C   UNL     1      23.500  30.164  17.715  1.00  0.00     0.138 A 
ATOM      2  C   UNL     1      23.069  31.017  16.676  1.00  0.00     0.100 A 
ATOM      3  C   UNL     1      22.393  32.198  16.992  1.00  0.00     0.193 A 
ATOM      4  O   UNL     1      22.007  32.960  16.064  1.00  0.00    -0.289 OA
ATOM      5  C   UNL     1      22.154  32.519  18.335  1.00  0.00     0.065 A 
ATOM      6  C   UNL     1      21.480  33.692  18.721  1.00  0.00     0.016 A 
ATOM      7  C   UNL     1      21.268  33.963  20.076  1.00  0.00     0.001 A 
ATOM      8  C   UNL     1      21.724  33.073  21.052  1.00  0.00     0.004 A 
ATOM      9  C   UNL     1      22.395  31.905  20.678  1.00  0.00     0.048 A 
ATOM     10  C   UNL     1      22.612  31.623  19.325  1.00  0.00     0.138 A 
ATOM     11  O   UNL     1      23.251  30.509  18.979  1.00  0.00    -0.456 OA
ENDROOT
BRANCH   1  12
ATOM     12  C   UNL     1      24.229  28.882  17.465  1.00  0.00     0.017 A 
ATOM     13  C   UNL     1      25.610  26.486  16.897  1.00  0.00     0.000 A 
ATOM     14  C   UNL     1      25.191  26.759  18.199  1.00  0.00     0.001 A 
ATOM     15  C   UNL     1      25.347  27.399  15.877  1.00  0.00     0.001 A 
ATOM     16  C   UNL     1      24.505  27.944  18.486  1.00  0.00     0.012 A 
ATOM     17  C   UNL     1      24.662  28.585  16.155  1.00  0.00     0.012 A 
ENDBRANCH   1  12
TORSDOF 1
ENDMDL
MODEL 2
REMARK VINA RESULT:    -6.801      1.675      2.988
REMARK INTER + INTRA:          -7.464
REMARK INTER:                  -7.213
REMARK INTRA:                  -0.251
REMARK UNBOUND:                -0.265
REMARK SMILES O=c1cc(-c2ccccc2)oc2ccccc12
REMARK SMILES IDX 4 1 3 2 2 3 1 4 17 5 16 6 15 7 14 8 13 9 12 10 11 11 5 12
REMARK SMILES IDX 8 13 7 14 9 15 6 16 10 17
REMARK H PARENT
REMARK Flexibility Score: inf
ROOT
ATOM      1  C   UNL     1      24.419  29.172  17.591  1.00  0.00     0.138 A 
ATOM      2  C   UNL     1      23.931  29.303  18.909  1.00  0.00     0.100 A 
ATOM      3  C   UNL     1      23.042  30.336  19.214  1.00  0.00     0.193 A 
ATOM      4  O   UNL     1      22.606  30.453  20.392  1.00  0.00    -0.289 OA
ATOM      5  C   UNL     1      22.646  31.227  18.207  1.00  0.00     0.065 A 
ATOM      6  C   UNL     1      21.753  32.287  18.447  1.00  0.00     0.016 A 
ATOM      7  C   UNL     1      21.392  33.147  17.405  1.00  0.00     0.001 A 
ATOM      8  C   UNL     1      21.915  32.958  16.123  1.00  0.00     0.004 A 
ATOM      9  C   UNL     1      22.801  31.906  15.875  1.00  0.00     0.048 A 
ATOM     10  C   UNL     1      23.171  31.040  16.910  1.00  0.00     0.138 A 
ATOM     11  O   UNL     1      24.016  30.043  16.664  1.00  0.00    -0.456 OA
ENDROOT
BRANCH   1  12
ATOM     12  C   UNL     1      25.373  28.097  17.180  1.00  0.00     0.017 A 
ATOM     13  C   UNL     1      27.130  26.005  16.466  1.00  0.00     0.000 A 
ATOM     14  C   UNL     1      27.275  27.266  15.889  1.00  0.00     0.001 A 
ATOM     15  C   UNL     1      26.116  25.778  17.395  1.00  0.00     0.001 A 
ATOM     16  C   UNL     1      26.408  28.307  16.239  1.00  0.00     0.012 A 
ATOM     17  C   UNL     1      25.245  26.812  17.751  1.00  0.00     0.012 A 
ENDBRANCH   1  12
TORSDOF 1
ENDMDL
MODEL 3
REMARK VINA RESULT:    -6.149      1.000      1.694
REMARK INTER + INTRA:          -6.774
REMARK INTER:                  -6.509
REMARK INTRA:                  -0.265
REMARK UNBOUND:                -0.265
REMARK SMILES O=c1cc(-c2ccccc2)oc2ccccc12
REMARK SMILES IDX 4 1 3 2 2 3 1 4 17 5 16 6 15 7 14 8 13 9 12 10 11 11 5 12
REMARK SMILES IDX 8 13 7 14 9 15 6 16 10 17
REMARK H PARENT
REMARK Flexibility Score: inf
ROOT
ATOM      1  C   UNL     1      22.861  31.161  17.978  1.00  0.00     0.138 A 
ATOM      2  C   UNL     1      22.464  32.071  16.976  1.00  0.00     0.100 A 
ATOM      3  C   UNL     1      21.734  33.208  17.329  1.00  0.00     0.193 A 
ATOM      4  O   UNL     1      21.379  34.022  16.433  1.00  0.00    -0.289 OA
ATOM      5  C   UNL     1      21.406  33.429  18.674  1.00  0.00     0.065 A 
ATOM      6  C   UNL     1      20.674  34.553  19.097  1.00  0.00     0.016 A 
ATOM      7  C   UNL     1      20.375  34.724  20.452  1.00  0.00     0.001 A 
ATOM      8  C   UNL     1      20.800  33.781  21.391  1.00  0.00     0.004 A 
ATOM      9  C   UNL     1      21.530  32.661  20.980  1.00  0.00     0.048 A 
ATOM     10  C   UNL     1      21.834  32.479  19.626  1.00  0.00     0.138 A 
ATOM     11  O   UNL     1      22.528  31.411  19.246  1.00  0.00    -0.456 OA
ENDROOT
BRANCH   1  12
ATOM     12  C   UNL     1      23.644  29.921  17.687  1.00  0.00     0.017 A 
ATOM     13  C   UNL     1      25.111  27.552  17.231  1.00  0.00     0.000 A 
ATOM     14  C   UNL     1      24.902  28.455  16.189  1.00  0.00     0.001 A 
ATOM     15  C   UNL     1      24.593  27.819  18.498  1.00  0.00     0.001 A 
ATOM     16  C   UNL     1      24.177  29.631  16.409  1.00  0.00     0.012 A 
ATOM     17  C   UNL     1      23.867  28.992  18.726  1.00  0.00     0.012 A 
ENDBRANCH   1  12
TORSDOF 1
ENDMDL
MODEL 4
REMARK VINA RESULT:    -6.090     18.739     19.341
REMARK INTER + INTRA:          -6.711
REMARK INTER:                  -6.447
REMARK INTRA:                  -0.265
REMARK UNBOUND:                -0.265
REMARK SMILES O=c1cc(-c2ccccc2)oc2ccccc12
REMARK SMILES IDX 4 1 3 2 2 3 1 4 17 5 16 6 15 7 14 8 13 9 12 10 11 11 5 12
REMARK SMILES IDX 8 13 7 14 9 15 6 16 10 17
REMARK H PARENT
REMARK Flexibility Score: inf
ROOT
ATOM      1  C   UNL     1      29.952  26.599  35.060  1.00  0.00     0.138 A 
ATOM      2  C   UNL     1      30.049  28.004  35.145  1.00  0.00     0.100 A 
ATOM      3  C   UNL     1      31.270  28.626  34.878  1.00  0.00     0.193 A 
ATOM      4  O   UNL     1      31.357  29.883  34.955  1.00  0.00    -0.289 OA
ATOM      5  C   UNL     1      32.382  27.847  34.529  1.00  0.00     0.065 A 
ATOM      6  C   UNL     1      33.640  28.410  34.248  1.00  0.00     0.016 A 
ATOM      7  C   UNL     1      34.715  27.585  33.905  1.00  0.00     0.001 A 
ATOM      8  C   UNL     1      34.546  26.199  33.840  1.00  0.00     0.004 A 
ATOM      9  C   UNL     1      33.299  25.631  34.117  1.00  0.00     0.048 A 
ATOM     10  C   UNL     1      32.216  26.447  34.462  1.00  0.00     0.138 A 
ATOM     11  O   UNL     1      31.035  25.896  34.724  1.00  0.00    -0.456 OA
ENDROOT
BRANCH   1  12
ATOM     12  C   UNL     1      28.684  25.853  35.329  1.00  0.00     0.017 A 
ATOM     13  C   UNL     1      26.332  24.364  35.802  1.00  0.00     0.000 A 
ATOM     14  C   UNL     1      26.377  25.720  36.125  1.00  0.00     0.001 A 
ATOM     15  C   UNL     1      27.450  23.745  35.246  1.00  0.00     0.001 A 
ATOM     16  C   UNL     1      27.539  26.463  35.893  1.00  0.00     0.012 A 
ATOM     17  C   UNL     1      28.615  24.480  35.010  1.00  0.00     0.012 A 
ENDBRANCH   1  12
TORSDOF 1
ENDMDL
MODEL 5
REMARK VINA RESULT:    -6.085      1.283      2.436
REMARK INTER + INTRA:          -6.706
REMARK INTER:                  -6.442
REMARK INTRA:                  -0.264
REMARK UNBOUND:                -0.265
REMARK SMILES O=c1cc(-c2ccccc2)oc2ccccc12
REMARK SMILES IDX 4 1 3 2 2 3 1 4 17 5 16 6 15 7 14 8 13 9 12 10 11 11 5 12
REMARK SMILES IDX 8 13 7 14 9 15 6 16 10 17
REMARK H PARENT
REMARK Flexibility Score: inf
ROOT
ATOM      1  C   UNL     1      23.186  30.559  18.168  1.00  0.00     0.138 A 
ATOM      2  C   UNL     1      22.984  30.862  19.531  1.00  0.00     0.100 A 
ATOM      3  C   UNL     1      22.297  32.026  19.882  1.00  0.00     0.193 A 
ATOM      4  O   UNL     1      22.116  32.298  21.101  1.00  0.00    -0.289 OA
ATOM      5  C   UNL     1      21.818  32.876  18.876  1.00  0.00     0.065 A 
ATOM      6  C   UNL     1      21.119  34.063  19.161  1.00  0.00     0.016 A 
ATOM      7  C   UNL     1      20.664  34.875  18.118  1.00  0.00     0.001 A 
ATOM      8  C   UNL     1      20.901  34.512  16.789  1.00  0.00     0.004 A 
ATOM      9  C   UNL     1      21.594  33.334  16.496  1.00  0.00     0.048 A 
ATOM     10  C   UNL     1      22.055  32.515  17.532  1.00  0.00     0.138 A 
ATOM     11  O   UNL     1      22.714  31.397  17.243  1.00  0.00    -0.456 OA
ENDROOT
BRANCH   1  12
ATOM     12  C   UNL     1      23.911  29.335  17.706  1.00  0.00     0.017 A 
ATOM     13  C   UNL     1      25.281  27.063  16.741  1.00  0.00     0.000 A 
ATOM     14  C   UNL     1      24.916  27.140  18.085  1.00  0.00     0.001 A 
ATOM     15  C   UNL     1      24.969  28.109  15.875  1.00  0.00     0.001 A 
ATOM     16  C   UNL     1      24.237  28.263  18.569  1.00  0.00     0.012 A 
ATOM     17  C   UNL     1      24.290  29.235  16.350  1.00  0.00     0.012 A 
ENDBRANCH   1  12
TORSDOF 1
ENDMDL
MODEL 6
REMARK VINA RESULT:    -5.931     19.018     19.646
REMARK INTER + INTRA:          -6.543
REMARK INTER:                  -6.279
REMARK INTRA:                  -0.265
REMARK UNBOUND:                -0.265
REMARK SMILES O=c1cc(-c2ccccc2)oc2ccccc12
REMARK SMILES IDX 4 1 3 2 2 3 1 4 17 5 16 6 15 7 14 8 13 9 12 10 11 11 5 12
REMARK SMILES IDX 8 13 7 14 9 15 6 16 10 17
REMARK H PARENT
REMARK Flexibility Score: inf
ROOT
ATOM      1  C   UNL     1      30.719  26.421  35.063  1.00  0.00     0.138 A 
ATOM      2  C   UNL     1      31.699  25.703  34.347  1.00  0.00     0.100 A 
ATOM      3  C   UNL     1      32.956  26.275  34.139  1.00  0.00     0.193 A 
ATOM      4  O   UNL     1      33.833  25.633  33.498  1.00  0.00    -0.289 OA
ATOM      5  C   UNL     1      33.226  27.554  34.645  1.00  0.00     0.065 A 
ATOM      6  C   UNL     1      34.470  28.186  34.472  1.00  0.00     0.016 A 
ATOM      7  C   UNL     1      34.685  29.463  34.999  1.00  0.00     0.001 A 
ATOM      8  C   UNL     1      33.667  30.117  35.698  1.00  0.00     0.004 A 
ATOM      9  C   UNL     1      32.427  29.496  35.877  1.00  0.00     0.048 A 
ATOM     10  C   UNL     1      32.201  28.218  35.353  1.00  0.00     0.138 A 
ATOM     11  O   UNL     1      31.018  27.636  35.527  1.00  0.00    -0.456 OA
ENDROOT
BRANCH   1  12
ATOM     12  C   UNL     1      29.349  25.884  35.329  1.00  0.00     0.017 A 
ATOM     13  C   UNL     1      26.736  24.958  35.866  1.00  0.00     0.000 A 
ATOM     14  C   UNL     1      27.691  24.088  35.340  1.00  0.00     0.001 A 
ATOM     15  C   UNL     1      27.073  26.285  36.125  1.00  0.00     0.001 A 
ATOM     16  C   UNL     1      28.987  24.541  35.073  1.00  0.00     0.012 A 
ATOM     17  C   UNL     1      28.366  26.746  35.861  1.00  0.00     0.012 A 
ENDBRANCH   1  12
TORSDOF 1
ENDMDL
MODEL 7
REMARK VINA RESULT:    -5.852     10.142     12.330
REMARK INTER + INTRA:          -6.459
REMARK INTER:                  -6.216
REMARK INTRA:                  -0.243
REMARK UNBOUND:                -0.265
REMARK SMILES O=c1cc(-c2ccccc2)oc2ccccc12
REMARK SMILES IDX 4 1 3 2 2 3 1 4 17 5 16 6 15 7 14 8 13 9 12 10 11 11 5 12
REMARK SMILES IDX 8 13 7 14 9 15 6 16 10 17
REMARK H PARENT
REMARK Flexibility Score: inf
ROOT
ATOM      1  C   UNL     1      18.218  21.074  20.638  1.00  0.00     0.138 A 
ATOM      2  C   UNL     1      18.126  22.237  19.844  1.00  0.00     0.100 A 
ATOM      3  C   UNL     1      18.277  22.138  18.459  1.00  0.00     0.193 A 
ATOM      4  O   UNL     1      18.196  23.178  17.750  1.00  0.00    -0.289 OA
ATOM      5  C   UNL     1      18.517  20.886  17.878  1.00  0.00     0.065 A 
ATOM      6  C   UNL     1      18.678  20.717  16.490  1.00  0.00     0.016 A 
ATOM      7  C   UNL     1      18.916  19.444  15.964  1.00  0.00     0.001 A 
ATOM      8  C   UNL     1      18.995  18.336  16.810  1.00  0.00     0.004 A 
ATOM      9  C   UNL     1      18.835  18.493  18.190  1.00  0.00     0.048 A 
ATOM     10  C   UNL     1      18.598  19.763  18.729  1.00  0.00     0.138 A 
ATOM     11  O   UNL     1      18.448  19.902  20.043  1.00  0.00    -0.456 OA
ENDROOT
BRANCH   1  12
ATOM     12  C   UNL     1      18.070  21.091  22.126  1.00  0.00     0.017 A 
ATOM     13  C   UNL     1      17.871  21.066  24.942  1.00  0.00     0.000 A 
ATOM     14  C   UNL     1      16.919  21.743  24.181  1.00  0.00     0.001 A 
ATOM     15  C   UNL     1      18.922  20.403  24.311  1.00  0.00     0.001 A 
ATOM     16  C   UNL     1      17.012  21.758  22.785  1.00  0.00     0.012 A 
ATOM     17  C   UNL     1      19.022  20.412  22.917  1.00  0.00     0.012 A 
ENDBRANCH   1  12
TORSDOF 1
ENDMDL
MODEL 8
REMARK VINA RESULT:    -5.848     10.017     12.078
REMARK INTER + INTRA:          -6.455
REMARK INTER:                  -6.207
REMARK INTRA:                  -0.248
REMARK UNBOUND:                -0.265
REMARK SMILES O=c1cc(-c2ccccc2)oc2ccccc12
REMARK SMILES IDX 4 1 3 2 2 3 1 4 17 5 16 6 15 7 14 8 13 9 12 10 11 11 5 12
REMARK SMILES IDX 8 13 7 14 9 15 6 16 10 17
REMARK H PARENT
REMARK Flexibility Score: inf
ROOT
ATOM      1  C   UNL     1      18.179  20.842  20.754  1.00  0.00     0.138 A 
ATOM      2  C   UNL     1      18.578  19.651  20.111  1.00  0.00     0.100 A 
ATOM      3  C   UNL     1      18.670  19.619  18.718  1.00  0.00     0.193 A 
ATOM      4  O   UNL     1      19.026  18.554  18.143  1.00  0.00    -0.289 OA
ATOM      5  C   UNL     1      18.365  20.770  17.978  1.00  0.00     0.065 A 
ATOM      6  C   UNL     1      18.438  20.805  16.574  1.00  0.00     0.016 A 
ATOM      7  C   UNL     1      18.123  21.981  15.886  1.00  0.00     0.001 A 
ATOM      8  C   UNL     1      17.734  23.125  16.589  1.00  0.00     0.004 A 
ATOM      9  C   UNL     1      17.660  23.099  17.984  1.00  0.00     0.048 A 
ATOM     10  C   UNL     1      17.972  21.928  18.683  1.00  0.00     0.138 A 
ATOM     11  O   UNL     1      17.898  21.914  20.011  1.00  0.00    -0.456 OA
ENDROOT
BRANCH   1  12
ATOM     12  C   UNL     1      18.053  20.962  22.239  1.00  0.00     0.017 A 
ATOM     13  C   UNL     1      17.899  21.134  25.053  1.00  0.00     0.000 A 
ATOM     14  C   UNL     1      16.925  21.743  24.262  1.00  0.00     0.001 A 
ATOM     15  C   UNL     1      18.950  20.442  24.453  1.00  0.00     0.001 A 
ATOM     16  C   UNL     1      16.996  21.660  22.867  1.00  0.00     0.012 A 
ATOM     17  C   UNL     1      19.028  20.354  23.060  1.00  0.00     0.012 A 
ENDBRANCH   1  12
TORSDOF 1
ENDMDL
MODEL 9
REMARK VINA RESULT:    -5.705      1.398      6.253
REMARK INTER + INTRA:          -6.304
REMARK INTER:                  -6.048
REMARK INTRA:                  -0.256
REMARK UNBOUND:                -0.265
REMARK SMILES O=c1cc(-c2ccccc2)oc2ccccc12
REMARK SMILES IDX 4 1 3 2 2 3 1 4 17 5 16 6 15 7 14 8 13 9 12 10 11 11 5 12
REMARK SMILES IDX 8 13 7 14 9 15 6 16 10 17
REMARK H PARENT
REMARK Flexibility Score: inf
ROOT
ATOM      1  C   UNL     1      21.873  32.818  19.365  1.00  0.00     0.138 A 
ATOM      2  C   UNL     1      21.970  33.250  18.026  1.00  0.00     0.100 A 
ATOM      3  C   UNL     1      22.551  32.410  17.073  1.00  0.00     0.193 A 
ATOM      4  O   UNL     1      22.639  32.796  15.875  1.00  0.00    -0.289 OA
ATOM      5  C   UNL     1      23.029  31.151  17.461  1.00  0.00     0.065 A 
ATOM      6  C   UNL     1      23.625  30.257  16.553  1.00  0.00     0.016 A 
ATOM      7  C   UNL     1      24.085  29.013  16.995  1.00  0.00     0.001 A 
ATOM      8  C   UNL     1      23.956  28.652  18.338  1.00  0.00     0.004 A 
ATOM      9  C   UNL     1      23.364  29.533  19.248  1.00  0.00     0.048 A 
ATOM     10  C   UNL     1      22.901  30.781  18.817  1.00  0.00     0.138 A 
ATOM     11  O   UNL     1      22.341  31.612  19.691  1.00  0.00    -0.456 OA
ENDROOT
BRANCH   1  12
ATOM     12  C   UNL     1      21.266  33.654  20.447  1.00  0.00     0.017 A 
ATOM     13  C   UNL     1      20.180  35.186  22.555  1.00  0.00     0.000 A 
ATOM     14  C   UNL     1      19.707  35.354  21.253  1.00  0.00     0.001 A 
ATOM     15  C   UNL     1      21.190  34.262  22.813  1.00  0.00     0.001 A 
ATOM     16  C   UNL     1      20.241  34.597  20.205  1.00  0.00     0.012 A 
ATOM     17  C   UNL     1      21.729  33.501  21.772  1.00  0.00     0.012 A 
ENDBRANCH   1  12
TORSDOF 1
ENDMDL
