MODEL 1
REMARK VINA RESULT:    -5.516      0.000      0.000
REMARK INTER + INTRA:          -8.305
REMARK INTER:                  -7.451
REMARK INTRA:                  -0.853
REMARK UNBOUND:                -0.853
REMARK SMILES CC(=O)CCC=C(C)CCC=C(C)C
REMARK SMILES IDX 7 1 6 2 8 3 9 4 10 5 11 6 13 7 12 8 14 9 5 10 4 11 2 12 3 13
REMARK SMILES IDX 1 14
REMARK H PARENT
REMARK Flexibility Score: inf
ROOT
ATOM      1  C   UNL     1      17.259  -9.995  64.680  1.00  0.00    -0.077 C 
ATOM      2  C   UNL     1      16.903 -10.023  65.985  1.00  0.00    -0.028 C 
ATOM      3  C   UNL     1      16.297  -9.392  63.690  1.00  0.00     0.039 C 
ENDROOT
BRANCH   1   4
ATOM      4  C   UNL     1      18.598 -10.508  64.178  1.00  0.00     0.034 C 
BRANCH   4   5
ATOM      5  C   UNL     1      19.667  -9.405  64.167  1.00  0.00     0.032 C 
BRANCH   5   6
ATOM      6  C   UNL     1      20.985  -9.905  63.627  1.00  0.00    -0.028 C 
ATOM      7  C   UNL     1      23.180 -11.008  63.674  1.00  0.00     0.039 C 
ATOM      8  C   UNL     1      21.935 -10.518  64.367  1.00  0.00    -0.080 C 
ATOM      9  C   UNL     1      21.791 -10.706  65.860  1.00  0.00     0.039 C 
ENDBRANCH   5   6
ENDBRANCH   4   5
ENDBRANCH   1   4
BRANCH   2  10
ATOM     10  C   UNL     1      17.720 -10.647  67.092  1.00  0.00     0.035 C 
BRANCH  10  11
ATOM     11  C   UNL     1      18.574  -9.604  67.824  1.00  0.00     0.079 C 
BRANCH  11  12
ATOM     12  C   UNL     1      19.243 -10.189  69.040  1.00  0.00     0.130 C 
ATOM     13  O   UNL     1      19.386  -9.503  70.041  1.00  0.00    -0.300 OA
ATOM     14  C   UNL     1      19.776 -11.590  69.029  1.00  0.00     0.087 C 
ENDBRANCH  11  12
ENDBRANCH  10  11
ENDBRANCH   2  10
TORSDOF 6
ENDMDL
MODEL 2
REMARK VINA RESULT:    -5.390      2.987      4.839
REMARK INTER + INTRA:          -8.134
REMARK INTER:                  -6.712
REMARK INTRA:                  -1.423
REMARK UNBOUND:                -0.853
REMARK SMILES CC(=O)CCC=C(C)CCC=C(C)C
REMARK SMILES IDX 7 1 6 2 8 3 9 4 10 5 11 6 13 7 12 8 14 9 5 10 4 11 2 12 3 13
REMARK SMILES IDX 1 14
REMARK H PARENT
REMARK Flexibility Score: inf
ROOT
ATOM      1  C   UNL     1      17.092 -11.373  66.844  1.00  0.00    -0.077 C 
ATOM      2  C   UNL     1      16.623 -11.754  65.633  1.00  0.00    -0.028 C 
ATOM      3  C   UNL     1      17.353 -12.440  67.875  1.00  0.00     0.039 C 
ENDROOT
BRANCH   1   4
ATOM      4  C   UNL     1      17.403  -9.928  67.192  1.00  0.00     0.034 C 
BRANCH   4   5
ATOM      5  C   UNL     1      18.915  -9.666  67.256  1.00  0.00     0.032 C 
BRANCH   5   6
ATOM      6  C   UNL     1      19.478  -9.288  65.906  1.00  0.00    -0.028 C 
ATOM      7  C   UNL     1      20.639  -9.611  63.765  1.00  0.00     0.039 C 
ATOM      8  C   UNL     1      20.187 -10.118  65.111  1.00  0.00    -0.080 C 
ATOM      9  C   UNL     1      20.551 -11.521  65.538  1.00  0.00     0.039 C 
ENDBRANCH   5   6
ENDBRANCH   4   5
ENDBRANCH   1   4
BRANCH   2  10
ATOM     10  C   UNL     1      16.250 -10.810  64.514  1.00  0.00     0.035 C 
BRANCH  10  11
ATOM     11  C   UNL     1      17.098 -11.055  63.259  1.00  0.00     0.079 C 
BRANCH  11  12
ATOM     12  C   UNL     1      16.457 -12.064  62.344  1.00  0.00     0.130 C 
ATOM     13  O   UNL     1      17.119 -12.996  61.912  1.00  0.00    -0.300 OA
ATOM     14  C   UNL     1      15.026 -11.921  61.918  1.00  0.00     0.087 C 
ENDBRANCH  11  12
ENDBRANCH  10  11
ENDBRANCH   2  10
TORSDOF 6
ENDMDL
MODEL 3
REMARK VINA RESULT:    -5.317      1.584      4.009
REMARK INTER + INTRA:          -8.036
REMARK INTER:                  -7.029
REMARK INTRA:                  -1.007
REMARK UNBOUND:                -0.853
REMARK SMILES CC(=O)CCC=C(C)CCC=C(C)C
REMARK SMILES IDX 7 1 6 2 8 3 9 4 10 5 11 6 13 7 12 8 14 9 5 10 4 11 2 12 3 13
REMARK SMILES IDX 1 14
REMARK H PARENT
REMARK Flexibility Score: inf
ROOT
ATOM      1  C   UNL     1      19.441  -9.863  64.586  1.00  0.00    -0.077 C 
ATOM      2  C   UNL     1      19.536 -10.597  65.719  1.00  0.00    -0.028 C 
ATOM      3  C   UNL     1      20.672  -9.709  63.731  1.00  0.00     0.039 C 
ENDROOT
BRANCH   1   4
ATOM      4  C   UNL     1      18.144  -9.223  64.122  1.00  0.00     0.034 C 
BRANCH   4   5
ATOM      5  C   UNL     1      17.315 -10.177  63.250  1.00  0.00     0.032 C 
BRANCH   5   6
ATOM      6  C   UNL     1      15.967 -10.473  63.864  1.00  0.00    -0.028 C 
ATOM      7  C   UNL     1      14.241 -11.795  65.008  1.00  0.00     0.039 C 
ATOM      8  C   UNL     1      15.606 -11.668  64.381  1.00  0.00    -0.080 C 
ATOM      9  C   UNL     1      16.518 -12.872  64.332  1.00  0.00     0.039 C 
ENDBRANCH   5   6
ENDBRANCH   4   5
ENDBRANCH   1   4
BRANCH   2  10
ATOM     10  C   UNL     1      18.420 -10.796  66.716  1.00  0.00     0.035 C 
BRANCH  10  11
ATOM     11  C   UNL     1      18.466  -9.749  67.837  1.00  0.00     0.079 C 
BRANCH  11  12
ATOM     12  C   UNL     1      19.194 -10.267  69.050  1.00  0.00     0.130 C 
ATOM     13  O   UNL     1      19.392  -9.524  69.999  1.00  0.00    -0.300 OA
ATOM     14  C   UNL     1      19.719 -11.670  69.094  1.00  0.00     0.087 C 
ENDBRANCH  11  12
ENDBRANCH  10  11
ENDBRANCH   2  10
TORSDOF 6
ENDMDL
MODEL 4
REMARK VINA RESULT:    -5.299      2.409      4.334
REMARK INTER + INTRA:          -8.011
REMARK INTER:                  -7.133
REMARK INTRA:                  -0.879
REMARK UNBOUND:                -0.853
REMARK SMILES CC(=O)CCC=C(C)CCC=C(C)C
REMARK SMILES IDX 7 1 6 2 8 3 9 4 10 5 11 6 13 7 12 8 14 9 5 10 4 11 2 12 3 13
REMARK SMILES IDX 1 14
REMARK H PARENT
REMARK Flexibility Score: inf
ROOT
ATOM      1  C   UNL     1      17.388 -11.293  65.354  1.00  0.00    -0.077 C 
ATOM      2  C   UNL     1      17.193 -11.137  66.684  1.00  0.00    -0.028 C 
ATOM      3  C   UNL     1      17.199 -12.665  64.760  1.00  0.00     0.039 C 
ENDROOT
BRANCH   1   4
ATOM      4  C   UNL     1      17.749 -10.141  64.431  1.00  0.00     0.034 C 
BRANCH   4   5
ATOM      5  C   UNL     1      16.516  -9.314  64.038  1.00  0.00     0.032 C 
BRANCH   5   6
ATOM      6  C   UNL     1      15.850  -9.853  62.794  1.00  0.00    -0.028 C 
ATOM      7  C   UNL     1      14.112 -10.954  61.453  1.00  0.00     0.039 C 
ATOM      8  C   UNL     1      14.677 -10.523  62.782  1.00  0.00    -0.080 C 
ATOM      9  C   UNL     1      13.934 -10.864  64.053  1.00  0.00     0.039 C 
ENDBRANCH   5   6
ENDBRANCH   4   5
ENDBRANCH   1   4
BRANCH   2  10
ATOM     10  C   UNL     1      17.403  -9.850  67.444  1.00  0.00     0.035 C 
BRANCH  10  11
ATOM     11  C   UNL     1      18.887  -9.602  67.744  1.00  0.00     0.079 C 
BRANCH  11  12
ATOM     12  C   UNL     1      19.301 -10.230  69.049  1.00  0.00     0.130 C 
ATOM     13  O   UNL     1      19.284  -9.564  70.073  1.00  0.00    -0.300 OA
ATOM     14  C   UNL     1      19.776 -11.651  69.106  1.00  0.00     0.087 C 
ENDBRANCH  11  12
ENDBRANCH  10  11
ENDBRANCH   2  10
TORSDOF 6
ENDMDL
MODEL 5
REMARK VINA RESULT:    -5.197     13.770     15.693
REMARK INTER + INTRA:          -7.873
REMARK INTER:                  -6.370
REMARK INTRA:                  -1.503
REMARK UNBOUND:                -0.853
REMARK SMILES CC(=O)CCC=C(C)CCC=C(C)C
REMARK SMILES IDX 7 1 6 2 8 3 9 4 10 5 11 6 13 7 12 8 14 9 5 10 4 11 2 12 3 13
REMARK SMILES IDX 1 14
REMARK H PARENT
REMARK Flexibility Score: inf
ROOT
ATOM      1  C   UNL     1       8.774  -9.297  54.905  1.00  0.00    -0.077 C 
ATOM      2  C   UNL     1       8.892  -9.749  56.175  1.00  0.00    -0.028 C 
ATOM      3  C   UNL     1      10.025  -8.872  54.180  1.00  0.00     0.039 C 
ENDROOT
BRANCH   1   4
ATOM      4  C   UNL     1       7.447  -9.237  54.170  1.00  0.00     0.034 C 
BRANCH   4   5
ATOM      5  C   UNL     1       6.867  -7.815  54.149  1.00  0.00     0.032 C 
BRANCH   5   6
ATOM      6  C   UNL     1       5.923  -7.575  55.304  1.00  0.00    -0.028 C 
ATOM      7  C   UNL     1       5.132  -6.603  57.417  1.00  0.00     0.039 C 
ATOM      8  C   UNL     1       6.197  -6.786  56.366  1.00  0.00    -0.080 C 
ATOM      9  C   UNL     1       7.534  -6.104  56.535  1.00  0.00     0.039 C 
ENDBRANCH   5   6
ENDBRANCH   4   5
ENDBRANCH   1   4
BRANCH   2  10
ATOM     10  C   UNL     1       7.738 -10.152  57.061  1.00  0.00     0.035 C 
BRANCH  10  11
ATOM     11  C   UNL     1       8.104 -10.060  58.548  1.00  0.00     0.079 C 
BRANCH  11  12
ATOM     12  C   UNL     1       7.201  -9.105  59.284  1.00  0.00     0.130 C 
ATOM     13  O   UNL     1       6.009  -9.352  59.379  1.00  0.00    -0.300 OA
ATOM     14  C   UNL     1       7.736  -7.832  59.868  1.00  0.00     0.087 C 
ENDBRANCH  11  12
ENDBRANCH  10  11
ENDBRANCH   2  10
TORSDOF 6
ENDMDL
MODEL 6
REMARK VINA RESULT:    -5.093     13.296     16.032
REMARK INTER + INTRA:          -7.733
REMARK INTER:                  -6.298
REMARK INTRA:                  -1.435
REMARK UNBOUND:                -0.853
REMARK SMILES CC(=O)CCC=C(C)CCC=C(C)C
REMARK SMILES IDX 7 1 6 2 8 3 9 4 10 5 11 6 13 7 12 8 14 9 5 10 4 11 2 12 3 13
REMARK SMILES IDX 1 14
REMARK H PARENT
REMARK Flexibility Score: inf
ROOT
ATOM      1  C   UNL     1       6.003  -6.701  56.405  1.00  0.00    -0.077 C 
ATOM      2  C   UNL     1       5.846  -7.565  55.376  1.00  0.00    -0.028 C 
ATOM      3  C   UNL     1       4.895  -6.591  57.421  1.00  0.00     0.039 C 
ENDROOT
BRANCH   1   4
ATOM      4  C   UNL     1       7.260  -5.870  56.602  1.00  0.00     0.034 C 
BRANCH   4   5
ATOM      5  C   UNL     1       7.856  -6.056  58.004  1.00  0.00     0.032 C 
BRANCH   5   6
ATOM      6  C   UNL     1       8.738  -7.280  58.083  1.00  0.00    -0.028 C 
ATOM      7  C   UNL     1       9.374  -9.579  58.673  1.00  0.00     0.039 C 
ATOM      8  C   UNL     1       8.410  -8.422  58.727  1.00  0.00    -0.080 C 
ATOM      9  C   UNL     1       7.123  -8.561  59.507  1.00  0.00     0.039 C 
ENDBRANCH   5   6
ENDBRANCH   4   5
ENDBRANCH   1   4
BRANCH   2  10
ATOM     10  C   UNL     1       6.827  -7.748  54.243  1.00  0.00     0.035 C 
BRANCH  10  11
ATOM     11  C   UNL     1       7.809  -8.894  54.522  1.00  0.00     0.079 C 
BRANCH  11  12
ATOM     12  C   UNL     1       7.089 -10.192  54.778  1.00  0.00     0.130 C 
ATOM     13  O   UNL     1       6.412 -10.692  53.893  1.00  0.00    -0.300 OA
ATOM     14  C   UNL     1       7.157 -10.861  56.118  1.00  0.00     0.087 C 
ENDBRANCH  11  12
ENDBRANCH  10  11
ENDBRANCH   2  10
TORSDOF 6
ENDMDL
MODEL 7
REMARK VINA RESULT:    -5.052      2.480      4.574
REMARK INTER + INTRA:          -7.677
REMARK INTER:                  -6.057
REMARK INTRA:                  -1.620
REMARK UNBOUND:                -0.853
REMARK SMILES CC(=O)CCC=C(C)CCC=C(C)C
REMARK SMILES IDX 7 1 6 2 8 3 9 4 10 5 11 6 13 7 12 8 14 9 5 10 4 11 2 12 3 13
REMARK SMILES IDX 1 14
REMARK H PARENT
REMARK Flexibility Score: inf
ROOT
ATOM      1  C   UNL     1      16.745 -11.866  64.082  1.00  0.00    -0.077 C 
ATOM      2  C   UNL     1      17.755 -11.260  63.416  1.00  0.00    -0.028 C 
ATOM      3  C   UNL     1      16.645 -13.368  64.014  1.00  0.00     0.039 C 
ENDROOT
BRANCH   1   4
ATOM      4  C   UNL     1      15.735 -11.103  64.922  1.00  0.00     0.034 C 
BRANCH   4   5
ATOM      5  C   UNL     1      15.896 -11.401  66.420  1.00  0.00     0.032 C 
BRANCH   5   6
ATOM      6  C   UNL     1      16.883 -10.464  67.077  1.00  0.00    -0.028 C 
ATOM      7  C   UNL     1      19.003  -9.764  68.102  1.00  0.00     0.039 C 
ATOM      8  C   UNL     1      18.109 -10.826  67.513  1.00  0.00    -0.080 C 
ATOM      9  C   UNL     1      18.597 -12.254  67.443  1.00  0.00     0.039 C 
ENDBRANCH   5   6
ENDBRANCH   4   5
ENDBRANCH   1   4
BRANCH   2  10
ATOM     10  C   UNL     1      17.961  -9.767  63.329  1.00  0.00     0.035 C 
BRANCH  10  11
ATOM     11  C   UNL     1      19.045  -9.285  64.301  1.00  0.00     0.079 C 
BRANCH  11  12
ATOM     12  C   UNL     1      20.361  -9.975  64.052  1.00  0.00     0.130 C 
ATOM     13  O   UNL     1      20.863  -9.935  62.939  1.00  0.00    -0.300 OA
ATOM     14  C   UNL     1      21.046 -10.747  65.139  1.00  0.00     0.087 C 
ENDBRANCH  11  12
ENDBRANCH  10  11
ENDBRANCH   2  10
TORSDOF 6
ENDMDL
MODEL 8
REMARK VINA RESULT:    -5.030      2.542      4.874
REMARK INTER + INTRA:          -7.648
REMARK INTER:                  -6.496
REMARK INTRA:                  -1.153
REMARK UNBOUND:                -0.853
REMARK SMILES CC(=O)CCC=C(C)CCC=C(C)C
REMARK SMILES IDX 7 1 6 2 8 3 9 4 10 5 11 6 13 7 12 8 14 9 5 10 4 11 2 12 3 13
REMARK SMILES IDX 1 14
REMARK H PARENT
REMARK Flexibility Score: inf
ROOT
ATOM      1  C   UNL     1      16.927  -9.776  63.568  1.00  0.00    -0.077 C 
ATOM      2  C   UNL     1      18.247  -9.479  63.611  1.00  0.00    -0.028 C 
ATOM      3  C   UNL     1      15.960  -8.678  63.207  1.00  0.00     0.039 C 
ENDROOT
BRANCH   1   4
ATOM      4  C   UNL     1      16.386 -11.171  63.829  1.00  0.00     0.034 C 
BRANCH   4   5
ATOM      5  C   UNL     1      15.752 -11.288  65.223  1.00  0.00     0.032 C 
BRANCH   5   6
ATOM      6  C   UNL     1      16.688 -11.936  66.214  1.00  0.00    -0.028 C 
ATOM      7  C   UNL     1      18.259 -12.058  68.100  1.00  0.00     0.039 C 
ATOM      8  C   UNL     1      17.405 -11.266  67.144  1.00  0.00    -0.080 C 
ATOM      9  C   UNL     1      17.386  -9.758  67.237  1.00  0.00     0.039 C 
ENDBRANCH   5   6
ENDBRANCH   4   5
ENDBRANCH   1   4
BRANCH   2  10
ATOM     10  C   UNL     1      19.337 -10.441  64.017  1.00  0.00     0.035 C 
BRANCH  10  11
ATOM     11  C   UNL     1      20.659  -9.715  64.299  1.00  0.00     0.079 C 
BRANCH  11  12
ATOM     12  C   UNL     1      21.748 -10.159  63.358  1.00  0.00     0.130 C 
ATOM     13  O   UNL     1      21.641  -9.936  62.161  1.00  0.00    -0.300 OA
ATOM     14  C   UNL     1      22.945 -10.909  63.861  1.00  0.00     0.087 C 
ENDBRANCH  11  12
ENDBRANCH  10  11
ENDBRANCH   2  10
TORSDOF 6
ENDMDL
MODEL 9
REMARK VINA RESULT:    -4.938     13.940     15.814
REMARK INTER + INTRA:          -7.523
REMARK INTER:                  -5.991
REMARK INTRA:                  -1.532
REMARK UNBOUND:                -0.853
REMARK SMILES CC(=O)CCC=C(C)CCC=C(C)C
REMARK SMILES IDX 7 1 6 2 8 3 9 4 10 5 11 6 13 7 12 8 14 9 5 10 4 11 2 12 3 13
REMARK SMILES IDX 1 14
REMARK H PARENT
REMARK Flexibility Score: inf
ROOT
ATOM      1  C   UNL     1       9.325  -9.752  54.810  1.00  0.00    -0.077 C 
ATOM      2  C   UNL     1       8.689  -8.709  54.228  1.00  0.00    -0.028 C 
ATOM      3  C   UNL     1      10.819  -9.860  54.640  1.00  0.00     0.039 C 
ENDROOT
BRANCH   1   4
ATOM      4  C   UNL     1       8.608 -10.789  55.656  1.00  0.00     0.034 C 
BRANCH   4   5
ATOM      5  C   UNL     1       9.117 -10.798  57.105  1.00  0.00     0.032 C 
BRANCH   5   6
ATOM      6  C   UNL     1       8.042 -10.381  58.081  1.00  0.00    -0.028 C 
ATOM      7  C   UNL     1       6.731  -8.852  59.488  1.00  0.00     0.039 C 
ATOM      8  C   UNL     1       7.885  -9.126  58.558  1.00  0.00    -0.080 C 
ATOM      9  C   UNL     1       8.837  -8.008  58.202  1.00  0.00     0.039 C 
ENDBRANCH   5   6
ENDBRANCH   4   5
ENDBRANCH   1   4
BRANCH   2  10
ATOM     10  C   UNL     1       7.195  -8.489  54.246  1.00  0.00     0.035 C 
BRANCH  10  11
ATOM     11  C   UNL     1       6.803  -7.334  55.178  1.00  0.00     0.079 C 
BRANCH  11  12
ATOM     12  C   UNL     1       5.656  -7.712  56.078  1.00  0.00     0.130 C 
ATOM     13  O   UNL     1       5.277  -8.872  56.119  1.00  0.00    -0.300 OA
ATOM     14  C   UNL     1       4.943  -6.678  56.896  1.00  0.00     0.087 C 
ENDBRANCH  11  12
ENDBRANCH  10  11
ENDBRANCH   2  10
TORSDOF 6
ENDMDL
