MODEL 1
REMARK VINA RESULT:    -5.025      0.000      0.000
REMARK INTER + INTRA:          -7.172
REMARK INTER:                  -6.788
REMARK INTRA:                  -0.384
REMARK UNBOUND:                -0.384
REMARK SMILES O=c1c(-c2ccc(O)cc2)coc2c([C@H]3O[C@@H](CO)[C@H](O)[C@H](O)[C@@H]3O)c(O)ccc12
REMARK SMILES IDX 3 1 11 2 12 3 13 4 30 5 2 6 1 7 29 8 28 9 26 10 14 11 4 12
REMARK SMILES IDX 5 13 6 14 7 15 10 16 9 17 8 18 15 20 24 21 16 22 22 23 17 24
REMARK SMILES IDX 20 25 25 26 23 28 18 30 19 31 21 33 27 35
REMARK H PARENT 8 19 25 27 23 29 19 32 21 34 27 36
REMARK Flexibility Score: inf
ROOT
ATOM      1  C   UNL     1       4.710 -15.145  15.441  1.00  0.00     0.065 A 
ATOM      2  C   UNL     1       4.491 -13.960  14.731  1.00  0.00     0.208 A 
ATOM      3  O   UNL     1       3.928 -12.910  15.315  1.00  0.00    -0.463 OA
ATOM      4  C   UNL     1       3.537 -12.890  16.583  1.00  0.00     0.147 A 
ATOM      5  C   UNL     1       3.715 -14.056  17.372  1.00  0.00     0.066 A 
ATOM      6  C   UNL     1       4.319 -15.186  16.790  1.00  0.00     0.200 A 
ATOM      7  O   UNL     1       4.525 -16.225  17.478  1.00  0.00    -0.288 OA
ATOM      8  C   UNL     1       3.288 -14.067  18.706  1.00  0.00     0.020 A 
ATOM      9  C   UNL     1       2.669 -12.951  19.252  1.00  0.00     0.047 A 
ATOM     10  C   UNL     1       2.484 -11.794  18.489  1.00  0.00     0.125 A 
ATOM     11  C   UNL     1       2.952 -11.720  17.152  1.00  0.00     0.069 A 
ENDROOT
BRANCH   1  12
ATOM     12  C   UNL     1       5.342 -16.307  14.768  1.00  0.00    -0.011 A 
ATOM     13  C   UNL     1       4.629 -17.505  14.584  1.00  0.00     0.013 A 
ATOM     14  C   UNL     1       5.225 -18.593  13.940  1.00  0.00     0.047 A 
ATOM     15  C   UNL     1       6.541 -18.496  13.468  1.00  0.00     0.115 A 
ATOM     16  C   UNL     1       6.659 -16.216  14.283  1.00  0.00     0.013 A 
ATOM     17  C   UNL     1       7.253 -17.305  13.639  1.00  0.00     0.047 A 
BRANCH  15  18
ATOM     18  O   UNL     1       7.146 -19.574  12.825  1.00  0.00    -0.508 OA
ATOM     19  H   UNL     1       7.391 -20.420  13.326  1.00  0.00     0.293 HD
ENDBRANCH  15  18
ENDBRANCH   1  12
BRANCH  11  20
ATOM     20  C   UNL     1       2.719 -10.390  16.407  1.00  0.00     0.188 C 
ATOM     21  C   UNL     1       3.135 -10.226  14.921  1.00  0.00     0.179 C 
ATOM     22  O   UNL     1       3.130  -9.272  17.188  1.00  0.00    -0.362 OA
ATOM     23  C   UNL     1       4.652 -10.001  14.803  1.00  0.00     0.177 C 
ATOM     24  C   UNL     1       4.523  -8.975  17.139  1.00  0.00     0.176 C 
ATOM     25  C   UNL     1       5.095  -8.839  15.703  1.00  0.00     0.177 C 
BRANCH  21  26
ATOM     26  O   UNL     1       2.467  -9.114  14.373  1.00  0.00    -0.387 OA
ATOM     27  H   UNL     1       1.828  -9.459  13.695  1.00  0.00     0.211 HD
ENDBRANCH  21  26
BRANCH  23  28
ATOM     28  O   UNL     1       5.002  -9.726  13.470  1.00  0.00    -0.387 OA
ATOM     29  H   UNL     1       5.171 -10.601  13.032  1.00  0.00     0.211 HD
ENDBRANCH  23  28
BRANCH  24  30
ATOM     30  C   UNL     1       5.368  -9.840  18.103  1.00  0.00     0.191 C 
BRANCH  30  31
ATOM     31  O   UNL     1       4.919  -9.766  19.429  1.00  0.00    -0.394 OA
ATOM     32  H   UNL     1       5.531 -10.323  19.977  1.00  0.00     0.210 HD
ENDBRANCH  30  31
ENDBRANCH  24  30
BRANCH  25  33
ATOM     33  O   UNL     1       4.672  -7.622  15.138  1.00  0.00    -0.388 OA
ATOM     34  H   UNL     1       4.557  -6.979  15.885  1.00  0.00     0.211 HD
ENDBRANCH  25  33
ENDBRANCH  11  20
BRANCH  10  35
ATOM     35  O   UNL     1       1.825 -10.706  19.066  1.00  0.00    -0.507 OA
ATOM     36  H   UNL     1       0.852 -10.504  18.867  1.00  0.00     0.293 HD
ENDBRANCH  10  35
TORSDOF 9
ENDMDL
MODEL 2
REMARK VINA RESULT:    -4.894      2.406      6.917
REMARK INTER + INTRA:          -6.995
REMARK INTER:                  -7.039
REMARK INTRA:                   0.044
REMARK UNBOUND:                -0.384
REMARK SMILES O=c1c(-c2ccc(O)cc2)coc2c([C@H]3O[C@@H](CO)[C@H](O)[C@H](O)[C@@H]3O)c(O)ccc12
REMARK SMILES IDX 3 1 11 2 12 3 13 4 30 5 2 6 1 7 29 8 28 9 26 10 14 11 4 12
REMARK SMILES IDX 5 13 6 14 7 15 10 16 9 17 8 18 15 20 24 21 16 22 22 23 17 24
REMARK SMILES IDX 20 25 25 26 23 28 18 30 19 31 21 33 27 35
REMARK H PARENT 8 19 25 27 23 29 19 32 21 34 27 36
REMARK Flexibility Score: inf
ROOT
ATOM      1  C   UNL     1       5.875 -10.757  14.718  1.00  0.00     0.065 A 
ATOM      2  C   UNL     1       6.320 -12.081  14.638  1.00  0.00     0.208 A 
ATOM      3  O   UNL     1       5.801 -13.022  15.417  1.00  0.00    -0.463 OA
ATOM      4  C   UNL     1       4.845 -12.798  16.311  1.00  0.00     0.147 A 
ATOM      5  C   UNL     1       4.345 -11.479  16.462  1.00  0.00     0.066 A 
ATOM      6  C   UNL     1       4.863 -10.457  15.645  1.00  0.00     0.200 A 
ATOM      7  O   UNL     1       4.410  -9.281  15.730  1.00  0.00    -0.288 OA
ATOM      8  C   UNL     1       3.354 -11.214  17.416  1.00  0.00     0.020 A 
ATOM      9  C   UNL     1       2.877 -12.231  18.231  1.00  0.00     0.047 A 
ATOM     10  C   UNL     1       3.360 -13.537  18.097  1.00  0.00     0.125 A 
ATOM     11  C   UNL     1       4.322 -13.860  17.107  1.00  0.00     0.069 A 
ENDROOT
BRANCH   1  12
ATOM     12  C   UNL     1       6.469  -9.721  13.836  1.00  0.00    -0.011 A 
ATOM     13  C   UNL     1       6.658  -9.968  12.464  1.00  0.00     0.013 A 
ATOM     14  C   UNL     1       7.208  -8.985  11.636  1.00  0.00     0.047 A 
ATOM     15  C   UNL     1       7.572  -7.740  12.168  1.00  0.00     0.115 A 
ATOM     16  C   UNL     1       6.829  -8.466  14.359  1.00  0.00     0.013 A 
ATOM     17  C   UNL     1       7.379  -7.485  13.529  1.00  0.00     0.047 A 
BRANCH  15  18
ATOM     18  O   UNL     1       8.121  -6.754  11.354  1.00  0.00    -0.508 OA
ATOM     19  H   UNL     1       7.538  -6.123  10.817  1.00  0.00     0.293 HD
ENDBRANCH  15  18
ENDBRANCH   1  12
BRANCH  11  20
ATOM     20  C   UNL     1       4.770 -15.334  17.028  1.00  0.00     0.188 C 
ATOM     21  C   UNL     1       5.987 -15.752  16.159  1.00  0.00     0.179 C 
ATOM     22  O   UNL     1       3.664 -16.208  16.826  1.00  0.00    -0.362 OA
ATOM     23  C   UNL     1       5.598 -15.813  14.672  1.00  0.00     0.177 C 
ATOM     24  C   UNL     1       3.231 -16.340  15.475  1.00  0.00     0.176 C 
ATOM     25  C   UNL     1       4.361 -16.701  14.475  1.00  0.00     0.177 C 
BRANCH  21  26
ATOM     26  O   UNL     1       6.430 -17.024  16.565  1.00  0.00    -0.387 OA
ATOM     27  H   UNL     1       7.350 -17.143  16.209  1.00  0.00     0.211 HD
ENDBRANCH  21  26
BRANCH  23  28
ATOM     28  O   UNL     1       6.665 -16.315  13.909  1.00  0.00    -0.387 OA
ATOM     29  H   UNL     1       7.091 -17.031  14.450  1.00  0.00     0.211 HD
ENDBRANCH  23  28
BRANCH  24  30
ATOM     30  C   UNL     1       2.291 -15.199  15.019  1.00  0.00     0.191 C 
BRANCH  30  31
ATOM     31  O   UNL     1       2.463 -14.864  13.669  1.00  0.00    -0.394 OA
ATOM     32  H   UNL     1       3.263 -15.354  13.346  1.00  0.00     0.210 HD
ENDBRANCH  30  31
ENDBRANCH  24  30
BRANCH  25  33
ATOM     33  O   UNL     1       4.724 -18.050  14.639  1.00  0.00    -0.388 OA
ATOM     34  H   UNL     1       5.212 -18.118  15.500  1.00  0.00     0.211 HD
ENDBRANCH  25  33
ENDBRANCH  11  20
BRANCH  10  35
ATOM     35  O   UNL     1       2.880 -14.523  18.961  1.00  0.00    -0.507 OA
ATOM     36  H   UNL     1       2.815 -15.495  18.680  1.00  0.00     0.293 HD
ENDBRANCH  10  35
TORSDOF 9
ENDMDL
MODEL 3
REMARK VINA RESULT:    -4.832      3.733      5.985
REMARK INTER + INTRA:          -6.911
REMARK INTER:                  -6.618
REMARK INTRA:                  -0.293
REMARK UNBOUND:                -0.384
REMARK SMILES O=c1c(-c2ccc(O)cc2)coc2c([C@H]3O[C@@H](CO)[C@H](O)[C@H](O)[C@@H]3O)c(O)ccc12
REMARK SMILES IDX 3 1 11 2 12 3 13 4 30 5 2 6 1 7 29 8 28 9 26 10 14 11 4 12
REMARK SMILES IDX 5 13 6 14 7 15 10 16 9 17 8 18 15 20 24 21 16 22 22 23 17 24
REMARK SMILES IDX 20 25 25 26 23 28 18 30 19 31 21 33 27 35
REMARK H PARENT 8 19 25 27 23 29 19 32 21 34 27 36
REMARK Flexibility Score: inf
ROOT
ATOM      1  C   UNL     1       4.368 -18.604  18.160  1.00  0.00     0.065 A 
ATOM      2  C   UNL     1       3.978 -17.313  18.531  1.00  0.00     0.208 A 
ATOM      3  O   UNL     1       4.421 -16.252  17.870  1.00  0.00    -0.463 OA
ATOM      4  C   UNL     1       5.245 -16.317  16.831  1.00  0.00     0.147 A 
ATOM      5  C   UNL     1       5.696 -17.590  16.396  1.00  0.00     0.066 A 
ATOM      6  C   UNL     1       5.239 -18.740  17.066  1.00  0.00     0.200 A 
ATOM      7  O   UNL     1       5.592 -19.889  16.677  1.00  0.00    -0.288 OA
ATOM      8  C   UNL     1       6.585 -17.684  15.317  1.00  0.00     0.020 A 
ATOM      9  C   UNL     1       7.046 -16.536  14.689  1.00  0.00     0.047 A 
ATOM     10  C   UNL     1       6.614 -15.273  15.105  1.00  0.00     0.125 A 
ATOM     11  C   UNL     1       5.671 -15.135  16.156  1.00  0.00     0.069 A 
ENDROOT
BRANCH   1  12
ATOM     12  C   UNL     1       3.859 -19.778  18.914  1.00  0.00    -0.011 A 
ATOM     13  C   UNL     1       2.503 -20.144  18.843  1.00  0.00     0.013 A 
ATOM     14  C   UNL     1       2.032 -21.257  19.546  1.00  0.00     0.047 A 
ATOM     15  C   UNL     1       2.911 -22.020  20.326  1.00  0.00     0.115 A 
ATOM     16  C   UNL     1       4.736 -20.555  19.692  1.00  0.00     0.013 A 
ATOM     17  C   UNL     1       4.262 -21.666  20.395  1.00  0.00     0.047 A 
BRANCH  15  18
ATOM     18  O   UNL     1       2.453 -23.129  21.032  1.00  0.00    -0.508 OA
ATOM     19  H   UNL     1       2.319 -24.026  20.581  1.00  0.00     0.293 HD
ENDBRANCH  15  18
ENDBRANCH   1  12
BRANCH  11  20
ATOM     20  C   UNL     1       5.242 -13.700  16.521  1.00  0.00     0.188 C 
ATOM     21  C   UNL     1       4.286 -13.433  17.714  1.00  0.00     0.179 C 
ATOM     22  O   UNL     1       4.854 -12.959  15.369  1.00  0.00    -0.362 OA
ATOM     23  C   UNL     1       2.831 -13.745  17.324  1.00  0.00     0.177 C 
ATOM     24  C   UNL     1       3.515 -13.173  14.931  1.00  0.00     0.176 C 
ATOM     25  C   UNL     1       2.445 -12.996  16.041  1.00  0.00     0.177 C 
BRANCH  21  26
ATOM     26  O   UNL     1       4.375 -12.078  18.086  1.00  0.00    -0.387 OA
ATOM     27  H   UNL     1       3.952 -11.989  18.980  1.00  0.00     0.211 HD
ENDBRANCH  21  26
BRANCH  23  28
ATOM     28  O   UNL     1       1.959 -13.380  18.364  1.00  0.00    -0.387 OA
ATOM     29  H   UNL     1       1.062 -13.732  18.122  1.00  0.00     0.211 HD
ENDBRANCH  23  28
BRANCH  24  30
ATOM     30  C   UNL     1       3.352 -14.438  14.056  1.00  0.00     0.191 C 
BRANCH  30  31
ATOM     31  O   UNL     1       2.009 -14.770  13.832  1.00  0.00    -0.394 OA
ATOM     32  H   UNL     1       1.715 -15.335  14.594  1.00  0.00     0.210 HD
ENDBRANCH  30  31
ENDBRANCH  24  30
BRANCH  25  33
ATOM     33  O   UNL     1       2.283 -11.629  16.328  1.00  0.00    -0.388 OA
ATOM     34  H   UNL     1       2.936 -11.134  15.769  1.00  0.00     0.211 HD
ENDBRANCH  25  33
ENDBRANCH  11  20
BRANCH  10  35
ATOM     35  O   UNL     1       7.130 -14.142  14.469  1.00  0.00    -0.507 OA
ATOM     36  H   UNL     1       7.348 -14.137  13.480  1.00  0.00     0.293 HD
ENDBRANCH  10  35
TORSDOF 9
ENDMDL
MODEL 4
REMARK VINA RESULT:    -4.687      2.999      7.767
REMARK INTER + INTRA:          -6.715
REMARK INTER:                  -6.357
REMARK INTRA:                  -0.358
REMARK UNBOUND:                -0.384
REMARK SMILES O=c1c(-c2ccc(O)cc2)coc2c([C@H]3O[C@@H](CO)[C@H](O)[C@H](O)[C@@H]3O)c(O)ccc12
REMARK SMILES IDX 3 1 11 2 12 3 13 4 30 5 2 6 1 7 29 8 28 9 26 10 14 11 4 12
REMARK SMILES IDX 5 13 6 14 7 15 10 16 9 17 8 18 15 20 24 21 16 22 22 23 17 24
REMARK SMILES IDX 20 25 25 26 23 28 18 30 19 31 21 33 27 35
REMARK H PARENT 8 19 25 27 23 29 19 32 21 34 27 36
REMARK Flexibility Score: inf
ROOT
ATOM      1  C   UNL     1       1.153  -9.143  15.595  1.00  0.00     0.065 A 
ATOM      2  C   UNL     1       1.650 -10.262  14.918  1.00  0.00     0.208 A 
ATOM      3  O   UNL     1       2.659 -10.966  15.414  1.00  0.00    -0.463 OA
ATOM      4  C   UNL     1       3.266 -10.682  16.560  1.00  0.00     0.147 A 
ATOM      5  C   UNL     1       2.829  -9.557  17.305  1.00  0.00     0.066 A 
ATOM      6  C   UNL     1       1.754  -8.792  16.815  1.00  0.00     0.200 A 
ATOM      7  O   UNL     1       1.317  -7.808  17.476  1.00  0.00    -0.288 OA
ATOM      8  C   UNL     1       3.470  -9.223  18.505  1.00  0.00     0.020 A 
ATOM      9  C   UNL     1       4.547  -9.974  18.955  1.00  0.00     0.047 A 
ATOM     10  C   UNL     1       4.992 -11.085  18.234  1.00  0.00     0.125 A 
ATOM     11  C   UNL     1       4.337 -11.492  17.043  1.00  0.00     0.069 A 
ENDROOT
BRANCH   1  12
ATOM     12  C   UNL     1       0.022  -8.370  15.021  1.00  0.00    -0.011 A 
ATOM     13  C   UNL     1       0.260  -7.269  14.179  1.00  0.00     0.013 A 
ATOM     14  C   UNL     1      -0.808  -6.551  13.633  1.00  0.00     0.047 A 
ATOM     15  C   UNL     1      -2.127  -6.928  13.919  1.00  0.00     0.115 A 
ATOM     16  C   UNL     1      -1.305  -8.746  15.295  1.00  0.00     0.013 A 
ATOM     17  C   UNL     1      -2.371  -8.027  14.748  1.00  0.00     0.047 A 
BRANCH  15  18
ATOM     18  O   UNL     1      -3.200  -6.220  13.382  1.00  0.00    -0.508 OA
ATOM     19  H   UNL     1      -3.156  -5.813  12.455  1.00  0.00     0.293 HD
ENDBRANCH  15  18
ENDBRANCH   1  12
BRANCH  11  20
ATOM     20  C   UNL     1       4.893 -12.745  16.337  1.00  0.00     0.188 C 
ATOM     21  C   UNL     1       4.309 -13.219  14.979  1.00  0.00     0.179 C 
ATOM     22  O   UNL     1       5.049 -13.832  17.243  1.00  0.00    -0.362 OA
ATOM     23  C   UNL     1       2.975 -13.955  15.188  1.00  0.00     0.177 C 
ATOM     24  C   UNL     1       3.866 -14.586  17.498  1.00  0.00     0.176 C 
ATOM     25  C   UNL     1       3.138 -15.081  16.220  1.00  0.00     0.177 C 
BRANCH  21  26
ATOM     26  O   UNL     1       5.221 -14.097  14.364  1.00  0.00    -0.387 OA
ATOM     27  H   UNL     1       4.945 -14.192  13.415  1.00  0.00     0.211 HD
ENDBRANCH  21  26
BRANCH  23  28
ATOM     28  O   UNL     1       2.519 -14.492  13.973  1.00  0.00    -0.387 OA
ATOM     29  H   UNL     1       2.919 -13.943  13.249  1.00  0.00     0.211 HD
ENDBRANCH  23  28
BRANCH  24  30
ATOM     30  C   UNL     1       2.952 -13.947  18.570  1.00  0.00     0.191 C 
BRANCH  30  31
ATOM     31  O   UNL     1       1.715 -13.539  18.051  1.00  0.00    -0.394 OA
ATOM     32  H   UNL     1       1.826 -12.609  17.725  1.00  0.00     0.210 HD
ENDBRANCH  30  31
ENDBRANCH  24  30
BRANCH  25  33
ATOM     33  O   UNL     1       3.860 -16.142  15.645  1.00  0.00    -0.388 OA
ATOM     34  H   UNL     1       3.206 -16.855  15.426  1.00  0.00     0.211 HD
ENDBRANCH  25  33
ENDBRANCH  11  20
BRANCH  10  35
ATOM     35  O   UNL     1       6.102 -11.792  18.703  1.00  0.00    -0.507 OA
ATOM     36  H   UNL     1       6.806 -12.160  18.074  1.00  0.00     0.293 HD
ENDBRANCH  10  35
TORSDOF 9
ENDMDL
MODEL 5
REMARK VINA RESULT:    -4.638      2.030      4.492
REMARK INTER + INTRA:          -6.649
REMARK INTER:                  -6.553
REMARK INTRA:                  -0.096
REMARK UNBOUND:                -0.384
REMARK SMILES O=c1c(-c2ccc(O)cc2)coc2c([C@H]3O[C@@H](CO)[C@H](O)[C@H](O)[C@@H]3O)c(O)ccc12
REMARK SMILES IDX 3 1 11 2 12 3 13 4 30 5 2 6 1 7 29 8 28 9 26 10 14 11 4 12
REMARK SMILES IDX 5 13 6 14 7 15 10 16 9 17 8 18 15 20 24 21 16 22 22 23 17 24
REMARK SMILES IDX 20 25 25 26 23 28 18 30 19 31 21 33 27 35
REMARK H PARENT 8 19 25 27 23 29 19 32 21 34 27 36
REMARK Flexibility Score: inf
ROOT
ATOM      1  C   UNL     1       4.556 -12.802  15.327  1.00  0.00     0.065 A 
ATOM      2  C   UNL     1       3.738 -12.316  16.353  1.00  0.00     0.208 A 
ATOM      3  O   UNL     1       3.676 -11.017  16.617  1.00  0.00    -0.463 OA
ATOM      4  C   UNL     1       4.361 -10.093  15.953  1.00  0.00     0.147 A 
ATOM      5  C   UNL     1       5.222 -10.504  14.902  1.00  0.00     0.066 A 
ATOM      6  C   UNL     1       5.305 -11.873  14.586  1.00  0.00     0.200 A 
ATOM      7  O   UNL     1       6.033 -12.264  13.631  1.00  0.00    -0.288 OA
ATOM      8  C   UNL     1       5.972  -9.550  14.203  1.00  0.00     0.020 A 
ATOM      9  C   UNL     1       5.897  -8.209  14.550  1.00  0.00     0.047 A 
ATOM     10  C   UNL     1       5.055  -7.786  15.584  1.00  0.00     0.125 A 
ATOM     11  C   UNL     1       4.235  -8.711  16.280  1.00  0.00     0.069 A 
ENDROOT
BRANCH   1  12
ATOM     12  C   UNL     1       4.609 -14.259  15.049  1.00  0.00    -0.011 A 
ATOM     13  C   UNL     1       5.842 -14.933  14.983  1.00  0.00     0.013 A 
ATOM     14  C   UNL     1       5.886 -16.307  14.731  1.00  0.00     0.047 A 
ATOM     15  C   UNL     1       4.698 -17.027  14.545  1.00  0.00     0.115 A 
ATOM     16  C   UNL     1       3.421 -14.991  14.869  1.00  0.00     0.013 A 
ATOM     17  C   UNL     1       3.468 -16.365  14.617  1.00  0.00     0.047 A 
BRANCH  15  18
ATOM     18  O   UNL     1       4.729 -18.396  14.292  1.00  0.00    -0.508 OA
ATOM     19  H   UNL     1       5.257 -18.780  13.518  1.00  0.00     0.293 HD
ENDBRANCH  15  18
ENDBRANCH   1  12
BRANCH  11  20
ATOM     20  C   UNL     1       3.326  -8.138  17.386  1.00  0.00     0.188 C 
ATOM     21  C   UNL     1       2.527  -9.078  18.327  1.00  0.00     0.179 C 
ATOM     22  O   UNL     1       2.510  -7.077  16.897  1.00  0.00    -0.362 OA
ATOM     23  C   UNL     1       1.279  -9.628  17.615  1.00  0.00     0.177 C 
ATOM     24  C   UNL     1       1.321  -7.484  16.226  1.00  0.00     0.176 C 
ATOM     25  C   UNL     1       0.443  -8.480  17.031  1.00  0.00     0.177 C 
BRANCH  21  26
ATOM     26  O   UNL     1       2.120  -8.357  19.465  1.00  0.00    -0.387 OA
ATOM     27  H   UNL     1       2.928  -8.206  20.023  1.00  0.00     0.211 HD
ENDBRANCH  21  26
BRANCH  23  28
ATOM     28  O   UNL     1       0.495 -10.372  18.512  1.00  0.00    -0.387 OA
ATOM     29  H   UNL     1      -0.015  -9.718  19.058  1.00  0.00     0.211 HD
ENDBRANCH  23  28
BRANCH  24  30
ATOM     30  C   UNL     1       1.552  -7.862  14.745  1.00  0.00     0.191 C 
BRANCH  30  31
ATOM     31  O   UNL     1       0.693  -8.879  14.306  1.00  0.00    -0.394 OA
ATOM     32  H   UNL     1      -0.078  -8.440  13.863  1.00  0.00     0.210 HD
ENDBRANCH  30  31
ENDBRANCH  24  30
BRANCH  25  33
ATOM     33  O   UNL     1      -0.209  -7.798  18.075  1.00  0.00    -0.388 OA
ATOM     34  H   UNL     1      -1.063  -7.451  17.707  1.00  0.00     0.211 HD
ENDBRANCH  25  33
ENDBRANCH  11  20
BRANCH  10  35
ATOM     35  O   UNL     1       5.036  -6.432  15.925  1.00  0.00    -0.507 OA
ATOM     36  H   UNL     1       4.240  -5.840  15.719  1.00  0.00     0.293 HD
ENDBRANCH  10  35
TORSDOF 9
ENDMDL
MODEL 6
REMARK VINA RESULT:    -4.623      2.117      4.493
REMARK INTER + INTRA:          -6.628
REMARK INTER:                  -6.282
REMARK INTRA:                  -0.346
REMARK UNBOUND:                -0.384
REMARK SMILES O=c1c(-c2ccc(O)cc2)coc2c([C@H]3O[C@@H](CO)[C@H](O)[C@H](O)[C@@H]3O)c(O)ccc12
REMARK SMILES IDX 3 1 11 2 12 3 13 4 30 5 2 6 1 7 29 8 28 9 26 10 14 11 4 12
REMARK SMILES IDX 5 13 6 14 7 15 10 16 9 17 8 18 15 20 24 21 16 22 22 23 17 24
REMARK SMILES IDX 20 25 25 26 23 28 18 30 19 31 21 33 27 35
REMARK H PARENT 8 19 25 27 23 29 19 32 21 34 27 36
REMARK Flexibility Score: inf
ROOT
ATOM      1  C   UNL     1       4.214 -13.018  15.799  1.00  0.00     0.065 A 
ATOM      2  C   UNL     1       3.369 -12.452  16.759  1.00  0.00     0.208 A 
ATOM      3  O   UNL     1       3.228 -11.136  16.851  1.00  0.00    -0.463 OA
ATOM      4  C   UNL     1       3.854 -10.267  16.065  1.00  0.00     0.147 A 
ATOM      5  C   UNL     1       4.738 -10.759  15.070  1.00  0.00     0.066 A 
ATOM      6  C   UNL     1       4.905 -12.150  14.936  1.00  0.00     0.200 A 
ATOM      7  O   UNL     1       5.655 -12.618  14.034  1.00  0.00    -0.288 OA
ATOM      8  C   UNL     1       5.428  -9.861  14.246  1.00  0.00     0.020 A 
ATOM      9  C   UNL     1       5.271  -8.493  14.415  1.00  0.00     0.047 A 
ATOM     10  C   UNL     1       4.405  -7.990  15.391  1.00  0.00     0.125 A 
ATOM     11  C   UNL     1       3.644  -8.864  16.210  1.00  0.00     0.069 A 
ENDROOT
BRANCH   1  12
ATOM     12  C   UNL     1       4.357 -14.493  15.713  1.00  0.00    -0.011 A 
ATOM     13  C   UNL     1       3.567 -15.240  14.821  1.00  0.00     0.013 A 
ATOM     14  C   UNL     1       3.714 -16.628  14.737  1.00  0.00     0.047 A 
ATOM     15  C   UNL     1       4.654 -17.286  15.540  1.00  0.00     0.115 A 
ATOM     16  C   UNL     1       5.305 -15.161  16.510  1.00  0.00     0.013 A 
ATOM     17  C   UNL     1       5.448 -16.549  16.424  1.00  0.00     0.047 A 
BRANCH  15  18
ATOM     18  O   UNL     1       4.808 -18.668  15.466  1.00  0.00    -0.508 OA
ATOM     19  H   UNL     1       5.114 -19.211  16.265  1.00  0.00     0.293 HD
ENDBRANCH  15  18
ENDBRANCH   1  12
BRANCH  11  20
ATOM     20  C   UNL     1       2.701  -8.207  17.238  1.00  0.00     0.188 C 
ATOM     21  C   UNL     1       2.052  -9.044  18.373  1.00  0.00     0.179 C 
ATOM     22  O   UNL     1       1.747  -7.358  16.609  1.00  0.00    -0.362 OA
ATOM     23  C   UNL     1       0.862  -9.858  17.835  1.00  0.00     0.177 C 
ATOM     24  C   UNL     1       0.599  -8.018  16.082  1.00  0.00     0.176 C 
ATOM     25  C   UNL     1      -0.125  -8.944  17.096  1.00  0.00     0.177 C 
BRANCH  21  26
ATOM     26  O   UNL     1       1.590  -8.179  19.381  1.00  0.00    -0.387 OA
ATOM     27  H   UNL     1       1.700  -7.250  19.046  1.00  0.00     0.211 HD
ENDBRANCH  21  26
BRANCH  23  28
ATOM     28  O   UNL     1       0.202 -10.511  18.889  1.00  0.00    -0.387 OA
ATOM     29  H   UNL     1       0.848 -10.564  19.642  1.00  0.00     0.211 HD
ENDBRANCH  23  28
BRANCH  24  30
ATOM     30  C   UNL     1       0.834  -8.634  14.683  1.00  0.00     0.191 C 
BRANCH  30  31
ATOM     31  O   UNL     1      -0.041  -9.693  14.405  1.00  0.00    -0.394 OA
ATOM     32  H   UNL     1       0.515 -10.474  14.152  1.00  0.00     0.210 HD
ENDBRANCH  30  31
ENDBRANCH  24  30
BRANCH  25  33
ATOM     33  O   UNL     1      -0.828  -8.162  18.031  1.00  0.00    -0.388 OA
ATOM     34  H   UNL     1      -0.833  -7.231  17.688  1.00  0.00     0.211 HD
ENDBRANCH  25  33
ENDBRANCH  11  20
BRANCH  10  35
ATOM     35  O   UNL     1       4.302  -6.607  15.552  1.00  0.00    -0.507 OA
ATOM     36  H   UNL     1       4.968  -6.083  16.108  1.00  0.00     0.293 HD
ENDBRANCH  10  35
TORSDOF 9
ENDMDL
MODEL 7
REMARK VINA RESULT:    -4.566      2.893      7.764
REMARK INTER + INTRA:          -6.551
REMARK INTER:                  -6.039
REMARK INTRA:                  -0.512
REMARK UNBOUND:                -0.384
REMARK SMILES O=c1c(-c2ccc(O)cc2)coc2c([C@H]3O[C@@H](CO)[C@H](O)[C@H](O)[C@@H]3O)c(O)ccc12
REMARK SMILES IDX 3 1 11 2 12 3 13 4 30 5 2 6 1 7 29 8 28 9 26 10 14 11 4 12
REMARK SMILES IDX 5 13 6 14 7 15 10 16 9 17 8 18 15 20 24 21 16 22 22 23 17 24
REMARK SMILES IDX 20 25 25 26 23 28 18 30 19 31 21 33 27 35
REMARK H PARENT 8 19 25 27 23 29 19 32 21 34 27 36
REMARK Flexibility Score: inf
ROOT
ATOM      1  C   UNL     1       1.784  -9.763  15.407  1.00  0.00     0.065 A 
ATOM      2  C   UNL     1       2.058 -11.134  15.448  1.00  0.00     0.208 A 
ATOM      3  O   UNL     1       3.263 -11.598  15.140  1.00  0.00    -0.463 OA
ATOM      4  C   UNL     1       4.282 -10.827  14.779  1.00  0.00     0.147 A 
ATOM      5  C   UNL     1       4.086  -9.424  14.704  1.00  0.00     0.066 A 
ATOM      6  C   UNL     1       2.824  -8.895  15.033  1.00  0.00     0.200 A 
ATOM      7  O   UNL     1       2.630  -7.647  15.013  1.00  0.00    -0.288 OA
ATOM      8  C   UNL     1       5.139  -8.593  14.302  1.00  0.00     0.020 A 
ATOM      9  C   UNL     1       6.367  -9.138  13.954  1.00  0.00     0.047 A 
ATOM     10  C   UNL     1       6.578 -10.519  14.021  1.00  0.00     0.125 A 
ATOM     11  C   UNL     1       5.557 -11.391  14.476  1.00  0.00     0.069 A 
ENDROOT
BRANCH   1  12
ATOM     12  C   UNL     1       0.429  -9.267  15.756  1.00  0.00    -0.011 A 
ATOM     13  C   UNL     1      -0.584  -9.202  14.783  1.00  0.00     0.013 A 
ATOM     14  C   UNL     1      -1.861  -8.743  15.119  1.00  0.00     0.047 A 
ATOM     15  C   UNL     1      -2.143  -8.348  16.434  1.00  0.00     0.115 A 
ATOM     16  C   UNL     1       0.135  -8.876  17.075  1.00  0.00     0.013 A 
ATOM     17  C   UNL     1      -1.143  -8.417  17.408  1.00  0.00     0.047 A 
BRANCH  15  18
ATOM     18  O   UNL     1      -3.411  -7.888  16.780  1.00  0.00    -0.508 OA
ATOM     19  H   UNL     1      -3.828  -7.087  16.322  1.00  0.00     0.293 HD
ENDBRANCH  15  18
ENDBRANCH   1  12
BRANCH  11  20
ATOM     20  C   UNL     1       5.901 -12.893  14.535  1.00  0.00     0.188 C 
ATOM     21  C   UNL     1       4.829 -13.941  14.939  1.00  0.00     0.179 C 
ATOM     22  O   UNL     1       7.133 -13.123  15.212  1.00  0.00    -0.362 OA
ATOM     23  C   UNL     1       4.626 -13.950  16.464  1.00  0.00     0.177 C 
ATOM     24  C   UNL     1       7.049 -13.158  16.634  1.00  0.00     0.176 C 
ATOM     25  C   UNL     1       5.969 -14.127  17.185  1.00  0.00     0.177 C 
BRANCH  21  26
ATOM     26  O   UNL     1       5.254 -15.219  14.531  1.00  0.00    -0.387 OA
ATOM     27  H   UNL     1       5.815 -15.098  13.720  1.00  0.00     0.211 HD
ENDBRANCH  21  26
BRANCH  23  28
ATOM     28  O   UNL     1       3.752 -14.987  16.833  1.00  0.00    -0.387 OA
ATOM     29  H   UNL     1       2.967 -14.558  17.265  1.00  0.00     0.211 HD
ENDBRANCH  23  28
BRANCH  24  30
ATOM     30  C   UNL     1       7.063 -11.754  17.282  1.00  0.00     0.191 C 
BRANCH  30  31
ATOM     31  O   UNL     1       8.123 -10.959  16.827  1.00  0.00    -0.394 OA
ATOM     32  H   UNL     1       7.770 -10.040  16.705  1.00  0.00     0.210 HD
ENDBRANCH  30  31
ENDBRANCH  24  30
BRANCH  25  33
ATOM     33  O   UNL     1       6.408 -15.456  17.037  1.00  0.00    -0.388 OA
ATOM     34  H   UNL     1       7.323 -15.505  17.417  1.00  0.00     0.211 HD
ENDBRANCH  25  33
ENDBRANCH  11  20
BRANCH  10  35
ATOM     35  O   UNL     1       7.817 -11.030  13.627  1.00  0.00    -0.507 OA
ATOM     36  H   UNL     1       8.654 -10.888  14.180  1.00  0.00     0.293 HD
ENDBRANCH  10  35
TORSDOF 9
ENDMDL
MODEL 8
REMARK VINA RESULT:    -4.514      1.771      3.089
REMARK INTER + INTRA:          -6.481
REMARK INTER:                  -6.331
REMARK INTRA:                  -0.151
REMARK UNBOUND:                -0.384
REMARK SMILES O=c1c(-c2ccc(O)cc2)coc2c([C@H]3O[C@@H](CO)[C@H](O)[C@H](O)[C@@H]3O)c(O)ccc12
REMARK SMILES IDX 3 1 11 2 12 3 13 4 30 5 2 6 1 7 29 8 28 9 26 10 14 11 4 12
REMARK SMILES IDX 5 13 6 14 7 15 10 16 9 17 8 18 15 20 24 21 16 22 22 23 17 24
REMARK SMILES IDX 20 25 25 26 23 28 18 30 19 31 21 33 27 35
REMARK H PARENT 8 19 25 27 23 29 19 32 21 34 27 36
REMARK Flexibility Score: inf
ROOT
ATOM      1  C   UNL     1       4.343 -13.773  16.281  1.00  0.00     0.065 A 
ATOM      2  C   UNL     1       3.202 -13.017  15.994  1.00  0.00     0.208 A 
ATOM      3  O   UNL     1       3.049 -11.798  16.494  1.00  0.00    -0.463 OA
ATOM      4  C   UNL     1       3.936 -11.205  17.285  1.00  0.00     0.147 A 
ATOM      5  C   UNL     1       5.118 -11.908  17.633  1.00  0.00     0.066 A 
ATOM      6  C   UNL     1       5.320 -13.199  17.112  1.00  0.00     0.200 A 
ATOM      7  O   UNL     1       6.381 -13.834  17.373  1.00  0.00    -0.288 OA
ATOM      8  C   UNL     1       6.058 -11.313  18.485  1.00  0.00     0.020 A 
ATOM      9  C   UNL     1       5.825 -10.050  19.010  1.00  0.00     0.047 A 
ATOM     10  C   UNL     1       4.664  -9.343  18.679  1.00  0.00     0.125 A 
ATOM     11  C   UNL     1       3.714  -9.884  17.776  1.00  0.00     0.069 A 
ENDROOT
BRANCH   1  12
ATOM     12  C   UNL     1       4.494 -15.135  15.710  1.00  0.00    -0.011 A 
ATOM     13  C   UNL     1       5.483 -15.404  14.748  1.00  0.00     0.013 A 
ATOM     14  C   UNL     1       5.628 -16.691  14.221  1.00  0.00     0.047 A 
ATOM     15  C   UNL     1       4.788 -17.726  14.653  1.00  0.00     0.115 A 
ATOM     16  C   UNL     1       3.661 -16.182  16.144  1.00  0.00     0.013 A 
ATOM     17  C   UNL     1       3.807 -17.468  15.616  1.00  0.00     0.047 A 
BRANCH  15  18
ATOM     18  O   UNL     1       4.922 -19.012  14.135  1.00  0.00    -0.508 OA
ATOM     19  H   UNL     1       4.932 -19.183  13.136  1.00  0.00     0.293 HD
ENDBRANCH  15  18
ENDBRANCH   1  12
BRANCH  11  20
ATOM     20  C   UNL     1       2.482  -9.013  17.459  1.00  0.00     0.188 C 
ATOM     21  C   UNL     1       1.214  -9.632  16.811  1.00  0.00     0.179 C 
ATOM     22  O   UNL     1       2.850  -7.795  16.820  1.00  0.00    -0.362 OA
ATOM     23  C   UNL     1       1.424  -9.845  15.302  1.00  0.00     0.177 C 
ATOM     24  C   UNL     1       3.060  -7.886  15.413  1.00  0.00     0.176 C 
ATOM     25  C   UNL     1       1.889  -8.543  14.635  1.00  0.00     0.177 C 
BRANCH  21  26
ATOM     26  O   UNL     1       0.125  -8.760  16.999  1.00  0.00    -0.387 OA
ATOM     27  H   UNL     1       0.366  -8.143  17.739  1.00  0.00     0.211 HD
ENDBRANCH  21  26
BRANCH  23  28
ATOM     28  O   UNL     1       0.232 -10.283  14.702  1.00  0.00    -0.387 OA
ATOM     29  H   UNL     1       0.465 -11.071  14.144  1.00  0.00     0.211 HD
ENDBRANCH  23  28
BRANCH  24  30
ATOM     30  C   UNL     1       4.469  -8.400  15.036  1.00  0.00     0.191 C 
BRANCH  30  31
ATOM     31  O   UNL     1       4.449  -9.285  13.949  1.00  0.00    -0.394 OA
ATOM     32  H   UNL     1       3.525  -9.282  13.586  1.00  0.00     0.210 HD
ENDBRANCH  30  31
ENDBRANCH  24  30
BRANCH  25  33
ATOM     33  O   UNL     1       0.809  -7.645  14.558  1.00  0.00    -0.388 OA
ATOM     34  H   UNL     1       0.626  -7.491  13.595  1.00  0.00     0.211 HD
ENDBRANCH  25  33
ENDBRANCH  11  20
BRANCH  10  35
ATOM     35  O   UNL     1       4.452  -8.090  19.257  1.00  0.00    -0.507 OA
ATOM     36  H   UNL     1       4.158  -7.989  20.222  1.00  0.00     0.293 HD
ENDBRANCH  10  35
TORSDOF 9
ENDMDL
MODEL 9
REMARK VINA RESULT:    -4.410      3.222      7.660
REMARK INTER + INTRA:          -6.341
REMARK INTER:                  -6.344
REMARK INTRA:                   0.003
REMARK UNBOUND:                -0.384
REMARK SMILES O=c1c(-c2ccc(O)cc2)coc2c([C@H]3O[C@@H](CO)[C@H](O)[C@H](O)[C@@H]3O)c(O)ccc12
REMARK SMILES IDX 3 1 11 2 12 3 13 4 30 5 2 6 1 7 29 8 28 9 26 10 14 11 4 12
REMARK SMILES IDX 5 13 6 14 7 15 10 16 9 17 8 18 15 20 24 21 16 22 22 23 17 24
REMARK SMILES IDX 20 25 25 26 23 28 18 30 19 31 21 33 27 35
REMARK H PARENT 8 19 25 27 23 29 19 32 21 34 27 36
REMARK Flexibility Score: inf
ROOT
ATOM      1  C   UNL     1       0.796  -8.716  15.676  1.00  0.00     0.065 A 
ATOM      2  C   UNL     1       1.964  -9.082  15.000  1.00  0.00     0.208 A 
ATOM      3  O   UNL     1       2.927  -9.754  15.618  1.00  0.00    -0.463 OA
ATOM      4  C   UNL     1       2.868 -10.128  16.891  1.00  0.00     0.147 A 
ATOM      5  C   UNL     1       1.720  -9.788  17.652  1.00  0.00     0.066 A 
ATOM      6  C   UNL     1       0.674  -9.084  17.026  1.00  0.00     0.200 A 
ATOM      7  O   UNL     1      -0.377  -8.801  17.668  1.00  0.00    -0.288 OA
ATOM      8  C   UNL     1       1.646 -10.150  19.003  1.00  0.00     0.020 A 
ATOM      9  C   UNL     1       2.702 -10.818  19.607  1.00  0.00     0.047 A 
ATOM     10  C   UNL     1       3.842 -11.160  18.874  1.00  0.00     0.125 A 
ATOM     11  C   UNL     1       3.934 -10.863  17.490  1.00  0.00     0.069 A 
ENDROOT
BRANCH   1  12
ATOM     12  C   UNL     1      -0.269  -7.965  14.964  1.00  0.00    -0.011 A 
ATOM     13  C   UNL     1       0.035  -6.790  14.253  1.00  0.00     0.013 A 
ATOM     14  C   UNL     1      -0.970  -6.092  13.576  1.00  0.00     0.047 A 
ATOM     15  C   UNL     1      -2.289  -6.562  13.597  1.00  0.00     0.115 A 
ATOM     16  C   UNL     1      -1.595  -8.434  14.973  1.00  0.00     0.013 A 
ATOM     17  C   UNL     1      -2.597  -7.734  14.296  1.00  0.00     0.047 A 
BRANCH  15  18
ATOM     18  O   UNL     1      -3.298  -5.875  12.927  1.00  0.00    -0.508 OA
ATOM     19  H   UNL     1      -3.875  -5.188  13.398  1.00  0.00     0.293 HD
ENDBRANCH  15  18
ENDBRANCH   1  12
BRANCH  11  20
ATOM     20  C   UNL     1       5.224 -11.305  16.769  1.00  0.00     0.188 C 
ATOM     21  C   UNL     1       5.558 -10.788  15.344  1.00  0.00     0.179 C 
ATOM     22  O   UNL     1       5.427 -12.711  16.871  1.00  0.00    -0.362 OA
ATOM     23  C   UNL     1       4.733 -11.541  14.285  1.00  0.00     0.177 C 
ATOM     24  C   UNL     1       4.710 -13.500  15.925  1.00  0.00     0.176 C 
ATOM     25  C   UNL     1       4.903 -13.058  14.450  1.00  0.00     0.177 C 
BRANCH  21  26
ATOM     26  O   UNL     1       6.925 -10.994  15.085  1.00  0.00    -0.387 OA
ATOM     27  H   UNL     1       7.412 -10.193  15.413  1.00  0.00     0.211 HD
ENDBRANCH  21  26
BRANCH  23  28
ATOM     28  O   UNL     1       5.133 -11.159  12.994  1.00  0.00    -0.387 OA
ATOM     29  H   UNL     1       6.108 -10.970  13.041  1.00  0.00     0.211 HD
ENDBRANCH  23  28
BRANCH  24  30
ATOM     30  C   UNL     1       3.246 -13.775  16.341  1.00  0.00     0.191 C 
BRANCH  30  31
ATOM     31  O   UNL     1       2.319 -13.290  15.409  1.00  0.00    -0.394 OA
ATOM     32  H   UNL     1       1.924 -12.464  15.792  1.00  0.00     0.210 HD
ENDBRANCH  30  31
ENDBRANCH  24  30
BRANCH  25  33
ATOM     33  O   UNL     1       6.184 -13.436  14.008  1.00  0.00    -0.388 OA
ATOM     34  H   UNL     1       6.544 -14.080  14.672  1.00  0.00     0.211 HD
ENDBRANCH  25  33
ENDBRANCH  11  20
BRANCH  10  35
ATOM     35  O   UNL     1       4.896 -11.800  19.528  1.00  0.00    -0.507 OA
ATOM     36  H   UNL     1       5.228 -12.714  19.242  1.00  0.00     0.293 HD
ENDBRANCH  10  35
TORSDOF 9
ENDMDL
