MODEL 1
REMARK VINA RESULT:    24.072      0.000      0.000
REMARK INTER + INTRA:          37.225
REMARK INTER:                  38.144
REMARK INTRA:                  -0.920
REMARK UNBOUND:                -0.920
REMARK SMILES C[C@H]1O[C@@H](O[C@@H]2[C@H](Oc3cc(O)c4c(c3)O[C@H](c3ccc(O)cc3)CC4=O)O[C@@H](CO)[C@H](O)[C@@H]2O)[C@H](O)[C@H](O)[C@H]1O
REMARK SMILES IDX 6 1 34 2 32 3 29 4 28 5 7 6 5 7 4 8 1 9 2 10 40 11 3 12
REMARK SMILES IDX 38 13 36 14 41 15 39 17 37 19 35 21 8 23 9 24 10 25 15 26
REMARK SMILES IDX 11 27 14 28 13 29 16 30 26 31 17 32 27 33 25 34 12 35 18 37
REMARK SMILES IDX 19 38 24 39 20 40 23 41 21 42 22 43 33 45 30 47 31 48
REMARK H PARENT 41 16 39 18 37 20 35 22 12 36 22 44 33 46 31 49
REMARK Flexibility Score: inf
ROOT
ATOM      1  C   UNL     1      58.547   2.066  55.333  1.00  0.00     0.221 C 
ATOM      2  C   UNL     1      57.259   2.056  54.437  1.00  0.00     0.181 C 
ATOM      3  C   UNL     1      57.592   1.876  52.949  1.00  0.00     0.177 C 
ATOM      4  C   UNL     1      58.677   2.877  52.569  1.00  0.00     0.179 C 
ATOM      5  O   UNL     1      59.854   2.495  53.257  1.00  0.00    -0.332 OA
ATOM      6  C   UNL     1      59.781   2.780  54.651  1.00  0.00     0.339 C 
ENDROOT
BRANCH   1   7
ATOM      7  O   UNL     1      58.177   2.713  56.532  1.00  0.00    -0.337 OA
BRANCH   7   8
ATOM      8  C   UNL     1      59.085   2.568  57.626  1.00  0.00     0.282 C 
ATOM      9  C   UNL     1      56.097   2.559  58.133  1.00  0.00     0.041 C 
ATOM     10  C   UNL     1      57.298   2.570  59.168  1.00  0.00     0.150 C 
ATOM     11  C   UNL     1      57.695   3.959  59.775  1.00  0.00     0.174 C 
ATOM     12  O   UNL     1      58.448   1.878  58.689  1.00  0.00    -0.344 OA
ATOM     13  C   UNL     1      58.634   4.774  58.828  1.00  0.00     0.179 C 
ATOM     14  C   UNL     1      59.690   3.888  58.167  1.00  0.00     0.202 C 
BRANCH  11  15
ATOM     15  O   UNL     1      56.522   4.659  60.094  1.00  0.00    -0.388 OA
ATOM     16  H   UNL     1      56.310   4.425  61.038  1.00  0.00     0.211 HD
ENDBRANCH  11  15
BRANCH  13  17
ATOM     17  O   UNL     1      59.231   5.840  59.540  1.00  0.00    -0.387 OA
ATOM     18  H   UNL     1      59.966   6.239  58.959  1.00  0.00     0.211 HD
ENDBRANCH  13  17
BRANCH  14  19
ATOM     19  O   UNL     1      60.738   3.614  59.083  1.00  0.00    -0.385 OA
ATOM     20  H   UNL     1      60.289   3.319  59.921  1.00  0.00     0.211 HD
ENDBRANCH  14  19
ENDBRANCH   7   8
ENDBRANCH   1   7
BRANCH   2  21
ATOM     21  O   UNL     1      56.538   3.249  54.636  1.00  0.00    -0.387 OA
ATOM     22  H   UNL     1      56.588   3.762  53.768  1.00  0.00     0.211 HD
ENDBRANCH   2  21
BRANCH   6  23
ATOM     23  O   UNL     1      59.812   4.196  54.916  1.00  0.00    -0.462 OA
BRANCH  23  24
ATOM     24  C   UNL     1      60.801   5.068  54.432  1.00  0.00     0.130 A 
ATOM     25  C   UNL     1      61.083   5.066  53.058  1.00  0.00     0.093 A 
ATOM     26  C   UNL     1      61.646   5.787  55.307  1.00  0.00     0.094 A 
ATOM     27  C   UNL     1      62.282   5.611  52.570  1.00  0.00     0.133 A 
ATOM     28  C   UNL     1      62.908   6.188  54.856  1.00  0.00     0.138 A 
ATOM     29  C   UNL     1      63.223   6.142  53.486  1.00  0.00     0.102 A 
ATOM     30  O   UNL     1      63.909   6.433  55.784  1.00  0.00    -0.484 OA
ATOM     31  C   UNL     1      64.599   6.549  53.085  1.00  0.00     0.174 C 
ATOM     32  C   UNL     1      65.240   6.069  55.445  1.00  0.00     0.211 C 
ATOM     33  O   UNL     1      64.909   6.707  51.880  1.00  0.00    -0.294 OA
ATOM     34  C   UNL     1      65.637   6.820  54.162  1.00  0.00     0.131 C 
BRANCH  27  35
ATOM     35  O   UNL     1      62.582   5.552  51.220  1.00  0.00    -0.507 OA
ATOM     36  H   UNL     1      63.092   4.782  50.801  1.00  0.00     0.293 HD
ENDBRANCH  27  35
BRANCH  32  37
ATOM     37  C   UNL     1      66.212   6.276  56.589  1.00  0.00    -0.007 A 
ATOM     38  C   UNL     1      67.506   6.817  56.376  1.00  0.00     0.011 A 
ATOM     39  C   UNL     1      65.739   6.119  57.911  1.00  0.00     0.011 A 
ATOM     40  C   UNL     1      68.304   7.143  57.471  1.00  0.00     0.046 A 
ATOM     41  C   UNL     1      66.551   6.446  58.997  1.00  0.00     0.046 A 
ATOM     42  C   UNL     1      67.830   6.973  58.781  1.00  0.00     0.115 A 
BRANCH  42  43
ATOM     43  O   UNL     1      68.645   7.344  59.844  1.00  0.00    -0.508 OA
ATOM     44  H   UNL     1      69.188   6.640  60.323  1.00  0.00     0.293 HD
ENDBRANCH  42  43
ENDBRANCH  32  37
ENDBRANCH  23  24
ENDBRANCH   6  23
BRANCH   3  45
ATOM     45  O   UNL     1      56.422   2.069  52.162  1.00  0.00    -0.387 OA
ATOM     46  H   UNL     1      55.889   1.232  52.240  1.00  0.00     0.211 HD
ENDBRANCH   3  45
BRANCH   4  47
ATOM     47  C   UNL     1      58.991   2.891  51.062  1.00  0.00     0.191 C 
BRANCH  47  48
ATOM     48  O   UNL     1      60.337   2.598  50.798  1.00  0.00    -0.394 OA
ATOM     49  H   UNL     1      60.779   3.451  50.525  1.00  0.00     0.210 HD
ENDBRANCH  47  48
ENDBRANCH   4  47
TORSDOF 14
ENDMDL
MODEL 2
REMARK VINA RESULT:    25.835      0.895      1.650
REMARK INTER + INTRA:          40.019
REMARK INTER:                  40.511
REMARK INTRA:                  -0.492
REMARK UNBOUND:                -0.920
REMARK SMILES C[C@H]1O[C@@H](O[C@@H]2[C@H](Oc3cc(O)c4c(c3)O[C@H](c3ccc(O)cc3)CC4=O)O[C@@H](CO)[C@H](O)[C@@H]2O)[C@H](O)[C@H](O)[C@H]1O
REMARK SMILES IDX 6 1 34 2 32 3 29 4 28 5 7 6 5 7 4 8 1 9 2 10 40 11 3 12
REMARK SMILES IDX 38 13 36 14 41 15 39 17 37 19 35 21 8 23 9 24 10 25 15 26
REMARK SMILES IDX 11 27 14 28 13 29 16 30 26 31 17 32 27 33 25 34 12 35 18 37
REMARK SMILES IDX 19 38 24 39 20 40 23 41 21 42 22 43 33 45 30 47 31 48
REMARK H PARENT 41 16 39 18 37 20 35 22 12 36 22 44 33 46 31 49
REMARK Flexibility Score: inf
ROOT
ATOM      1  C   UNL     1      57.820   2.734  56.068  1.00  0.00     0.221 C 
ATOM      2  C   UNL     1      56.683   2.503  55.011  1.00  0.00     0.181 C 
ATOM      3  C   UNL     1      57.218   1.884  53.712  1.00  0.00     0.177 C 
ATOM      4  C   UNL     1      58.422   2.695  53.248  1.00  0.00     0.179 C 
ATOM      5  O   UNL     1      59.450   2.494  54.201  1.00  0.00    -0.332 OA
ATOM      6  C   UNL     1      59.194   3.178  55.424  1.00  0.00     0.339 C 
ENDROOT
BRANCH   1   7
ATOM      7  O   UNL     1      57.328   3.715  56.955  1.00  0.00    -0.337 OA
BRANCH   7   8
ATOM      8  C   UNL     1      57.206   3.317  58.322  1.00  0.00     0.282 C 
ATOM      9  C   UNL     1      58.386   6.024  57.637  1.00  0.00     0.041 C 
ATOM     10  C   UNL     1      58.283   5.291  59.040  1.00  0.00     0.150 C 
ATOM     11  C   UNL     1      59.560   4.530  59.534  1.00  0.00     0.174 C 
ATOM     12  O   UNL     1      57.127   4.466  59.151  1.00  0.00    -0.344 OA
ATOM     13  C   UNL     1      59.681   3.103  58.909  1.00  0.00     0.179 C 
ATOM     14  C   UNL     1      58.331   2.389  58.846  1.00  0.00     0.202 C 
BRANCH  11  15
ATOM     15  O   UNL     1      60.685   5.325  59.268  1.00  0.00    -0.388 OA
ATOM     16  H   UNL     1      60.827   5.280  58.283  1.00  0.00     0.211 HD
ENDBRANCH  11  15
BRANCH  13  17
ATOM     17  O   UNL     1      60.632   2.340  59.624  1.00  0.00    -0.387 OA
ATOM     18  H   UNL     1      60.945   2.888  60.424  1.00  0.00     0.211 HD
ENDBRANCH  13  17
BRANCH  14  19
ATOM     19  O   UNL     1      57.992   1.875  60.125  1.00  0.00    -0.385 OA
ATOM     20  H   UNL     1      57.891   2.671  60.714  1.00  0.00     0.211 HD
ENDBRANCH  14  19
ENDBRANCH   7   8
ENDBRANCH   1   7
BRANCH   2  21
ATOM     21  O   UNL     1      56.035   3.724  54.741  1.00  0.00    -0.387 OA
ATOM     22  H   UNL     1      55.552   3.604  53.864  1.00  0.00     0.211 HD
ENDBRANCH   2  21
BRANCH   6  23
ATOM     23  O   UNL     1      59.296   4.607  55.278  1.00  0.00    -0.462 OA
BRANCH  23  24
ATOM     24  C   UNL     1      60.369   5.261  54.652  1.00  0.00     0.130 A 
ATOM     25  C   UNL     1      60.613   5.005  53.295  1.00  0.00     0.093 A 
ATOM     26  C   UNL     1      61.317   6.003  55.393  1.00  0.00     0.094 A 
ATOM     27  C   UNL     1      61.855   5.312  52.717  1.00  0.00     0.133 A 
ATOM     28  C   UNL     1      62.606   6.168  54.874  1.00  0.00     0.138 A 
ATOM     29  C   UNL     1      62.877   5.863  53.528  1.00  0.00     0.102 A 
ATOM     30  O   UNL     1      63.653   6.433  55.744  1.00  0.00    -0.484 OA
ATOM     31  C   UNL     1      64.281   6.028  53.057  1.00  0.00     0.174 C 
ATOM     32  C   UNL     1      64.922   5.858  55.460  1.00  0.00     0.211 C 
ATOM     33  O   UNL     1      64.577   5.952  51.841  1.00  0.00    -0.294 OA
ATOM     34  C   UNL     1      65.372   6.338  54.069  1.00  0.00     0.131 C 
BRANCH  27  35
ATOM     35  O   UNL     1      62.110   5.001  51.393  1.00  0.00    -0.507 OA
ATOM     36  H   UNL     1      62.586   5.634  50.758  1.00  0.00     0.293 HD
ENDBRANCH  27  35
BRANCH  32  37
ATOM     37  C   UNL     1      65.941   6.125  56.549  1.00  0.00    -0.007 A 
ATOM     38  C   UNL     1      67.253   6.573  56.246  1.00  0.00     0.011 A 
ATOM     39  C   UNL     1      65.507   6.124  57.893  1.00  0.00     0.011 A 
ATOM     40  C   UNL     1      68.103   6.962  57.279  1.00  0.00     0.046 A 
ATOM     41  C   UNL     1      66.371   6.513  58.917  1.00  0.00     0.046 A 
ATOM     42  C   UNL     1      67.666   6.948  58.612  1.00  0.00     0.115 A 
BRANCH  42  43
ATOM     43  O   UNL     1      68.534   7.377  59.609  1.00  0.00    -0.508 OA
ATOM     44  H   UNL     1      68.167   7.870  60.410  1.00  0.00     0.293 HD
ENDBRANCH  42  43
ENDBRANCH  32  37
ENDBRANCH  23  24
ENDBRANCH   6  23
BRANCH   3  45
ATOM     45  O   UNL     1      56.197   1.876  52.721  1.00  0.00    -0.387 OA
ATOM     46  H   UNL     1      55.344   1.679  53.197  1.00  0.00     0.211 HD
ENDBRANCH   3  45
BRANCH   4  47
ATOM     47  C   UNL     1      58.957   2.257  51.872  1.00  0.00     0.191 C 
BRANCH  47  48
ATOM     48  O   UNL     1      59.359   3.348  51.088  1.00  0.00    -0.394 OA
ATOM     49  H   UNL     1      59.936   3.929  51.661  1.00  0.00     0.210 HD
ENDBRANCH  47  48
ENDBRANCH   4  47
TORSDOF 14
ENDMDL
MODEL 3
REMARK VINA RESULT:    25.955      3.074      5.171
REMARK INTER + INTRA:          40.208
REMARK INTER:                  30.805
REMARK INTRA:                   9.404
REMARK UNBOUND:                -0.920
REMARK SMILES C[C@H]1O[C@@H](O[C@@H]2[C@H](Oc3cc(O)c4c(c3)O[C@H](c3ccc(O)cc3)CC4=O)O[C@@H](CO)[C@H](O)[C@@H]2O)[C@H](O)[C@H](O)[C@H]1O
REMARK SMILES IDX 6 1 34 2 32 3 29 4 28 5 7 6 5 7 4 8 1 9 2 10 40 11 3 12
REMARK SMILES IDX 38 13 36 14 41 15 39 17 37 19 35 21 8 23 9 24 10 25 15 26
REMARK SMILES IDX 11 27 14 28 13 29 16 30 26 31 17 32 27 33 25 34 12 35 18 37
REMARK SMILES IDX 19 38 24 39 20 40 23 41 21 42 22 43 33 45 30 47 31 48
REMARK H PARENT 41 16 39 18 37 20 35 22 12 36 22 44 33 46 31 49
REMARK Flexibility Score: inf
ROOT
ATOM      1  C   UNL     1      57.243   4.688  55.464  1.00  0.00     0.221 C 
ATOM      2  C   UNL     1      58.171   4.829  54.207  1.00  0.00     0.181 C 
ATOM      3  C   UNL     1      57.579   4.137  52.971  1.00  0.00     0.177 C 
ATOM      4  C   UNL     1      57.167   2.721  53.357  1.00  0.00     0.179 C 
ATOM      5  O   UNL     1      56.088   2.836  54.266  1.00  0.00    -0.332 OA
ATOM      6  C   UNL     1      56.508   3.291  55.549  1.00  0.00     0.339 C 
ENDROOT
BRANCH   1   7
ATOM      7  O   UNL     1      58.077   4.898  56.584  1.00  0.00    -0.337 OA
BRANCH   7   8
ATOM      8  C   UNL     1      57.408   5.123  57.827  1.00  0.00     0.282 C 
ATOM      9  C   UNL     1      60.415   5.451  57.650  1.00  0.00     0.041 C 
ATOM     10  C   UNL     1      59.468   5.490  58.921  1.00  0.00     0.150 C 
ATOM     11  C   UNL     1      59.364   4.175  59.765  1.00  0.00     0.174 C 
ATOM     12  O   UNL     1      58.173   6.009  58.629  1.00  0.00    -0.344 OA
ATOM     13  C   UNL     1      58.345   3.158  59.158  1.00  0.00     0.179 C 
ATOM     14  C   UNL     1      57.082   3.849  58.646  1.00  0.00     0.202 C 
BRANCH  11  15
ATOM     15  O   UNL     1      60.649   3.627  59.898  1.00  0.00    -0.388 OA
ATOM     16  H   UNL     1      60.977   3.908  60.795  1.00  0.00     0.211 HD
ENDBRANCH  11  15
BRANCH  13  17
ATOM     17  O   UNL     1      58.033   2.159  60.110  1.00  0.00    -0.387 OA
ATOM     18  H   UNL     1      58.099   2.572  61.039  1.00  0.00     0.211 HD
ENDBRANCH  13  17
BRANCH  14  19
ATOM     19  O   UNL     1      56.225   4.164  59.732  1.00  0.00    -0.385 OA
ATOM     20  H   UNL     1      56.028   3.296  60.177  1.00  0.00     0.211 HD
ENDBRANCH  14  19
ENDBRANCH   7   8
ENDBRANCH   1   7
BRANCH   2  21
ATOM     21  O   UNL     1      59.444   4.301  54.500  1.00  0.00    -0.387 OA
ATOM     22  H   UNL     1      59.660   3.648  53.761  1.00  0.00     0.211 HD
ENDBRANCH   2  21
BRANCH   6  23
ATOM     23  O   UNL     1      57.288   2.301  56.246  1.00  0.00    -0.462 OA
BRANCH  23  24
ATOM     24  C   UNL     1      58.661   2.089  56.040  1.00  0.00     0.130 A 
ATOM     25  C   UNL     1      59.483   1.876  57.156  1.00  0.00     0.093 A 
ATOM     26  C   UNL     1      59.257   2.284  54.773  1.00  0.00     0.094 A 
ATOM     27  C   UNL     1      60.875   2.035  57.064  1.00  0.00     0.133 A 
ATOM     28  C   UNL     1      60.619   2.600  54.705  1.00  0.00     0.138 A 
ATOM     29  C   UNL     1      61.444   2.442  55.833  1.00  0.00     0.102 A 
ATOM     30  O   UNL     1      61.101   3.263  53.587  1.00  0.00    -0.484 OA
ATOM     31  C   UNL     1      62.875   2.834  55.695  1.00  0.00     0.174 C 
ATOM     32  C   UNL     1      62.125   4.231  53.772  1.00  0.00     0.211 C 
ATOM     33  O   UNL     1      63.716   2.563  56.585  1.00  0.00    -0.294 OA
ATOM     34  C   UNL     1      63.333   3.540  54.429  1.00  0.00     0.131 C 
BRANCH  27  35
ATOM     35  O   UNL     1      61.675   1.883  58.184  1.00  0.00    -0.507 OA
ATOM     36  H   UNL     1      61.656   1.052  58.766  1.00  0.00     0.293 HD
ENDBRANCH  27  35
BRANCH  32  37
ATOM     37  C   UNL     1      62.474   4.964  52.492  1.00  0.00    -0.007 A 
ATOM     38  C   UNL     1      61.959   4.553  51.236  1.00  0.00     0.011 A 
ATOM     39  C   UNL     1      63.157   6.197  52.587  1.00  0.00     0.011 A 
ATOM     40  C   UNL     1      62.171   5.349  50.112  1.00  0.00     0.046 A 
ATOM     41  C   UNL     1      63.365   6.981  51.452  1.00  0.00     0.046 A 
ATOM     42  C   UNL     1      62.860   6.567  50.214  1.00  0.00     0.115 A 
BRANCH  42  43
ATOM     43  O   UNL     1      63.020   7.347  49.075  1.00  0.00    -0.508 OA
ATOM     44  H   UNL     1      62.517   8.219  48.995  1.00  0.00     0.293 HD
ENDBRANCH  42  43
ENDBRANCH  32  37
ENDBRANCH  23  24
ENDBRANCH   6  23
BRANCH   3  45
ATOM     45  O   UNL     1      58.536   4.121  51.918  1.00  0.00    -0.387 OA
ATOM     46  H   UNL     1      58.830   5.063  51.789  1.00  0.00     0.211 HD
ENDBRANCH   3  45
BRANCH   4  47
ATOM     47  C   UNL     1      56.692   1.878  52.160  1.00  0.00     0.191 C 
BRANCH  47  48
ATOM     48  O   UNL     1      57.575   1.957  51.073  1.00  0.00    -0.394 OA
ATOM     49  H   UNL     1      57.824   2.918  50.962  1.00  0.00     0.210 HD
ENDBRANCH  47  48
ENDBRANCH   4  47
TORSDOF 14
ENDMDL
