MODEL 1
REMARK VINA RESULT:    -4.218      0.000      0.000
REMARK INTER + INTRA:          -9.176
REMARK INTER:                  -7.424
REMARK INTRA:                  -1.752
REMARK UNBOUND:                -1.752
REMARK SMILES CCCCCCCCCCCCCCC(=O)[O-]
REMARK SMILES IDX 9 1 10 2 11 3 12 4 13 5 14 6 15 7 16 8 17 9 8 10 7 11 6 12
REMARK SMILES IDX 5 13 4 14 3 15 2 16 1 17
REMARK H PARENT
REMARK Flexibility Score: inf
ROOT
ATOM      1  C   UNL     1      17.997  26.624  52.234  1.00  0.00     0.000 C 
ENDROOT
BRANCH   1   2
ATOM      2  C   UNL     1      17.333  26.187  50.912  1.00  0.00     0.000 C 
BRANCH   2   3
ATOM      3  C   UNL     1      16.519  27.291  50.208  1.00  0.00     0.000 C 
BRANCH   3   4
ATOM      4  C   UNL     1      15.032  27.316  50.628  1.00  0.00     0.000 C 
BRANCH   4   5
ATOM      5  C   UNL     1      14.665  28.519  51.513  1.00  0.00     0.006 C 
BRANCH   5   6
ATOM      6  C   UNL     1      15.400  29.802  51.103  1.00  0.00     0.053 C 
BRANCH   6   7
ATOM      7  C   UNL     1      14.488  30.722  50.352  1.00  0.00     0.041 C 
ATOM      8  O   UNL     1      13.565  31.331  50.954  1.00  0.00    -0.550 OA
ATOM      9  O   UNL     1      14.659  30.911  48.987  1.00  0.00    -0.550 OA
ENDBRANCH   6   7
ENDBRANCH   5   6
ENDBRANCH   4   5
ENDBRANCH   3   4
ENDBRANCH   2   3
ENDBRANCH   1   2
BRANCH   1  10
ATOM     10  C   UNL     1      17.742  25.698  53.442  1.00  0.00     0.000 C 
BRANCH  10  11
ATOM     11  C   UNL     1      16.301  25.172  53.568  1.00  0.00    -0.000 C 
BRANCH  11  12
ATOM     12  C   UNL     1      15.366  26.162  54.282  1.00  0.00    -0.000 C 
BRANCH  12  13
ATOM     13  C   UNL     1      16.122  27.167  55.167  1.00  0.00    -0.000 C 
BRANCH  13  14
ATOM     14  C   UNL     1      15.696  28.639  54.994  1.00  0.00    -0.000 C 
BRANCH  14  15
ATOM     15  C   UNL     1      16.852  29.655  54.980  1.00  0.00    -0.000 C 
BRANCH  15  16
ATOM     16  C   UNL     1      16.473  31.002  55.611  1.00  0.00    -0.003 C 
ATOM     17  C   UNL     1      16.519  30.927  57.134  1.00  0.00     0.004 C 
ENDBRANCH  15  16
ENDBRANCH  14  15
ENDBRANCH  13  14
ENDBRANCH  12  13
ENDBRANCH  11  12
ENDBRANCH  10  11
ENDBRANCH   1  10
TORSDOF 13
ENDMDL
MODEL 2
REMARK VINA RESULT:    -4.209      1.538      2.743
REMARK INTER + INTRA:          -9.160
REMARK INTER:                  -7.656
REMARK INTRA:                  -1.504
REMARK UNBOUND:                -1.752
REMARK SMILES CCCCCCCCCCCCCCC(=O)[O-]
REMARK SMILES IDX 9 1 10 2 11 3 12 4 13 5 14 6 15 7 16 8 17 9 8 10 7 11 6 12
REMARK SMILES IDX 5 13 4 14 3 15 2 16 1 17
REMARK H PARENT
REMARK Flexibility Score: inf
ROOT
ATOM      1  C   UNL     1      13.341  25.573  51.425  1.00  0.00     0.000 C 
ENDROOT
BRANCH   1   2
ATOM      2  C   UNL     1      14.346  26.470  50.673  1.00  0.00     0.000 C 
BRANCH   2   3
ATOM      3  C   UNL     1      14.671  27.801  51.380  1.00  0.00     0.000 C 
BRANCH   3   4
ATOM      4  C   UNL     1      15.615  28.712  50.563  1.00  0.00     0.000 C 
BRANCH   4   5
ATOM      5  C   UNL     1      15.025  30.103  50.274  1.00  0.00     0.006 C 
BRANCH   5   6
ATOM      6  C   UNL     1      15.247  31.092  51.425  1.00  0.00     0.053 C 
BRANCH   6   7
ATOM      7  C   UNL     1      14.159  32.121  51.462  1.00  0.00     0.041 C 
ATOM      8  O   UNL     1      12.968  31.793  51.219  1.00  0.00    -0.550 OA
ATOM      9  O   UNL     1      14.460  33.441  51.769  1.00  0.00    -0.550 OA
ENDBRANCH   6   7
ENDBRANCH   5   6
ENDBRANCH   4   5
ENDBRANCH   3   4
ENDBRANCH   2   3
ENDBRANCH   1   2
BRANCH   1  10
ATOM     10  C   UNL     1      13.838  24.148  51.750  1.00  0.00     0.000 C 
BRANCH  10  11
ATOM     11  C   UNL     1      15.345  24.033  52.040  1.00  0.00    -0.000 C 
BRANCH  11  12
ATOM     12  C   UNL     1      15.734  24.618  53.407  1.00  0.00    -0.000 C 
BRANCH  12  13
ATOM     13  C   UNL     1      17.102  25.322  53.390  1.00  0.00    -0.000 C 
BRANCH  13  14
ATOM     14  C   UNL     1      17.082  26.798  53.838  1.00  0.00    -0.000 C 
BRANCH  14  15
ATOM     15  C   UNL     1      16.056  27.132  54.936  1.00  0.00    -0.000 C 
BRANCH  15  16
ATOM     16  C   UNL     1      15.737  28.631  55.021  1.00  0.00    -0.003 C 
ATOM     17  C   UNL     1      16.982  29.473  54.762  1.00  0.00     0.004 C 
ENDBRANCH  15  16
ENDBRANCH  14  15
ENDBRANCH  13  14
ENDBRANCH  12  13
ENDBRANCH  11  12
ENDBRANCH  10  11
ENDBRANCH   1  10
TORSDOF 13
ENDMDL
MODEL 3
REMARK VINA RESULT:    -4.205      2.759      5.249
REMARK INTER + INTRA:          -9.153
REMARK INTER:                  -7.519
REMARK INTRA:                  -1.634
REMARK UNBOUND:                -1.752
REMARK SMILES CCCCCCCCCCCCCCC(=O)[O-]
REMARK SMILES IDX 9 1 10 2 11 3 12 4 13 5 14 6 15 7 16 8 17 9 8 10 7 11 6 12
REMARK SMILES IDX 5 13 4 14 3 15 2 16 1 17
REMARK H PARENT
REMARK Flexibility Score: inf
ROOT
ATOM      1  C   UNL     1      15.504  26.418  54.177  1.00  0.00     0.000 C 
ENDROOT
BRANCH   1   2
ATOM      2  C   UNL     1      16.143  27.273  55.290  1.00  0.00     0.000 C 
BRANCH   2   3
ATOM      3  C   UNL     1      15.562  28.695  55.419  1.00  0.00     0.000 C 
BRANCH   3   4
ATOM      4  C   UNL     1      16.646  29.798  55.444  1.00  0.00     0.000 C 
BRANCH   4   5
ATOM      5  C   UNL     1      16.525  30.748  56.647  1.00  0.00     0.006 C 
BRANCH   5   6
ATOM      6  C   UNL     1      15.143  31.407  56.746  1.00  0.00     0.053 C 
BRANCH   6   7
ATOM      7  C   UNL     1      15.268  32.861  57.085  1.00  0.00     0.041 C 
ATOM      8  O   UNL     1      14.299  33.641  56.897  1.00  0.00    -0.550 OA
ATOM      9  O   UNL     1      16.455  33.353  57.613  1.00  0.00    -0.550 OA
ENDBRANCH   6   7
ENDBRANCH   5   6
ENDBRANCH   4   5
ENDBRANCH   3   4
ENDBRANCH   2   3
ENDBRANCH   1   2
BRANCH   1  10
ATOM     10  C   UNL     1      16.420  25.336  53.565  1.00  0.00     0.000 C 
BRANCH  10  11
ATOM     11  C   UNL     1      17.927  25.635  53.645  1.00  0.00    -0.000 C 
BRANCH  11  12
ATOM     12  C   UNL     1      18.539  25.978  52.277  1.00  0.00    -0.000 C 
BRANCH  12  13
ATOM     13  C   UNL     1      19.140  27.393  52.227  1.00  0.00    -0.000 C 
BRANCH  13  14
ATOM     14  C   UNL     1      18.116  28.541  52.331  1.00  0.00    -0.000 C 
BRANCH  14  15
ATOM     15  C   UNL     1      16.908  28.425  51.385  1.00  0.00    -0.000 C 
BRANCH  15  16
ATOM     16  C   UNL     1      15.792  29.426  51.713  1.00  0.00    -0.003 C 
ATOM     17  C   UNL     1      15.111  29.926  50.443  1.00  0.00     0.004 C 
ENDBRANCH  15  16
ENDBRANCH  14  15
ENDBRANCH  13  14
ENDBRANCH  12  13
ENDBRANCH  11  12
ENDBRANCH  10  11
ENDBRANCH   1  10
TORSDOF 13
ENDMDL
MODEL 4
REMARK VINA RESULT:    -4.179      2.565      4.899
REMARK INTER + INTRA:          -9.108
REMARK INTER:                  -7.221
REMARK INTRA:                  -1.886
REMARK UNBOUND:                -1.752
REMARK SMILES CCCCCCCCCCCCCCC(=O)[O-]
REMARK SMILES IDX 9 1 10 2 11 3 12 4 13 5 14 6 15 7 16 8 17 9 8 10 7 11 6 12
REMARK SMILES IDX 5 13 4 14 3 15 2 16 1 17
REMARK H PARENT
REMARK Flexibility Score: inf
ROOT
ATOM      1  C   UNL     1      15.515  24.701  53.330  1.00  0.00     0.000 C 
ENDROOT
BRANCH   1   2
ATOM      2  C   UNL     1      16.944  25.257  53.161  1.00  0.00     0.000 C 
BRANCH   2   3
ATOM      3  C   UNL     1      17.229  26.545  53.958  1.00  0.00     0.000 C 
BRANCH   3   4
ATOM      4  C   UNL     1      16.113  26.898  54.969  1.00  0.00     0.000 C 
BRANCH   4   5
ATOM      5  C   UNL     1      15.619  28.349  54.854  1.00  0.00     0.006 C 
BRANCH   5   6
ATOM      6  C   UNL     1      16.760  29.372  54.930  1.00  0.00     0.053 C 
BRANCH   6   7
ATOM      7  C   UNL     1      16.512  30.367  56.022  1.00  0.00     0.041 C 
ATOM      8  O   UNL     1      17.434  31.137  56.399  1.00  0.00    -0.550 OA
ATOM      9  O   UNL     1      15.262  30.446  56.622  1.00  0.00    -0.550 OA
ENDBRANCH   6   7
ENDBRANCH   5   6
ENDBRANCH   4   5
ENDBRANCH   3   4
ENDBRANCH   2   3
ENDBRANCH   1   2
BRANCH   1  10
ATOM     10  C   UNL     1      14.977  23.881  52.137  1.00  0.00     0.000 C 
BRANCH  10  11
ATOM     11  C   UNL     1      13.857  24.560  51.331  1.00  0.00    -0.000 C 
BRANCH  11  12
ATOM     12  C   UNL     1      14.295  24.941  49.907  1.00  0.00    -0.000 C 
BRANCH  12  13
ATOM     13  C   UNL     1      14.525  26.452  49.734  1.00  0.00    -0.000 C 
BRANCH  13  14
ATOM     14  C   UNL     1      15.981  26.917  49.937  1.00  0.00    -0.000 C 
BRANCH  14  15
ATOM     15  C   UNL     1      16.151  28.149  50.845  1.00  0.00    -0.000 C 
BRANCH  15  16
ATOM     16  C   UNL     1      14.813  28.777  51.259  1.00  0.00    -0.003 C 
ATOM     17  C   UNL     1      14.982  30.253  51.601  1.00  0.00     0.004 C 
ENDBRANCH  15  16
ENDBRANCH  14  15
ENDBRANCH  13  14
ENDBRANCH  12  13
ENDBRANCH  11  12
ENDBRANCH  10  11
ENDBRANCH   1  10
TORSDOF 13
ENDMDL
MODEL 5
REMARK VINA RESULT:    -4.149      1.352      1.910
REMARK INTER + INTRA:          -9.054
REMARK INTER:                  -7.334
REMARK INTRA:                  -1.720
REMARK UNBOUND:                -1.752
REMARK SMILES CCCCCCCCCCCCCCC(=O)[O-]
REMARK SMILES IDX 9 1 10 2 11 3 12 4 13 5 14 6 15 7 16 8 17 9 8 10 7 11 6 12
REMARK SMILES IDX 5 13 4 14 3 15 2 16 1 17
REMARK H PARENT
REMARK Flexibility Score: inf
ROOT
ATOM      1  C   UNL     1      14.565  25.882  52.574  1.00  0.00     0.000 C 
ENDROOT
BRANCH   1   2
ATOM      2  C   UNL     1      14.140  26.791  51.402  1.00  0.00     0.000 C 
BRANCH   2   3
ATOM      3  C   UNL     1      15.289  27.199  50.459  1.00  0.00     0.000 C 
BRANCH   3   4
ATOM      4  C   UNL     1      15.627  28.707  50.524  1.00  0.00     0.000 C 
BRANCH   4   5
ATOM      5  C   UNL     1      14.685  29.506  51.440  1.00  0.00     0.006 C 
BRANCH   5   6
ATOM      6  C   UNL     1      15.270  30.863  51.853  1.00  0.00     0.053 C 
BRANCH   6   7
ATOM      7  C   UNL     1      14.351  31.981  51.467  1.00  0.00     0.041 C 
ATOM      8  O   UNL     1      14.770  33.167  51.447  1.00  0.00    -0.550 OA
ATOM      9  O   UNL     1      13.032  31.711  51.126  1.00  0.00    -0.550 OA
ENDBRANCH   6   7
ENDBRANCH   5   6
ENDBRANCH   4   5
ENDBRANCH   3   4
ENDBRANCH   2   3
ENDBRANCH   1   2
BRANCH   1  10
ATOM     10  C   UNL     1      15.936  25.191  52.414  1.00  0.00     0.000 C 
BRANCH  10  11
ATOM     11  C   UNL     1      16.922  25.424  53.571  1.00  0.00    -0.000 C 
BRANCH  11  12
ATOM     12  C   UNL     1      16.590  26.679  54.394  1.00  0.00    -0.000 C 
BRANCH  12  13
ATOM     13  C   UNL     1      17.218  27.958  53.816  1.00  0.00    -0.000 C 
BRANCH  13  14
ATOM     14  C   UNL     1      17.023  29.226  54.671  1.00  0.00    -0.000 C 
BRANCH  14  15
ATOM     15  C   UNL     1      15.764  29.227  55.557  1.00  0.00    -0.000 C 
BRANCH  15  16
ATOM     16  C   UNL     1      15.666  30.467  56.457  1.00  0.00    -0.003 C 
ATOM     17  C   UNL     1      17.049  31.023  56.779  1.00  0.00     0.004 C 
ENDBRANCH  15  16
ENDBRANCH  14  15
ENDBRANCH  13  14
ENDBRANCH  12  13
ENDBRANCH  11  12
ENDBRANCH  10  11
ENDBRANCH   1  10
TORSDOF 13
ENDMDL
MODEL 6
REMARK VINA RESULT:    -4.112      2.829      5.439
REMARK INTER + INTRA:          -8.989
REMARK INTER:                  -7.414
REMARK INTRA:                  -1.575
REMARK UNBOUND:                -1.752
REMARK SMILES CCCCCCCCCCCCCCC(=O)[O-]
REMARK SMILES IDX 9 1 10 2 11 3 12 4 13 5 14 6 15 7 16 8 17 9 8 10 7 11 6 12
REMARK SMILES IDX 5 13 4 14 3 15 2 16 1 17
REMARK H PARENT
REMARK Flexibility Score: inf
ROOT
ATOM      1  C   UNL     1      16.584  27.141  54.637  1.00  0.00     0.000 C 
ENDROOT
BRANCH   1   2
ATOM      2  C   UNL     1      16.129  28.559  55.036  1.00  0.00     0.000 C 
BRANCH   2   3
ATOM      3  C   UNL     1      17.054  29.691  54.545  1.00  0.00     0.000 C 
BRANCH   3   4
ATOM      4  C   UNL     1      17.109  30.897  55.510  1.00  0.00     0.000 C 
BRANCH   4   5
ATOM      5  C   UNL     1      16.278  30.697  56.789  1.00  0.00     0.006 C 
BRANCH   5   6
ATOM      6  C   UNL     1      14.982  31.517  56.789  1.00  0.00     0.053 C 
BRANCH   6   7
ATOM      7  C   UNL     1      15.257  32.950  57.128  1.00  0.00     0.041 C 
ATOM      8  O   UNL     1      14.398  33.836  56.879  1.00  0.00    -0.550 OA
ATOM      9  O   UNL     1      16.460  33.306  57.722  1.00  0.00    -0.550 OA
ENDBRANCH   6   7
ENDBRANCH   5   6
ENDBRANCH   4   5
ENDBRANCH   3   4
ENDBRANCH   2   3
ENDBRANCH   1   2
BRANCH   1  10
ATOM     10  C   UNL     1      15.448  26.127  54.382  1.00  0.00     0.000 C 
BRANCH  10  11
ATOM     11  C   UNL     1      15.807  24.969  53.435  1.00  0.00    -0.000 C 
BRANCH  11  12
ATOM     12  C   UNL     1      14.732  24.720  52.365  1.00  0.00    -0.000 C 
BRANCH  12  13
ATOM     13  C   UNL     1      13.872  25.962  52.079  1.00  0.00    -0.000 C 
BRANCH  13  14
ATOM     14  C   UNL     1      14.363  26.842  50.911  1.00  0.00    -0.000 C 
BRANCH  14  15
ATOM     15  C   UNL     1      14.882  28.233  51.317  1.00  0.00    -0.000 C 
BRANCH  15  16
ATOM     16  C   UNL     1      16.400  28.380  51.142  1.00  0.00    -0.003 C 
ATOM     17  C   UNL     1      16.998  27.144  50.478  1.00  0.00     0.004 C 
ENDBRANCH  15  16
ENDBRANCH  14  15
ENDBRANCH  13  14
ENDBRANCH  12  13
ENDBRANCH  11  12
ENDBRANCH  10  11
ENDBRANCH   1  10
TORSDOF 13
ENDMDL
MODEL 7
REMARK VINA RESULT:    -4.104      2.221      4.852
REMARK INTER + INTRA:          -8.976
REMARK INTER:                  -7.115
REMARK INTRA:                  -1.860
REMARK UNBOUND:                -1.752
REMARK SMILES CCCCCCCCCCCCCCC(=O)[O-]
REMARK SMILES IDX 9 1 10 2 11 3 12 4 13 5 14 6 15 7 16 8 17 9 8 10 7 11 6 12
REMARK SMILES IDX 5 13 4 14 3 15 2 16 1 17
REMARK H PARENT
REMARK Flexibility Score: inf
ROOT
ATOM      1  C   UNL     1      17.759  25.781  53.585  1.00  0.00     0.000 C 
ENDROOT
BRANCH   1   2
ATOM      2  C   UNL     1      16.285  25.328  53.629  1.00  0.00     0.000 C 
BRANCH   2   3
ATOM      3  C   UNL     1      15.368  26.214  54.495  1.00  0.00     0.000 C 
BRANCH   3   4
ATOM      4  C   UNL     1      16.133  27.317  55.264  1.00  0.00     0.000 C 
BRANCH   4   5
ATOM      5  C   UNL     1      15.736  28.742  54.844  1.00  0.00     0.006 C 
BRANCH   5   6
ATOM      6  C   UNL     1      16.833  29.774  55.137  1.00  0.00     0.053 C 
BRANCH   6   7
ATOM      7  C   UNL     1      16.385  30.749  56.182  1.00  0.00     0.041 C 
ATOM      8  O   UNL     1      16.780  30.630  57.371  1.00  0.00    -0.550 OA
ATOM      9  O   UNL     1      15.533  31.791  55.841  1.00  0.00    -0.550 OA
ENDBRANCH   6   7
ENDBRANCH   5   6
ENDBRANCH   4   5
ENDBRANCH   3   4
ENDBRANCH   2   3
ENDBRANCH   1   2
BRANCH   1  10
ATOM     10  C   UNL     1      18.178  26.550  52.313  1.00  0.00     0.000 C 
BRANCH  10  11
ATOM     11  C   UNL     1      17.717  25.920  50.988  1.00  0.00    -0.000 C 
BRANCH  11  12
ATOM     12  C   UNL     1      16.873  26.880  50.134  1.00  0.00    -0.000 C 
BRANCH  12  13
ATOM     13  C   UNL     1      15.364  26.752  50.402  1.00  0.00    -0.000 C 
BRANCH  13  14
ATOM     14  C   UNL     1      14.757  27.872  51.270  1.00  0.00    -0.000 C 
BRANCH  14  15
ATOM     15  C   UNL     1      15.513  29.213  51.226  1.00  0.00    -0.000 C 
BRANCH  15  16
ATOM     16  C   UNL     1      14.602  30.403  50.896  1.00  0.00    -0.003 C 
ATOM     17  C   UNL     1      14.579  30.678  49.396  1.00  0.00     0.004 C 
ENDBRANCH  15  16
ENDBRANCH  14  15
ENDBRANCH  13  14
ENDBRANCH  12  13
ENDBRANCH  11  12
ENDBRANCH  10  11
ENDBRANCH   1  10
TORSDOF 13
ENDMDL
MODEL 8
REMARK VINA RESULT:    -4.065      1.418      2.943
REMARK INTER + INTRA:          -8.906
REMARK INTER:                  -6.666
REMARK INTRA:                  -2.240
REMARK UNBOUND:                -1.752
REMARK SMILES CCCCCCCCCCCCCCC(=O)[O-]
REMARK SMILES IDX 9 1 10 2 11 3 12 4 13 5 14 6 15 7 16 8 17 9 8 10 7 11 6 12
REMARK SMILES IDX 5 13 4 14 3 15 2 16 1 17
REMARK H PARENT
REMARK Flexibility Score: inf
ROOT
ATOM      1  C   UNL     1      15.308  24.531  50.605  1.00  0.00     0.000 C 
ENDROOT
BRANCH   1   2
ATOM      2  C   UNL     1      14.481  25.028  51.809  1.00  0.00     0.000 C 
BRANCH   2   3
ATOM      3  C   UNL     1      13.962  26.474  51.677  1.00  0.00     0.000 C 
BRANCH   3   4
ATOM      4  C   UNL     1      14.625  27.258  50.521  1.00  0.00     0.000 C 
BRANCH   4   5
ATOM      5  C   UNL     1      15.499  28.430  50.998  1.00  0.00     0.006 C 
BRANCH   5   6
ATOM      6  C   UNL     1      14.682  29.689  51.313  1.00  0.00     0.053 C 
BRANCH   6   7
ATOM      7  C   UNL     1      14.918  30.750  50.282  1.00  0.00     0.041 C 
ATOM      8  O   UNL     1      14.625  30.539  49.076  1.00  0.00    -0.550 OA
ATOM      9  O   UNL     1      15.459  31.974  50.654  1.00  0.00    -0.550 OA
ENDBRANCH   6   7
ENDBRANCH   5   6
ENDBRANCH   4   5
ENDBRANCH   3   4
ENDBRANCH   2   3
ENDBRANCH   1   2
BRANCH   1  10
ATOM     10  C   UNL     1      16.817  24.345  50.869  1.00  0.00     0.000 C 
BRANCH  10  11
ATOM     11  C   UNL     1      17.726  25.415  50.240  1.00  0.00    -0.000 C 
BRANCH  11  12
ATOM     12  C   UNL     1      18.716  26.023  51.247  1.00  0.00    -0.000 C 
BRANCH  12  13
ATOM     13  C   UNL     1      18.361  25.695  52.708  1.00  0.00    -0.000 C 
BRANCH  13  14
ATOM     14  C   UNL     1      17.593  26.802  53.457  1.00  0.00    -0.000 C 
BRANCH  14  15
ATOM     15  C   UNL     1      16.516  26.299  54.436  1.00  0.00    -0.000 C 
BRANCH  15  16
ATOM     16  C   UNL     1      15.637  27.429  54.990  1.00  0.00    -0.003 C 
ATOM     17  C   UNL     1      16.247  28.795  54.695  1.00  0.00     0.004 C 
ENDBRANCH  15  16
ENDBRANCH  14  15
ENDBRANCH  13  14
ENDBRANCH  12  13
ENDBRANCH  11  12
ENDBRANCH  10  11
ENDBRANCH   1  10
TORSDOF 13
ENDMDL
MODEL 9
REMARK VINA RESULT:    -4.055      2.597      4.223
REMARK INTER + INTRA:          -8.889
REMARK INTER:                  -6.382
REMARK INTRA:                  -2.507
REMARK UNBOUND:                -1.752
REMARK SMILES CCCCCCCCCCCCCCC(=O)[O-]
REMARK SMILES IDX 9 1 10 2 11 3 12 4 13 5 14 6 15 7 16 8 17 9 8 10 7 11 6 12
REMARK SMILES IDX 5 13 4 14 3 15 2 16 1 17
REMARK H PARENT
REMARK Flexibility Score: inf
ROOT
ATOM      1  C   UNL     1      16.132  28.796  54.028  1.00  0.00     0.000 C 
ENDROOT
BRANCH   1   2
ATOM      2  C   UNL     1      15.410  28.719  52.667  1.00  0.00     0.000 C 
BRANCH   2   3
ATOM      3  C   UNL     1      16.349  28.606  51.450  1.00  0.00     0.000 C 
BRANCH   3   4
ATOM      4  C   UNL     1      15.655  28.028  50.194  1.00  0.00     0.000 C 
BRANCH   4   5
ATOM      5  C   UNL     1      15.646  26.491  50.154  1.00  0.00     0.006 C 
BRANCH   5   6
ATOM      6  C   UNL     1      14.265  25.915  49.814  1.00  0.00     0.053 C 
BRANCH   6   7
ATOM      7  C   UNL     1      13.607  25.350  51.036  1.00  0.00     0.041 C 
ATOM      8  O   UNL     1      13.791  24.146  51.354  1.00  0.00    -0.550 OA
ATOM      9  O   UNL     1      12.795  26.154  51.825  1.00  0.00    -0.550 OA
ENDBRANCH   6   7
ENDBRANCH   5   6
ENDBRANCH   4   5
ENDBRANCH   3   4
ENDBRANCH   2   3
ENDBRANCH   1   2
BRANCH   1  10
ATOM     10  C   UNL     1      16.258  27.459  54.788  1.00  0.00     0.000 C 
BRANCH  10  11
ATOM     11  C   UNL     1      15.445  26.294  54.198  1.00  0.00    -0.000 C 
BRANCH  11  12
ATOM     12  C   UNL     1      16.334  25.158  53.664  1.00  0.00    -0.000 C 
BRANCH  12  13
ATOM     13  C   UNL     1      17.820  25.547  53.583  1.00  0.00    -0.000 C 
BRANCH  13  14
ATOM     14  C   UNL     1      18.424  25.529  52.165  1.00  0.00    -0.000 C 
BRANCH  14  15
ATOM     15  C   UNL     1      19.496  26.601  51.899  1.00  0.00    -0.000 C 
BRANCH  15  16
ATOM     16  C   UNL     1      19.873  27.395  53.158  1.00  0.00    -0.003 C 
ATOM     17  C   UNL     1      19.685  28.893  52.939  1.00  0.00     0.004 C 
ENDBRANCH  15  16
ENDBRANCH  14  15
ENDBRANCH  13  14
ENDBRANCH  12  13
ENDBRANCH  11  12
ENDBRANCH  10  11
ENDBRANCH   1  10
TORSDOF 13
ENDMDL
