MODEL 1
REMARK VINA RESULT:    -3.173      0.000      0.000
REMARK INTER + INTRA:          -7.934
REMARK INTER:                  -5.955
REMARK INTRA:                  -1.979
REMARK UNBOUND:                -1.979
REMARK SMILES O=C([O-])CCCCCCCCCCCCCCC(=O)[O-]
REMARK SMILES IDX 10 1 9 2 8 3 7 4 6 5 5 6 4 7 2 8 1 9 3 10 11 11 12 12 13 13
REMARK SMILES IDX 14 14 15 15 16 16 17 17 18 18 19 19 20 20
REMARK H PARENT
REMARK Flexibility Score: inf
ROOT
ATOM      1  C   UNL     1       2.043  -3.973   8.680  1.00  0.00     0.000 C 
ENDROOT
BRANCH   1   2
ATOM      2  C   UNL     1       1.232  -3.184   9.721  1.00  0.00     0.000 C 
BRANCH   2   3
ATOM      3  C   UNL     1       1.772  -1.758   9.936  1.00  0.00     0.000 C 
BRANCH   3   4
ATOM      4  C   UNL     1       1.002  -0.707   9.118  1.00  0.00     0.000 C 
BRANCH   4   5
ATOM      5  C   UNL     1      -0.492  -0.653   9.483  1.00  0.00     0.000 C 
BRANCH   5   6
ATOM      6  C   UNL     1      -1.327   0.155   8.472  1.00  0.00     0.006 C 
BRANCH   6   7
ATOM      7  C   UNL     1      -0.952  -0.103   7.003  1.00  0.00     0.053 C 
BRANCH   7   8
ATOM      8  C   UNL     1      -0.581   1.152   6.275  1.00  0.00     0.041 C 
ATOM      9  O   UNL     1      -1.266   2.198   6.426  1.00  0.00    -0.550 OA
ATOM     10  O   UNL     1       0.533   1.175   5.446  1.00  0.00    -0.550 OA
ENDBRANCH   7   8
ENDBRANCH   6   7
ENDBRANCH   5   6
ENDBRANCH   4   5
ENDBRANCH   3   4
ENDBRANCH   2   3
ENDBRANCH   1   2
BRANCH   1  11
ATOM     11  C   UNL     1       1.152  -4.624   7.607  1.00  0.00     0.000 C 
BRANCH  11  12
ATOM     12  C   UNL     1      -0.037  -3.733   7.210  1.00  0.00     0.000 C 
BRANCH  12  13
ATOM     13  C   UNL     1      -1.394  -4.417   7.440  1.00  0.00     0.000 C 
BRANCH  13  14
ATOM     14  C   UNL     1      -2.330  -3.518   8.259  1.00  0.00     0.000 C 
BRANCH  14  15
ATOM     15  C   UNL     1      -3.654  -3.283   7.517  1.00  0.00     0.000 C 
BRANCH  15  16
ATOM     16  C   UNL     1      -3.446  -2.897   6.044  1.00  0.00     0.006 C 
BRANCH  16  17
ATOM     17  C   UNL     1      -4.517  -3.492   5.121  1.00  0.00     0.053 C 
BRANCH  17  18
ATOM     18  C   UNL     1      -4.919  -2.497   4.079  1.00  0.00     0.041 C 
ATOM     19  O   UNL     1      -4.582  -2.665   2.877  1.00  0.00    -0.550 OA
ATOM     20  O   UNL     1      -5.711  -1.409   4.425  1.00  0.00    -0.550 OA
ENDBRANCH  17  18
ENDBRANCH  16  17
ENDBRANCH  15  16
ENDBRANCH  14  15
ENDBRANCH  13  14
ENDBRANCH  12  13
ENDBRANCH  11  12
ENDBRANCH   1  11
TORSDOF 15
ENDMDL
MODEL 2
REMARK VINA RESULT:    -3.048      3.547      6.365
REMARK INTER + INTRA:          -7.699
REMARK INTER:                  -6.260
REMARK INTRA:                  -1.439
REMARK UNBOUND:                -1.979
REMARK SMILES O=C([O-])CCCCCCCCCCCCCCC(=O)[O-]
REMARK SMILES IDX 10 1 9 2 8 3 7 4 6 5 5 6 4 7 2 8 1 9 3 10 11 11 12 12 13 13
REMARK SMILES IDX 14 14 15 15 16 16 17 17 18 18 19 19 20 20
REMARK H PARENT
REMARK Flexibility Score: inf
ROOT
ATOM      1  C   UNL     1      -0.411  -3.260   6.903  1.00  0.00     0.000 C 
ENDROOT
BRANCH   1   2
ATOM      2  C   UNL     1      -0.487  -4.687   7.473  1.00  0.00     0.000 C 
BRANCH   2   3
ATOM      3  C   UNL     1       0.598  -4.960   8.530  1.00  0.00     0.000 C 
BRANCH   3   4
ATOM      4  C   UNL     1       1.990  -4.484   8.083  1.00  0.00     0.000 C 
BRANCH   4   5
ATOM      5  C   UNL     1       2.974  -5.649   7.872  1.00  0.00     0.000 C 
BRANCH   5   6
ATOM      6  C   UNL     1       2.775  -6.365   6.522  1.00  0.00     0.006 C 
BRANCH   6   7
ATOM      7  C   UNL     1       4.085  -6.822   5.859  1.00  0.00     0.053 C 
BRANCH   7   8
ATOM      8  C   UNL     1       3.888  -7.269   4.443  1.00  0.00     0.041 C 
ATOM      9  O   UNL     1       4.726  -6.953   3.558  1.00  0.00    -0.550 OA
ATOM     10  O   UNL     1       2.791  -8.051   4.104  1.00  0.00    -0.550 OA
ENDBRANCH   7   8
ENDBRANCH   6   7
ENDBRANCH   5   6
ENDBRANCH   4   5
ENDBRANCH   3   4
ENDBRANCH   2   3
ENDBRANCH   1   2
BRANCH   1  11
ATOM     11  C   UNL     1      -1.565  -2.367   7.392  1.00  0.00     0.000 C 
BRANCH  11  12
ATOM     12  C   UNL     1      -1.102  -1.313   8.412  1.00  0.00     0.000 C 
BRANCH  12  13
ATOM     13  C   UNL     1       0.428  -1.204   8.501  1.00  0.00     0.000 C 
BRANCH  13  14
ATOM     14  C   UNL     1       0.897   0.220   8.178  1.00  0.00     0.000 C 
BRANCH  14  15
ATOM     15  C   UNL     1       1.140   0.389   6.670  1.00  0.00     0.000 C 
BRANCH  15  16
ATOM     16  C   UNL     1      -0.001   1.140   5.967  1.00  0.00     0.006 C 
BRANCH  16  17
ATOM     17  C   UNL     1      -0.819   2.009   6.930  1.00  0.00     0.053 C 
BRANCH  17  18
ATOM     18  C   UNL     1      -2.226   2.149   6.441  1.00  0.00     0.041 C 
ATOM     19  O   UNL     1      -3.004   1.158   6.456  1.00  0.00    -0.550 OA
ATOM     20  O   UNL     1      -2.695   3.385   6.017  1.00  0.00    -0.550 OA
ENDBRANCH  17  18
ENDBRANCH  16  17
ENDBRANCH  15  16
ENDBRANCH  14  15
ENDBRANCH  13  14
ENDBRANCH  12  13
ENDBRANCH  11  12
ENDBRANCH   1  11
TORSDOF 15
ENDMDL
MODEL 3
REMARK VINA RESULT:    -3.047     11.110     12.439
REMARK INTER + INTRA:          -7.698
REMARK INTER:                  -5.476
REMARK INTRA:                  -2.223
REMARK UNBOUND:                -1.979
REMARK SMILES O=C([O-])CCCCCCCCCCCCCCC(=O)[O-]
REMARK SMILES IDX 10 1 9 2 8 3 7 4 6 5 5 6 4 7 2 8 1 9 3 10 11 11 12 12 13 13
REMARK SMILES IDX 14 14 15 15 16 16 17 17 18 18 19 19 20 20
REMARK H PARENT
REMARK Flexibility Score: inf
ROOT
ATOM      1  C   UNL     1       6.307   5.590   2.511  1.00  0.00     0.000 C 
ENDROOT
BRANCH   1   2
ATOM      2  C   UNL     1       6.522   5.925   1.025  1.00  0.00     0.000 C 
BRANCH   2   3
ATOM      3  C   UNL     1       5.769   7.195   0.589  1.00  0.00     0.000 C 
BRANCH   3   4
ATOM      4  C   UNL     1       4.685   6.905  -0.462  1.00  0.00     0.000 C 
BRANCH   4   5
ATOM      5  C   UNL     1       3.635   5.895   0.034  1.00  0.00     0.000 C 
BRANCH   5   6
ATOM      6  C   UNL     1       2.700   5.402  -1.087  1.00  0.00     0.006 C 
BRANCH   6   7
ATOM      7  C   UNL     1       1.246   5.882  -0.943  1.00  0.00     0.053 C 
BRANCH   7   8
ATOM      8  C   UNL     1       0.860   6.873  -1.997  1.00  0.00     0.041 C 
ATOM      9  O   UNL     1      -0.327   7.286  -2.073  1.00  0.00    -0.550 OA
ATOM     10  O   UNL     1       1.814   7.360  -2.881  1.00  0.00    -0.550 OA
ENDBRANCH   7   8
ENDBRANCH   6   7
ENDBRANCH   5   6
ENDBRANCH   4   5
ENDBRANCH   3   4
ENDBRANCH   2   3
ENDBRANCH   1   2
BRANCH   1  11
ATOM     11  C   UNL     1       6.670   6.762   3.439  1.00  0.00     0.000 C 
BRANCH  11  12
ATOM     12  C   UNL     1       5.495   7.191   4.333  1.00  0.00     0.000 C 
BRANCH  12  13
ATOM     13  C   UNL     1       4.862   8.519   3.886  1.00  0.00     0.000 C 
BRANCH  13  14
ATOM     14  C   UNL     1       3.428   8.302   3.388  1.00  0.00     0.000 C 
BRANCH  14  15
ATOM     15  C   UNL     1       3.120   9.214   2.190  1.00  0.00     0.000 C 
BRANCH  15  16
ATOM     16  C   UNL     1       1.878   8.762   1.406  1.00  0.00     0.006 C 
BRANCH  16  17
ATOM     17  C   UNL     1       1.008   7.774   2.194  1.00  0.00     0.053 C 
BRANCH  17  18
ATOM     18  C   UNL     1      -0.413   7.847   1.735  1.00  0.00     0.041 C 
ATOM     19  O   UNL     1      -1.277   7.069   2.218  1.00  0.00    -0.550 OA
ATOM     20  O   UNL     1      -0.796   8.811   0.810  1.00  0.00    -0.550 OA
ENDBRANCH  17  18
ENDBRANCH  16  17
ENDBRANCH  15  16
ENDBRANCH  14  15
ENDBRANCH  13  14
ENDBRANCH  12  13
ENDBRANCH  11  12
ENDBRANCH   1  11
TORSDOF 15
ENDMDL
MODEL 4
REMARK VINA RESULT:    -3.039      1.279      5.384
REMARK INTER + INTRA:          -7.683
REMARK INTER:                  -5.806
REMARK INTRA:                  -1.877
REMARK UNBOUND:                -1.979
REMARK SMILES O=C([O-])CCCCCCCCCCCCCCC(=O)[O-]
REMARK SMILES IDX 10 1 9 2 8 3 7 4 6 5 5 6 4 7 2 8 1 9 3 10 11 11 12 12 13 13
REMARK SMILES IDX 14 14 15 15 16 16 17 17 18 18 19 19 20 20
REMARK H PARENT
REMARK Flexibility Score: inf
ROOT
ATOM      1  C   UNL     1       1.092  -3.006   8.403  1.00  0.00     0.000 C 
ENDROOT
BRANCH   1   2
ATOM      2  C   UNL     1       0.370  -3.971   7.448  1.00  0.00     0.000 C 
BRANCH   2   3
ATOM      3  C   UNL     1      -0.103  -5.257   8.150  1.00  0.00     0.000 C 
BRANCH   3   4
ATOM      4  C   UNL     1      -1.554  -5.623   7.796  1.00  0.00     0.000 C 
BRANCH   4   5
ATOM      5  C   UNL     1      -2.509  -4.420   7.901  1.00  0.00     0.000 C 
BRANCH   5   6
ATOM      6  C   UNL     1      -3.519  -4.353   6.739  1.00  0.00     0.006 C 
BRANCH   6   7
ATOM      7  C   UNL     1      -3.358  -3.113   5.842  1.00  0.00     0.053 C 
BRANCH   7   8
ATOM      8  C   UNL     1      -4.427  -3.015   4.799  1.00  0.00     0.041 C 
ATOM      9  O   UNL     1      -4.850  -4.054   4.227  1.00  0.00    -0.550 OA
ATOM     10  O   UNL     1      -4.973  -1.780   4.473  1.00  0.00    -0.550 OA
ENDBRANCH   7   8
ENDBRANCH   6   7
ENDBRANCH   5   6
ENDBRANCH   4   5
ENDBRANCH   3   4
ENDBRANCH   2   3
ENDBRANCH   1   2
BRANCH   1  11
ATOM     11  C   UNL     1       0.530  -1.575   8.332  1.00  0.00     0.000 C 
BRANCH  11  12
ATOM     12  C   UNL     1      -0.713  -1.386   9.217  1.00  0.00     0.000 C 
BRANCH  12  13
ATOM     13  C   UNL     1      -1.915  -0.825   8.440  1.00  0.00     0.000 C 
BRANCH  13  14
ATOM     14  C   UNL     1      -2.473   0.430   9.123  1.00  0.00     0.000 C 
BRANCH  14  15
ATOM     15  C   UNL     1      -1.340   1.284   9.711  1.00  0.00     0.000 C 
BRANCH  15  16
ATOM     16  C   UNL     1      -1.011   2.509   8.844  1.00  0.00     0.006 C 
BRANCH  16  17
ATOM     17  C   UNL     1       0.147   2.250   7.871  1.00  0.00     0.053 C 
BRANCH  17  18
ATOM     18  C   UNL     1      -0.380   1.921   6.510  1.00  0.00     0.041 C 
ATOM     19  O   UNL     1      -1.547   2.265   6.181  1.00  0.00    -0.550 OA
ATOM     20  O   UNL     1       0.435   1.281   5.585  1.00  0.00    -0.550 OA
ENDBRANCH  17  18
ENDBRANCH  16  17
ENDBRANCH  15  16
ENDBRANCH  14  15
ENDBRANCH  13  14
ENDBRANCH  12  13
ENDBRANCH  11  12
ENDBRANCH   1  11
TORSDOF 15
ENDMDL
MODEL 5
REMARK VINA RESULT:    -3.036      1.429      2.339
REMARK INTER + INTRA:          -7.677
REMARK INTER:                  -5.796
REMARK INTRA:                  -1.881
REMARK UNBOUND:                -1.979
REMARK SMILES O=C([O-])CCCCCCCCCCCCCCC(=O)[O-]
REMARK SMILES IDX 10 1 9 2 8 3 7 4 6 5 5 6 4 7 2 8 1 9 3 10 11 11 12 12 13 13
REMARK SMILES IDX 14 14 15 15 16 16 17 17 18 18 19 19 20 20
REMARK H PARENT
REMARK Flexibility Score: inf
ROOT
ATOM      1  C   UNL     1       1.850  -2.404   9.741  1.00  0.00     0.000 C 
ENDROOT
BRANCH   1   2
ATOM      2  C   UNL     1       0.990  -1.160   9.461  1.00  0.00     0.000 C 
BRANCH   2   3
ATOM      3  C   UNL     1      -0.238  -1.473   8.586  1.00  0.00     0.000 C 
BRANCH   3   4
ATOM      4  C   UNL     1       0.026  -1.229   7.091  1.00  0.00     0.000 C 
BRANCH   4   5
ATOM      5  C   UNL     1       0.965  -0.035   6.844  1.00  0.00     0.000 C 
BRANCH   5   6
ATOM      6  C   UNL     1       0.300   1.094   6.034  1.00  0.00     0.006 C 
BRANCH   6   7
ATOM      7  C   UNL     1      -0.536   2.066   6.884  1.00  0.00     0.053 C 
BRANCH   7   8
ATOM      8  C   UNL     1      -1.968   2.123   6.452  1.00  0.00     0.041 C 
ATOM      9  O   UNL     1      -2.471   3.212   6.069  1.00  0.00    -0.550 OA
ATOM     10  O   UNL     1      -2.743   0.970   6.450  1.00  0.00    -0.550 OA
ENDBRANCH   7   8
ENDBRANCH   6   7
ENDBRANCH   5   6
ENDBRANCH   4   5
ENDBRANCH   3   4
ENDBRANCH   2   3
ENDBRANCH   1   2
BRANCH   1  11
ATOM     11  C   UNL     1       1.054  -3.714   9.606  1.00  0.00     0.000 C 
BRANCH  11  12
ATOM     12  C   UNL     1       1.503  -4.556   8.400  1.00  0.00     0.000 C 
BRANCH  12  13
ATOM     13  C   UNL     1       0.328  -5.001   7.515  1.00  0.00     0.000 C 
BRANCH  13  14
ATOM     14  C   UNL     1      -0.944  -5.200   8.350  1.00  0.00     0.000 C 
BRANCH  14  15
ATOM     15  C   UNL     1      -2.190  -5.226   7.453  1.00  0.00     0.000 C 
BRANCH  15  16
ATOM     16  C   UNL     1      -2.964  -3.898   7.476  1.00  0.00     0.006 C 
BRANCH  16  17
ATOM     17  C   UNL     1      -2.849  -3.124   6.156  1.00  0.00     0.053 C 
BRANCH  17  18
ATOM     18  C   UNL     1      -4.133  -3.204   5.392  1.00  0.00     0.041 C 
ATOM     19  O   UNL     1      -5.217  -3.423   5.994  1.00  0.00    -0.550 OA
ATOM     20  O   UNL     1      -4.139  -2.984   4.020  1.00  0.00    -0.550 OA
ENDBRANCH  17  18
ENDBRANCH  16  17
ENDBRANCH  15  16
ENDBRANCH  14  15
ENDBRANCH  13  14
ENDBRANCH  12  13
ENDBRANCH  11  12
ENDBRANCH   1  11
TORSDOF 15
ENDMDL
MODEL 6
REMARK VINA RESULT:    -3.007      2.509      4.687
REMARK INTER + INTRA:          -7.623
REMARK INTER:                  -5.256
REMARK INTRA:                  -2.367
REMARK UNBOUND:                -1.979
REMARK SMILES O=C([O-])CCCCCCCCCCCCCCC(=O)[O-]
REMARK SMILES IDX 10 1 9 2 8 3 7 4 6 5 5 6 4 7 2 8 1 9 3 10 11 11 12 12 13 13
REMARK SMILES IDX 14 14 15 15 16 16 17 17 18 18 19 19 20 20
REMARK H PARENT
REMARK Flexibility Score: inf
ROOT
ATOM      1  C   UNL     1       1.109   0.414   6.715  1.00  0.00     0.000 C 
ENDROOT
BRANCH   1   2
ATOM      2  C   UNL     1       1.064   0.344   8.251  1.00  0.00     0.000 C 
BRANCH   2   3
ATOM      3  C   UNL     1       0.439  -0.965   8.766  1.00  0.00     0.000 C 
BRANCH   3   4
ATOM      4  C   UNL     1       1.482  -1.919   9.371  1.00  0.00     0.000 C 
BRANCH   4   5
ATOM      5  C   UNL     1       1.483  -3.300   8.693  1.00  0.00     0.000 C 
BRANCH   5   6
ATOM      6  C   UNL     1       0.365  -3.454   7.644  1.00  0.00     0.006 C 
BRANCH   6   7
ATOM      7  C   UNL     1      -0.108  -4.904   7.442  1.00  0.00     0.053 C 
BRANCH   7   8
ATOM      8  C   UNL     1      -1.500  -5.130   7.946  1.00  0.00     0.041 C 
ATOM      9  O   UNL     1      -2.310  -5.825   7.278  1.00  0.00    -0.550 OA
ATOM     10  O   UNL     1      -1.898  -4.593   9.164  1.00  0.00    -0.550 OA
ENDBRANCH   7   8
ENDBRANCH   6   7
ENDBRANCH   5   6
ENDBRANCH   4   5
ENDBRANCH   3   4
ENDBRANCH   2   3
ENDBRANCH   1   2
BRANCH   1  11
ATOM     11  C   UNL     1      -0.093   1.170   6.123  1.00  0.00     0.000 C 
BRANCH  11  12
ATOM     12  C   UNL     1      -0.648   2.238   7.081  1.00  0.00     0.000 C 
BRANCH  12  13
ATOM     13  C   UNL     1      -2.174   2.155   7.242  1.00  0.00     0.000 C 
BRANCH  13  14
ATOM     14  C   UNL     1      -2.702   0.790   6.780  1.00  0.00     0.000 C 
BRANCH  14  15
ATOM     15  C   UNL     1      -3.276  -0.005   7.963  1.00  0.00     0.000 C 
BRANCH  15  16
ATOM     16  C   UNL     1      -3.050  -1.519   7.824  1.00  0.00     0.006 C 
BRANCH  16  17
ATOM     17  C   UNL     1      -2.720  -1.937   6.385  1.00  0.00     0.053 C 
BRANCH  17  18
ATOM     18  C   UNL     1      -3.769  -2.865   5.858  1.00  0.00     0.041 C 
ATOM     19  O   UNL     1      -3.831  -3.118   4.626  1.00  0.00    -0.550 OA
ATOM     20  O   UNL     1      -4.648  -3.490   6.734  1.00  0.00    -0.550 OA
ENDBRANCH  17  18
ENDBRANCH  16  17
ENDBRANCH  15  16
ENDBRANCH  14  15
ENDBRANCH  13  14
ENDBRANCH  12  13
ENDBRANCH  11  12
ENDBRANCH   1  11
TORSDOF 15
ENDMDL
MODEL 7
REMARK VINA RESULT:    -2.999      1.378      5.348
REMARK INTER + INTRA:          -7.608
REMARK INTER:                  -6.023
REMARK INTRA:                  -1.585
REMARK UNBOUND:                -1.979
REMARK SMILES O=C([O-])CCCCCCCCCCCCCCC(=O)[O-]
REMARK SMILES IDX 10 1 9 2 8 3 7 4 6 5 5 6 4 7 2 8 1 9 3 10 11 11 12 12 13 13
REMARK SMILES IDX 14 14 15 15 16 16 17 17 18 18 19 19 20 20
REMARK H PARENT
REMARK Flexibility Score: inf
ROOT
ATOM      1  C   UNL     1       0.651  -5.074   7.515  1.00  0.00     0.000 C 
ENDROOT
BRANCH   1   2
ATOM      2  C   UNL     1      -0.630  -5.098   8.366  1.00  0.00     0.000 C 
BRANCH   2   3
ATOM      3  C   UNL     1      -1.807  -4.375   7.686  1.00  0.00     0.000 C 
BRANCH   3   4
ATOM      4  C   UNL     1      -1.344  -3.269   6.724  1.00  0.00     0.000 C 
BRANCH   4   5
ATOM      5  C   UNL     1      -2.131  -1.959   6.907  1.00  0.00     0.000 C 
BRANCH   5   6
ATOM      6  C   UNL     1      -3.584  -2.058   6.405  1.00  0.00     0.006 C 
BRANCH   6   7
ATOM      7  C   UNL     1      -3.734  -2.792   5.062  1.00  0.00     0.053 C 
BRANCH   7   8
ATOM      8  C   UNL     1      -4.765  -3.877   5.110  1.00  0.00     0.041 C 
ATOM      9  O   UNL     1      -5.181  -4.402   4.044  1.00  0.00    -0.550 OA
ATOM     10  O   UNL     1      -5.251  -4.324   6.332  1.00  0.00    -0.550 OA
ENDBRANCH   7   8
ENDBRANCH   6   7
ENDBRANCH   5   6
ENDBRANCH   4   5
ENDBRANCH   3   4
ENDBRANCH   2   3
ENDBRANCH   1   2
BRANCH   1  11
ATOM     11  C   UNL     1       1.851  -4.478   8.271  1.00  0.00     0.000 C 
BRANCH  11  12
ATOM     12  C   UNL     1       1.452  -3.869   9.625  1.00  0.00     0.000 C 
BRANCH  12  13
ATOM     13  C   UNL     1       1.901  -2.407   9.775  1.00  0.00     0.000 C 
BRANCH  13  14
ATOM     14  C   UNL     1       0.947  -1.462   9.033  1.00  0.00     0.000 C 
BRANCH  14  15
ATOM     15  C   UNL     1       1.278   0.006   9.344  1.00  0.00     0.000 C 
BRANCH  15  16
ATOM     16  C   UNL     1       1.254   0.896   8.092  1.00  0.00     0.006 C 
BRANCH  16  17
ATOM     17  C   UNL     1      -0.095   1.598   7.891  1.00  0.00     0.053 C 
BRANCH  17  18
ATOM     18  C   UNL     1      -0.438   1.664   6.437  1.00  0.00     0.041 C 
ATOM     19  O   UNL     1       0.428   1.377   5.567  1.00  0.00    -0.550 OA
ATOM     20  O   UNL     1      -1.728   1.992   6.040  1.00  0.00    -0.550 OA
ENDBRANCH  17  18
ENDBRANCH  16  17
ENDBRANCH  15  16
ENDBRANCH  14  15
ENDBRANCH  13  14
ENDBRANCH  12  13
ENDBRANCH  11  12
ENDBRANCH   1  11
TORSDOF 15
ENDMDL
MODEL 8
REMARK VINA RESULT:    -2.985      1.659      2.396
REMARK INTER + INTRA:          -7.581
REMARK INTER:                  -5.768
REMARK INTRA:                  -1.813
REMARK UNBOUND:                -1.979
REMARK SMILES O=C([O-])CCCCCCCCCCCCCCC(=O)[O-]
REMARK SMILES IDX 10 1 9 2 8 3 7 4 6 5 5 6 4 7 2 8 1 9 3 10 11 11 12 12 13 13
REMARK SMILES IDX 14 14 15 15 16 16 17 17 18 18 19 19 20 20
REMARK H PARENT
REMARK Flexibility Score: inf
ROOT
ATOM      1  C   UNL     1       0.382  -6.128   8.986  1.00  0.00     0.000 C 
ENDROOT
BRANCH   1   2
ATOM      2  C   UNL     1       0.759  -5.508   7.630  1.00  0.00     0.000 C 
BRANCH   2   3
ATOM      3  C   UNL     1       0.253  -4.062   7.478  1.00  0.00     0.000 C 
BRANCH   3   4
ATOM      4  C   UNL     1       1.114  -3.051   8.254  1.00  0.00     0.000 C 
BRANCH   4   5
ATOM      5  C   UNL     1       0.400  -1.703   8.460  1.00  0.00     0.000 C 
BRANCH   5   6
ATOM      6  C   UNL     1       0.380  -0.834   7.189  1.00  0.00     0.006 C 
BRANCH   6   7
ATOM      7  C   UNL     1      -0.887   0.025   7.039  1.00  0.00     0.053 C 
BRANCH   7   8
ATOM      8  C   UNL     1      -0.642   1.280   6.258  1.00  0.00     0.041 C 
ATOM      9  O   UNL     1      -1.497   2.204   6.262  1.00  0.00    -0.550 OA
ATOM     10  O   UNL     1       0.538   1.439   5.544  1.00  0.00    -0.550 OA
ENDBRANCH   7   8
ENDBRANCH   6   7
ENDBRANCH   5   6
ENDBRANCH   4   5
ENDBRANCH   3   4
ENDBRANCH   2   3
ENDBRANCH   1   2
BRANCH   1  11
ATOM     11  C   UNL     1      -0.609  -7.297   8.846  1.00  0.00     0.000 C 
BRANCH  11  12
ATOM     12  C   UNL     1      -1.359  -7.277   7.504  1.00  0.00     0.000 C 
BRANCH  12  13
ATOM     13  C   UNL     1      -2.878  -7.122   7.674  1.00  0.00     0.000 C 
BRANCH  13  14
ATOM     14  C   UNL     1      -3.355  -5.766   7.139  1.00  0.00     0.000 C 
BRANCH  14  15
ATOM     15  C   UNL     1      -3.195  -4.669   8.202  1.00  0.00     0.000 C 
BRANCH  15  16
ATOM     16  C   UNL     1      -3.386  -3.256   7.629  1.00  0.00     0.006 C 
BRANCH  16  17
ATOM     17  C   UNL     1      -2.877  -3.129   6.187  1.00  0.00     0.053 C 
BRANCH  17  18
ATOM     18  C   UNL     1      -3.958  -2.603   5.297  1.00  0.00     0.041 C 
ATOM     19  O   UNL     1      -4.456  -1.465   5.507  1.00  0.00    -0.550 OA
ATOM     20  O   UNL     1      -4.381  -3.348   4.203  1.00  0.00    -0.550 OA
ENDBRANCH  17  18
ENDBRANCH  16  17
ENDBRANCH  15  16
ENDBRANCH  14  15
ENDBRANCH  13  14
ENDBRANCH  12  13
ENDBRANCH  11  12
ENDBRANCH   1  11
TORSDOF 15
ENDMDL
MODEL 9
REMARK VINA RESULT:    -2.957     11.500     12.316
REMARK INTER + INTRA:          -7.528
REMARK INTER:                  -5.541
REMARK INTRA:                  -1.987
REMARK UNBOUND:                -1.979
REMARK SMILES O=C([O-])CCCCCCCCCCCCCCC(=O)[O-]
REMARK SMILES IDX 10 1 9 2 8 3 7 4 6 5 5 6 4 7 2 8 1 9 3 10 11 11 12 12 13 13
REMARK SMILES IDX 14 14 15 15 16 16 17 17 18 18 19 19 20 20
REMARK H PARENT
REMARK Flexibility Score: inf
ROOT
ATOM      1  C   UNL     1       7.569   6.610   2.963  1.00  0.00     0.000 C 
ENDROOT
BRANCH   1   2
ATOM      2  C   UNL     1       7.053   7.426   4.161  1.00  0.00     0.000 C 
BRANCH   2   3
ATOM      3  C   UNL     1       5.620   7.038   4.569  1.00  0.00     0.000 C 
BRANCH   3   4
ATOM      4  C   UNL     1       4.682   8.253   4.653  1.00  0.00     0.000 C 
BRANCH   4   5
ATOM      5  C   UNL     1       4.812   9.186   3.435  1.00  0.00     0.000 C 
BRANCH   5   6
ATOM      6  C   UNL     1       3.456   9.513   2.782  1.00  0.00     0.006 C 
BRANCH   6   7
ATOM      7  C   UNL     1       2.413   8.389   2.909  1.00  0.00     0.053 C 
BRANCH   7   8
ATOM      8  C   UNL     1       1.536   8.280   1.700  1.00  0.00     0.041 C 
ATOM      9  O   UNL     1       1.599   9.150   0.792  1.00  0.00    -0.550 OA
ATOM     10  O   UNL     1       0.664   7.207   1.565  1.00  0.00    -0.550 OA
ENDBRANCH   7   8
ENDBRANCH   6   7
ENDBRANCH   5   6
ENDBRANCH   4   5
ENDBRANCH   3   4
ENDBRANCH   2   3
ENDBRANCH   1   2
BRANCH   1  11
ATOM     11  C   UNL     1       6.492   5.683   2.373  1.00  0.00     0.000 C 
BRANCH  11  12
ATOM     12  C   UNL     1       6.253   5.934   0.875  1.00  0.00     0.000 C 
BRANCH  12  13
ATOM     13  C   UNL     1       5.033   6.829   0.610  1.00  0.00     0.000 C 
BRANCH  13  14
ATOM     14  C   UNL     1       3.886   6.024  -0.013  1.00  0.00     0.000 C 
BRANCH  14  15
ATOM     15  C   UNL     1       4.211   5.638  -1.464  1.00  0.00     0.000 C 
BRANCH  15  16
ATOM     16  C   UNL     1       2.953   5.497  -2.335  1.00  0.00     0.006 C 
BRANCH  16  17
ATOM     17  C   UNL     1       1.665   5.832  -1.572  1.00  0.00     0.053 C 
BRANCH  17  18
ATOM     18  C   UNL     1       1.057   7.092  -2.103  1.00  0.00     0.041 C 
ATOM     19  O   UNL     1      -0.193   7.189  -2.229  1.00  0.00    -0.550 OA
ATOM     20  O   UNL     1       1.866   8.178  -2.410  1.00  0.00    -0.550 OA
ENDBRANCH  17  18
ENDBRANCH  16  17
ENDBRANCH  15  16
ENDBRANCH  14  15
ENDBRANCH  13  14
ENDBRANCH  12  13
ENDBRANCH  11  12
ENDBRANCH   1  11
TORSDOF 15
ENDMDL
