MODEL 1
REMARK VINA RESULT:    -6.063      0.000      0.000
REMARK INTER + INTRA:          -6.776
REMARK INTER:                  -6.595
REMARK INTRA:                  -0.181
REMARK UNBOUND:                -0.181
REMARK SMILES CC1=C[C@H]2[C@@H](C(C)C)CC[C@](C)(O)[C@H]2CC1
REMARK SMILES IDX 1 1 2 2 3 3 4 4 5 5 9 6 10 7 11 8 14 9 15 10 16 11 12 12
REMARK SMILES IDX 6 13 7 14 8 15 13 16
REMARK H PARENT 13 17
REMARK Flexibility Score: inf
ROOT
ATOM      1  C   UNL     1     111.981 114.862 124.627  1.00  0.00     0.039 C 
ATOM      2  C   UNL     1     110.889 115.661 125.285  1.00  0.00    -0.077 C 
ATOM      3  C   UNL     1     111.043 116.103 126.544  1.00  0.00    -0.024 C 
ATOM      4  C   UNL     1     109.977 116.990 127.142  1.00  0.00     0.021 C 
ATOM      5  C   UNL     1     110.314 117.575 128.541  1.00  0.00    -0.001 C 
ATOM      6  C   UNL     1     111.382 118.679 128.448  1.00  0.00     0.007 C 
ATOM      7  C   UNL     1     110.936 119.791 127.489  1.00  0.00     0.035 C 
ATOM      8  C   UNL     1     110.624 119.292 126.056  1.00  0.00     0.065 C 
ATOM      9  C   UNL     1     109.592 118.101 126.119  1.00  0.00     0.028 C 
ATOM     10  C   UNL     1     109.233 117.490 124.718  1.00  0.00     0.011 C 
ATOM     11  C   UNL     1     109.616 116.003 124.544  1.00  0.00     0.031 C 
ATOM     12  C   UNL     1     111.959 118.935 125.342  1.00  0.00     0.042 C 
ENDROOT
BRANCH   5  13
ATOM     13  C   UNL     1     110.596 116.471 129.627  1.00  0.00    -0.014 C 
ATOM     14  C   UNL     1     112.087 116.174 129.889  1.00  0.00     0.007 C 
ATOM     15  C   UNL     1     109.919 116.829 130.960  1.00  0.00     0.007 C 
ENDBRANCH   5  13
BRANCH   8  16
ATOM     16  O   UNL     1     110.024 120.382 125.390  1.00  0.00    -0.390 OA
ATOM     17  H   UNL     1     109.663 121.015 126.061  1.00  0.00     0.211 HD
ENDBRANCH   8  16
TORSDOF 2
ENDMDL
MODEL 2
REMARK VINA RESULT:    -5.568      1.428      4.384
REMARK INTER + INTRA:          -6.238
REMARK INTER:                  -5.974
REMARK INTRA:                  -0.263
REMARK UNBOUND:                -0.181
REMARK SMILES CC1=C[C@H]2[C@@H](C(C)C)CC[C@](C)(O)[C@H]2CC1
REMARK SMILES IDX 1 1 2 2 3 3 4 4 5 5 9 6 10 7 11 8 14 9 15 10 16 11 12 12
REMARK SMILES IDX 6 13 7 14 8 15 13 16
REMARK H PARENT 13 17
REMARK Flexibility Score: inf
ROOT
ATOM      1  C   UNL     1     109.263 115.745 128.867  1.00  0.00     0.039 C 
ATOM      2  C   UNL     1     110.299 116.392 127.988  1.00  0.00    -0.077 C 
ATOM      3  C   UNL     1     110.069 116.541 126.674  1.00  0.00    -0.024 C 
ATOM      4  C   UNL     1     111.080 117.286 125.835  1.00  0.00     0.021 C 
ATOM      5  C   UNL     1     110.656 117.543 124.363  1.00  0.00    -0.001 C 
ATOM      6  C   UNL     1     109.567 118.627 124.270  1.00  0.00     0.007 C 
ATOM      7  C   UNL     1     110.036 119.929 124.933  1.00  0.00     0.035 C 
ATOM      8  C   UNL     1     110.434 119.764 126.421  1.00  0.00     0.065 C 
ATOM      9  C   UNL     1     111.491 118.602 126.564  1.00  0.00     0.028 C 
ATOM     10  C   UNL     1     111.937 118.321 128.043  1.00  0.00     0.011 C 
ATOM     11  C   UNL     1     111.600 116.906 128.562  1.00  0.00     0.031 C 
ATOM     12  C   UNL     1     109.147 119.558 127.270  1.00  0.00     0.042 C 
ENDROOT
BRANCH   5  13
ATOM     13  C   UNL     1     110.345 116.222 123.565  1.00  0.00    -0.014 C 
ATOM     14  C   UNL     1     109.761 116.431 122.153  1.00  0.00     0.007 C 
ATOM     15  C   UNL     1     111.598 115.338 123.459  1.00  0.00     0.007 C 
ENDBRANCH   5  13
BRANCH   8  16
ATOM     16  O   UNL     1     111.041 120.982 126.795  1.00  0.00    -0.390 OA
ATOM     17  H   UNL     1     111.919 121.060 126.344  1.00  0.00     0.211 HD
ENDBRANCH   8  16
TORSDOF 2
ENDMDL
MODEL 3
REMARK VINA RESULT:    -5.542     14.089     16.526
REMARK INTER + INTRA:          -6.209
REMARK INTER:                  -5.952
REMARK INTRA:                  -0.257
REMARK UNBOUND:                -0.181
REMARK SMILES CC1=C[C@H]2[C@@H](C(C)C)CC[C@](C)(O)[C@H]2CC1
REMARK SMILES IDX 1 1 2 2 3 3 4 4 5 5 9 6 10 7 11 8 14 9 15 10 16 11 12 12
REMARK SMILES IDX 6 13 7 14 8 15 13 16
REMARK H PARENT 13 17
REMARK Flexibility Score: inf
ROOT
ATOM      1  C   UNL     1     123.455 120.482 115.468  1.00  0.00     0.039 C 
ATOM      2  C   UNL     1     122.740 119.203 115.130  1.00  0.00    -0.077 C 
ATOM      3  C   UNL     1     123.270 118.021 115.484  1.00  0.00    -0.024 C 
ATOM      4  C   UNL     1     122.481 116.759 115.224  1.00  0.00     0.021 C 
ATOM      5  C   UNL     1     123.103 115.460 115.806  1.00  0.00    -0.001 C 
ATOM      6  C   UNL     1     122.962 115.404 117.337  1.00  0.00     0.007 C 
ATOM      7  C   UNL     1     121.491 115.534 117.755  1.00  0.00     0.035 C 
ATOM      8  C   UNL     1     120.811 116.830 117.251  1.00  0.00     0.065 C 
ATOM      9  C   UNL     1     121.007 116.963 115.691  1.00  0.00     0.028 C 
ATOM     10  C   UNL     1     120.387 118.269 115.077  1.00  0.00     0.011 C 
ATOM     11  C   UNL     1     121.409 119.218 114.412  1.00  0.00     0.031 C 
ATOM     12  C   UNL     1     121.358 118.039 118.062  1.00  0.00     0.042 C 
ENDROOT
BRANCH   5  13
ATOM     13  C   UNL     1     124.551 115.165 115.263  1.00  0.00    -0.014 C 
ATOM     14  C   UNL     1     125.676 115.255 116.313  1.00  0.00     0.007 C 
ATOM     15  C   UNL     1     124.611 113.786 114.586  1.00  0.00     0.007 C 
ENDBRANCH   5  13
BRANCH   8  16
ATOM     16  O   UNL     1     119.435 116.677 117.527  1.00  0.00    -0.390 OA
ATOM     17  H   UNL     1     119.324 116.047 118.283  1.00  0.00     0.211 HD
ENDBRANCH   8  16
TORSDOF 2
ENDMDL
MODEL 4
REMARK VINA RESULT:    -5.541      3.169      5.724
REMARK INTER + INTRA:          -6.208
REMARK INTER:                  -5.944
REMARK INTRA:                  -0.264
REMARK UNBOUND:                -0.181
REMARK SMILES CC1=C[C@H]2[C@@H](C(C)C)CC[C@](C)(O)[C@H]2CC1
REMARK SMILES IDX 1 1 2 2 3 3 4 4 5 5 9 6 10 7 11 8 14 9 15 10 16 11 12 12
REMARK SMILES IDX 6 13 7 14 8 15 13 16
REMARK H PARENT 13 17
REMARK Flexibility Score: inf
ROOT
ATOM      1  C   UNL     1     115.355 121.271 123.305  1.00  0.00     0.039 C 
ATOM      2  C   UNL     1     113.991 121.743 123.729  1.00  0.00    -0.077 C 
ATOM      3  C   UNL     1     113.057 120.855 124.101  1.00  0.00    -0.024 C 
ATOM      4  C   UNL     1     111.733 121.362 124.622  1.00  0.00     0.021 C 
ATOM      5  C   UNL     1     110.776 120.268 125.171  1.00  0.00    -0.001 C 
ATOM      6  C   UNL     1     111.262 119.722 126.525  1.00  0.00     0.007 C 
ATOM      7  C   UNL     1     111.427 120.858 127.544  1.00  0.00     0.035 C 
ATOM      8  C   UNL     1     112.404 121.969 127.087  1.00  0.00     0.065 C 
ATOM      9  C   UNL     1     111.984 122.496 125.662  1.00  0.00     0.028 C 
ATOM     10  C   UNL     1     112.934 123.604 125.083  1.00  0.00     0.011 C 
ATOM     11  C   UNL     1     113.653 123.217 123.771  1.00  0.00     0.031 C 
ATOM     12  C   UNL     1     113.859 121.424 127.157  1.00  0.00     0.042 C 
ENDROOT
BRANCH   5  13
ATOM     13  C   UNL     1     110.411 119.167 124.106  1.00  0.00    -0.014 C 
ATOM     14  C   UNL     1     109.715 117.913 124.672  1.00  0.00     0.007 C 
ATOM     15  C   UNL     1     109.540 119.757 122.985  1.00  0.00     0.007 C 
ENDBRANCH   5  13
BRANCH   8  16
ATOM     16  O   UNL     1     112.261 123.017 128.023  1.00  0.00    -0.390 OA
ATOM     17  H   UNL     1     113.122 123.152 128.494  1.00  0.00     0.211 HD
ENDBRANCH   8  16
TORSDOF 2
ENDMDL
MODEL 5
REMARK VINA RESULT:    -5.479      1.783      2.608
REMARK INTER + INTRA:          -6.141
REMARK INTER:                  -5.890
REMARK INTRA:                  -0.250
REMARK UNBOUND:                -0.181
REMARK SMILES CC1=C[C@H]2[C@@H](C(C)C)CC[C@](C)(O)[C@H]2CC1
REMARK SMILES IDX 1 1 2 2 3 3 4 4 5 5 9 6 10 7 11 8 14 9 15 10 16 11 12 12
REMARK SMILES IDX 6 13 7 14 8 15 13 16
REMARK H PARENT 13 17
REMARK Flexibility Score: inf
ROOT
ATOM      1  C   UNL     1     114.321 116.922 124.350  1.00  0.00     0.039 C 
ATOM      2  C   UNL     1     112.889 116.464 124.390  1.00  0.00    -0.077 C 
ATOM      3  C   UNL     1     112.095 116.824 125.412  1.00  0.00    -0.024 C 
ATOM      4  C   UNL     1     110.635 116.437 125.373  1.00  0.00     0.021 C 
ATOM      5  C   UNL     1     109.766 117.028 126.517  1.00  0.00    -0.001 C 
ATOM      6  C   UNL     1     109.521 118.534 126.319  1.00  0.00     0.007 C 
ATOM      7  C   UNL     1     108.875 118.807 124.954  1.00  0.00     0.035 C 
ATOM      8  C   UNL     1     109.708 118.286 123.755  1.00  0.00     0.065 C 
ATOM      9  C   UNL     1     110.049 116.761 123.966  1.00  0.00     0.028 C 
ATOM     10  C   UNL     1     110.927 116.138 122.822  1.00  0.00     0.011 C 
ATOM     11  C   UNL     1     112.308 115.617 123.280  1.00  0.00     0.031 C 
ATOM     12  C   UNL     1     110.956 119.195 123.572  1.00  0.00     0.042 C 
ENDROOT
BRANCH   5  13
ATOM     13  C   UNL     1     110.268 116.622 127.954  1.00  0.00    -0.014 C 
ATOM     14  C   UNL     1     110.879 117.770 128.783  1.00  0.00     0.007 C 
ATOM     15  C   UNL     1     109.136 115.971 128.765  1.00  0.00     0.007 C 
ENDBRANCH   5  13
BRANCH   8  16
ATOM     16  O   UNL     1     108.875 118.416 122.623  1.00  0.00    -0.390 OA
ATOM     17  H   UNL     1     109.342 118.958 121.936  1.00  0.00     0.211 HD
ENDBRANCH   8  16
TORSDOF 2
ENDMDL
MODEL 6
REMARK VINA RESULT:    -5.466      1.661      3.622
REMARK INTER + INTRA:          -6.127
REMARK INTER:                  -5.868
REMARK INTRA:                  -0.258
REMARK UNBOUND:                -0.181
REMARK SMILES CC1=C[C@H]2[C@@H](C(C)C)CC[C@](C)(O)[C@H]2CC1
REMARK SMILES IDX 1 1 2 2 3 3 4 4 5 5 9 6 10 7 11 8 14 9 15 10 16 11 12 12
REMARK SMILES IDX 6 13 7 14 8 15 13 16
REMARK H PARENT 13 17
REMARK Flexibility Score: inf
ROOT
ATOM      1  C   UNL     1     111.799 121.398 127.558  1.00  0.00     0.039 C 
ATOM      2  C   UNL     1     112.233 119.966 127.405  1.00  0.00    -0.077 C 
ATOM      3  C   UNL     1     111.647 119.003 128.134  1.00  0.00    -0.024 C 
ATOM      4  C   UNL     1     112.028 117.563 127.885  1.00  0.00     0.021 C 
ATOM      5  C   UNL     1     111.190 116.513 128.664  1.00  0.00    -0.001 C 
ATOM      6  C   UNL     1     109.769 116.386 128.088  1.00  0.00     0.007 C 
ATOM      7  C   UNL     1     109.815 116.040 126.594  1.00  0.00     0.035 C 
ATOM      8  C   UNL     1     110.597 117.068 125.739  1.00  0.00     0.065 C 
ATOM      9  C   UNL     1     112.034 117.286 126.351  1.00  0.00     0.028 C 
ATOM     10  C   UNL     1     112.904 118.343 125.581  1.00  0.00     0.011 C 
ATOM     11  C   UNL     1     113.310 119.577 126.417  1.00  0.00     0.031 C 
ATOM     12  C   UNL     1     109.757 118.371 125.618  1.00  0.00     0.042 C 
ENDROOT
BRANCH   5  13
ATOM     13  C   UNL     1     111.257 116.697 130.227  1.00  0.00    -0.014 C 
ATOM     14  C   UNL     1     109.923 117.079 130.900  1.00  0.00     0.007 C 
ATOM     15  C   UNL     1     111.812 115.434 130.904  1.00  0.00     0.007 C 
ENDBRANCH   5  13
BRANCH   8  16
ATOM     16  O   UNL     1     110.728 116.486 124.460  1.00  0.00    -0.390 OA
ATOM     17  H   UNL     1     110.479 115.528 124.511  1.00  0.00     0.211 HD
ENDBRANCH   8  16
TORSDOF 2
ENDMDL
MODEL 7
REMARK VINA RESULT:    -5.463      2.293      4.729
REMARK INTER + INTRA:          -6.123
REMARK INTER:                  -5.879
REMARK INTRA:                  -0.244
REMARK UNBOUND:                -0.181
REMARK SMILES CC1=C[C@H]2[C@@H](C(C)C)CC[C@](C)(O)[C@H]2CC1
REMARK SMILES IDX 1 1 2 2 3 3 4 4 5 5 9 6 10 7 11 8 14 9 15 10 16 11 12 12
REMARK SMILES IDX 6 13 7 14 8 15 13 16
REMARK H PARENT 13 17
REMARK Flexibility Score: inf
ROOT
ATOM      1  C   UNL     1     114.993 115.458 128.230  1.00  0.00     0.039 C 
ATOM      2  C   UNL     1     113.915 116.504 128.142  1.00  0.00    -0.077 C 
ATOM      3  C   UNL     1     112.787 116.253 127.458  1.00  0.00    -0.024 C 
ATOM      4  C   UNL     1     111.680 117.280 127.475  1.00  0.00     0.021 C 
ATOM      5  C   UNL     1     110.359 116.838 126.786  1.00  0.00    -0.001 C 
ATOM      6  C   UNL     1     109.603 115.799 127.633  1.00  0.00     0.007 C 
ATOM      7  C   UNL     1     109.324 116.340 129.041  1.00  0.00     0.035 C 
ATOM      8  C   UNL     1     110.599 116.762 129.812  1.00  0.00     0.065 C 
ATOM      9  C   UNL     1     111.444 117.766 128.937  1.00  0.00     0.028 C 
ATOM     10  C   UNL     1     112.784 118.230 129.610  1.00  0.00     0.011 C 
ATOM     11  C   UNL     1     114.064 117.839 128.837  1.00  0.00     0.031 C 
ATOM     12  C   UNL     1     111.378 115.485 130.239  1.00  0.00     0.042 C 
ENDROOT
BRANCH   5  13
ATOM     13  C   UNL     1     110.545 116.449 125.272  1.00  0.00    -0.014 C 
ATOM     14  C   UNL     1     110.431 114.942 124.963  1.00  0.00     0.007 C 
ATOM     15  C   UNL     1     109.552 117.216 124.384  1.00  0.00     0.007 C 
ENDBRANCH   5  13
BRANCH   8  16
ATOM     16  O   UNL     1     110.147 117.432 130.969  1.00  0.00    -0.390 OA
ATOM     17  H   UNL     1     110.872 117.439 131.645  1.00  0.00     0.211 HD
ENDBRANCH   8  16
TORSDOF 2
ENDMDL
MODEL 8
REMARK VINA RESULT:    -5.348      2.000      4.917
REMARK INTER + INTRA:          -5.997
REMARK INTER:                  -5.733
REMARK INTRA:                  -0.265
REMARK UNBOUND:                -0.181
REMARK SMILES CC1=C[C@H]2[C@@H](C(C)C)CC[C@](C)(O)[C@H]2CC1
REMARK SMILES IDX 1 1 2 2 3 3 4 4 5 5 9 6 10 7 11 8 14 9 15 10 16 11 12 12
REMARK SMILES IDX 6 13 7 14 8 15 13 16
REMARK H PARENT 13 17
REMARK Flexibility Score: inf
ROOT
ATOM      1  C   UNL     1     114.217 120.047 125.488  1.00  0.00     0.039 C 
ATOM      2  C   UNL     1     112.742 120.126 125.773  1.00  0.00    -0.077 C 
ATOM      3  C   UNL     1     111.897 119.255 125.198  1.00  0.00    -0.024 C 
ATOM      4  C   UNL     1     110.437 119.292 125.583  1.00  0.00     0.021 C 
ATOM      5  C   UNL     1     109.568 118.151 124.987  1.00  0.00    -0.001 C 
ATOM      6  C   UNL     1     109.862 116.803 125.669  1.00  0.00     0.007 C 
ATOM      7  C   UNL     1     109.656 116.903 127.186  1.00  0.00     0.035 C 
ATOM      8  C   UNL     1     110.525 117.991 127.863  1.00  0.00     0.065 C 
ATOM      9  C   UNL     1     110.311 119.374 127.135  1.00  0.00     0.028 C 
ATOM     10  C   UNL     1     111.178 120.546 127.719  1.00  0.00     0.011 C 
ATOM     11  C   UNL     1     112.185 121.163 126.723  1.00  0.00     0.031 C 
ATOM     12  C   UNL     1     112.004 117.513 127.893  1.00  0.00     0.042 C 
ENDROOT
BRANCH   5  13
ATOM     13  C   UNL     1     109.584 118.114 123.413  1.00  0.00    -0.014 C 
ATOM     14  C   UNL     1     108.962 116.853 122.781  1.00  0.00     0.007 C 
ATOM     15  C   UNL     1     108.891 119.357 122.829  1.00  0.00     0.007 C 
ENDBRANCH   5  13
BRANCH   8  16
ATOM     16  O   UNL     1     110.050 118.095 129.189  1.00  0.00    -0.390 OA
ATOM     17  H   UNL     1     109.750 117.202 129.498  1.00  0.00     0.211 HD
ENDBRANCH   8  16
TORSDOF 2
ENDMDL
MODEL 9
REMARK VINA RESULT:    -5.264      4.050      6.170
REMARK INTER + INTRA:          -5.906
REMARK INTER:                  -5.651
REMARK INTRA:                  -0.256
REMARK UNBOUND:                -0.181
REMARK SMILES CC1=C[C@H]2[C@@H](C(C)C)CC[C@](C)(O)[C@H]2CC1
REMARK SMILES IDX 1 1 2 2 3 3 4 4 5 5 9 6 10 7 11 8 14 9 15 10 16 11 12 12
REMARK SMILES IDX 6 13 7 14 8 15 13 16
REMARK H PARENT 13 17
REMARK Flexibility Score: inf
ROOT
ATOM      1  C   UNL     1     116.527 118.984 125.390  1.00  0.00     0.039 C 
ATOM      2  C   UNL     1     115.572 119.605 124.407  1.00  0.00    -0.077 C 
ATOM      3  C   UNL     1     114.342 119.971 124.803  1.00  0.00    -0.024 C 
ATOM      4  C   UNL     1     113.443 120.686 123.822  1.00  0.00     0.021 C 
ATOM      5  C   UNL     1     112.103 121.205 124.413  1.00  0.00    -0.001 C 
ATOM      6  C   UNL     1     112.324 122.428 125.322  1.00  0.00     0.007 C 
ATOM      7  C   UNL     1     113.052 123.546 124.564  1.00  0.00     0.035 C 
ATOM      8  C   UNL     1     114.421 123.118 123.982  1.00  0.00     0.065 C 
ATOM      9  C   UNL     1     114.246 121.816 123.109  1.00  0.00     0.028 C 
ATOM     10  C   UNL     1     115.586 121.269 122.499  1.00  0.00     0.011 C 
ATOM     11  C   UNL     1     115.979 119.852 122.972  1.00  0.00     0.031 C 
ATOM     12  C   UNL     1     115.442 122.967 125.146  1.00  0.00     0.042 C 
ENDROOT
BRANCH   5  13
ATOM     13  C   UNL     1     111.215 120.066 125.040  1.00  0.00    -0.014 C 
ATOM     14  C   UNL     1     111.049 120.133 126.572  1.00  0.00     0.007 C 
ATOM     15  C   UNL     1     109.823 120.037 124.389  1.00  0.00     0.007 C 
ENDBRANCH   5  13
BRANCH   8  16
ATOM     16  O   UNL     1     114.833 124.177 123.145  1.00  0.00    -0.390 OA
ATOM     17  H   UNL     1     115.773 124.412 123.355  1.00  0.00     0.211 HD
ENDBRANCH   8  16
TORSDOF 2
ENDMDL
