MODEL 1
REMARK VINA RESULT:    -5.891      0.000      0.000
REMARK INTER + INTRA:         -10.529
REMARK INTER:                  -7.957
REMARK INTRA:                  -2.572
REMARK UNBOUND:                -2.572
REMARK SMILES CC[C@@H](CC[C@@H](C)[C@H]1CC[C@@H]2[C@@H]3CC(=O)C4=CC(=O)CC[C@]4(C)[C@H]3CC[C@@]21C)C(C)C
REMARK SMILES IDX 4 1 3 2 2 3 1 4 29 5 30 6 31 7 5 8 6 9 7 10 8 11 9 12 27 13
REMARK SMILES IDX 10 14 11 15 26 16 28 17 12 18 25 19 24 20 13 21 22 22 14 23
REMARK SMILES IDX 16 24 21 25 23 26 15 27 17 28 20 29 18 30 19 31
REMARK H PARENT
REMARK Flexibility Score: inf
ROOT
ATOM      1  C   UNL     1      39.799  52.525  24.633  1.00  0.00     0.004 C 
ENDROOT
BRANCH   1   2
ATOM      2  C   UNL     1      38.847  53.750  24.805  1.00  0.00    -0.009 C 
BRANCH   2   3
ATOM      3  C   UNL     1      37.368  53.240  24.818  1.00  0.00     0.000 C 
ATOM      4  C   UNL     1      36.750  53.347  26.211  1.00  0.00     0.004 C 
ENDBRANCH   2   3
BRANCH   2   5
ATOM      5  C   UNL     1      39.067  54.840  23.693  1.00  0.00    -0.014 C 
ATOM      6  C   UNL     1      39.064  56.266  24.276  1.00  0.00     0.007 C 
ATOM      7  C   UNL     1      40.397  54.641  22.926  1.00  0.00     0.007 C 
ENDBRANCH   2   5
ENDBRANCH   1   2
BRANCH   1   8
ATOM      8  C   UNL     1      40.541  52.065  25.925  1.00  0.00     0.004 C 
BRANCH   8   9
ATOM      9  C   UNL     1      40.440  53.030  27.152  1.00  0.00    -0.011 C 
ATOM     10  C   UNL     1      39.774  52.281  28.333  1.00  0.00     0.008 C 
BRANCH   9  11
ATOM     11  C   UNL     1      41.779  53.747  27.588  1.00  0.00    -0.002 C 
ATOM     12  C   UNL     1      43.018  53.260  26.787  1.00  0.00     0.005 C 
ATOM     13  C   UNL     1      41.856  55.311  27.397  1.00  0.00    -0.026 C 
ATOM     14  C   UNL     1      43.159  54.200  25.595  1.00  0.00     0.005 C 
ATOM     15  C   UNL     1      42.361  55.465  25.923  1.00  0.00    -0.001 C 
ATOM     16  C   UNL     1      42.872  55.870  28.472  1.00  0.00     0.007 C 
ATOM     17  C   UNL     1      40.506  56.053  27.564  1.00  0.00     0.012 C 
ATOM     18  C   UNL     1      43.141  56.777  25.648  1.00  0.00     0.004 C 
ATOM     19  C   UNL     1      43.584  57.170  28.075  1.00  0.00     0.005 C 
ATOM     20  C   UNL     1      44.269  56.949  26.713  1.00  0.00     0.003 C 
ATOM     21  C   UNL     1      43.565  56.915  24.148  1.00  0.00     0.085 C 
ATOM     22  C   UNL     1      45.341  58.012  26.314  1.00  0.00    -0.000 C 
ATOM     23  C   UNL     1      45.011  57.250  23.891  1.00  0.00     0.159 C 
ATOM     24  C   UNL     1      45.940  57.476  25.015  1.00  0.00     0.005 C 
ATOM     25  C   UNL     1      46.477  58.203  27.377  1.00  0.00     0.020 C 
ATOM     26  C   UNL     1      44.711  59.408  26.078  1.00  0.00     0.017 C 
ATOM     27  O   UNL     1      45.438  57.275  22.704  1.00  0.00    -0.295 OA
ATOM     28  C   UNL     1      47.104  56.789  25.010  1.00  0.00     0.055 C 
ATOM     29  C   UNL     1      47.303  56.937  27.583  1.00  0.00     0.081 C 
ATOM     30  C   UNL     1      47.788  56.409  26.261  1.00  0.00     0.156 C 
ATOM     31  O   UNL     1      48.590  55.437  26.249  1.00  0.00    -0.295 OA
ENDBRANCH   9  11
ENDBRANCH   8   9
ENDBRANCH   1   8
TORSDOF 6
ENDMDL
MODEL 2
REMARK VINA RESULT:    -5.606      0.669      1.596
REMARK INTER + INTRA:         -10.144
REMARK INTER:                  -8.311
REMARK INTRA:                  -1.833
REMARK UNBOUND:                -2.572
REMARK SMILES CC[C@@H](CC[C@@H](C)[C@H]1CC[C@@H]2[C@@H]3CC(=O)C4=CC(=O)CC[C@]4(C)[C@H]3CC[C@@]21C)C(C)C
REMARK SMILES IDX 4 1 3 2 2 3 1 4 29 5 30 6 31 7 5 8 6 9 7 10 8 11 9 12 27 13
REMARK SMILES IDX 10 14 11 15 26 16 28 17 12 18 25 19 24 20 13 21 22 22 14 23
REMARK SMILES IDX 16 24 21 25 23 26 15 27 17 28 20 29 18 30 19 31
REMARK H PARENT
REMARK Flexibility Score: inf
ROOT
ATOM      1  C   UNL     1      38.695  52.694  25.506  1.00  0.00     0.004 C 
ENDROOT
BRANCH   1   2
ATOM      2  C   UNL     1      38.113  53.871  24.662  1.00  0.00    -0.009 C 
BRANCH   2   3
ATOM      3  C   UNL     1      39.290  54.796  24.206  1.00  0.00     0.000 C 
ATOM      4  C   UNL     1      38.983  56.268  24.477  1.00  0.00     0.004 C 
ENDBRANCH   2   3
BRANCH   2   5
ATOM      5  C   UNL     1      37.017  54.684  25.446  1.00  0.00    -0.014 C 
ATOM      6  C   UNL     1      35.657  54.661  24.724  1.00  0.00     0.007 C 
ATOM      7  C   UNL     1      36.803  54.152  26.884  1.00  0.00     0.007 C 
ENDBRANCH   2   5
ENDBRANCH   1   2
BRANCH   1   8
ATOM      8  C   UNL     1      40.172  52.872  25.975  1.00  0.00     0.004 C 
BRANCH   8   9
ATOM      9  C   UNL     1      40.366  53.393  27.437  1.00  0.00    -0.011 C 
ATOM     10  C   UNL     1      39.978  52.271  28.432  1.00  0.00     0.008 C 
BRANCH   9  11
ATOM     11  C   UNL     1      41.779  54.017  27.774  1.00  0.00    -0.002 C 
ATOM     12  C   UNL     1      42.929  53.411  26.922  1.00  0.00     0.005 C 
ATOM     13  C   UNL     1      41.963  55.563  27.526  1.00  0.00    -0.026 C 
ATOM     14  C   UNL     1      43.072  54.303  25.693  1.00  0.00     0.005 C 
ATOM     15  C   UNL     1      42.392  55.635  26.022  1.00  0.00    -0.001 C 
ATOM     16  C   UNL     1      43.079  56.072  28.524  1.00  0.00     0.007 C 
ATOM     17  C   UNL     1      40.685  56.413  27.743  1.00  0.00     0.012 C 
ATOM     18  C   UNL     1      43.253  56.874  25.661  1.00  0.00     0.004 C 
ATOM     19  C   UNL     1      43.864  57.301  28.045  1.00  0.00     0.005 C 
ATOM     20  C   UNL     1      44.450  56.988  26.655  1.00  0.00     0.003 C 
ATOM     21  C   UNL     1      43.598  56.935  24.136  1.00  0.00     0.085 C 
ATOM     22  C   UNL     1      45.575  57.953  26.162  1.00  0.00    -0.000 C 
ATOM     23  C   UNL     1      45.048  57.149  23.788  1.00  0.00     0.159 C 
ATOM     24  C   UNL     1      46.055  57.334  24.850  1.00  0.00     0.005 C 
ATOM     25  C   UNL     1      46.781  58.086  27.153  1.00  0.00     0.020 C 
ATOM     26  C   UNL     1      45.039  59.386  25.914  1.00  0.00     0.017 C 
ATOM     27  O   UNL     1      45.406  57.106  22.579  1.00  0.00    -0.295 OA
ATOM     28  C   UNL     1      47.161  56.560  24.804  1.00  0.00     0.055 C 
ATOM     29  C   UNL     1      47.520  56.765  27.355  1.00  0.00     0.081 C 
ATOM     30  C   UNL     1      47.886  56.164  26.027  1.00  0.00     0.156 C 
ATOM     31  O   UNL     1      48.610  55.133  26.003  1.00  0.00    -0.295 OA
ENDBRANCH   9  11
ENDBRANCH   8   9
ENDBRANCH   1   8
TORSDOF 6
ENDMDL
MODEL 3
REMARK VINA RESULT:    -4.922      1.754      3.359
REMARK INTER + INTRA:          -9.221
REMARK INTER:                  -7.724
REMARK INTRA:                  -1.496
REMARK UNBOUND:                -2.572
REMARK SMILES CC[C@@H](CC[C@@H](C)[C@H]1CC[C@@H]2[C@@H]3CC(=O)C4=CC(=O)CC[C@]4(C)[C@H]3CC[C@@]21C)C(C)C
REMARK SMILES IDX 4 1 3 2 2 3 1 4 29 5 30 6 31 7 5 8 6 9 7 10 8 11 9 12 27 13
REMARK SMILES IDX 10 14 11 15 26 16 28 17 12 18 25 19 24 20 13 21 22 22 14 23
REMARK SMILES IDX 16 24 21 25 23 26 15 27 17 28 20 29 18 30 19 31
REMARK H PARENT
REMARK Flexibility Score: inf
ROOT
ATOM      1  C   UNL     1      36.741  53.786  26.169  1.00  0.00     0.004 C 
ENDROOT
BRANCH   1   2
ATOM      2  C   UNL     1      36.563  54.565  24.828  1.00  0.00    -0.009 C 
BRANCH   2   3
ATOM      3  C   UNL     1      35.048  54.911  24.643  1.00  0.00     0.000 C 
ATOM      4  C   UNL     1      34.826  55.831  23.444  1.00  0.00     0.004 C 
ENDBRANCH   2   3
BRANCH   2   5
ATOM      5  C   UNL     1      37.123  53.766  23.594  1.00  0.00    -0.014 C 
ATOM      6  C   UNL     1      38.162  54.582  22.803  1.00  0.00     0.007 C 
ATOM      7  C   UNL     1      37.780  52.427  24.005  1.00  0.00     0.007 C 
ENDBRANCH   2   5
ENDBRANCH   1   2
BRANCH   1   8
ATOM      8  C   UNL     1      37.778  54.392  27.164  1.00  0.00     0.004 C 
BRANCH   8   9
ATOM      9  C   UNL     1      39.048  53.522  27.442  1.00  0.00    -0.011 C 
ATOM     10  C   UNL     1      38.627  52.038  27.578  1.00  0.00     0.008 C 
BRANCH   9  11
ATOM     11  C   UNL     1      40.252  53.705  26.434  1.00  0.00    -0.002 C 
ATOM     12  C   UNL     1      40.264  55.098  25.747  1.00  0.00     0.005 C 
ATOM     13  C   UNL     1      41.711  53.617  27.028  1.00  0.00    -0.026 C 
ATOM     14  C   UNL     1      41.137  55.999  26.613  1.00  0.00     0.005 C 
ATOM     15  C   UNL     1      41.995  55.085  27.492  1.00  0.00    -0.001 C 
ATOM     16  C   UNL     1      42.665  53.126  25.868  1.00  0.00     0.007 C 
ATOM     17  C   UNL     1      41.865  52.653  28.232  1.00  0.00     0.012 C 
ATOM     18  C   UNL     1      43.498  55.472  27.504  1.00  0.00     0.004 C 
ATOM     19  C   UNL     1      44.125  53.583  25.994  1.00  0.00     0.005 C 
ATOM     20  C   UNL     1      44.141  55.117  26.127  1.00  0.00     0.003 C 
ATOM     21  C   UNL     1      43.735  56.923  28.037  1.00  0.00     0.085 C 
ATOM     22  C   UNL     1      45.526  55.803  25.896  1.00  0.00    -0.000 C 
ATOM     23  C   UNL     1      44.604  57.813  27.188  1.00  0.00     0.159 C 
ATOM     24  C   UNL     1      45.221  57.299  25.950  1.00  0.00     0.005 C 
ATOM     25  C   UNL     1      46.190  55.451  24.521  1.00  0.00     0.020 C 
ATOM     26  C   UNL     1      46.549  55.424  26.997  1.00  0.00     0.017 C 
ATOM     27  O   UNL     1      44.750  59.024  27.511  1.00  0.00    -0.295 OA
ATOM     28  C   UNL     1      45.050  58.021  24.821  1.00  0.00     0.055 C 
ATOM     29  C   UNL     1      45.362  55.932  23.332  1.00  0.00     0.081 C 
ATOM     30  C   UNL     1      45.019  57.387  23.489  1.00  0.00     0.156 C 
ATOM     31  O   UNL     1      44.443  57.984  22.541  1.00  0.00    -0.295 OA
ENDBRANCH   9  11
ENDBRANCH   8   9
ENDBRANCH   1   8
TORSDOF 6
ENDMDL
MODEL 4
REMARK VINA RESULT:    -4.858      1.844      4.023
REMARK INTER + INTRA:          -9.134
REMARK INTER:                  -7.317
REMARK INTRA:                  -1.817
REMARK UNBOUND:                -2.572
REMARK SMILES CC[C@@H](CC[C@@H](C)[C@H]1CC[C@@H]2[C@@H]3CC(=O)C4=CC(=O)CC[C@]4(C)[C@H]3CC[C@@]21C)C(C)C
REMARK SMILES IDX 4 1 3 2 2 3 1 4 29 5 30 6 31 7 5 8 6 9 7 10 8 11 9 12 27 13
REMARK SMILES IDX 10 14 11 15 26 16 28 17 12 18 25 19 24 20 13 21 22 22 14 23
REMARK SMILES IDX 16 24 21 25 23 26 15 27 17 28 20 29 18 30 19 31
REMARK H PARENT
REMARK Flexibility Score: inf
ROOT
ATOM      1  C   UNL     1      38.063  55.154  25.604  1.00  0.00     0.004 C 
ENDROOT
BRANCH   1   2
ATOM      2  C   UNL     1      38.032  53.645  26.002  1.00  0.00    -0.009 C 
BRANCH   2   3
ATOM      3  C   UNL     1      36.559  53.244  26.343  1.00  0.00     0.000 C 
ATOM      4  C   UNL     1      35.615  54.442  26.249  1.00  0.00     0.004 C 
ENDBRANCH   2   3
BRANCH   2   5
ATOM      5  C   UNL     1      39.004  53.322  27.195  1.00  0.00    -0.014 C 
ATOM      6  C   UNL     1      38.273  52.631  28.362  1.00  0.00     0.007 C 
ATOM      7  C   UNL     1      40.184  52.416  26.767  1.00  0.00     0.007 C 
ENDBRANCH   2   5
ENDBRANCH   1   2
BRANCH   1   8
ATOM      8  C   UNL     1      38.248  55.443  24.083  1.00  0.00     0.004 C 
BRANCH   8   9
ATOM      9  C   UNL     1      39.360  54.613  23.360  1.00  0.00    -0.011 C 
ATOM     10  C   UNL     1      38.815  54.110  22.000  1.00  0.00     0.008 C 
BRANCH   9  11
ATOM     11  C   UNL     1      40.768  55.316  23.208  1.00  0.00    -0.002 C 
ATOM     12  C   UNL     1      40.824  56.716  23.880  1.00  0.00     0.005 C 
ATOM     13  C   UNL     1      42.011  54.591  23.852  1.00  0.00    -0.026 C 
ATOM     14  C   UNL     1      41.333  56.493  25.300  1.00  0.00     0.005 C 
ATOM     15  C   UNL     1      42.008  55.120  25.326  1.00  0.00    -0.001 C 
ATOM     16  C   UNL     1      43.290  55.024  23.030  1.00  0.00     0.007 C 
ATOM     17  C   UNL     1      41.930  53.043  23.855  1.00  0.00     0.012 C 
ATOM     18  C   UNL     1      43.404  55.129  26.004  1.00  0.00     0.004 C 
ATOM     19  C   UNL     1      44.606  54.997  23.819  1.00  0.00     0.005 C 
ATOM     20  C   UNL     1      44.429  55.860  25.082  1.00  0.00     0.003 C 
ATOM     21  C   UNL     1      43.338  55.602  27.494  1.00  0.00     0.085 C 
ATOM     22  C   UNL     1      45.747  56.261  25.819  1.00  0.00    -0.000 C 
ATOM     23  C   UNL     1      44.309  56.679  27.896  1.00  0.00     0.159 C 
ATOM     24  C   UNL     1      45.288  57.207  26.927  1.00  0.00     0.005 C 
ATOM     25  C   UNL     1      46.792  56.989  24.905  1.00  0.00     0.020 C 
ATOM     26  C   UNL     1      46.466  55.030  26.428  1.00  0.00     0.017 C 
ATOM     27  O   UNL     1      44.239  57.174  29.055  1.00  0.00    -0.295 OA
ATOM     28  C   UNL     1      45.358  58.549  26.777  1.00  0.00     0.055 C 
ATOM     29  C   UNL     1      46.273  58.321  24.371  1.00  0.00     0.081 C 
ATOM     30  C   UNL     1      45.754  59.170  25.499  1.00  0.00     0.156 C 
ATOM     31  O   UNL     1      45.400  60.354  25.258  1.00  0.00    -0.295 OA
ENDBRANCH   9  11
ENDBRANCH   8   9
ENDBRANCH   1   8
TORSDOF 6
ENDMDL
MODEL 5
REMARK VINA RESULT:    -4.779      1.980      3.628
REMARK INTER + INTRA:          -9.027
REMARK INTER:                  -7.332
REMARK INTRA:                  -1.696
REMARK UNBOUND:                -2.572
REMARK SMILES CC[C@@H](CC[C@@H](C)[C@H]1CC[C@@H]2[C@@H]3CC(=O)C4=CC(=O)CC[C@]4(C)[C@H]3CC[C@@]21C)C(C)C
REMARK SMILES IDX 4 1 3 2 2 3 1 4 29 5 30 6 31 7 5 8 6 9 7 10 8 11 9 12 27 13
REMARK SMILES IDX 10 14 11 15 26 16 28 17 12 18 25 19 24 20 13 21 22 22 14 23
REMARK SMILES IDX 16 24 21 25 23 26 15 27 17 28 20 29 18 30 19 31
REMARK H PARENT
REMARK Flexibility Score: inf
ROOT
ATOM      1  C   UNL     1      38.455  55.579  25.286  1.00  0.00     0.004 C 
ENDROOT
BRANCH   1   2
ATOM      2  C   UNL     1      38.036  56.312  23.973  1.00  0.00    -0.009 C 
BRANCH   2   3
ATOM      3  C   UNL     1      37.546  55.248  22.936  1.00  0.00     0.000 C 
ATOM      4  C   UNL     1      36.826  54.088  23.621  1.00  0.00     0.004 C 
ENDBRANCH   2   3
BRANCH   2   5
ATOM      5  C   UNL     1      39.199  57.193  23.384  1.00  0.00    -0.014 C 
ATOM      6  C   UNL     1      39.865  56.526  22.166  1.00  0.00     0.007 C 
ATOM      7  C   UNL     1      38.714  58.598  22.953  1.00  0.00     0.007 C 
ENDBRANCH   2   5
ENDBRANCH   1   2
BRANCH   1   8
ATOM      8  C   UNL     1      39.898  55.882  25.793  1.00  0.00     0.004 C 
BRANCH   8   9
ATOM      9  C   UNL     1      40.924  54.708  25.677  1.00  0.00    -0.011 C 
ATOM     10  C   UNL     1      40.221  53.479  25.050  1.00  0.00     0.008 C 
BRANCH   9  11
ATOM     11  C   UNL     1      42.288  55.042  24.950  1.00  0.00    -0.002 C 
ATOM     12  C   UNL     1      42.523  56.568  24.772  1.00  0.00     0.005 C 
ATOM     13  C   UNL     1      43.618  54.584  25.663  1.00  0.00    -0.026 C 
ATOM     14  C   UNL     1      43.313  57.028  25.992  1.00  0.00     0.005 C 
ATOM     15  C   UNL     1      43.940  55.780  26.620  1.00  0.00    -0.001 C 
ATOM     16  C   UNL     1      44.707  54.366  24.537  1.00  0.00     0.007 C 
ATOM     17  C   UNL     1      43.496  53.277  26.488  1.00  0.00     0.012 C 
ATOM     18  C   UNL     1      45.446  55.945  26.952  1.00  0.00     0.004 C 
ATOM     19  C   UNL     1      46.158  54.567  24.994  1.00  0.00     0.005 C 
ATOM     20  C   UNL     1      46.275  55.965  25.630  1.00  0.00     0.003 C 
ATOM     21  C   UNL     1      45.709  57.111  27.962  1.00  0.00     0.085 C 
ATOM     22  C   UNL     1      47.729  56.503  25.818  1.00  0.00    -0.000 C 
ATOM     23  C   UNL     1      46.773  58.103  27.575  1.00  0.00     0.159 C 
ATOM     24  C   UNL     1      47.541  57.931  26.326  1.00  0.00     0.005 C 
ATOM     25  C   UNL     1      48.579  56.521  24.502  1.00  0.00     0.020 C 
ATOM     26  C   UNL     1      48.526  55.667  26.852  1.00  0.00     0.017 C 
ATOM     27  O   UNL     1      46.962  59.120  28.297  1.00  0.00    -0.295 OA
ATOM     28  C   UNL     1      47.616  58.989  25.489  1.00  0.00     0.055 C 
ATOM     29  C   UNL     1      47.997  57.456  23.444  1.00  0.00     0.081 C 
ATOM     30  C   UNL     1      47.751  58.819  24.029  1.00  0.00     0.156 C 
ATOM     31  O   UNL     1      47.388  59.753  23.267  1.00  0.00    -0.295 OA
ENDBRANCH   9  11
ENDBRANCH   8   9
ENDBRANCH   1   8
TORSDOF 6
ENDMDL
MODEL 6
REMARK VINA RESULT:    -4.762      2.838      7.577
REMARK INTER + INTRA:          -9.005
REMARK INTER:                  -7.726
REMARK INTRA:                  -1.279
REMARK UNBOUND:                -2.572
REMARK SMILES CC[C@@H](CC[C@@H](C)[C@H]1CC[C@@H]2[C@@H]3CC(=O)C4=CC(=O)CC[C@]4(C)[C@H]3CC[C@@]21C)C(C)C
REMARK SMILES IDX 4 1 3 2 2 3 1 4 29 5 30 6 31 7 5 8 6 9 7 10 8 11 9 12 27 13
REMARK SMILES IDX 10 14 11 15 26 16 28 17 12 18 25 19 24 20 13 21 22 22 14 23
REMARK SMILES IDX 16 24 21 25 23 26 15 27 17 28 20 29 18 30 19 31
REMARK H PARENT
REMARK Flexibility Score: inf
ROOT
ATOM      1  C   UNL     1      46.516  56.109  27.147  1.00  0.00     0.004 C 
ENDROOT
BRANCH   1   2
ATOM      2  C   UNL     1      46.302  57.531  27.754  1.00  0.00    -0.009 C 
BRANCH   2   3
ATOM      3  C   UNL     1      44.766  57.829  27.811  1.00  0.00     0.000 C 
ATOM      4  C   UNL     1      44.126  57.235  29.065  1.00  0.00     0.004 C 
ENDBRANCH   2   3
BRANCH   2   5
ATOM      5  C   UNL     1      47.071  58.645  26.954  1.00  0.00    -0.014 C 
ATOM      6  C   UNL     1      48.433  58.144  26.435  1.00  0.00     0.007 C 
ATOM      7  C   UNL     1      46.262  59.168  25.743  1.00  0.00     0.007 C 
ENDBRANCH   2   5
ENDBRANCH   1   2
BRANCH   1   8
ATOM      8  C   UNL     1      45.544  55.719  25.992  1.00  0.00     0.004 C 
BRANCH   8   9
ATOM      9  C   UNL     1      45.448  54.192  25.666  1.00  0.00    -0.011 C 
ATOM     10  C   UNL     1      46.606  53.448  26.375  1.00  0.00     0.008 C 
BRANCH   9  11
ATOM     11  C   UNL     1      44.050  53.506  25.940  1.00  0.00    -0.002 C 
ATOM     12  C   UNL     1      43.115  54.368  26.833  1.00  0.00     0.005 C 
ATOM     13  C   UNL     1      43.134  53.209  24.691  1.00  0.00    -0.026 C 
ATOM     14  C   UNL     1      42.269  55.211  25.885  1.00  0.00     0.005 C 
ATOM     15  C   UNL     1      42.339  54.546  24.507  1.00  0.00    -0.001 C 
ATOM     16  C   UNL     1      42.216  51.976  25.060  1.00  0.00     0.007 C 
ATOM     17  C   UNL     1      43.902  52.878  23.386  1.00  0.00     0.012 C 
ATOM     18  C   UNL     1      40.953  54.377  23.831  1.00  0.00     0.004 C 
ATOM     19  C   UNL     1      40.869  51.930  24.327  1.00  0.00     0.005 C 
ATOM     20  C   UNL     1      40.142  53.267  24.569  1.00  0.00     0.003 C 
ATOM     21  C   UNL     1      40.228  55.746  23.609  1.00  0.00     0.085 C 
ATOM     22  C   UNL     1      38.618  53.281  24.224  1.00  0.00    -0.000 C 
ATOM     23  C   UNL     1      38.803  55.832  24.086  1.00  0.00     0.159 C 
ATOM     24  C   UNL     1      38.140  54.657  24.684  1.00  0.00     0.005 C 
ATOM     25  C   UNL     1      37.790  52.166  24.950  1.00  0.00     0.020 C 
ATOM     26  C   UNL     1      38.367  53.106  22.705  1.00  0.00     0.017 C 
ATOM     27  O   UNL     1      38.197  56.937  24.028  1.00  0.00    -0.295 OA
ATOM     28  C   UNL     1      37.530  54.825  25.878  1.00  0.00     0.055 C 
ATOM     29  C   UNL     1      37.804  52.323  26.469  1.00  0.00     0.081 C 
ATOM     30  C   UNL     1      37.411  53.723  26.853  1.00  0.00     0.156 C 
ATOM     31  O   UNL     1      37.249  53.998  28.072  1.00  0.00    -0.295 OA
ENDBRANCH   9  11
ENDBRANCH   8   9
ENDBRANCH   1   8
TORSDOF 6
ENDMDL
MODEL 7
REMARK VINA RESULT:    -4.694      2.768      7.563
REMARK INTER + INTRA:          -8.913
REMARK INTER:                  -7.027
REMARK INTRA:                  -1.886
REMARK UNBOUND:                -2.572
REMARK SMILES CC[C@@H](CC[C@@H](C)[C@H]1CC[C@@H]2[C@@H]3CC(=O)C4=CC(=O)CC[C@]4(C)[C@H]3CC[C@@]21C)C(C)C
REMARK SMILES IDX 4 1 3 2 2 3 1 4 29 5 30 6 31 7 5 8 6 9 7 10 8 11 9 12 27 13
REMARK SMILES IDX 10 14 11 15 26 16 28 17 12 18 25 19 24 20 13 21 22 22 14 23
REMARK SMILES IDX 16 24 21 25 23 26 15 27 17 28 20 29 18 30 19 31
REMARK H PARENT
REMARK Flexibility Score: inf
ROOT
ATOM      1  C   UNL     1      45.453  58.472  26.665  1.00  0.00     0.004 C 
ENDROOT
BRANCH   1   2
ATOM      2  C   UNL     1      46.332  58.464  25.376  1.00  0.00    -0.009 C 
BRANCH   2   3
ATOM      3  C   UNL     1      47.597  59.352  25.623  1.00  0.00     0.000 C 
ATOM      4  C   UNL     1      48.762  58.529  26.169  1.00  0.00     0.004 C 
ENDBRANCH   2   3
BRANCH   2   5
ATOM      5  C   UNL     1      45.537  58.940  24.106  1.00  0.00    -0.014 C 
ATOM      6  C   UNL     1      46.440  59.690  23.109  1.00  0.00     0.007 C 
ATOM      7  C   UNL     1      44.867  57.766  23.353  1.00  0.00     0.007 C 
ENDBRANCH   2   5
ENDBRANCH   1   2
BRANCH   1   8
ATOM      8  C   UNL     1      45.409  57.129  27.457  1.00  0.00     0.004 C 
BRANCH   8   9
ATOM      9  C   UNL     1      45.421  55.826  26.592  1.00  0.00    -0.011 C 
ATOM     10  C   UNL     1      46.753  55.071  26.830  1.00  0.00     0.008 C 
BRANCH   9  11
ATOM     11  C   UNL     1      44.168  54.874  26.747  1.00  0.00    -0.002 C 
ATOM     12  C   UNL     1      42.973  55.555  27.470  1.00  0.00     0.005 C 
ATOM     13  C   UNL     1      43.495  54.345  25.422  1.00  0.00    -0.026 C 
ATOM     14  C   UNL     1      42.101  56.166  26.379  1.00  0.00     0.005 C 
ATOM     15  C   UNL     1      42.476  55.478  25.064  1.00  0.00    -0.001 C 
ATOM     16  C   UNL     1      42.807  52.963  25.761  1.00  0.00     0.007 C 
ATOM     17  C   UNL     1      44.472  54.131  24.238  1.00  0.00     0.012 C 
ATOM     18  C   UNL     1      41.249  54.998  24.244  1.00  0.00     0.004 C 
ATOM     19  C   UNL     1      41.600  52.609  24.882  1.00  0.00     0.005 C 
ATOM     20  C   UNL     1      40.594  53.772  24.953  1.00  0.00     0.003 C 
ATOM     21  C   UNL     1      40.296  56.176  23.854  1.00  0.00     0.085 C 
ATOM     22  C   UNL     1      39.154  53.455  24.436  1.00  0.00    -0.000 C 
ATOM     23  C   UNL     1      38.834  55.981  24.158  1.00  0.00     0.159 C 
ATOM     24  C   UNL     1      38.353  54.717  24.749  1.00  0.00     0.005 C 
ATOM     25  C   UNL     1      38.484  52.221  25.131  1.00  0.00     0.020 C 
ATOM     26  C   UNL     1      39.137  53.173  22.911  1.00  0.00     0.017 C 
ATOM     27  O   UNL     1      38.030  56.932  23.961  1.00  0.00    -0.295 OA
ATOM     28  C   UNL     1      37.577  54.800  25.852  1.00  0.00     0.055 C 
ATOM     29  C   UNL     1      38.276  52.435  26.628  1.00  0.00     0.081 C 
ATOM     30  C   UNL     1      37.562  53.736  26.875  1.00  0.00     0.156 C 
ATOM     31  O   UNL     1      37.196  54.018  28.046  1.00  0.00    -0.295 OA
ENDBRANCH   9  11
ENDBRANCH   8   9
ENDBRANCH   1   8
TORSDOF 6
ENDMDL
MODEL 8
REMARK VINA RESULT:    -4.264      1.723      3.063
REMARK INTER + INTRA:          -8.332
REMARK INTER:                  -7.147
REMARK INTRA:                  -1.185
REMARK UNBOUND:                -2.572
REMARK SMILES CC[C@@H](CC[C@@H](C)[C@H]1CC[C@@H]2[C@@H]3CC(=O)C4=CC(=O)CC[C@]4(C)[C@H]3CC[C@@]21C)C(C)C
REMARK SMILES IDX 4 1 3 2 2 3 1 4 29 5 30 6 31 7 5 8 6 9 7 10 8 11 9 12 27 13
REMARK SMILES IDX 10 14 11 15 26 16 28 17 12 18 25 19 24 20 13 21 22 22 14 23
REMARK SMILES IDX 16 24 21 25 23 26 15 27 17 28 20 29 18 30 19 31
REMARK H PARENT
REMARK Flexibility Score: inf
ROOT
ATOM      1  C   UNL     1      38.534  55.658  25.127  1.00  0.00     0.004 C 
ENDROOT
BRANCH   1   2
ATOM      2  C   UNL     1      37.955  54.590  24.147  1.00  0.00    -0.009 C 
BRANCH   2   3
ATOM      3  C   UNL     1      37.145  55.321  23.025  1.00  0.00     0.000 C 
ATOM      4  C   UNL     1      36.332  54.335  22.187  1.00  0.00     0.004 C 
ENDBRANCH   2   3
BRANCH   2   5
ATOM      5  C   UNL     1      37.071  53.518  24.885  1.00  0.00    -0.014 C 
ATOM      6  C   UNL     1      37.870  52.245  25.221  1.00  0.00     0.007 C 
ATOM      7  C   UNL     1      36.461  54.060  26.200  1.00  0.00     0.007 C 
ENDBRANCH   2   5
ENDBRANCH   1   2
BRANCH   1   8
ATOM      8  C   UNL     1      40.070  55.904  25.019  1.00  0.00     0.004 C 
BRANCH   8   9
ATOM      9  C   UNL     1      40.904  55.593  26.305  1.00  0.00    -0.011 C 
ATOM     10  C   UNL     1      40.177  54.503  27.131  1.00  0.00     0.008 C 
BRANCH   9  11
ATOM     11  C   UNL     1      42.430  55.244  26.081  1.00  0.00    -0.002 C 
ATOM     12  C   UNL     1      42.870  55.373  24.596  1.00  0.00     0.005 C 
ATOM     13  C   UNL     1      43.493  56.143  26.821  1.00  0.00    -0.026 C 
ATOM     14  C   UNL     1      43.396  56.794  24.424  1.00  0.00     0.005 C 
ATOM     15  C   UNL     1      43.712  57.330  25.823  1.00  0.00    -0.001 C 
ATOM     16  C   UNL     1      44.786  55.260  27.043  1.00  0.00     0.007 C 
ATOM     17  C   UNL     1      43.033  56.696  28.194  1.00  0.00     0.012 C 
ATOM     18  C   UNL     1      45.106  58.003  25.927  1.00  0.00     0.004 C 
ATOM     19  C   UNL     1      46.101  56.048  27.121  1.00  0.00     0.005 C 
ATOM     20  C   UNL     1      46.220  56.914  25.853  1.00  0.00     0.003 C 
ATOM     21  C   UNL     1      45.251  59.224  24.959  1.00  0.00     0.085 C 
ATOM     22  C   UNL     1      47.640  57.499  25.564  1.00  0.00    -0.000 C 
ATOM     23  C   UNL     1      46.481  59.245  24.091  1.00  0.00     0.159 C 
ATOM     24  C   UNL     1      47.498  58.181  24.205  1.00  0.00     0.005 C 
ATOM     25  C   UNL     1      48.773  56.419  25.495  1.00  0.00     0.020 C 
ATOM     26  C   UNL     1      48.070  58.530  26.639  1.00  0.00     0.017 C 
ATOM     27  O   UNL     1      46.607  60.147  23.219  1.00  0.00    -0.295 OA
ATOM     28  C   UNL     1      47.887  57.565  23.067  1.00  0.00     0.055 C 
ATOM     29  C   UNL     1      48.567  55.428  24.352  1.00  0.00     0.081 C 
ATOM     30  C   UNL     1      48.344  56.162  23.059  1.00  0.00     0.156 C 
ATOM     31  O   UNL     1      48.279  55.503  21.987  1.00  0.00    -0.295 OA
ENDBRANCH   9  11
ENDBRANCH   8   9
ENDBRANCH   1   8
TORSDOF 6
ENDMDL
