MODEL 1
REMARK VINA RESULT:    -4.970      0.000      0.000
REMARK INTER + INTRA:          -4.970
REMARK INTER:                  -4.970
REMARK INTRA:                   0.000
REMARK UNBOUND:                 0.000
REMARK SMILES C=C1CCC[C@@]2(C)CC(=O)C(=C(C)C)C[C@@H]12
REMARK SMILES IDX 13 1 12 2 11 3 15 4 16 5 2 6 1 7 3 8 4 9 5 10 6 11 8 12 9 13
REMARK SMILES IDX 10 14 7 15 14 16
REMARK H PARENT
REMARK Flexibility Score: inf
ROOT
ATOM      1  C   UNL     1      86.599  -6.700  31.221  1.00  0.00     0.039 C 
ATOM      2  C   UNL     1      85.713  -7.360  30.189  1.00  0.00    -0.070 C 
ATOM      3  C   UNL     1      84.697  -6.684  29.575  1.00  0.00    -0.006 C 
ATOM      4  C   UNL     1      83.738  -7.371  28.616  1.00  0.00     0.047 C 
ATOM      5  C   UNL     1      83.274  -6.410  27.491  1.00  0.00     0.025 C 
ATOM      6  C   UNL     1      82.338  -7.167  26.557  1.00  0.00    -0.073 C 
ATOM      7  C   UNL     1      82.836  -7.871  25.527  1.00  0.00     0.008 C 
ATOM      8  C   UNL     1      80.850  -7.220  26.819  1.00  0.00     0.031 C 
ATOM      9  C   UNL     1      80.431  -6.285  27.954  1.00  0.00     0.005 C 
ATOM     10  C   UNL     1      81.125  -4.931  27.797  1.00  0.00     0.008 C 
ATOM     11  C   UNL     1      82.669  -5.033  28.015  1.00  0.00    -0.018 C 
ATOM     12  C   UNL     1      82.965  -4.810  29.529  1.00  0.00     0.088 C 
ATOM     13  C   UNL     1      84.341  -5.276  29.888  1.00  0.00     0.159 C 
ATOM     14  O   UNL     1      85.161  -4.466  30.396  1.00  0.00    -0.295 OA
ATOM     15  C   UNL     1      83.325  -3.870  27.228  1.00  0.00     0.012 C 
ATOM     16  C   UNL     1      85.971  -8.819  29.892  1.00  0.00     0.039 C 
ENDROOT
TORSDOF 0
ENDMDL
MODEL 2
REMARK VINA RESULT:    -4.807      1.705      5.054
REMARK INTER + INTRA:          -4.807
REMARK INTER:                  -4.807
REMARK INTRA:                   0.000
REMARK UNBOUND:                 0.000
REMARK SMILES C=C1CCC[C@@]2(C)CC(=O)C(=C(C)C)C[C@@H]12
REMARK SMILES IDX 13 1 12 2 11 3 15 4 16 5 2 6 1 7 3 8 4 9 5 10 6 11 8 12 9 13
REMARK SMILES IDX 10 14 7 15 14 16
REMARK H PARENT
REMARK Flexibility Score: inf
ROOT
ATOM      1  C   UNL     1      82.577  -6.417  26.421  1.00  0.00     0.039 C 
ATOM      2  C   UNL     1      83.619  -7.241  27.143  1.00  0.00    -0.070 C 
ATOM      3  C   UNL     1      84.173  -6.829  28.321  1.00  0.00    -0.006 C 
ATOM      4  C   UNL     1      85.296  -7.599  28.997  1.00  0.00     0.047 C 
ATOM      5  C   UNL     1      85.206  -7.499  30.541  1.00  0.00     0.025 C 
ATOM      6  C   UNL     1      86.342  -8.311  31.151  1.00  0.00    -0.073 C 
ATOM      7  C   UNL     1      86.182  -9.623  31.389  1.00  0.00     0.008 C 
ATOM      8  C   UNL     1      87.694  -7.686  31.413  1.00  0.00     0.031 C 
ATOM      9  C   UNL     1      87.681  -6.173  31.195  1.00  0.00     0.005 C 
ATOM     10  C   UNL     1      86.429  -5.566  31.830  1.00  0.00     0.008 C 
ATOM     11  C   UNL     1      85.123  -6.009  31.096  1.00  0.00    -0.018 C 
ATOM     12  C   UNL     1      84.828  -4.983  29.960  1.00  0.00     0.088 C 
ATOM     13  C   UNL     1      83.846  -5.535  28.973  1.00  0.00     0.159 C 
ATOM     14  O   UNL     1      82.768  -4.919  28.758  1.00  0.00    -0.295 OA
ATOM     15  C   UNL     1      83.964  -5.924  32.122  1.00  0.00     0.012 C 
ATOM     16  C   UNL     1      84.058  -8.529  26.483  1.00  0.00     0.039 C 
ENDROOT
TORSDOF 0
ENDMDL
MODEL 3
REMARK VINA RESULT:    -4.575      2.003      3.774
REMARK INTER + INTRA:          -4.575
REMARK INTER:                  -4.575
REMARK INTRA:                   0.000
REMARK UNBOUND:                 0.000
REMARK SMILES C=C1CCC[C@@]2(C)CC(=O)C(=C(C)C)C[C@@H]12
REMARK SMILES IDX 13 1 12 2 11 3 15 4 16 5 2 6 1 7 3 8 4 9 5 10 6 11 8 12 9 13
REMARK SMILES IDX 10 14 7 15 14 16
REMARK H PARENT
REMARK Flexibility Score: inf
ROOT
ATOM      1  C   UNL     1      87.317  -8.058  31.736  1.00  0.00     0.039 C 
ATOM      2  C   UNL     1      86.518  -7.287  30.710  1.00  0.00    -0.070 C 
ATOM      3  C   UNL     1      85.652  -7.908  29.856  1.00  0.00    -0.006 C 
ATOM      4  C   UNL     1      84.926  -7.153  28.755  1.00  0.00     0.047 C 
ATOM      5  C   UNL     1      83.518  -7.745  28.493  1.00  0.00     0.025 C 
ATOM      6  C   UNL     1      82.839  -6.929  27.399  1.00  0.00    -0.073 C 
ATOM      7  C   UNL     1      82.140  -5.827  27.715  1.00  0.00     0.008 C 
ATOM      8  C   UNL     1      83.015  -7.284  25.940  1.00  0.00     0.031 C 
ATOM      9  C   UNL     1      83.740  -8.616  25.754  1.00  0.00     0.005 C 
ATOM     10  C   UNL     1      83.177  -9.656  26.724  1.00  0.00     0.008 C 
ATOM     11  C   UNL     1      83.508  -9.313  28.211  1.00  0.00    -0.018 C 
ATOM     12  C   UNL     1      84.873  -9.974  28.574  1.00  0.00     0.088 C 
ATOM     13  C   UNL     1      85.450  -9.379  29.821  1.00  0.00     0.159 C 
ATOM     14  O   UNL     1      85.702 -10.123  30.806  1.00  0.00    -0.295 OA
ATOM     15  C   UNL     1      82.416  -9.970  29.092  1.00  0.00     0.012 C 
ATOM     16  C   UNL     1      86.747  -5.794  30.639  1.00  0.00     0.039 C 
ENDROOT
TORSDOF 0
ENDMDL
MODEL 4
REMARK VINA RESULT:    -4.511      2.580      5.597
REMARK INTER + INTRA:          -4.511
REMARK INTER:                  -4.511
REMARK INTRA:                   0.000
REMARK UNBOUND:                 0.000
REMARK SMILES C=C1CCC[C@@]2(C)CC(=O)C(=C(C)C)C[C@@H]12
REMARK SMILES IDX 13 1 12 2 11 3 15 4 16 5 2 6 1 7 3 8 4 9 5 10 6 11 8 12 9 13
REMARK SMILES IDX 10 14 7 15 14 16
REMARK H PARENT
REMARK Flexibility Score: inf
ROOT
ATOM      1  C   UNL     1      77.288  -7.018  27.502  1.00  0.00     0.039 C 
ATOM      2  C   UNL     1      78.485  -6.172  27.872  1.00  0.00    -0.070 C 
ATOM      3  C   UNL     1      79.761  -6.568  27.590  1.00  0.00    -0.006 C 
ATOM      4  C   UNL     1      80.972  -5.774  28.052  1.00  0.00     0.047 C 
ATOM      5  C   UNL     1      82.137  -5.868  27.034  1.00  0.00     0.025 C 
ATOM      6  C   UNL     1      83.304  -5.033  27.547  1.00  0.00    -0.073 C 
ATOM      7  C   UNL     1      83.373  -3.723  27.259  1.00  0.00     0.008 C 
ATOM      8  C   UNL     1      84.350  -5.632  28.459  1.00  0.00     0.031 C 
ATOM      9  C   UNL     1      84.192  -7.145  28.601  1.00  0.00     0.005 C 
ATOM     10  C   UNL     1      83.934  -7.773  27.230  1.00  0.00     0.008 C 
ATOM     11  C   UNL     1      82.546  -7.357  26.644  1.00  0.00    -0.018 C 
ATOM     12  C   UNL     1      81.484  -8.394  27.122  1.00  0.00     0.088 C 
ATOM     13  C   UNL     1      80.094  -7.865  26.947  1.00  0.00     0.159 C 
ATOM     14  O   UNL     1      79.272  -8.501  26.235  1.00  0.00    -0.295 OA
ATOM     15  C   UNL     1      82.646  -7.459  25.101  1.00  0.00     0.012 C 
ATOM     16  C   UNL     1      78.214  -4.880  28.608  1.00  0.00     0.039 C 
ENDROOT
TORSDOF 0
ENDMDL
MODEL 5
REMARK VINA RESULT:    -4.212      2.553      5.256
REMARK INTER + INTRA:          -4.212
REMARK INTER:                  -4.212
REMARK INTRA:                   0.000
REMARK UNBOUND:                 0.000
REMARK SMILES C=C1CCC[C@@]2(C)CC(=O)C(=C(C)C)C[C@@H]12
REMARK SMILES IDX 13 1 12 2 11 3 15 4 16 5 2 6 1 7 3 8 4 9 5 10 6 11 8 12 9 13
REMARK SMILES IDX 10 14 7 15 14 16
REMARK H PARENT
REMARK Flexibility Score: inf
ROOT
ATOM      1  C   UNL     1      78.740  -6.165  28.286  1.00  0.00     0.039 C 
ATOM      2  C   UNL     1      80.112  -6.205  28.920  1.00  0.00    -0.070 C 
ATOM      3  C   UNL     1      81.084  -7.057  28.479  1.00  0.00    -0.006 C 
ATOM      4  C   UNL     1      82.429  -7.176  29.178  1.00  0.00     0.047 C 
ATOM      5  C   UNL     1      83.567  -7.482  28.173  1.00  0.00     0.025 C 
ATOM      6  C   UNL     1      84.885  -7.564  28.935  1.00  0.00    -0.073 C 
ATOM      7  C   UNL     1      85.603  -6.452  29.161  1.00  0.00     0.008 C 
ATOM      8  C   UNL     1      85.362  -8.870  29.529  1.00  0.00     0.031 C 
ATOM      9  C   UNL     1      84.497 -10.051  29.092  1.00  0.00     0.005 C 
ATOM     10  C   UNL     1      84.210  -9.962  27.592  1.00  0.00     0.008 C 
ATOM     11  C   UNL     1      83.296  -8.744  27.240  1.00  0.00    -0.018 C 
ATOM     12  C   UNL     1      81.810  -9.211  27.316  1.00  0.00     0.088 C 
ATOM     13  C   UNL     1      80.878  -8.042  27.386  1.00  0.00     0.159 C 
ATOM     14  O   UNL     1      79.986  -7.903  26.507  1.00  0.00    -0.295 OA
ATOM     15  C   UNL     1      83.594  -8.352  25.771  1.00  0.00     0.012 C 
ATOM     16  C   UNL     1      80.355  -5.286  30.095  1.00  0.00     0.039 C 
ENDROOT
TORSDOF 0
ENDMDL
MODEL 6
REMARK VINA RESULT:    -4.193      2.614      5.013
REMARK INTER + INTRA:          -4.193
REMARK INTER:                  -4.193
REMARK INTRA:                   0.000
REMARK UNBOUND:                 0.000
REMARK SMILES C=C1CCC[C@@]2(C)CC(=O)C(=C(C)C)C[C@@H]12
REMARK SMILES IDX 13 1 12 2 11 3 15 4 16 5 2 6 1 7 3 8 4 9 5 10 6 11 8 12 9 13
REMARK SMILES IDX 10 14 7 15 14 16
REMARK H PARENT
REMARK Flexibility Score: inf
ROOT
ATOM      1  C   UNL     1      81.077  -9.097  24.500  1.00  0.00     0.039 C 
ATOM      2  C   UNL     1      80.336  -8.467  25.657  1.00  0.00    -0.070 C 
ATOM      3  C   UNL     1      80.934  -7.563  26.488  1.00  0.00    -0.006 C 
ATOM      4  C   UNL     1      80.228  -7.006  27.715  1.00  0.00     0.047 C 
ATOM      5  C   UNL     1      80.649  -5.542  27.997  1.00  0.00     0.025 C 
ATOM      6  C   UNL     1      79.889  -5.041  29.220  1.00  0.00    -0.073 C 
ATOM      7  C   UNL     1      78.671  -4.493  29.079  1.00  0.00     0.008 C 
ATOM      8  C   UNL     1      80.442  -5.233  30.614  1.00  0.00     0.031 C 
ATOM      9  C   UNL     1      81.874  -5.768  30.597  1.00  0.00     0.005 C 
ATOM     10  C   UNL     1      82.699  -5.015  29.552  1.00  0.00     0.008 C 
ATOM     11  C   UNL     1      82.223  -5.320  28.096  1.00  0.00    -0.018 C 
ATOM     12  C   UNL     1      83.015  -6.557  27.572  1.00  0.00     0.088 C 
ATOM     13  C   UNL     1      82.356  -7.152  26.367  1.00  0.00     0.159 C 
ATOM     14  O   UNL     1      83.000  -7.247  25.288  1.00  0.00    -0.295 OA
ATOM     15  C   UNL     1      82.610  -4.103  27.217  1.00  0.00     0.012 C 
ATOM     16  C   UNL     1      78.909  -8.911  25.885  1.00  0.00     0.039 C 
ENDROOT
TORSDOF 0
ENDMDL
MODEL 7
REMARK VINA RESULT:    -4.109      1.859      4.732
REMARK INTER + INTRA:          -4.109
REMARK INTER:                  -4.109
REMARK INTRA:                   0.000
REMARK UNBOUND:                 0.000
REMARK SMILES C=C1CCC[C@@]2(C)CC(=O)C(=C(C)C)C[C@@H]12
REMARK SMILES IDX 13 1 12 2 11 3 15 4 16 5 2 6 1 7 3 8 4 9 5 10 6 11 8 12 9 13
REMARK SMILES IDX 10 14 7 15 14 16
REMARK H PARENT
REMARK Flexibility Score: inf
ROOT
ATOM      1  C   UNL     1      81.695  -7.882  25.639  1.00  0.00     0.039 C 
ATOM      2  C   UNL     1      82.982  -7.983  26.426  1.00  0.00    -0.070 C 
ATOM      3  C   UNL     1      83.144  -7.350  27.625  1.00  0.00    -0.006 C 
ATOM      4  C   UNL     1      84.469  -7.362  28.370  1.00  0.00     0.047 C 
ATOM      5  C   UNL     1      84.259  -7.355  29.905  1.00  0.00     0.025 C 
ATOM      6  C   UNL     1      85.622  -7.393  30.586  1.00  0.00    -0.073 C 
ATOM      7  C   UNL     1      86.219  -8.569  30.836  1.00  0.00     0.008 C 
ATOM      8  C   UNL     1      86.367  -6.117  30.908  1.00  0.00     0.031 C 
ATOM      9  C   UNL     1      85.513  -4.873  30.666  1.00  0.00     0.005 C 
ATOM     10  C   UNL     1      84.106  -5.090  31.226  1.00  0.00     0.008 C 
ATOM     11  C   UNL     1      83.319  -6.182  30.432  1.00  0.00    -0.018 C 
ATOM     12  C   UNL     1      82.555  -5.484  29.266  1.00  0.00     0.088 C 
ATOM     13  C   UNL     1      82.109  -6.478  28.239  1.00  0.00     0.159 C 
ATOM     14  O   UNL     1      80.885  -6.577  27.958  1.00  0.00    -0.295 OA
ATOM     15  C   UNL     1      82.264  -6.784  31.395  1.00  0.00     0.012 C 
ATOM     16  C   UNL     1      84.105  -8.787  25.811  1.00  0.00     0.039 C 
ENDROOT
TORSDOF 0
ENDMDL
MODEL 8
REMARK VINA RESULT:    -4.105      2.281      5.211
REMARK INTER + INTRA:          -4.105
REMARK INTER:                  -4.105
REMARK INTRA:                   0.000
REMARK UNBOUND:                 0.000
REMARK SMILES C=C1CCC[C@@]2(C)CC(=O)C(=C(C)C)C[C@@H]12
REMARK SMILES IDX 13 1 12 2 11 3 15 4 16 5 2 6 1 7 3 8 4 9 5 10 6 11 8 12 9 13
REMARK SMILES IDX 10 14 7 15 14 16
REMARK H PARENT
REMARK Flexibility Score: inf
ROOT
ATOM      1  C   UNL     1      78.477  -7.439  28.607  1.00  0.00     0.039 C 
ATOM      2  C   UNL     1      79.408  -6.883  29.660  1.00  0.00    -0.070 C 
ATOM      3  C   UNL     1      80.701  -6.548  29.374  1.00  0.00    -0.006 C 
ATOM      4  C   UNL     1      81.671  -6.088  30.450  1.00  0.00     0.047 C 
ATOM      5  C   UNL     1      82.680  -5.049  29.900  1.00  0.00     0.025 C 
ATOM      6  C   UNL     1      83.603  -4.615  31.032  1.00  0.00    -0.073 C 
ATOM      7  C   UNL     1      83.249  -3.602  31.840  1.00  0.00     0.008 C 
ATOM      8  C   UNL     1      84.881  -5.367  31.329  1.00  0.00     0.031 C 
ATOM      9  C   UNL     1      85.193  -6.415  30.261  1.00  0.00     0.005 C 
ATOM     10  C   UNL     1      84.969  -5.823  28.868  1.00  0.00     0.008 C 
ATOM     11  C   UNL     1      83.460  -5.522  28.594  1.00  0.00    -0.018 C 
ATOM     12  C   UNL     1      82.815  -6.794  27.964  1.00  0.00     0.088 C 
ATOM     13  C   UNL     1      81.321  -6.737  28.037  1.00  0.00     0.159 C 
ATOM     14  O   UNL     1      80.642  -6.806  26.978  1.00  0.00    -0.295 OA
ATOM     15  C   UNL     1      83.399  -4.389  27.539  1.00  0.00     0.012 C 
ATOM     16  C   UNL     1      78.860  -6.748  31.062  1.00  0.00     0.039 C 
ENDROOT
TORSDOF 0
ENDMDL
