MODEL 1
REMARK VINA RESULT:    -4.175      0.000      0.000
REMARK INTER + INTRA:          -4.968
REMARK INTER:                  -4.786
REMARK INTRA:                  -0.182
REMARK UNBOUND:                -0.182
REMARK SMILES CC=Cc1ccc(O)c(OC)c1
REMARK SMILES IDX 4 1 12 2 9 3 7 4 6 5 5 6 3 7 1 8 2 9 10 10 11 11 8 12
REMARK H PARENT 8 13
REMARK Flexibility Score: inf
ROOT
ATOM      1  C   UNL     1     139.403 137.102 128.382  1.00  0.00    -0.022 A 
ATOM      2  C   UNL     1     138.481 138.150 128.216  1.00  0.00     0.058 A 
ATOM      3  C   UNL     1     138.779 139.453 128.663  1.00  0.00     0.161 A 
ATOM      4  C   UNL     1     140.012 139.700 129.290  1.00  0.00     0.157 A 
ATOM      5  C   UNL     1     140.925 138.657 129.470  1.00  0.00     0.051 A 
ATOM      6  C   UNL     1     140.626 137.367 129.026  1.00  0.00     0.012 A 
ENDROOT
BRANCH   1   7
ATOM      7  C   UNL     1     139.032 135.748 127.902  1.00  0.00     0.003 C 
ATOM      8  C   UNL     1     139.097 133.285 127.876  1.00  0.00     0.035 C 
ATOM      9  C   UNL     1     139.510 134.613 128.426  1.00  0.00    -0.030 C 
ENDBRANCH   1   7
BRANCH   3  10
ATOM     10  O   UNL     1     137.878 140.519 128.500  1.00  0.00    -0.493 OA
ATOM     11  C   UNL     1     136.779 140.787 129.363  1.00  0.00     0.278 C 
ENDBRANCH   3  10
BRANCH   4  12
ATOM     12  O   UNL     1     140.349 140.974 129.745  1.00  0.00    -0.504 OA
ATOM     13  H   UNL     1     140.608 141.153 130.708  1.00  0.00     0.293 HD
ENDBRANCH   4  12
TORSDOF 3
ENDMDL
MODEL 2
REMARK VINA RESULT:    -4.152      3.227      4.405
REMARK INTER + INTRA:          -4.941
REMARK INTER:                  -4.760
REMARK INTRA:                  -0.181
REMARK UNBOUND:                -0.182
REMARK SMILES CC=Cc1ccc(O)c(OC)c1
REMARK SMILES IDX 4 1 12 2 9 3 7 4 6 5 5 6 3 7 1 8 2 9 10 10 11 11 8 12
REMARK H PARENT 8 13
REMARK Flexibility Score: inf
ROOT
ATOM      1  C   UNL     1     138.174 139.305 128.270  1.00  0.00    -0.022 A 
ATOM      2  C   UNL     1     137.107 138.439 127.977  1.00  0.00     0.058 A 
ATOM      3  C   UNL     1     135.785 138.773 128.335  1.00  0.00     0.161 A 
ATOM      4  C   UNL     1     135.538 139.985 129.002  1.00  0.00     0.157 A 
ATOM      5  C   UNL     1     136.599 140.842 129.308  1.00  0.00     0.051 A 
ATOM      6  C   UNL     1     137.907 140.508 128.951  1.00  0.00     0.012 A 
ENDROOT
BRANCH   1   7
ATOM      7  C   UNL     1     139.546 138.899 127.878  1.00  0.00     0.003 C 
ATOM      8  C   UNL     1     142.007 139.032 127.875  1.00  0.00     0.035 C 
ATOM      9  C   UNL     1     140.658 139.492 128.329  1.00  0.00    -0.030 C 
ENDBRANCH   1   7
BRANCH   3  10
ATOM     10  O   UNL     1     134.700 137.927 128.045  1.00  0.00    -0.493 OA
ATOM     11  C   UNL     1     134.355 136.769 128.796  1.00  0.00     0.278 C 
ENDBRANCH   3  10
BRANCH   4  12
ATOM     12  O   UNL     1     134.246 140.355 129.372  1.00  0.00    -0.504 OA
ATOM     13  H   UNL     1     134.064 140.970 130.156  1.00  0.00     0.293 HD
ENDBRANCH   4  12
TORSDOF 3
ENDMDL
MODEL 3
REMARK VINA RESULT:    -4.127      3.253      4.435
REMARK INTER + INTRA:          -4.912
REMARK INTER:                  -4.731
REMARK INTRA:                  -0.182
REMARK UNBOUND:                -0.182
REMARK SMILES CC=Cc1ccc(O)c(OC)c1
REMARK SMILES IDX 4 1 12 2 9 3 7 4 6 5 5 6 3 7 1 8 2 9 10 10 11 11 8 12
REMARK H PARENT 8 13
REMARK Flexibility Score: inf
ROOT
ATOM      1  C   UNL     1     137.151 135.813 128.369  1.00  0.00    -0.022 A 
ATOM      2  C   UNL     1     138.198 136.743 128.259  1.00  0.00     0.058 A 
ATOM      3  C   UNL     1     139.496 136.427 128.708  1.00  0.00     0.161 A 
ATOM      4  C   UNL     1     139.738 135.167 129.282  1.00  0.00     0.157 A 
ATOM      5  C   UNL     1     138.695 134.245 129.406  1.00  0.00     0.051 A 
ATOM      6  C   UNL     1     137.410 134.562 128.960  1.00  0.00     0.012 A 
ENDROOT
BRANCH   1   7
ATOM      7  C   UNL     1     135.802 136.203 127.889  1.00  0.00     0.003 C 
ATOM      8  C   UNL     1     133.338 136.187 127.875  1.00  0.00     0.035 C 
ATOM      9  C   UNL     1     134.660 135.757 128.426  1.00  0.00    -0.030 C 
ENDBRANCH   1   7
BRANCH   3  10
ATOM     10  O   UNL     1     140.562 137.337 128.600  1.00  0.00    -0.493 OA
ATOM     11  C   UNL     1     140.770 138.445 129.469  1.00  0.00     0.278 C 
ENDBRANCH   3  10
BRANCH   4  12
ATOM     12  O   UNL     1     141.007 134.812 129.737  1.00  0.00    -0.504 OA
ATOM     13  H   UNL     1     141.225 133.875 130.053  1.00  0.00     0.293 HD
ENDBRANCH   4  12
TORSDOF 3
ENDMDL
MODEL 4
REMARK VINA RESULT:    -4.114      3.733      6.277
REMARK INTER + INTRA:          -4.898
REMARK INTER:                  -4.717
REMARK INTRA:                  -0.180
REMARK UNBOUND:                -0.182
REMARK SMILES CC=Cc1ccc(O)c(OC)c1
REMARK SMILES IDX 4 1 12 2 9 3 7 4 6 5 5 6 3 7 1 8 2 9 10 10 11 11 8 12
REMARK H PARENT 8 13
REMARK Flexibility Score: inf
ROOT
ATOM      1  C   UNL     1     135.770 138.096 128.348  1.00  0.00    -0.022 A 
ATOM      2  C   UNL     1     136.683 137.054 128.117  1.00  0.00     0.058 A 
ATOM      3  C   UNL     1     136.408 135.742 128.553  1.00  0.00     0.161 A 
ATOM      4  C   UNL     1     135.207 135.481 129.234  1.00  0.00     0.157 A 
ATOM      5  C   UNL     1     134.303 136.518 129.478  1.00  0.00     0.051 A 
ATOM      6  C   UNL     1     134.579 137.817 129.044  1.00  0.00     0.012 A 
ENDROOT
BRANCH   1   7
ATOM      7  C   UNL     1     136.116 139.460 127.876  1.00  0.00     0.003 C 
ATOM      8  C   UNL     1     136.108 141.924 127.945  1.00  0.00     0.035 C 
ATOM      9  C   UNL     1     135.730 140.584 128.492  1.00  0.00    -0.030 C 
ENDBRANCH   1   7
BRANCH   3  10
ATOM     10  O   UNL     1     137.302 134.681 128.327  1.00  0.00    -0.493 OA
ATOM     11  C   UNL     1     138.524 134.490 129.030  1.00  0.00     0.278 C 
ENDBRANCH   3  10
BRANCH   4  12
ATOM     12  O   UNL     1     134.894 134.198 129.681  1.00  0.00    -0.504 OA
ATOM     13  H   UNL     1     135.528 133.657 130.257  1.00  0.00     0.293 HD
ENDBRANCH   4  12
TORSDOF 3
ENDMDL
MODEL 5
REMARK VINA RESULT:    -4.071      2.275      4.792
REMARK INTER + INTRA:          -4.848
REMARK INTER:                  -4.676
REMARK INTRA:                  -0.172
REMARK UNBOUND:                -0.182
REMARK SMILES CC=Cc1ccc(O)c(OC)c1
REMARK SMILES IDX 4 1 12 2 9 3 7 4 6 5 5 6 3 7 1 8 2 9 10 10 11 11 8 12
REMARK H PARENT 8 13
REMARK Flexibility Score: inf
ROOT
ATOM      1  C   UNL     1     138.517 139.208 130.468  1.00  0.00    -0.022 A 
ATOM      2  C   UNL     1     138.956 137.875 130.404  1.00  0.00     0.058 A 
ATOM      3  C   UNL     1     140.120 137.529 129.687  1.00  0.00     0.161 A 
ATOM      4  C   UNL     1     140.841 138.536 129.022  1.00  0.00     0.157 A 
ATOM      5  C   UNL     1     140.399 139.860 129.072  1.00  0.00     0.051 A 
ATOM      6  C   UNL     1     139.246 140.198 129.783  1.00  0.00     0.012 A 
ENDROOT
BRANCH   1   7
ATOM      7  C   UNL     1     137.280 139.512 131.229  1.00  0.00     0.003 C 
ATOM      8  C   UNL     1     135.067 140.535 131.591  1.00  0.00     0.035 C 
ATOM      9  C   UNL     1     136.277 140.261 130.755  1.00  0.00    -0.030 C 
ENDBRANCH   1   7
BRANCH   3  10
ATOM     10  O   UNL     1     140.583 136.205 129.616  1.00  0.00    -0.493 OA
ATOM     11  C   UNL     1     139.878 135.133 128.999  1.00  0.00     0.278 C 
ENDBRANCH   3  10
BRANCH   4  12
ATOM     12  O   UNL     1     141.998 138.239 128.303  1.00  0.00    -0.504 OA
ATOM     13  H   UNL     1     142.856 138.766 128.419  1.00  0.00     0.293 HD
ENDBRANCH   4  12
TORSDOF 3
ENDMDL
MODEL 6
REMARK VINA RESULT:    -4.062      3.739      4.846
REMARK INTER + INTRA:          -4.838
REMARK INTER:                  -4.668
REMARK INTRA:                  -0.170
REMARK UNBOUND:                -0.182
REMARK SMILES CC=Cc1ccc(O)c(OC)c1
REMARK SMILES IDX 4 1 12 2 9 3 7 4 6 5 5 6 3 7 1 8 2 9 10 10 11 11 8 12
REMARK H PARENT 8 13
REMARK Flexibility Score: inf
ROOT
ATOM      1  C   UNL     1     136.672 135.968 130.431  1.00  0.00    -0.022 A 
ATOM      2  C   UNL     1     136.220 137.298 130.381  1.00  0.00     0.058 A 
ATOM      3  C   UNL     1     135.052 137.639 129.669  1.00  0.00     0.161 A 
ATOM      4  C   UNL     1     134.339 136.632 128.994  1.00  0.00     0.157 A 
ATOM      5  C   UNL     1     134.794 135.311 129.030  1.00  0.00     0.051 A 
ATOM      6  C   UNL     1     135.952 134.978 129.737  1.00  0.00     0.012 A 
ENDROOT
BRANCH   1   7
ATOM      7  C   UNL     1     137.913 135.669 131.187  1.00  0.00     0.003 C 
ATOM      8  C   UNL     1     140.154 134.700 131.521  1.00  0.00     0.035 C 
ATOM      9  C   UNL     1     138.942 134.973 130.688  1.00  0.00    -0.030 C 
ENDBRANCH   1   7
BRANCH   3  10
ATOM     10  O   UNL     1     134.575 138.959 129.611  1.00  0.00    -0.493 OA
ATOM     11  C   UNL     1     135.288 140.052 129.043  1.00  0.00     0.278 C 
ENDBRANCH   3  10
BRANCH   4  12
ATOM     12  O   UNL     1     133.178 136.925 128.280  1.00  0.00    -0.504 OA
ATOM     13  H   UNL     1     133.200 137.402 127.387  1.00  0.00     0.293 HD
ENDBRANCH   4  12
TORSDOF 3
ENDMDL
MODEL 7
REMARK VINA RESULT:    -4.057      3.369      5.156
REMARK INTER + INTRA:          -4.833
REMARK INTER:                  -4.676
REMARK INTRA:                  -0.157
REMARK UNBOUND:                -0.182
REMARK SMILES CC=Cc1ccc(O)c(OC)c1
REMARK SMILES IDX 4 1 12 2 9 3 7 4 6 5 5 6 3 7 1 8 2 9 10 10 11 11 8 12
REMARK H PARENT 8 13
REMARK Flexibility Score: inf
ROOT
ATOM      1  C   UNL     1     139.204 136.849 129.898  1.00  0.00    -0.022 A 
ATOM      2  C   UNL     1     137.894 136.343 129.926  1.00  0.00     0.058 A 
ATOM      3  C   UNL     1     137.617 135.029 129.497  1.00  0.00     0.161 A 
ATOM      4  C   UNL     1     138.668 134.223 129.028  1.00  0.00     0.157 A 
ATOM      5  C   UNL     1     139.970 134.728 128.985  1.00  0.00     0.051 A 
ATOM      6  C   UNL     1     140.240 136.031 129.411  1.00  0.00     0.012 A 
ENDROOT
BRANCH   1   7
ATOM      7  C   UNL     1     139.436 138.243 130.351  1.00  0.00     0.003 C 
ATOM      8  C   UNL     1     140.126 140.596 130.099  1.00  0.00     0.035 C 
ATOM      9  C   UNL     1     139.905 139.217 129.562  1.00  0.00    -0.030 C 
ENDBRANCH   1   7
BRANCH   3  10
ATOM     10  O   UNL     1     136.316 134.497 129.525  1.00  0.00    -0.493 OA
ATOM     11  C   UNL     1     135.141 135.215 129.164  1.00  0.00     0.278 C 
ENDBRANCH   3  10
BRANCH   4  12
ATOM     12  O   UNL     1     138.439 132.917 128.597  1.00  0.00    -0.504 OA
ATOM     13  H   UNL     1     137.517 132.588 128.336  1.00  0.00     0.293 HD
ENDBRANCH   4  12
TORSDOF 3
ENDMDL
MODEL 8
REMARK VINA RESULT:    -4.052      3.061      4.348
REMARK INTER + INTRA:          -4.826
REMARK INTER:                  -4.656
REMARK INTRA:                  -0.170
REMARK UNBOUND:                -0.182
REMARK SMILES CC=Cc1ccc(O)c(OC)c1
REMARK SMILES IDX 4 1 12 2 9 3 7 4 6 5 5 6 3 7 1 8 2 9 10 10 11 11 8 12
REMARK H PARENT 8 13
REMARK Flexibility Score: inf
ROOT
ATOM      1  C   UNL     1     136.012 138.484 130.416  1.00  0.00    -0.022 A 
ATOM      2  C   UNL     1     137.337 138.951 130.378  1.00  0.00     0.058 A 
ATOM      3  C   UNL     1     137.667 140.135 129.688  1.00  0.00     0.161 A 
ATOM      4  C   UNL     1     136.654 140.848 129.022  1.00  0.00     0.157 A 
ATOM      5  C   UNL     1     135.339 140.377 129.045  1.00  0.00     0.051 A 
ATOM      6  C   UNL     1     135.016 139.204 129.731  1.00  0.00     0.012 A 
ENDROOT
BRANCH   1   7
ATOM      7  C   UNL     1     135.724 137.226 131.150  1.00  0.00     0.003 C 
ATOM      8  C   UNL     1     134.663 135.030 131.500  1.00  0.00     0.035 C 
ATOM      9  C   UNL     1     134.914 136.264 130.693  1.00  0.00    -0.030 C 
ENDBRANCH   1   7
BRANCH   3  10
ATOM     10  O   UNL     1     138.982 140.628 129.644  1.00  0.00    -0.493 OA
ATOM     11  C   UNL     1     140.099 139.906 129.138  1.00  0.00     0.278 C 
ENDBRANCH   3  10
BRANCH   4  12
ATOM     12  O   UNL     1     136.936 142.024 128.329  1.00  0.00    -0.504 OA
ATOM     13  H   UNL     1     136.975 142.926 128.789  1.00  0.00     0.293 HD
ENDBRANCH   4  12
TORSDOF 3
ENDMDL
MODEL 9
REMARK VINA RESULT:    -3.978      3.810      5.007
REMARK INTER + INTRA:          -4.742
REMARK INTER:                  -4.567
REMARK INTRA:                  -0.175
REMARK UNBOUND:                -0.182
REMARK SMILES CC=Cc1ccc(O)c(OC)c1
REMARK SMILES IDX 4 1 12 2 9 3 7 4 6 5 5 6 3 7 1 8 2 9 10 10 11 11 8 12
REMARK H PARENT 8 13
REMARK Flexibility Score: inf
ROOT
ATOM      1  C   UNL     1     137.025 135.199 129.192  1.00  0.00    -0.022 A 
ATOM      2  C   UNL     1     137.633 135.649 130.377  1.00  0.00     0.058 A 
ATOM      3  C   UNL     1     139.023 135.519 130.572  1.00  0.00     0.161 A 
ATOM      4  C   UNL     1     139.805 134.922 129.568  1.00  0.00     0.157 A 
ATOM      5  C   UNL     1     139.202 134.460 128.395  1.00  0.00     0.051 A 
ATOM      6  C   UNL     1     137.824 134.591 128.206  1.00  0.00     0.012 A 
ENDROOT
BRANCH   1   7
ATOM      7  C   UNL     1     135.556 135.353 129.045  1.00  0.00     0.003 C 
ATOM      8  C   UNL     1     133.473 135.958 127.876  1.00  0.00     0.035 C 
ATOM      9  C   UNL     1     134.961 135.819 127.941  1.00  0.00    -0.030 C 
ENDBRANCH   1   7
BRANCH   3  10
ATOM     10  O   UNL     1     139.654 135.969 131.743  1.00  0.00    -0.493 OA
ATOM     11  C   UNL     1     139.573 135.319 133.007  1.00  0.00     0.278 C 
ENDBRANCH   3  10
BRANCH   4  12
ATOM     12  O   UNL     1     141.183 134.775 129.718  1.00  0.00    -0.504 OA
ATOM     13  H   UNL     1     141.636 134.827 130.623  1.00  0.00     0.293 HD
ENDBRANCH   4  12
TORSDOF 3
ENDMDL
