MODEL 1
REMARK VINA RESULT:    -4.535      0.000      0.000
REMARK INTER + INTRA:          -6.755
REMARK INTER:                  -6.126
REMARK INTRA:                  -0.629
REMARK UNBOUND:                -0.629
REMARK SMILES COc1ccc(-c2cc(=O)c3c(OC)c(OC)c(OC)c(OC)c3o2)cc1
REMARK SMILES IDX 7 1 8 2 9 3 10 4 11 5 24 6 25 7 21 8 18 9 15 10 12 11 6 12
REMARK SMILES IDX 3 13 4 14 27 15 5 16 26 17 2 18 1 19 22 20 23 21 13 22 14 23
REMARK SMILES IDX 19 24 20 25 16 26 17 27
REMARK H PARENT
REMARK Flexibility Score: inf
ROOT
ATOM      1  C   UNL     1      -5.838   2.911  -3.216  1.00  0.00     0.138 A 
ATOM      2  C   UNL     1      -4.746   2.345  -3.876  1.00  0.00     0.100 A 
ATOM      3  C   UNL     1      -4.630   0.959  -3.934  1.00  0.00     0.197 A 
ATOM      4  O   UNL     1      -3.628   0.467  -4.520  1.00  0.00    -0.289 OA
ATOM      5  C   UNL     1      -5.622   0.142  -3.337  1.00  0.00     0.115 A 
ATOM      6  C   UNL     1      -6.712   0.790  -2.711  1.00  0.00     0.188 A 
ATOM      7  O   UNL     1      -6.755   2.120  -2.669  1.00  0.00    -0.452 OA
ATOM      8  C   UNL     1      -7.752   0.038  -2.123  1.00  0.00     0.209 A 
ATOM      9  C   UNL     1      -7.667  -1.377  -2.100  1.00  0.00     0.211 A 
ATOM     10  C   UNL     1      -6.545  -2.029  -2.677  1.00  0.00     0.208 A 
ATOM     11  C   UNL     1      -5.541  -1.270  -3.331  1.00  0.00     0.179 A 
ENDROOT
BRANCH   1  12
ATOM     12  C   UNL     1      -5.996   4.380  -3.103  1.00  0.00     0.018 A 
ATOM     13  C   UNL     1      -6.359   7.171  -2.889  1.00  0.00     0.118 A 
ATOM     14  C   UNL     1      -5.358   6.645  -3.728  1.00  0.00     0.047 A 
ATOM     15  C   UNL     1      -7.171   6.292  -2.166  1.00  0.00     0.047 A 
ATOM     16  C   UNL     1      -5.179   5.262  -3.833  1.00  0.00     0.016 A 
ATOM     17  C   UNL     1      -6.998   4.910  -2.274  1.00  0.00     0.016 A 
BRANCH  13  18
ATOM     18  O   UNL     1      -6.578   8.549  -2.750  1.00  0.00    -0.497 OA
ATOM     19  C   UNL     1      -7.786   9.125  -2.263  1.00  0.00     0.278 C 
ENDBRANCH  13  18
ENDBRANCH   1  12
BRANCH   8  20
ATOM     20  O   UNL     1      -8.877   0.655  -1.543  1.00  0.00    -0.490 OA
ATOM     21  C   UNL     1     -10.094   0.997  -2.198  1.00  0.00     0.278 C 
ENDBRANCH   8  20
BRANCH  11  22
ATOM     22  O   UNL     1      -4.436  -1.866  -3.979  1.00  0.00    -0.492 OA
ATOM     23  C   UNL     1      -3.307  -2.497  -3.383  1.00  0.00     0.278 C 
ENDBRANCH  11  22
BRANCH   9  24
ATOM     24  O   UNL     1      -8.678  -2.182  -1.539  1.00  0.00    -0.490 OA
ATOM     25  C   UNL     1      -9.782  -2.789  -2.202  1.00  0.00     0.279 C 
ENDBRANCH   9  24
BRANCH  10  26
ATOM     26  O   UNL     1      -6.390  -3.429  -2.631  1.00  0.00    -0.490 OA
ATOM     27  C   UNL     1      -5.945  -4.219  -1.534  1.00  0.00     0.278 C 
ENDBRANCH  10  26
TORSDOF 6
ENDMDL
MODEL 2
REMARK VINA RESULT:    -4.410      1.827      2.732
REMARK INTER + INTRA:          -6.587
REMARK INTER:                  -5.895
REMARK INTRA:                  -0.692
REMARK UNBOUND:                -0.629
REMARK SMILES COc1ccc(-c2cc(=O)c3c(OC)c(OC)c(OC)c(OC)c3o2)cc1
REMARK SMILES IDX 7 1 8 2 9 3 10 4 11 5 24 6 25 7 21 8 18 9 15 10 12 11 6 12
REMARK SMILES IDX 3 13 4 14 27 15 5 16 26 17 2 18 1 19 22 20 23 21 13 22 14 23
REMARK SMILES IDX 19 24 20 25 16 26 17 27
REMARK H PARENT
REMARK Flexibility Score: inf
ROOT
ATOM      1  C   UNL     1      -5.180   0.362  -3.055  1.00  0.00     0.138 A 
ATOM      2  C   UNL     1      -3.968  -0.302  -2.859  1.00  0.00     0.100 A 
ATOM      3  C   UNL     1      -3.979  -1.659  -2.550  1.00  0.00     0.197 A 
ATOM      4  O   UNL     1      -2.875  -2.238  -2.360  1.00  0.00    -0.289 OA
ATOM      5  C   UNL     1      -5.211  -2.351  -2.449  1.00  0.00     0.115 A 
ATOM      6  C   UNL     1      -6.395  -1.615  -2.689  1.00  0.00     0.188 A 
ATOM      7  O   UNL     1      -6.320  -0.313  -2.959  1.00  0.00    -0.452 OA
ATOM      8  C   UNL     1      -7.656  -2.247  -2.636  1.00  0.00     0.209 A 
ATOM      9  C   UNL     1      -7.739  -3.615  -2.274  1.00  0.00     0.211 A 
ATOM     10  C   UNL     1      -6.558  -4.342  -1.976  1.00  0.00     0.208 A 
ATOM     11  C   UNL     1      -5.289  -3.720  -2.103  1.00  0.00     0.179 A 
ENDROOT
BRANCH   1  12
ATOM     12  C   UNL     1      -5.226   1.811  -3.360  1.00  0.00     0.018 A 
ATOM     13  C   UNL     1      -5.375   4.572  -3.928  1.00  0.00     0.118 A 
ATOM     14  C   UNL     1      -4.652   3.709  -4.772  1.00  0.00     0.047 A 
ATOM     15  C   UNL     1      -6.021   4.042  -2.806  1.00  0.00     0.047 A 
ATOM     16  C   UNL     1      -4.578   2.342  -4.490  1.00  0.00     0.016 A 
ATOM     17  C   UNL     1      -5.954   2.675  -2.525  1.00  0.00     0.016 A 
BRANCH  13  18
ATOM     18  O   UNL     1      -5.479   5.950  -4.168  1.00  0.00    -0.497 OA
ATOM     19  C   UNL     1      -6.695   6.688  -4.099  1.00  0.00     0.278 C 
ENDBRANCH  13  18
ENDBRANCH   1  12
BRANCH   8  20
ATOM     20  O   UNL     1      -8.846  -1.552  -2.926  1.00  0.00    -0.490 OA
ATOM     21  C   UNL     1      -9.656  -0.827  -2.006  1.00  0.00     0.278 C 
ENDBRANCH   8  20
BRANCH  11  22
ATOM     22  O   UNL     1      -4.076  -4.410  -1.884  1.00  0.00    -0.492 OA
ATOM     23  C   UNL     1      -3.543  -5.501  -2.627  1.00  0.00     0.278 C 
ENDBRANCH  11  22
BRANCH   9  24
ATOM     24  O   UNL     1      -8.968  -4.304  -2.215  1.00  0.00    -0.490 OA
ATOM     25  C   UNL     1      -9.875  -4.384  -1.121  1.00  0.00     0.279 C 
ENDBRANCH   9  24
BRANCH  10  26
ATOM     26  O   UNL     1      -6.594  -5.688  -1.559  1.00  0.00    -0.490 OA
ATOM     27  C   UNL     1      -6.555  -6.187  -0.226  1.00  0.00     0.278 C 
ENDBRANCH  10  26
TORSDOF 6
ENDMDL
MODEL 3
REMARK VINA RESULT:    -4.257      6.203      8.932
REMARK INTER + INTRA:          -6.380
REMARK INTER:                  -5.779
REMARK INTRA:                  -0.601
REMARK UNBOUND:                -0.629
REMARK SMILES COc1ccc(-c2cc(=O)c3c(OC)c(OC)c(OC)c(OC)c3o2)cc1
REMARK SMILES IDX 7 1 8 2 9 3 10 4 11 5 24 6 25 7 21 8 18 9 15 10 12 11 6 12
REMARK SMILES IDX 3 13 4 14 27 15 5 16 26 17 2 18 1 19 22 20 23 21 13 22 14 23
REMARK SMILES IDX 19 24 20 25 16 26 17 27
REMARK H PARENT
REMARK Flexibility Score: inf
ROOT
ATOM      1  C   UNL     1     -10.298   5.507  -5.520  1.00  0.00     0.138 A 
ATOM      2  C   UNL     1      -8.908   5.386  -5.519  1.00  0.00     0.100 A 
ATOM      3  C   UNL     1      -8.173   5.983  -4.498  1.00  0.00     0.197 A 
ATOM      4  O   UNL     1      -6.918   5.877  -4.524  1.00  0.00    -0.289 OA
ATOM      5  C   UNL     1      -8.842   6.695  -3.471  1.00  0.00     0.115 A 
ATOM      6  C   UNL     1     -10.254   6.750  -3.526  1.00  0.00     0.188 A 
ATOM      7  O   UNL     1     -10.898   6.176  -4.541  1.00  0.00    -0.452 OA
ATOM      8  C   UNL     1     -10.986   7.415  -2.520  1.00  0.00     0.209 A 
ATOM      9  C   UNL     1     -10.296   8.091  -1.482  1.00  0.00     0.211 A 
ATOM     10  C   UNL     1      -8.877   8.086  -1.455  1.00  0.00     0.208 A 
ATOM     11  C   UNL     1      -8.149   7.354  -2.429  1.00  0.00     0.179 A 
ENDROOT
BRANCH   1  12
ATOM     12  C   UNL     1     -11.125   4.912  -6.595  1.00  0.00     0.018 A 
ATOM     13  C   UNL     1     -12.654   3.740  -8.658  1.00  0.00     0.118 A 
ATOM     14  C   UNL     1     -12.610   5.139  -8.511  1.00  0.00     0.047 A 
ATOM     15  C   UNL     1     -11.928   2.940  -7.770  1.00  0.00     0.047 A 
ATOM     16  C   UNL     1     -11.853   5.719  -7.489  1.00  0.00     0.016 A 
ATOM     17  C   UNL     1     -11.165   3.517  -6.751  1.00  0.00     0.016 A 
BRANCH  13  18
ATOM     18  O   UNL     1     -13.398   3.110  -9.667  1.00  0.00    -0.497 OA
ATOM     19  C   UNL     1     -12.925   2.021 -10.453  1.00  0.00     0.278 C 
ENDBRANCH  13  18
ENDBRANCH   1  12
BRANCH   8  20
ATOM     20  O   UNL     1     -12.394   7.437  -2.519  1.00  0.00    -0.490 OA
ATOM     21  C   UNL     1     -13.232   8.433  -3.096  1.00  0.00     0.278 C 
ENDBRANCH   8  20
BRANCH  11  22
ATOM     22  O   UNL     1      -6.740   7.259  -2.415  1.00  0.00    -0.492 OA
ATOM     23  C   UNL     1      -5.924   6.474  -1.553  1.00  0.00     0.278 C 
ENDBRANCH  11  22
BRANCH   9  24
ATOM     24  O   UNL     1     -10.971   8.762  -0.443  1.00  0.00    -0.490 OA
ATOM     25  C   UNL     1     -11.536   8.202   0.738  1.00  0.00     0.279 C 
ENDBRANCH   9  24
BRANCH  10  26
ATOM     26  O   UNL     1      -8.146   8.788  -0.475  1.00  0.00    -0.490 OA
ATOM     27  C   UNL     1      -7.838   8.365   0.849  1.00  0.00     0.278 C 
ENDBRANCH  10  26
TORSDOF 6
ENDMDL
MODEL 4
REMARK VINA RESULT:    -4.180      5.496      9.121
REMARK INTER + INTRA:          -6.275
REMARK INTER:                  -5.578
REMARK INTRA:                  -0.697
REMARK UNBOUND:                -0.629
REMARK SMILES COc1ccc(-c2cc(=O)c3c(OC)c(OC)c(OC)c(OC)c3o2)cc1
REMARK SMILES IDX 7 1 8 2 9 3 10 4 11 5 24 6 25 7 21 8 18 9 15 10 12 11 6 12
REMARK SMILES IDX 3 13 4 14 27 15 5 16 26 17 2 18 1 19 22 20 23 21 13 22 14 23
REMARK SMILES IDX 19 24 20 25 16 26 17 27
REMARK H PARENT
REMARK Flexibility Score: inf
ROOT
ATOM      1  C   UNL     1      -8.953   6.569  -3.861  1.00  0.00     0.138 A 
ATOM      2  C   UNL     1      -9.525   7.346  -2.853  1.00  0.00     0.100 A 
ATOM      3  C   UNL     1     -10.882   7.649  -2.915  1.00  0.00     0.197 A 
ATOM      4  O   UNL     1     -11.377   8.366  -2.004  1.00  0.00    -0.289 OA
ATOM      5  C   UNL     1     -11.666   7.160  -3.989  1.00  0.00     0.115 A 
ATOM      6  C   UNL     1     -11.021   6.356  -4.957  1.00  0.00     0.188 A 
ATOM      7  O   UNL     1      -9.714   6.120  -4.853  1.00  0.00    -0.452 OA
ATOM      8  C   UNL     1     -11.747   5.808  -6.036  1.00  0.00     0.209 A 
ATOM      9  C   UNL     1     -13.121   6.124  -6.187  1.00  0.00     0.211 A 
ATOM     10  C   UNL     1     -13.759   6.977  -5.249  1.00  0.00     0.208 A 
ATOM     11  C   UNL     1     -13.041   7.464  -4.126  1.00  0.00     0.179 A 
ENDROOT
BRANCH   1  12
ATOM     12  C   UNL     1      -7.509   6.239  -3.857  1.00  0.00     0.018 A 
ATOM     13  C   UNL     1      -4.768   5.564  -3.809  1.00  0.00     0.118 A 
ATOM     14  C   UNL     1      -5.171   6.912  -3.763  1.00  0.00     0.047 A 
ATOM     15  C   UNL     1      -5.745   4.565  -3.875  1.00  0.00     0.047 A 
ATOM     16  C   UNL     1      -6.528   7.245  -3.788  1.00  0.00     0.016 A 
ATOM     17  C   UNL     1      -7.102   4.895  -3.894  1.00  0.00     0.016 A 
BRANCH  13  18
ATOM     18  O   UNL     1      -3.420   5.178  -3.786  1.00  0.00    -0.497 OA
ATOM     19  C   UNL     1      -2.906   4.018  -4.432  1.00  0.00     0.278 C 
ENDBRANCH  13  18
ENDBRANCH   1  12
BRANCH   8  20
ATOM     20  O   UNL     1     -11.142   4.959  -6.982  1.00  0.00    -0.490 OA
ATOM     21  C   UNL     1     -11.161   3.535  -6.985  1.00  0.00     0.278 C 
ENDBRANCH   8  20
BRANCH  11  22
ATOM     22  O   UNL     1     -13.639   8.262  -3.126  1.00  0.00    -0.492 OA
ATOM     23  C   UNL     1     -14.647   7.887  -2.193  1.00  0.00     0.278 C 
ENDBRANCH  11  22
BRANCH   9  24
ATOM     24  O   UNL     1     -13.902   5.599  -7.236  1.00  0.00    -0.490 OA
ATOM     25  C   UNL     1     -14.059   6.116  -8.553  1.00  0.00     0.279 C 
ENDBRANCH   9  24
BRANCH  10  26
ATOM     26  O   UNL     1     -15.108   7.362  -5.387  1.00  0.00    -0.490 OA
ATOM     27  C   UNL     1     -15.621   8.512  -6.052  1.00  0.00     0.278 C 
ENDBRANCH  10  26
TORSDOF 6
ENDMDL
MODEL 5
REMARK VINA RESULT:    -4.174      5.776      8.517
REMARK INTER + INTRA:          -6.268
REMARK INTER:                  -5.556
REMARK INTRA:                  -0.712
REMARK UNBOUND:                -0.629
REMARK SMILES COc1ccc(-c2cc(=O)c3c(OC)c(OC)c(OC)c(OC)c3o2)cc1
REMARK SMILES IDX 7 1 8 2 9 3 10 4 11 5 24 6 25 7 21 8 18 9 15 10 12 11 6 12
REMARK SMILES IDX 3 13 4 14 27 15 5 16 26 17 2 18 1 19 22 20 23 21 13 22 14 23
REMARK SMILES IDX 19 24 20 25 16 26 17 27
REMARK H PARENT
REMARK Flexibility Score: inf
ROOT
ATOM      1  C   UNL     1      -8.711   6.115  -4.635  1.00  0.00     0.138 A 
ATOM      2  C   UNL     1      -9.073   5.361  -5.752  1.00  0.00     0.100 A 
ATOM      3  C   UNL     1     -10.414   5.294  -6.122  1.00  0.00     0.197 A 
ATOM      4  O   UNL     1     -10.723   4.595  -7.124  1.00  0.00    -0.289 OA
ATOM      5  C   UNL     1     -11.389   5.997  -5.372  1.00  0.00     0.115 A 
ATOM      6  C   UNL     1     -10.940   6.761  -4.270  1.00  0.00     0.188 A 
ATOM      7  O   UNL     1      -9.647   6.767  -3.954  1.00  0.00    -0.452 OA
ATOM      8  C   UNL     1     -11.852   7.512  -3.497  1.00  0.00     0.209 A 
ATOM      9  C   UNL     1     -13.238   7.443  -3.788  1.00  0.00     0.211 A 
ATOM     10  C   UNL     1     -13.699   6.632  -4.858  1.00  0.00     0.208 A 
ATOM     11  C   UNL     1     -12.769   5.939  -5.676  1.00  0.00     0.179 A 
ENDROOT
BRANCH   1  12
ATOM     12  C   UNL     1      -7.303   6.199  -4.183  1.00  0.00     0.018 A 
ATOM     13  C   UNL     1      -4.628   6.307  -3.287  1.00  0.00     0.118 A 
ATOM     14  C   UNL     1      -5.401   7.481  -3.367  1.00  0.00     0.047 A 
ATOM     15  C   UNL     1      -5.205   5.087  -3.655  1.00  0.00     0.047 A 
ATOM     16  C   UNL     1      -6.725   7.426  -3.811  1.00  0.00     0.016 A 
ATOM     17  C   UNL     1      -6.530   5.030  -4.094  1.00  0.00     0.016 A 
BRANCH  13  18
ATOM     18  O   UNL     1      -3.296   6.310  -2.847  1.00  0.00    -0.497 OA
ATOM     19  C   UNL     1      -2.875   5.880  -1.557  1.00  0.00     0.278 C 
ENDBRANCH  13  18
ENDBRANCH   1  12
BRANCH   8  20
ATOM     20  O   UNL     1     -11.427   8.326  -2.430  1.00  0.00    -0.490 OA
ATOM     21  C   UNL     1     -11.240   7.928  -1.076  1.00  0.00     0.278 C 
ENDBRANCH   8  20
BRANCH  11  22
ATOM     22  O   UNL     1     -13.162   5.169  -6.793  1.00  0.00    -0.492 OA
ATOM     23  C   UNL     1     -13.731   5.627  -8.015  1.00  0.00     0.278 C 
ENDBRANCH  11  22
BRANCH   9  24
ATOM     24  O   UNL     1     -14.197   8.178  -3.061  1.00  0.00    -0.490 OA
ATOM     25  C   UNL     1     -14.862   7.800  -1.861  1.00  0.00     0.279 C 
ENDBRANCH   9  24
BRANCH  10  26
ATOM     26  O   UNL     1     -15.070   6.489  -5.151  1.00  0.00    -0.490 OA
ATOM     27  C   UNL     1     -15.969   5.505  -4.652  1.00  0.00     0.278 C 
ENDBRANCH  10  26
TORSDOF 6
ENDMDL
MODEL 6
REMARK VINA RESULT:    -4.157      1.915      8.523
REMARK INTER + INTRA:          -6.245
REMARK INTER:                  -5.557
REMARK INTRA:                  -0.688
REMARK UNBOUND:                -0.629
REMARK SMILES COc1ccc(-c2cc(=O)c3c(OC)c(OC)c(OC)c(OC)c3o2)cc1
REMARK SMILES IDX 7 1 8 2 9 3 10 4 11 5 24 6 25 7 21 8 18 9 15 10 12 11 6 12
REMARK SMILES IDX 3 13 4 14 27 15 5 16 26 17 2 18 1 19 22 20 23 21 13 22 14 23
REMARK SMILES IDX 19 24 20 25 16 26 17 27
REMARK H PARENT
REMARK Flexibility Score: inf
ROOT
ATOM      1  C   UNL     1      -7.943   1.859  -2.431  1.00  0.00     0.138 A 
ATOM      2  C   UNL     1      -9.226   2.379  -2.252  1.00  0.00     0.100 A 
ATOM      3  C   UNL     1      -9.438   3.743  -2.436  1.00  0.00     0.197 A 
ATOM      4  O   UNL     1     -10.600   4.197  -2.254  1.00  0.00    -0.289 OA
ATOM      5  C   UNL     1      -8.359   4.581  -2.811  1.00  0.00     0.115 A 
ATOM      6  C   UNL     1      -7.095   3.975  -3.000  1.00  0.00     0.188 A 
ATOM      7  O   UNL     1      -6.952   2.668  -2.787  1.00  0.00    -0.452 OA
ATOM      8  C   UNL     1      -5.983   4.744  -3.404  1.00  0.00     0.209 A 
ATOM      9  C   UNL     1      -6.120   6.147  -3.555  1.00  0.00     0.211 A 
ATOM     10  C   UNL     1      -7.373   6.767  -3.311  1.00  0.00     0.208 A 
ATOM     11  C   UNL     1      -8.504   5.979  -2.977  1.00  0.00     0.179 A 
ENDROOT
BRANCH   1  12
ATOM     12  C   UNL     1      -7.657   0.420  -2.223  1.00  0.00     0.018 A 
ATOM     13  C   UNL     1      -7.109  -2.328  -1.888  1.00  0.00     0.118 A 
ATOM     14  C   UNL     1      -8.108  -1.702  -1.119  1.00  0.00     0.047 A 
ATOM     15  C   UNL     1      -6.394  -1.570  -2.821  1.00  0.00     0.047 A 
ATOM     16  C   UNL     1      -8.379  -0.341  -1.285  1.00  0.00     0.016 A 
ATOM     17  C   UNL     1      -6.667  -0.211  -2.993  1.00  0.00     0.016 A 
BRANCH  13  18
ATOM     18  O   UNL     1      -6.800  -3.691  -1.758  1.00  0.00    -0.497 OA
ATOM     19  C   UNL     1      -7.763  -4.739  -1.791  1.00  0.00     0.278 C 
ENDBRANCH  13  18
ENDBRANCH   1  12
BRANCH   8  20
ATOM     20  O   UNL     1      -4.728   4.159  -3.654  1.00  0.00    -0.490 OA
ATOM     21  C   UNL     1      -4.247   3.673  -4.903  1.00  0.00     0.278 C 
ENDBRANCH   8  20
BRANCH  11  22
ATOM     22  O   UNL     1      -9.790   6.531  -2.786  1.00  0.00    -0.492 OA
ATOM     23  C   UNL     1     -10.621   7.169  -3.751  1.00  0.00     0.278 C 
ENDBRANCH  11  22
BRANCH   9  24
ATOM     24  O   UNL     1      -5.050   6.967  -3.968  1.00  0.00    -0.490 OA
ATOM     25  C   UNL     1      -3.945   7.419  -3.192  1.00  0.00     0.279 C 
ENDBRANCH   9  24
BRANCH  10  26
ATOM     26  O   UNL     1      -7.545   8.164  -3.396  1.00  0.00    -0.490 OA
ATOM     27  C   UNL     1      -7.383   9.125  -2.358  1.00  0.00     0.278 C 
ENDBRANCH  10  26
TORSDOF 6
ENDMDL
MODEL 7
REMARK VINA RESULT:    -4.150      7.898      9.829
REMARK INTER + INTRA:          -6.235
REMARK INTER:                  -5.568
REMARK INTRA:                  -0.667
REMARK UNBOUND:                -0.629
REMARK SMILES COc1ccc(-c2cc(=O)c3c(OC)c(OC)c(OC)c(OC)c3o2)cc1
REMARK SMILES IDX 7 1 8 2 9 3 10 4 11 5 24 6 25 7 21 8 18 9 15 10 12 11 6 12
REMARK SMILES IDX 3 13 4 14 27 15 5 16 26 17 2 18 1 19 22 20 23 21 13 22 14 23
REMARK SMILES IDX 19 24 20 25 16 26 17 27
REMARK H PARENT
REMARK Flexibility Score: inf
ROOT
ATOM      1  C   UNL     1     -11.029   4.885  -6.748  1.00  0.00     0.138 A 
ATOM      2  C   UNL     1     -11.140   3.503  -6.909  1.00  0.00     0.100 A 
ATOM      3  C   UNL     1     -12.039   2.997  -7.843  1.00  0.00     0.197 A 
ATOM      4  O   UNL     1     -12.137   1.745  -7.961  1.00  0.00    -0.289 OA
ATOM      5  C   UNL     1     -12.820   3.884  -8.624  1.00  0.00     0.115 A 
ATOM      6  C   UNL     1     -12.631   5.271  -8.423  1.00  0.00     0.188 A 
ATOM      7  O   UNL     1     -11.771   5.693  -7.498  1.00  0.00    -0.452 OA
ATOM      8  C   UNL     1     -13.352   6.212  -9.188  1.00  0.00     0.209 A 
ATOM      9  C   UNL     1     -14.323   5.762 -10.118  1.00  0.00     0.211 A 
ATOM     10  C   UNL     1     -14.557   4.372 -10.281  1.00  0.00     0.208 A 
ATOM     11  C   UNL     1     -13.777   3.430  -9.562  1.00  0.00     0.179 A 
ENDROOT
BRANCH   1  12
ATOM     12  C   UNL     1     -10.106   5.476  -5.751  1.00  0.00     0.018 A 
ATOM     13  C   UNL     1      -8.386   6.651  -3.846  1.00  0.00     0.118 A 
ATOM     14  C   UNL     1      -7.859   6.021  -4.990  1.00  0.00     0.047 A 
ATOM     15  C   UNL     1      -9.772   6.687  -3.669  1.00  0.00     0.047 A 
ATOM     16  C   UNL     1      -8.712   5.439  -5.933  1.00  0.00     0.016 A 
ATOM     17  C   UNL     1     -10.627   6.111  -4.613  1.00  0.00     0.016 A 
BRANCH  13  18
ATOM     18  O   UNL     1      -7.573   7.249  -2.873  1.00  0.00    -0.497 OA
ATOM     19  C   UNL     1      -7.339   8.649  -2.772  1.00  0.00     0.278 C 
ENDBRANCH  13  18
ENDBRANCH   1  12
BRANCH   8  20
ATOM     20  O   UNL     1     -13.143   7.598  -9.050  1.00  0.00    -0.490 OA
ATOM     21  C   UNL     1     -13.842   8.483  -8.181  1.00  0.00     0.278 C 
ENDBRANCH   8  20
BRANCH  11  22
ATOM     22  O   UNL     1     -13.918   2.035  -9.731  1.00  0.00    -0.492 OA
ATOM     23  C   UNL     1     -13.611   1.257 -10.883  1.00  0.00     0.278 C 
ENDBRANCH  11  22
BRANCH   9  24
ATOM     24  O   UNL     1     -15.066   6.652 -10.920  1.00  0.00    -0.490 OA
ATOM     25  C   UNL     1     -14.706   7.201 -12.183  1.00  0.00     0.279 C 
ENDBRANCH   9  24
BRANCH  10  26
ATOM     26  O   UNL     1     -15.549   3.878 -11.153  1.00  0.00    -0.490 OA
ATOM     27  C   UNL     1     -16.912   3.600 -10.851  1.00  0.00     0.278 C 
ENDBRANCH  10  26
TORSDOF 6
ENDMDL
MODEL 8
REMARK VINA RESULT:    -4.136      1.844      7.706
REMARK INTER + INTRA:          -6.216
REMARK INTER:                  -5.584
REMARK INTRA:                  -0.632
REMARK UNBOUND:                -0.629
REMARK SMILES COc1ccc(-c2cc(=O)c3c(OC)c(OC)c(OC)c(OC)c3o2)cc1
REMARK SMILES IDX 7 1 8 2 9 3 10 4 11 5 24 6 25 7 21 8 18 9 15 10 12 11 6 12
REMARK SMILES IDX 3 13 4 14 27 15 5 16 26 17 2 18 1 19 22 20 23 21 13 22 14 23
REMARK SMILES IDX 19 24 20 25 16 26 17 27
REMARK H PARENT
REMARK Flexibility Score: inf
ROOT
ATOM      1  C   UNL     1      -6.102   1.732  -2.832  1.00  0.00     0.138 A 
ATOM      2  C   UNL     1      -4.936   2.338  -3.301  1.00  0.00     0.100 A 
ATOM      3  C   UNL     1      -4.918   3.716  -3.502  1.00  0.00     0.197 A 
ATOM      4  O   UNL     1      -3.860   4.242  -3.941  1.00  0.00    -0.289 OA
ATOM      5  C   UNL     1      -6.074   4.485  -3.220  1.00  0.00     0.115 A 
ATOM      6  C   UNL     1      -7.208   3.803  -2.722  1.00  0.00     0.188 A 
ATOM      7  O   UNL     1      -7.169   2.480  -2.572  1.00  0.00    -0.452 OA
ATOM      8  C   UNL     1      -8.383   4.510  -2.390  1.00  0.00     0.209 A 
ATOM      9  C   UNL     1      -8.448   5.907  -2.623  1.00  0.00     0.211 A 
ATOM     10  C   UNL     1      -7.332   6.587  -3.176  1.00  0.00     0.208 A 
ATOM     11  C   UNL     1      -6.129   5.882  -3.438  1.00  0.00     0.179 A 
ENDROOT
BRANCH   1  12
ATOM     12  C   UNL     1      -6.183   0.268  -2.626  1.00  0.00     0.018 A 
ATOM     13  C   UNL     1      -6.280  -2.529  -2.256  1.00  0.00     0.118 A 
ATOM     14  C   UNL     1      -7.387  -1.842  -2.787  1.00  0.00     0.047 A 
ATOM     15  C   UNL     1      -5.131  -1.807  -1.916  1.00  0.00     0.047 A 
ATOM     16  C   UNL     1      -7.339  -0.457  -2.970  1.00  0.00     0.016 A 
ATOM     17  C   UNL     1      -5.078  -0.423  -2.104  1.00  0.00     0.016 A 
BRANCH  13  18
ATOM     18  O   UNL     1      -6.279  -3.917  -2.054  1.00  0.00    -0.497 OA
ATOM     19  C   UNL     1      -7.450  -4.699  -1.845  1.00  0.00     0.278 C 
ENDBRANCH  13  18
ENDBRANCH   1  12
BRANCH   8  20
ATOM     20  O   UNL     1      -9.507   3.865  -1.840  1.00  0.00    -0.490 OA
ATOM     21  C   UNL     1     -10.576   3.255  -2.555  1.00  0.00     0.278 C 
ENDBRANCH   8  20
BRANCH  11  22
ATOM     22  O   UNL     1      -4.965   6.515  -3.927  1.00  0.00    -0.492 OA
ATOM     23  C   UNL     1      -4.084   7.389  -3.228  1.00  0.00     0.278 C 
ENDBRANCH  11  22
BRANCH   9  24
ATOM     24  O   UNL     1      -9.589   6.671  -2.301  1.00  0.00    -0.490 OA
ATOM     25  C   UNL     1     -10.682   7.010  -3.148  1.00  0.00     0.279 C 
ENDBRANCH   9  24
BRANCH  10  26
ATOM     26  O   UNL     1      -7.368   7.964  -3.475  1.00  0.00    -0.490 OA
ATOM     27  C   UNL     1      -7.262   9.054  -2.565  1.00  0.00     0.278 C 
ENDBRANCH  10  26
TORSDOF 6
ENDMDL
