MODEL 1
REMARK VINA RESULT:    -4.097      0.000      0.000
REMARK INTER + INTRA:          -7.329
REMARK INTER:                  -6.252
REMARK INTRA:                  -1.077
REMARK UNBOUND:                -1.077
REMARK SMILES CCCCCCCCCCC(=O)[O-]
REMARK SMILES IDX 7 1 8 2 9 3 10 4 11 5 12 6 13 7 6 8 5 9 4 10 3 11 2 12 1 13
REMARK H PARENT
REMARK Flexibility Score: inf
ROOT
ATOM      1  C   UNL     1     -20.366 -31.105  19.993  1.00  0.00     0.000 C 
ENDROOT
BRANCH   1   2
ATOM      2  C   UNL     1     -19.990 -30.222  18.797  1.00  0.00     0.000 C 
BRANCH   2   3
ATOM      3  C   UNL     1     -18.517 -29.795  18.869  1.00  0.00     0.006 C 
BRANCH   3   4
ATOM      4  C   UNL     1     -18.357 -28.270  18.938  1.00  0.00     0.053 C 
BRANCH   4   5
ATOM      5  C   UNL     1     -17.200 -27.795  18.113  1.00  0.00     0.041 C 
ATOM      6  O   UNL     1     -17.320 -27.669  16.867  1.00  0.00    -0.550 OA
ATOM      7  O   UNL     1     -15.999 -27.459  18.727  1.00  0.00    -0.550 OA
ENDBRANCH   4   5
ENDBRANCH   3   4
ENDBRANCH   2   3
ENDBRANCH   1   2
BRANCH   1   8
ATOM      8  C   UNL     1     -19.141 -31.855  20.531  1.00  0.00     0.000 C 
BRANCH   8   9
ATOM      9  C   UNL     1     -19.137 -33.315  20.053  1.00  0.00    -0.000 C 
BRANCH   9  10
ATOM     10  C   UNL     1     -17.787 -33.740  19.455  1.00  0.00    -0.000 C 
BRANCH  10  11
ATOM     11  C   UNL     1     -17.791 -33.733  17.919  1.00  0.00    -0.000 C 
BRANCH  11  12
ATOM     12  C   UNL     1     -19.224 -33.761  17.375  1.00  0.00    -0.003 C 
ATOM     13  C   UNL     1     -19.378 -32.827  16.178  1.00  0.00     0.004 C 
ENDBRANCH  11  12
ENDBRANCH  10  11
ENDBRANCH   9  10
ENDBRANCH   8   9
ENDBRANCH   1   8
TORSDOF 9
ENDMDL
MODEL 2
REMARK VINA RESULT:    -4.089      1.686      2.691
REMARK INTER + INTRA:          -7.317
REMARK INTER:                  -6.191
REMARK INTRA:                  -1.126
REMARK UNBOUND:                -1.077
REMARK SMILES CCCCCCCCCCC(=O)[O-]
REMARK SMILES IDX 7 1 8 2 9 3 10 4 11 5 12 6 13 7 6 8 5 9 4 10 3 11 2 12 1 13
REMARK H PARENT
REMARK Flexibility Score: inf
ROOT
ATOM      1  C   UNL     1     -20.087 -31.255  20.089  1.00  0.00     0.000 C 
ENDROOT
BRANCH   1   2
ATOM      2  C   UNL     1     -19.894 -30.254  18.944  1.00  0.00     0.000 C 
BRANCH   2   3
ATOM      3  C   UNL     1     -18.433 -30.234  18.470  1.00  0.00     0.006 C 
BRANCH   3   4
ATOM      4  C   UNL     1     -17.590 -29.200  19.229  1.00  0.00     0.053 C 
BRANCH   4   5
ATOM      5  C   UNL     1     -17.750 -27.825  18.658  1.00  0.00     0.041 C 
ATOM      6  O   UNL     1     -18.412 -26.954  19.280  1.00  0.00    -0.550 OA
ATOM      7  O   UNL     1     -17.139 -27.496  17.453  1.00  0.00    -0.550 OA
ENDBRANCH   4   5
ENDBRANCH   3   4
ENDBRANCH   2   3
ENDBRANCH   1   2
BRANCH   1   8
ATOM      8  C   UNL     1     -19.550 -32.640  19.707  1.00  0.00     0.000 C 
BRANCH   8   9
ATOM      9  C   UNL     1     -18.642 -33.201  20.811  1.00  0.00    -0.000 C 
BRANCH   9  10
ATOM     10  C   UNL     1     -17.993 -32.098  21.662  1.00  0.00    -0.000 C 
BRANCH  10  11
ATOM     11  C   UNL     1     -16.484 -32.310  21.856  1.00  0.00    -0.000 C 
BRANCH  11  12
ATOM     12  C   UNL     1     -15.904 -33.176  20.732  1.00  0.00    -0.003 C 
ATOM     13  C   UNL     1     -15.259 -32.316  19.649  1.00  0.00     0.004 C 
ENDBRANCH  11  12
ENDBRANCH  10  11
ENDBRANCH   9  10
ENDBRANCH   8   9
ENDBRANCH   1   8
TORSDOF 9
ENDMDL
MODEL 3
REMARK VINA RESULT:    -3.993      2.652      4.762
REMARK INTER + INTRA:          -7.171
REMARK INTER:                  -5.797
REMARK INTRA:                  -1.374
REMARK UNBOUND:                -1.077
REMARK SMILES CCCCCCCCCCC(=O)[O-]
REMARK SMILES IDX 7 1 8 2 9 3 10 4 11 5 12 6 13 7 6 8 5 9 4 10 3 11 2 12 1 13
REMARK H PARENT
REMARK Flexibility Score: inf
ROOT
ATOM      1  C   UNL     1     -18.227 -33.649  19.658  1.00  0.00     0.000 C 
ENDROOT
BRANCH   1   2
ATOM      2  C   UNL     1     -17.966 -33.702  18.148  1.00  0.00     0.000 C 
BRANCH   2   3
ATOM      3  C   UNL     1     -19.284 -33.760  17.363  1.00  0.00     0.006 C 
BRANCH   3   4
ATOM      4  C   UNL     1     -19.359 -32.682  16.273  1.00  0.00     0.053 C 
BRANCH   4   5
ATOM      5  C   UNL     1     -18.717 -33.135  14.998  1.00  0.00     0.041 C 
ATOM      6  O   UNL     1     -17.561 -32.740  14.696  1.00  0.00    -0.550 OA
ATOM      7  O   UNL     1     -19.383 -34.020  14.159  1.00  0.00    -0.550 OA
ENDBRANCH   4   5
ENDBRANCH   3   4
ENDBRANCH   2   3
ENDBRANCH   1   2
BRANCH   1   8
ATOM      8  C   UNL     1     -19.578 -32.990  19.961  1.00  0.00     0.000 C 
BRANCH   8   9
ATOM      9  C   UNL     1     -19.398 -31.509  20.327  1.00  0.00    -0.000 C 
BRANCH   9  10
ATOM     10  C   UNL     1     -20.005 -30.561  19.280  1.00  0.00    -0.000 C 
BRANCH  10  11
ATOM     11  C   UNL     1     -18.994 -29.528  18.761  1.00  0.00    -0.000 C 
BRANCH  11  12
ATOM     12  C   UNL     1     -17.556 -30.021  18.958  1.00  0.00    -0.003 C 
ATOM     13  C   UNL     1     -16.858 -30.237  17.618  1.00  0.00     0.004 C 
ENDBRANCH  11  12
ENDBRANCH  10  11
ENDBRANCH   9  10
ENDBRANCH   8   9
ENDBRANCH   1   8
TORSDOF 9
ENDMDL
MODEL 4
REMARK VINA RESULT:    -3.939      1.274      2.248
REMARK INTER + INTRA:          -7.089
REMARK INTER:                  -6.367
REMARK INTRA:                  -0.722
REMARK UNBOUND:                -1.077
REMARK SMILES CCCCCCCCCCC(=O)[O-]
REMARK SMILES IDX 7 1 8 2 9 3 10 4 11 5 12 6 13 7 6 8 5 9 4 10 3 11 2 12 1 13
REMARK H PARENT
REMARK Flexibility Score: inf
ROOT
ATOM      1  C   UNL     1     -19.315 -32.243  20.041  1.00  0.00     0.000 C 
ENDROOT
BRANCH   1   2
ATOM      2  C   UNL     1     -20.361 -31.125  19.988  1.00  0.00     0.000 C 
BRANCH   2   3
ATOM      3  C   UNL     1     -19.932 -30.013  19.020  1.00  0.00     0.006 C 
BRANCH   3   4
ATOM      4  C   UNL     1     -18.440 -29.673  19.150  1.00  0.00     0.053 C 
BRANCH   4   5
ATOM      5  C   UNL     1     -18.121 -28.335  18.557  1.00  0.00     0.041 C 
ATOM      6  O   UNL     1     -18.402 -27.281  19.183  1.00  0.00    -0.550 OA
ATOM      7  O   UNL     1     -17.482 -28.255  17.325  1.00  0.00    -0.550 OA
ENDBRANCH   4   5
ENDBRANCH   3   4
ENDBRANCH   2   3
ENDBRANCH   1   2
BRANCH   1   8
ATOM      8  C   UNL     1     -19.611 -33.326  18.995  1.00  0.00     0.000 C 
BRANCH   8   9
ATOM      9  C   UNL     1     -18.504 -33.380  17.932  1.00  0.00    -0.000 C 
BRANCH   9  10
ATOM     10  C   UNL     1     -18.894 -32.659  16.632  1.00  0.00    -0.000 C 
BRANCH  10  11
ATOM     11  C   UNL     1     -19.800 -33.511  15.731  1.00  0.00    -0.000 C 
BRANCH  11  12
ATOM     12  C   UNL     1     -19.123 -33.797  14.386  1.00  0.00    -0.003 C 
ATOM     13  C   UNL     1     -17.858 -32.960  14.215  1.00  0.00     0.004 C 
ENDBRANCH  11  12
ENDBRANCH  10  11
ENDBRANCH   9  10
ENDBRANCH   8   9
ENDBRANCH   1   8
TORSDOF 9
ENDMDL
MODEL 5
REMARK VINA RESULT:    -3.900      2.843      4.742
REMARK INTER + INTRA:          -7.028
REMARK INTER:                  -5.865
REMARK INTRA:                  -1.163
REMARK UNBOUND:                -1.077
REMARK SMILES CCCCCCCCCCC(=O)[O-]
REMARK SMILES IDX 7 1 8 2 9 3 10 4 11 5 12 6 13 7 6 8 5 9 4 10 3 11 2 12 1 13
REMARK H PARENT
REMARK Flexibility Score: inf
ROOT
ATOM      1  C   UNL     1     -19.572 -32.838  19.938  1.00  0.00     0.000 C 
ENDROOT
BRANCH   1   2
ATOM      2  C   UNL     1     -18.442 -33.084  18.932  1.00  0.00     0.000 C 
BRANCH   2   3
ATOM      3  C   UNL     1     -17.364 -34.001  19.528  1.00  0.00     0.006 C 
BRANCH   3   4
ATOM      4  C   UNL     1     -17.264 -33.865  21.054  1.00  0.00     0.053 C 
BRANCH   4   5
ATOM      5  C   UNL     1     -16.173 -32.922  21.458  1.00  0.00     0.041 C 
ATOM      6  O   UNL     1     -16.397 -32.020  22.307  1.00  0.00    -0.550 OA
ATOM      7  O   UNL     1     -14.898 -33.062  20.923  1.00  0.00    -0.550 OA
ENDBRANCH   4   5
ENDBRANCH   3   4
ENDBRANCH   2   3
ENDBRANCH   1   2
BRANCH   1   8
ATOM      8  C   UNL     1     -19.867 -31.339  20.080  1.00  0.00     0.000 C 
BRANCH   8   9
ATOM      9  C   UNL     1     -19.605 -30.599  18.760  1.00  0.00    -0.000 C 
BRANCH   9  10
ATOM     10  C   UNL     1     -18.661 -29.399  18.930  1.00  0.00    -0.000 C 
BRANCH  10  11
ATOM     11  C   UNL     1     -17.448 -29.721  19.816  1.00  0.00    -0.000 C 
BRANCH  11  12
ATOM     12  C   UNL     1     -16.238 -30.124  18.964  1.00  0.00    -0.003 C 
ATOM     13  C   UNL     1     -16.350 -29.567  17.548  1.00  0.00     0.004 C 
ENDBRANCH  11  12
ENDBRANCH  10  11
ENDBRANCH   9  10
ENDBRANCH   8   9
ENDBRANCH   1   8
TORSDOF 9
ENDMDL
MODEL 6
REMARK VINA RESULT:    -3.849      1.781      2.922
REMARK INTER + INTRA:          -6.951
REMARK INTER:                  -5.739
REMARK INTRA:                  -1.212
REMARK UNBOUND:                -1.077
REMARK SMILES CCCCCCCCCCC(=O)[O-]
REMARK SMILES IDX 7 1 8 2 9 3 10 4 11 5 12 6 13 7 6 8 5 9 4 10 3 11 2 12 1 13
REMARK H PARENT
REMARK Flexibility Score: inf
ROOT
ATOM      1  C   UNL     1     -19.745 -31.479  19.993  1.00  0.00     0.000 C 
ENDROOT
BRANCH   1   2
ATOM      2  C   UNL     1     -19.643 -30.661  18.700  1.00  0.00     0.000 C 
BRANCH   2   3
ATOM      3  C   UNL     1     -18.890 -29.344  18.940  1.00  0.00     0.006 C 
BRANCH   3   4
ATOM      4  C   UNL     1     -17.445 -29.577  19.403  1.00  0.00     0.053 C 
BRANCH   4   5
ATOM      5  C   UNL     1     -16.553 -29.970  18.265  1.00  0.00     0.041 C 
ATOM      6  O   UNL     1     -15.766 -30.944  18.384  1.00  0.00    -0.550 OA
ATOM      7  O   UNL     1     -16.617 -29.280  17.060  1.00  0.00    -0.550 OA
ENDBRANCH   4   5
ENDBRANCH   3   4
ENDBRANCH   2   3
ENDBRANCH   1   2
BRANCH   1   8
ATOM      8  C   UNL     1     -19.615 -32.981  19.707  1.00  0.00     0.000 C 
BRANCH   8   9
ATOM      9  C   UNL     1     -18.537 -33.247  18.647  1.00  0.00    -0.000 C 
BRANCH   9  10
ATOM     10  C   UNL     1     -17.302 -33.958  19.222  1.00  0.00    -0.000 C 
BRANCH  10  11
ATOM     11  C   UNL     1     -17.372 -34.123  20.748  1.00  0.00    -0.000 C 
BRANCH  11  12
ATOM     12  C   UNL     1     -16.208 -33.395  21.431  1.00  0.00    -0.003 C 
ATOM     13  C   UNL     1     -16.630 -32.010  21.913  1.00  0.00     0.004 C 
ENDBRANCH  11  12
ENDBRANCH  10  11
ENDBRANCH   9  10
ENDBRANCH   8   9
ENDBRANCH   1   8
TORSDOF 9
ENDMDL
MODEL 7
REMARK VINA RESULT:    -3.849      2.581      3.721
REMARK INTER + INTRA:          -6.951
REMARK INTER:                  -5.557
REMARK INTRA:                  -1.394
REMARK UNBOUND:                -1.077
REMARK SMILES CCCCCCCCCCC(=O)[O-]
REMARK SMILES IDX 7 1 8 2 9 3 10 4 11 5 12 6 13 7 6 8 5 9 4 10 3 11 2 12 1 13
REMARK H PARENT
REMARK Flexibility Score: inf
ROOT
ATOM      1  C   UNL     1     -19.674 -30.413  18.824  1.00  0.00     0.000 C 
ENDROOT
BRANCH   1   2
ATOM      2  C   UNL     1     -18.515 -29.449  19.101  1.00  0.00     0.000 C 
BRANCH   2   3
ATOM      3  C   UNL     1     -17.164 -30.105  18.779  1.00  0.00     0.006 C 
BRANCH   3   4
ATOM      4  C   UNL     1     -17.161 -30.782  17.401  1.00  0.00     0.053 C 
BRANCH   4   5
ATOM      5  C   UNL     1     -16.562 -32.153  17.457  1.00  0.00     0.041 C 
ATOM      6  O   UNL     1     -17.280 -33.167  17.257  1.00  0.00    -0.550 OA
ATOM      7  O   UNL     1     -15.201 -32.309  17.696  1.00  0.00    -0.550 OA
ENDBRANCH   4   5
ENDBRANCH   3   4
ENDBRANCH   2   3
ENDBRANCH   1   2
BRANCH   1   8
ATOM      8  C   UNL     1     -19.985 -31.272  20.056  1.00  0.00     0.000 C 
BRANCH   8   9
ATOM      9  C   UNL     1     -19.662 -32.750  19.792  1.00  0.00    -0.000 C 
BRANCH   9  10
ATOM     10  C   UNL     1     -18.460 -33.250  20.608  1.00  0.00    -0.000 C 
BRANCH  10  11
ATOM     11  C   UNL     1     -18.103 -32.312  21.771  1.00  0.00    -0.000 C 
BRANCH  11  12
ATOM     12  C   UNL     1     -16.586 -32.108  21.864  1.00  0.00    -0.003 C 
ATOM     13  C   UNL     1     -15.836 -33.171  21.067  1.00  0.00     0.004 C 
ENDBRANCH  11  12
ENDBRANCH  10  11
ENDBRANCH   9  10
ENDBRANCH   8   9
ENDBRANCH   1   8
TORSDOF 9
ENDMDL
MODEL 8
REMARK VINA RESULT:    -3.825      1.467      2.737
REMARK INTER + INTRA:          -6.914
REMARK INTER:                  -5.650
REMARK INTRA:                  -1.264
REMARK UNBOUND:                -1.077
REMARK SMILES CCCCCCCCCCC(=O)[O-]
REMARK SMILES IDX 7 1 8 2 9 3 10 4 11 5 12 6 13 7 6 8 5 9 4 10 3 11 2 12 1 13
REMARK H PARENT
REMARK Flexibility Score: inf
ROOT
ATOM      1  C   UNL     1     -17.141 -31.981  17.151  1.00  0.00     0.000 C 
ENDROOT
BRANCH   1   2
ATOM      2  C   UNL     1     -17.512 -30.559  17.587  1.00  0.00     0.000 C 
BRANCH   2   3
ATOM      3  C   UNL     1     -16.631 -30.094  18.756  1.00  0.00     0.006 C 
BRANCH   3   4
ATOM      4  C   UNL     1     -17.339 -29.059  19.641  1.00  0.00     0.053 C 
BRANCH   4   5
ATOM      5  C   UNL     1     -17.519 -27.752  18.932  1.00  0.00     0.041 C 
ATOM      6  O   UNL     1     -18.483 -26.998  19.227  1.00  0.00    -0.550 OA
ATOM      7  O   UNL     1     -16.602 -27.351  17.967  1.00  0.00    -0.550 OA
ENDBRANCH   4   5
ENDBRANCH   3   4
ENDBRANCH   2   3
ENDBRANCH   1   2
BRANCH   1   8
ATOM      8  C   UNL     1     -16.460 -32.748  18.291  1.00  0.00     0.000 C 
BRANCH   8   9
ATOM      9  C   UNL     1     -17.416 -33.781  18.906  1.00  0.00    -0.000 C 
BRANCH   9  10
ATOM     10  C   UNL     1     -17.475 -33.696  20.439  1.00  0.00    -0.000 C 
BRANCH  10  11
ATOM     11  C   UNL     1     -18.520 -32.687  20.937  1.00  0.00    -0.000 C 
BRANCH  11  12
ATOM     12  C   UNL     1     -19.687 -32.574  19.948  1.00  0.00    -0.003 C 
ATOM     13  C   UNL     1     -20.296 -31.176  19.970  1.00  0.00     0.004 C 
ENDBRANCH  11  12
ENDBRANCH  10  11
ENDBRANCH   9  10
ENDBRANCH   8   9
ENDBRANCH   1   8
TORSDOF 9
ENDMDL
MODEL 9
REMARK VINA RESULT:    -3.790      1.690      3.109
REMARK INTER + INTRA:          -6.861
REMARK INTER:                  -5.547
REMARK INTRA:                  -1.314
REMARK UNBOUND:                -1.077
REMARK SMILES CCCCCCCCCCC(=O)[O-]
REMARK SMILES IDX 7 1 8 2 9 3 10 4 11 5 12 6 13 7 6 8 5 9 4 10 3 11 2 12 1 13
REMARK H PARENT
REMARK Flexibility Score: inf
ROOT
ATOM      1  C   UNL     1     -18.415 -31.061  17.695  1.00  0.00     0.000 C 
ENDROOT
BRANCH   1   2
ATOM      2  C   UNL     1     -16.890 -31.047  17.850  1.00  0.00     0.000 C 
BRANCH   2   3
ATOM      3  C   UNL     1     -16.472 -30.283  19.115  1.00  0.00     0.006 C 
BRANCH   3   4
ATOM      4  C   UNL     1     -17.589 -29.367  19.636  1.00  0.00     0.053 C 
BRANCH   4   5
ATOM      5  C   UNL     1     -17.280 -27.922  19.393  1.00  0.00     0.041 C 
ATOM      6  O   UNL     1     -16.088 -27.541  19.265  1.00  0.00    -0.550 OA
ATOM      7  O   UNL     1     -18.314 -27.000  19.276  1.00  0.00    -0.550 OA
ENDBRANCH   4   5
ENDBRANCH   3   4
ENDBRANCH   2   3
ENDBRANCH   1   2
BRANCH   1   8
ATOM      8  C   UNL     1     -18.928 -32.479  17.411  1.00  0.00     0.000 C 
BRANCH   8   9
ATOM      9  C   UNL     1     -18.746 -33.385  18.638  1.00  0.00    -0.000 C 
BRANCH   9  10
ATOM     10  C   UNL     1     -19.491 -32.863  19.876  1.00  0.00    -0.000 C 
BRANCH  10  11
ATOM     11  C   UNL     1     -18.579 -32.734  21.105  1.00  0.00    -0.000 C 
BRANCH  11  12
ATOM     12  C   UNL     1     -17.419 -33.734  21.034  1.00  0.00    -0.003 C 
ATOM     13  C   UNL     1     -16.115 -33.102  21.513  1.00  0.00     0.004 C 
ENDBRANCH  11  12
ENDBRANCH  10  11
ENDBRANCH   9  10
ENDBRANCH   8   9
ENDBRANCH   1   8
TORSDOF 9
ENDMDL
