MODEL 1
REMARK VINA RESULT:    -3.187      0.000      0.000
REMARK INTER + INTRA:          -3.864
REMARK INTER:                  -3.746
REMARK INTRA:                  -0.118
REMARK UNBOUND:                -0.118
REMARK SMILES O=C([O-])CCC(=O)[O-]
REMARK SMILES IDX 4 1 2 2 1 3 3 4 5 5 6 6 7 7 8 8
REMARK H PARENT
REMARK Flexibility Score: inf
ROOT
ATOM      1  C   UNL     1      13.860  16.638  17.455  1.00  0.00     0.059 C 
ENDROOT
BRANCH   1   2
ATOM      2  C   UNL     1      14.604  16.818  16.167  1.00  0.00     0.042 C 
ATOM      3  O   UNL     1      14.294  17.752  15.381  1.00  0.00    -0.550 OA
ATOM      4  O   UNL     1      15.612  15.929  15.814  1.00  0.00    -0.550 OA
ENDBRANCH   1   2
BRANCH   1   5
ATOM      5  C   UNL     1      12.675  15.680  17.294  1.00  0.00     0.059 C 
BRANCH   5   6
ATOM      6  C   UNL     1      11.407  16.415  16.986  1.00  0.00     0.042 C 
ATOM      7  O   UNL     1      11.334  17.658  17.172  1.00  0.00    -0.550 OA
ATOM      8  O   UNL     1      10.292  15.721  16.533  1.00  0.00    -0.550 OA
ENDBRANCH   5   6
ENDBRANCH   1   5
TORSDOF 3
ENDMDL
MODEL 2
REMARK VINA RESULT:    -3.179      0.143      3.750
REMARK INTER + INTRA:          -3.855
REMARK INTER:                  -3.737
REMARK INTRA:                  -0.118
REMARK UNBOUND:                -0.118
REMARK SMILES O=C([O-])CCC(=O)[O-]
REMARK SMILES IDX 4 1 2 2 1 3 3 4 5 5 6 6 7 7 8 8
REMARK H PARENT
REMARK Flexibility Score: inf
ROOT
ATOM      1  C   UNL     1      12.599  15.686  17.211  1.00  0.00     0.059 C 
ENDROOT
BRANCH   1   2
ATOM      2  C   UNL     1      11.350  16.494  17.025  1.00  0.00     0.042 C 
ATOM      3  O   UNL     1      10.267  15.925  16.727  1.00  0.00    -0.550 OA
ATOM      4  O   UNL     1      11.393  17.877  17.139  1.00  0.00    -0.550 OA
ENDBRANCH   1   2
BRANCH   1   5
ATOM      5  C   UNL     1      13.824  16.582  17.425  1.00  0.00     0.059 C 
BRANCH   5   6
ATOM      6  C   UNL     1      14.589  16.785  16.153  1.00  0.00     0.042 C 
ATOM      7  O   UNL     1      14.294  17.736  15.381  1.00  0.00    -0.550 OA
ATOM      8  O   UNL     1      15.600  15.901  15.799  1.00  0.00    -0.550 OA
ENDBRANCH   5   6
ENDBRANCH   1   5
TORSDOF 3
ENDMDL
MODEL 3
REMARK VINA RESULT:    -3.179      0.040      3.693
REMARK INTER + INTRA:          -3.854
REMARK INTER:                  -3.737
REMARK INTRA:                  -0.117
REMARK UNBOUND:                -0.118
REMARK SMILES O=C([O-])CCC(=O)[O-]
REMARK SMILES IDX 4 1 2 2 1 3 3 4 5 5 6 6 7 7 8 8
REMARK H PARENT
REMARK Flexibility Score: inf
ROOT
ATOM      1  C   UNL     1      12.655  15.701  17.260  1.00  0.00     0.059 C 
ENDROOT
BRANCH   1   2
ATOM      2  C   UNL     1      11.388  16.447  16.973  1.00  0.00     0.042 C 
ATOM      3  O   UNL     1      11.338  17.695  17.135  1.00  0.00    -0.550 OA
ATOM      4  O   UNL     1      10.252  15.760  16.566  1.00  0.00    -0.550 OA
ENDBRANCH   1   2
BRANCH   1   5
ATOM      5  C   UNL     1      13.843  16.652  17.440  1.00  0.00     0.059 C 
BRANCH   5   6
ATOM      6  C   UNL     1      14.604  16.834  16.163  1.00  0.00     0.042 C 
ATOM      7  O   UNL     1      14.297  17.761  15.368  1.00  0.00    -0.550 OA
ATOM      8  O   UNL     1      15.626  15.953  15.830  1.00  0.00    -0.550 OA
ENDBRANCH   5   6
ENDBRANCH   1   5
TORSDOF 3
ENDMDL
MODEL 4
REMARK VINA RESULT:    -2.958      1.534      3.958
REMARK INTER + INTRA:          -3.595
REMARK INTER:                  -3.505
REMARK INTRA:                  -0.090
REMARK UNBOUND:                -0.118
REMARK SMILES O=C([O-])CCC(=O)[O-]
REMARK SMILES IDX 4 1 2 2 1 3 3 4 5 5 6 6 7 7 8 8
REMARK H PARENT
REMARK Flexibility Score: inf
ROOT
ATOM      1  C   UNL     1      12.800  16.262  15.763  1.00  0.00     0.059 C 
ENDROOT
BRANCH   1   2
ATOM      2  C   UNL     1      12.082  15.586  16.891  1.00  0.00     0.042 C 
ATOM      3  O   UNL     1      10.829  15.461  16.859  1.00  0.00    -0.550 OA
ATOM      4  O   UNL     1      12.790  15.133  17.996  1.00  0.00    -0.550 OA
ENDBRANCH   1   2
BRANCH   1   5
ATOM      5  C   UNL     1      13.704  17.393  16.266  1.00  0.00     0.059 C 
BRANCH   5   6
ATOM      6  C   UNL     1      15.141  16.973  16.313  1.00  0.00     0.042 C 
ATOM      7  O   UNL     1      15.501  15.885  15.791  1.00  0.00    -0.550 OA
ATOM      8  O   UNL     1      16.076  17.762  16.971  1.00  0.00    -0.550 OA
ENDBRANCH   5   6
ENDBRANCH   1   5
TORSDOF 3
ENDMDL
MODEL 5
REMARK VINA RESULT:    -2.910      2.396      3.579
REMARK INTER + INTRA:          -3.538
REMARK INTER:                  -3.448
REMARK INTRA:                  -0.091
REMARK UNBOUND:                -0.118
REMARK SMILES O=C([O-])CCC(=O)[O-]
REMARK SMILES IDX 4 1 2 2 1 3 3 4 5 5 6 6 7 7 8 8
REMARK H PARENT
REMARK Flexibility Score: inf
ROOT
ATOM      1  C   UNL     1      12.484  16.649  15.595  1.00  0.00     0.059 C 
ENDROOT
BRANCH   1   2
ATOM      2  C   UNL     1      11.943  15.797  16.703  1.00  0.00     0.042 C 
ATOM      3  O   UNL     1      12.698  15.422  17.638  1.00  0.00    -0.550 OA
ATOM      4  O   UNL     1      10.618  15.382  16.679  1.00  0.00    -0.550 OA
ENDBRANCH   1   2
BRANCH   1   5
ATOM      5  C   UNL     1      11.384  17.060  14.610  1.00  0.00     0.059 C 
BRANCH   5   6
ATOM      6  C   UNL     1      11.076  18.523  14.705  1.00  0.00     0.042 C 
ATOM      7  O   UNL     1      10.395  19.087  13.808  1.00  0.00    -0.550 OA
ATOM      8  O   UNL     1      11.576  19.273  15.761  1.00  0.00    -0.550 OA
ENDBRANCH   5   6
ENDBRANCH   1   5
TORSDOF 3
ENDMDL
MODEL 6
REMARK VINA RESULT:    -2.906      2.416      3.490
REMARK INTER + INTRA:          -3.533
REMARK INTER:                  -3.439
REMARK INTRA:                  -0.095
REMARK UNBOUND:                -0.118
REMARK SMILES O=C([O-])CCC(=O)[O-]
REMARK SMILES IDX 4 1 2 2 1 3 3 4 5 5 6 6 7 7 8 8
REMARK H PARENT
REMARK Flexibility Score: inf
ROOT
ATOM      1  C   UNL     1      11.266  17.118  14.601  1.00  0.00     0.059 C 
ENDROOT
BRANCH   1   2
ATOM      2  C   UNL     1      11.103  18.606  14.663  1.00  0.00     0.042 C 
ATOM      3  O   UNL     1      11.727  19.276  15.529  1.00  0.00    -0.550 OA
ATOM      4  O   UNL     1      10.232  19.249  13.793  1.00  0.00    -0.550 OA
ENDBRANCH   1   2
BRANCH   1   5
ATOM      5  C   UNL     1      12.342  16.626  15.575  1.00  0.00     0.059 C 
BRANCH   5   6
ATOM      6  C   UNL     1      11.747  15.852  16.712  1.00  0.00     0.042 C 
ATOM      7  O   UNL     1      12.494  15.298  17.560  1.00  0.00    -0.550 OA
ATOM      8  O   UNL     1      10.369  15.708  16.811  1.00  0.00    -0.550 OA
ENDBRANCH   5   6
ENDBRANCH   1   5
TORSDOF 3
ENDMDL
MODEL 7
REMARK VINA RESULT:    -2.903      1.611      2.236
REMARK INTER + INTRA:          -3.530
REMARK INTER:                  -3.411
REMARK INTRA:                  -0.119
REMARK UNBOUND:                -0.118
REMARK SMILES O=C([O-])CCC(=O)[O-]
REMARK SMILES IDX 4 1 2 2 1 3 3 4 5 5 6 6 7 7 8 8
REMARK H PARENT
REMARK Flexibility Score: inf
ROOT
ATOM      1  C   UNL     1      13.754  16.610  16.641  1.00  0.00     0.059 C 
ENDROOT
BRANCH   1   2
ATOM      2  C   UNL     1      14.205  17.726  17.534  1.00  0.00     0.042 C 
ATOM      3  O   UNL     1      15.300  17.641  18.150  1.00  0.00    -0.550 OA
ATOM      4  O   UNL     1      13.397  18.841  17.717  1.00  0.00    -0.550 OA
ENDBRANCH   1   2
BRANCH   1   5
ATOM      5  C   UNL     1      12.522  15.896  17.207  1.00  0.00     0.059 C 
BRANCH   5   6
ATOM      6  C   UNL     1      11.279  16.255  16.454  1.00  0.00     0.042 C 
ATOM      7  O   UNL     1      10.228  15.578  16.605  1.00  0.00    -0.550 OA
ATOM      8  O   UNL     1      11.292  17.311  15.552  1.00  0.00    -0.550 OA
ENDBRANCH   5   6
ENDBRANCH   1   5
TORSDOF 3
ENDMDL
MODEL 8
REMARK VINA RESULT:    -2.894      1.927      3.224
REMARK INTER + INTRA:          -3.520
REMARK INTER:                  -3.370
REMARK INTRA:                  -0.149
REMARK UNBOUND:                -0.118
REMARK SMILES O=C([O-])CCC(=O)[O-]
REMARK SMILES IDX 4 1 2 2 1 3 3 4 5 5 6 6 7 7 8 8
REMARK H PARENT
REMARK Flexibility Score: inf
ROOT
ATOM      1  C   UNL     1      12.819  16.291  15.752  1.00  0.00     0.059 C 
ENDROOT
BRANCH   1   2
ATOM      2  C   UNL     1      12.142  15.621  16.908  1.00  0.00     0.042 C 
ATOM      3  O   UNL     1      12.822  15.189  17.877  1.00  0.00    -0.550 OA
ATOM      4  O   UNL     1      10.766  15.435  16.897  1.00  0.00    -0.550 OA
ENDBRANCH   1   2
BRANCH   1   5
ATOM      5  C   UNL     1      13.702  17.456  16.213  1.00  0.00     0.059 C 
BRANCH   5   6
ATOM      6  C   UNL     1      12.890  18.564  16.809  1.00  0.00     0.042 C 
ATOM      7  O   UNL     1      13.260  19.118  17.878  1.00  0.00    -0.550 OA
ATOM      8  O   UNL     1      11.701  18.958  16.208  1.00  0.00    -0.550 OA
ENDBRANCH   5   6
ENDBRANCH   1   5
TORSDOF 3
ENDMDL
MODEL 9
REMARK VINA RESULT:    -2.882      2.164      3.357
REMARK INTER + INTRA:          -3.505
REMARK INTER:                  -3.386
REMARK INTRA:                  -0.119
REMARK UNBOUND:                -0.118
REMARK SMILES O=C([O-])CCC(=O)[O-]
REMARK SMILES IDX 4 1 2 2 1 3 3 4 5 5 6 6 7 7 8 8
REMARK H PARENT
REMARK Flexibility Score: inf
ROOT
ATOM      1  C   UNL     1      11.038  16.593  15.793  1.00  0.00     0.059 C 
ENDROOT
BRANCH   1   2
ATOM      2  C   UNL     1      11.345  17.376  14.553  1.00  0.00     0.042 C 
ATOM      3  O   UNL     1      10.723  17.137  13.484  1.00  0.00    -0.550 OA
ATOM      4  O   UNL     1      12.344  18.340  14.567  1.00  0.00    -0.550 OA
ENDBRANCH   1   2
BRANCH   1   5
ATOM      5  C   UNL     1      11.915  17.034  16.971  1.00  0.00     0.059 C 
BRANCH   5   6
ATOM      6  C   UNL     1      13.038  16.073  17.214  1.00  0.00     0.042 C 
ATOM      7  O   UNL     1      12.882  15.103  18.002  1.00  0.00    -0.550 OA
ATOM      8  O   UNL     1      14.270  16.271  16.604  1.00  0.00    -0.550 OA
ENDBRANCH   5   6
ENDBRANCH   1   5
TORSDOF 3
ENDMDL
