MODEL 1
REMARK VINA RESULT:    -5.902      0.000      0.000
REMARK INTER + INTRA:          -7.218
REMARK INTER:                  -6.937
REMARK INTRA:                  -0.281
REMARK UNBOUND:                -0.281
REMARK SMILES O=c1c(O)c(-c2ccc(O)cc2)oc2cc(O)cc(O)c12
REMARK SMILES IDX 5 1 3 2 2 3 1 4 21 5 19 6 18 7 16 8 15 9 14 10 13 11 6 12
REMARK SMILES IDX 7 13 8 14 9 15 12 16 11 17 10 18 4 20 20 22 17 24
REMARK H PARENT 10 19 4 21 20 23 17 25
REMARK Flexibility Score: inf
ROOT
ATOM      1  C   UNL     1       6.020  74.712  37.979  1.00  0.00     0.180 A 
ATOM      2  C   UNL     1       5.328  75.799  38.540  1.00  0.00     0.208 A 
ATOM      3  C   UNL     1       5.870  77.089  38.415  1.00  0.00     0.238 A 
ATOM      4  O   UNL     1       5.274  78.050  38.968  1.00  0.00    -0.285 OA
ATOM      5  C   UNL     1       7.088  77.277  37.719  1.00  0.00     0.111 A 
ATOM      6  C   UNL     1       7.708  78.543  37.497  1.00  0.00     0.134 A 
ATOM      7  C   UNL     1       8.978  78.597  36.909  1.00  0.00     0.093 A 
ATOM      8  C   UNL     1       9.620  77.435  36.474  1.00  0.00     0.123 A 
ATOM      9  C   UNL     1       8.997  76.200  36.631  1.00  0.00     0.094 A 
ATOM     10  C   UNL     1       7.747  76.111  37.248  1.00  0.00     0.146 A 
ATOM     11  O   UNL     1       7.193  74.912  37.388  1.00  0.00    -0.452 OA
ENDROOT
BRANCH   1  12
ATOM     12  C   UNL     1       5.499  73.327  38.046  1.00  0.00     0.021 A 
ATOM     13  C   UNL     1       4.767  72.766  36.984  1.00  0.00     0.016 A 
ATOM     14  C   UNL     1       4.306  71.449  37.061  1.00  0.00     0.047 A 
ATOM     15  C   UNL     1       4.581  70.672  38.194  1.00  0.00     0.115 A 
ATOM     16  C   UNL     1       5.788  72.533  39.170  1.00  0.00     0.016 A 
ATOM     17  C   UNL     1       5.325  71.217  39.244  1.00  0.00     0.047 A 
BRANCH  15  18
ATOM     18  O   UNL     1       4.126  69.358  38.282  1.00  0.00    -0.508 OA
ATOM     19  H   UNL     1       4.729  68.609  38.599  1.00  0.00     0.293 HD
ENDBRANCH  15  18
ENDBRANCH   1  12
BRANCH   2  20
ATOM     20  O   UNL     1       4.139  75.588  39.243  1.00  0.00    -0.502 OA
ATOM     21  H   UNL     1       3.754  76.276  39.880  1.00  0.00     0.293 HD
ENDBRANCH   2  20
BRANCH   6  22
ATOM     22  O   UNL     1       7.113  79.769  37.810  1.00  0.00    -0.507 OA
ATOM     23  H   UNL     1       7.579  80.662  37.761  1.00  0.00     0.293 HD
ENDBRANCH   6  22
BRANCH   8  24
ATOM     24  O   UNL     1      10.876  77.499  35.875  1.00  0.00    -0.508 OA
ATOM     25  H   UNL     1      11.654  77.969  36.323  1.00  0.00     0.293 HD
ENDBRANCH   8  24
TORSDOF 5
ENDMDL
MODEL 2
REMARK VINA RESULT:    -5.743      2.274      4.359
REMARK INTER + INTRA:          -7.031
REMARK INTER:                  -6.753
REMARK INTRA:                  -0.279
REMARK UNBOUND:                -0.281
REMARK SMILES O=c1c(O)c(-c2ccc(O)cc2)oc2cc(O)cc(O)c12
REMARK SMILES IDX 5 1 3 2 2 3 1 4 21 5 19 6 18 7 16 8 15 9 14 10 13 11 6 12
REMARK SMILES IDX 7 13 8 14 9 15 12 16 11 17 10 18 4 20 20 22 17 24
REMARK H PARENT 10 19 4 21 20 23 17 25
REMARK Flexibility Score: inf
ROOT
ATOM      1  C   UNL     1       6.509  71.812  37.446  1.00  0.00     0.180 A 
ATOM      2  C   UNL     1       7.694  72.355  36.921  1.00  0.00     0.208 A 
ATOM      3  C   UNL     1       7.917  73.738  37.032  1.00  0.00     0.238 A 
ATOM      4  O   UNL     1       8.953  74.226  36.511  1.00  0.00    -0.285 OA
ATOM      5  C   UNL     1       6.960  74.556  37.679  1.00  0.00     0.111 A 
ATOM      6  C   UNL     1       7.101  75.961  37.884  1.00  0.00     0.134 A 
ATOM      7  C   UNL     1       6.033  76.692  38.420  1.00  0.00     0.093 A 
ATOM      8  C   UNL     1       4.855  76.056  38.821  1.00  0.00     0.123 A 
ATOM      9  C   UNL     1       4.731  74.676  38.681  1.00  0.00     0.094 A 
ATOM     10  C   UNL     1       5.764  73.926  38.115  1.00  0.00     0.146 A 
ATOM     11  O   UNL     1       5.601  72.614  37.990  1.00  0.00    -0.452 OA
ENDROOT
BRANCH   1  12
ATOM     12  C   UNL     1       6.216  70.361  37.391  1.00  0.00     0.021 A 
ATOM     13  C   UNL     1       6.481  69.517  38.484  1.00  0.00     0.016 A 
ATOM     14  C   UNL     1       6.174  68.154  38.417  1.00  0.00     0.047 A 
ATOM     15  C   UNL     1       5.586  67.622  37.263  1.00  0.00     0.115 A 
ATOM     16  C   UNL     1       5.606  69.822  36.245  1.00  0.00     0.016 A 
ATOM     17  C   UNL     1       5.301  68.459  36.180  1.00  0.00     0.047 A 
BRANCH  15  18
ATOM     18  O   UNL     1       5.276  66.266  37.184  1.00  0.00    -0.508 OA
ATOM     19  H   UNL     1       5.541  65.619  37.918  1.00  0.00     0.293 HD
ENDBRANCH  15  18
ENDBRANCH   1  12
BRANCH   2  20
ATOM     20  O   UNL     1       8.615  71.533  36.266  1.00  0.00    -0.502 OA
ATOM     21  H   UNL     1       9.049  71.794  35.389  1.00  0.00     0.293 HD
ENDBRANCH   2  20
BRANCH   6  22
ATOM     22  O   UNL     1       8.269  76.677  37.603  1.00  0.00    -0.507 OA
ATOM     23  H   UNL     1       8.321  77.682  37.531  1.00  0.00     0.293 HD
ENDBRANCH   6  22
BRANCH   8  24
ATOM     24  O   UNL     1       3.804  76.788  39.368  1.00  0.00    -0.508 OA
ATOM     25  H   UNL     1       3.407  76.553  40.271  1.00  0.00     0.293 HD
ENDBRANCH   8  24
TORSDOF 5
ENDMDL
MODEL 3
REMARK VINA RESULT:    -5.719      5.426      9.241
REMARK INTER + INTRA:          -7.003
REMARK INTER:                  -6.985
REMARK INTRA:                  -0.018
REMARK UNBOUND:                -0.281
REMARK SMILES O=c1c(O)c(-c2ccc(O)cc2)oc2cc(O)cc(O)c12
REMARK SMILES IDX 5 1 3 2 2 3 1 4 21 5 19 6 18 7 16 8 15 9 14 10 13 11 6 12
REMARK SMILES IDX 7 13 8 14 9 15 12 16 11 17 10 18 4 20 20 22 17 24
REMARK H PARENT 10 19 4 21 20 23 17 25
REMARK Flexibility Score: inf
ROOT
ATOM      1  C   UNL     1       9.956  80.710  41.290  1.00  0.00     0.180 A 
ATOM      2  C   UNL     1      10.613  80.495  40.066  1.00  0.00     0.208 A 
ATOM      3  C   UNL     1       9.872  80.031  38.967  1.00  0.00     0.238 A 
ATOM      4  O   UNL     1      10.476  79.789  37.890  1.00  0.00    -0.285 OA
ATOM      5  C   UNL     1       8.481  79.802  39.101  1.00  0.00     0.111 A 
ATOM      6  C   UNL     1       7.625  79.371  38.044  1.00  0.00     0.134 A 
ATOM      7  C   UNL     1       6.290  79.052  38.323  1.00  0.00     0.093 A 
ATOM      8  C   UNL     1       5.765  79.211  39.608  1.00  0.00     0.123 A 
ATOM      9  C   UNL     1       6.577  79.689  40.633  1.00  0.00     0.094 A 
ATOM     10  C   UNL     1       7.921  79.981  40.394  1.00  0.00     0.146 A 
ATOM     11  O   UNL     1       8.663  80.424  41.402  1.00  0.00    -0.452 OA
ENDROOT
BRANCH   1  12
ATOM     12  C   UNL     1      10.664  81.223  42.485  1.00  0.00     0.021 A 
ATOM     13  C   UNL     1      11.442  82.394  42.431  1.00  0.00     0.016 A 
ATOM     14  C   UNL     1      12.082  82.872  43.578  1.00  0.00     0.047 A 
ATOM     15  C   UNL     1      11.941  82.194  44.796  1.00  0.00     0.115 A 
ATOM     16  C   UNL     1      10.512  80.562  43.716  1.00  0.00     0.016 A 
ATOM     17  C   UNL     1      11.153  81.041  44.861  1.00  0.00     0.047 A 
BRANCH  15  18
ATOM     18  O   UNL     1      12.575  82.660  45.946  1.00  0.00    -0.508 OA
ATOM     19  H   UNL     1      12.048  83.034  46.726  1.00  0.00     0.293 HD
ENDBRANCH  15  18
ENDBRANCH   1  12
BRANCH   2  20
ATOM     20  O   UNL     1      11.991  80.706  39.962  1.00  0.00    -0.502 OA
ATOM     21  H   UNL     1      12.462  81.467  40.435  1.00  0.00     0.293 HD
ENDBRANCH   2  20
BRANCH   6  22
ATOM     22  O   UNL     1       8.026  79.266  36.709  1.00  0.00    -0.507 OA
ATOM     23  H   UNL     1       8.311  80.043  36.132  1.00  0.00     0.293 HD
ENDBRANCH   6  22
BRANCH   8  24
ATOM     24  O   UNL     1       4.432  78.906  39.872  1.00  0.00    -0.508 OA
ATOM     25  H   UNL     1       4.171  78.269  40.616  1.00  0.00     0.293 HD
ENDBRANCH   8  24
TORSDOF 5
ENDMDL
MODEL 4
REMARK VINA RESULT:    -5.683      1.741      3.423
REMARK INTER + INTRA:          -6.961
REMARK INTER:                  -6.718
REMARK INTRA:                  -0.243
REMARK UNBOUND:                -0.281
REMARK SMILES O=c1c(O)c(-c2ccc(O)cc2)oc2cc(O)cc(O)c12
REMARK SMILES IDX 5 1 3 2 2 3 1 4 21 5 19 6 18 7 16 8 15 9 14 10 13 11 6 12
REMARK SMILES IDX 7 13 8 14 9 15 12 16 11 17 10 18 4 20 20 22 17 24
REMARK H PARENT 10 19 4 21 20 23 17 25
REMARK Flexibility Score: inf
ROOT
ATOM      1  C   UNL     1       6.904  74.667  38.261  1.00  0.00     0.180 A 
ATOM      2  C   UNL     1       7.744  75.305  37.332  1.00  0.00     0.208 A 
ATOM      3  C   UNL     1       7.781  76.709  37.298  1.00  0.00     0.238 A 
ATOM      4  O   UNL     1       8.493  77.273  36.427  1.00  0.00    -0.285 OA
ATOM      5  C   UNL     1       6.989  77.456  38.202  1.00  0.00     0.111 A 
ATOM      6  C   UNL     1       6.978  78.880  38.283  1.00  0.00     0.134 A 
ATOM      7  C   UNL     1       6.058  79.518  39.126  1.00  0.00     0.093 A 
ATOM      8  C   UNL     1       5.196  78.778  39.940  1.00  0.00     0.123 A 
ATOM      9  C   UNL     1       5.241  77.387  39.913  1.00  0.00     0.094 A 
ATOM     10  C   UNL     1       6.121  76.724  39.055  1.00  0.00     0.146 A 
ATOM     11  O   UNL     1       6.124  75.396  39.052  1.00  0.00    -0.452 OA
ENDROOT
BRANCH   1  12
ATOM     12  C   UNL     1       6.831  73.193  38.376  1.00  0.00     0.021 A 
ATOM     13  C   UNL     1       5.766  72.464  37.817  1.00  0.00     0.016 A 
ATOM     14  C   UNL     1       5.731  71.070  37.917  1.00  0.00     0.047 A 
ATOM     15  C   UNL     1       6.767  70.386  38.566  1.00  0.00     0.115 A 
ATOM     16  C   UNL     1       7.877  72.496  39.006  1.00  0.00     0.016 A 
ATOM     17  C   UNL     1       7.840  71.102  39.106  1.00  0.00     0.047 A 
BRANCH  15  18
ATOM     18  O   UNL     1       6.743  68.997  38.673  1.00  0.00    -0.508 OA
ATOM     19  H   UNL     1       6.996  68.528  39.535  1.00  0.00     0.293 HD
ENDBRANCH  15  18
ENDBRANCH   1  12
BRANCH   2  20
ATOM     20  O   UNL     1       8.500  74.548  36.433  1.00  0.00    -0.502 OA
ATOM     21  H   UNL     1       8.174  73.666  36.056  1.00  0.00     0.293 HD
ENDBRANCH   2  20
BRANCH   6  22
ATOM     22  O   UNL     1       7.859  79.709  37.582  1.00  0.00    -0.507 OA
ATOM     23  H   UNL     1       8.662  79.386  37.064  1.00  0.00     0.293 HD
ENDBRANCH   6  22
BRANCH   8  24
ATOM     24  O   UNL     1       4.296  79.420  40.788  1.00  0.00    -0.508 OA
ATOM     25  H   UNL     1       3.731  80.199  40.470  1.00  0.00     0.293 HD
ENDBRANCH   8  24
TORSDOF 5
ENDMDL
MODEL 5
REMARK VINA RESULT:    -5.658      1.961      2.802
REMARK INTER + INTRA:          -6.931
REMARK INTER:                  -6.644
REMARK INTRA:                  -0.287
REMARK UNBOUND:                -0.281
REMARK SMILES O=c1c(O)c(-c2ccc(O)cc2)oc2cc(O)cc(O)c12
REMARK SMILES IDX 5 1 3 2 2 3 1 4 21 5 19 6 18 7 16 8 15 9 14 10 13 11 6 12
REMARK SMILES IDX 7 13 8 14 9 15 12 16 11 17 10 18 4 20 20 22 17 24
REMARK H PARENT 10 19 4 21 20 23 17 25
REMARK Flexibility Score: inf
ROOT
ATOM      1  C   UNL     1       6.239  72.235  37.394  1.00  0.00     0.180 A 
ATOM      2  C   UNL     1       5.180  73.079  37.770  1.00  0.00     0.208 A 
ATOM      3  C   UNL     1       5.383  74.469  37.768  1.00  0.00     0.238 A 
ATOM      4  O   UNL     1       4.449  75.216  38.159  1.00  0.00    -0.285 OA
ATOM      5  C   UNL     1       6.636  74.997  37.376  1.00  0.00     0.111 A 
ATOM      6  C   UNL     1       6.940  76.389  37.298  1.00  0.00     0.134 A 
ATOM      7  C   UNL     1       8.253  76.795  37.024  1.00  0.00     0.093 A 
ATOM      8  C   UNL     1       9.256  75.859  36.760  1.00  0.00     0.123 A 
ATOM      9  C   UNL     1       8.955  74.500  36.774  1.00  0.00     0.094 A 
ATOM     10  C   UNL     1       7.664  74.063  37.080  1.00  0.00     0.146 A 
ATOM     11  O   UNL     1       7.423  72.758  37.094  1.00  0.00    -0.452 OA
ENDROOT
BRANCH   1  12
ATOM     12  C   UNL     1       6.094  70.762  37.345  1.00  0.00     0.021 A 
ATOM     13  C   UNL     1       6.314  69.964  38.483  1.00  0.00     0.016 A 
ATOM     14  C   UNL     1       6.147  68.578  38.418  1.00  0.00     0.047 A 
ATOM     15  C   UNL     1       5.746  67.973  37.220  1.00  0.00     0.115 A 
ATOM     16  C   UNL     1       5.670  70.148  36.153  1.00  0.00     0.016 A 
ATOM     17  C   UNL     1       5.505  68.761  36.091  1.00  0.00     0.047 A 
BRANCH  15  18
ATOM     18  O   UNL     1       5.578  66.592  37.144  1.00  0.00    -0.508 OA
ATOM     19  H   UNL     1       6.359  65.973  36.961  1.00  0.00     0.293 HD
ENDBRANCH  15  18
ENDBRANCH   1  12
BRANCH   2  20
ATOM     20  O   UNL     1       3.958  72.535  38.175  1.00  0.00    -0.502 OA
ATOM     21  H   UNL     1       3.819  72.137  39.096  1.00  0.00     0.293 HD
ENDBRANCH   2  20
BRANCH   6  22
ATOM     22  O   UNL     1       5.993  77.405  37.455  1.00  0.00    -0.507 OA
ATOM     23  H   UNL     1       5.435  77.546  38.283  1.00  0.00     0.293 HD
ENDBRANCH   6  22
BRANCH   8  24
ATOM     24  O   UNL     1      10.555  76.273  36.472  1.00  0.00    -0.508 OA
ATOM     25  H   UNL     1      11.148  75.753  35.836  1.00  0.00     0.293 HD
ENDBRANCH   8  24
TORSDOF 5
ENDMDL
MODEL 6
REMARK VINA RESULT:    -5.550      2.123      4.233
REMARK INTER + INTRA:          -6.805
REMARK INTER:                  -6.518
REMARK INTRA:                  -0.287
REMARK UNBOUND:                -0.281
REMARK SMILES O=c1c(O)c(-c2ccc(O)cc2)oc2cc(O)cc(O)c12
REMARK SMILES IDX 5 1 3 2 2 3 1 4 21 5 19 6 18 7 16 8 15 9 14 10 13 11 6 12
REMARK SMILES IDX 7 13 8 14 9 15 12 16 11 17 10 18 4 20 20 22 17 24
REMARK H PARENT 10 19 4 21 20 23 17 25
REMARK Flexibility Score: inf
ROOT
ATOM      1  C   UNL     1       5.406  71.645  37.871  1.00  0.00     0.180 A 
ATOM      2  C   UNL     1       6.510  71.834  37.021  1.00  0.00     0.208 A 
ATOM      3  C   UNL     1       7.052  73.123  36.884  1.00  0.00     0.238 A 
ATOM      4  O   UNL     1       8.005  73.295  36.080  1.00  0.00    -0.285 OA
ATOM      5  C   UNL     1       6.493  74.203  37.609  1.00  0.00     0.111 A 
ATOM      6  C   UNL     1       6.986  75.541  37.578  1.00  0.00     0.134 A 
ATOM      7  C   UNL     1       6.275  76.555  38.233  1.00  0.00     0.093 A 
ATOM      8  C   UNL     1       5.126  76.265  38.973  1.00  0.00     0.123 A 
ATOM      9  C   UNL     1       4.671  74.953  39.060  1.00  0.00     0.094 A 
ATOM     10  C   UNL     1       5.337  73.926  38.387  1.00  0.00     0.146 A 
ATOM     11  O   UNL     1       4.864  72.690  38.487  1.00  0.00    -0.452 OA
ENDROOT
BRANCH   1  12
ATOM     12  C   UNL     1       4.797  70.313  38.087  1.00  0.00     0.021 A 
ATOM     13  C   UNL     1       3.797  69.816  37.233  1.00  0.00     0.016 A 
ATOM     14  C   UNL     1       3.254  68.545  37.444  1.00  0.00     0.047 A 
ATOM     15  C   UNL     1       3.713  67.751  38.502  1.00  0.00     0.115 A 
ATOM     16  C   UNL     1       5.266  69.500  39.134  1.00  0.00     0.016 A 
ATOM     17  C   UNL     1       4.721  68.230  39.343  1.00  0.00     0.047 A 
BRANCH  15  18
ATOM     18  O   UNL     1       3.178  66.483  38.722  1.00  0.00    -0.508 OA
ATOM     19  H   UNL     1       3.417  65.697  38.129  1.00  0.00     0.293 HD
ENDBRANCH  15  18
ENDBRANCH   1  12
BRANCH   2  20
ATOM     20  O   UNL     1       7.032  70.759  36.298  1.00  0.00    -0.502 OA
ATOM     21  H   UNL     1       6.538  69.880  36.197  1.00  0.00     0.293 HD
ENDBRANCH   2  20
BRANCH   6  22
ATOM     22  O   UNL     1       8.173  75.921  36.944  1.00  0.00    -0.507 OA
ATOM     23  H   UNL     1       8.260  76.117  35.959  1.00  0.00     0.293 HD
ENDBRANCH   6  22
BRANCH   8  24
ATOM     24  O   UNL     1       4.434  77.278  39.635  1.00  0.00    -0.508 OA
ATOM     25  H   UNL     1       3.452  77.454  39.456  1.00  0.00     0.293 HD
ENDBRANCH   8  24
TORSDOF 5
ENDMDL
MODEL 7
REMARK VINA RESULT:    -5.507      2.334      6.148
REMARK INTER + INTRA:          -6.754
REMARK INTER:                  -6.819
REMARK INTRA:                   0.065
REMARK UNBOUND:                -0.281
REMARK SMILES O=c1c(O)c(-c2ccc(O)cc2)oc2cc(O)cc(O)c12
REMARK SMILES IDX 5 1 3 2 2 3 1 4 21 5 19 6 18 7 16 8 15 9 14 10 13 11 6 12
REMARK SMILES IDX 7 13 8 14 9 15 12 16 11 17 10 18 4 20 20 22 17 24
REMARK H PARENT 10 19 4 21 20 23 17 25
REMARK Flexibility Score: inf
ROOT
ATOM      1  C   UNL     1       6.136  76.417  37.922  1.00  0.00     0.180 A 
ATOM      2  C   UNL     1       5.246  75.663  38.705  1.00  0.00     0.208 A 
ATOM      3  C   UNL     1       5.508  74.298  38.912  1.00  0.00     0.238 A 
ATOM      4  O   UNL     1       4.677  73.617  39.568  1.00  0.00    -0.285 OA
ATOM      5  C   UNL     1       6.664  73.709  38.347  1.00  0.00     0.111 A 
ATOM      6  C   UNL     1       7.049  72.347  38.526  1.00  0.00     0.134 A 
ATOM      7  C   UNL     1       8.143  71.839  37.813  1.00  0.00     0.093 A 
ATOM      8  C   UNL     1       8.905  72.663  36.980  1.00  0.00     0.123 A 
ATOM      9  C   UNL     1       8.573  74.009  36.847  1.00  0.00     0.094 A 
ATOM     10  C   UNL     1       7.466  74.535  37.515  1.00  0.00     0.146 A 
ATOM     11  O   UNL     1       7.178  75.821  37.352  1.00  0.00    -0.452 OA
ENDROOT
BRANCH   1  12
ATOM     12  C   UNL     1       5.942  77.865  37.681  1.00  0.00     0.021 A 
ATOM     13  C   UNL     1       5.614  78.746  38.727  1.00  0.00     0.016 A 
ATOM     14  C   UNL     1       5.459  80.113  38.479  1.00  0.00     0.047 A 
ATOM     15  C   UNL     1       5.642  80.618  37.185  1.00  0.00     0.115 A 
ATOM     16  C   UNL     1       6.144  78.384  36.390  1.00  0.00     0.016 A 
ATOM     17  C   UNL     1       5.988  79.751  36.144  1.00  0.00     0.047 A 
BRANCH  15  18
ATOM     18  O   UNL     1       5.489  81.978  36.926  1.00  0.00    -0.508 OA
ATOM     19  H   UNL     1       5.997  82.678  37.454  1.00  0.00     0.293 HD
ENDBRANCH  15  18
ENDBRANCH   1  12
BRANCH   2  20
ATOM     20  O   UNL     1       4.098  76.259  39.235  1.00  0.00    -0.502 OA
ATOM     21  H   UNL     1       4.000  76.470  40.220  1.00  0.00     0.293 HD
ENDBRANCH   2  20
BRANCH   6  22
ATOM     22  O   UNL     1       6.412  71.464  39.403  1.00  0.00    -0.507 OA
ATOM     23  H   UNL     1       6.877  70.946  40.133  1.00  0.00     0.293 HD
ENDBRANCH   6  22
BRANCH   8  24
ATOM     24  O   UNL     1      10.001  72.154  36.288  1.00  0.00    -0.508 OA
ATOM     25  H   UNL     1      10.795  72.736  36.048  1.00  0.00     0.293 HD
ENDBRANCH   8  24
TORSDOF 5
ENDMDL
MODEL 8
REMARK VINA RESULT:    -5.322      4.769      7.179
REMARK INTER + INTRA:          -6.537
REMARK INTER:                  -6.306
REMARK INTRA:                  -0.231
REMARK UNBOUND:                -0.281
REMARK SMILES O=c1c(O)c(-c2ccc(O)cc2)oc2cc(O)cc(O)c12
REMARK SMILES IDX 5 1 3 2 2 3 1 4 21 5 19 6 18 7 16 8 15 9 14 10 13 11 6 12
REMARK SMILES IDX 7 13 8 14 9 15 12 16 11 17 10 18 4 20 20 22 17 24
REMARK H PARENT 10 19 4 21 20 23 17 25
REMARK Flexibility Score: inf
ROOT
ATOM      1  C   UNL     1       8.459  79.848  39.880  1.00  0.00     0.180 A 
ATOM      2  C   UNL     1       9.742  80.237  39.459  1.00  0.00     0.208 A 
ATOM      3  C   UNL     1      10.483  81.121  40.261  1.00  0.00     0.238 A 
ATOM      4  O   UNL     1      11.609  81.508  39.851  1.00  0.00    -0.285 OA
ATOM      5  C   UNL     1       9.938  81.593  41.478  1.00  0.00     0.111 A 
ATOM      6  C   UNL     1      10.615  82.459  42.387  1.00  0.00     0.134 A 
ATOM      7  C   UNL     1       9.930  82.967  43.499  1.00  0.00     0.093 A 
ATOM      8  C   UNL     1       8.613  82.586  43.768  1.00  0.00     0.123 A 
ATOM      9  C   UNL     1       7.964  81.693  42.920  1.00  0.00     0.094 A 
ATOM     10  C   UNL     1       8.608  81.199  41.784  1.00  0.00     0.146 A 
ATOM     11  O   UNL     1       7.949  80.359  40.995  1.00  0.00    -0.452 OA
ENDROOT
BRANCH   1  12
ATOM     12  C   UNL     1       7.629  78.899  39.103  1.00  0.00     0.021 A 
ATOM     13  C   UNL     1       6.974  79.292  37.922  1.00  0.00     0.016 A 
ATOM     14  C   UNL     1       6.215  78.372  37.194  1.00  0.00     0.047 A 
ATOM     15  C   UNL     1       6.113  77.044  37.628  1.00  0.00     0.115 A 
ATOM     16  C   UNL     1       7.538  77.559  39.519  1.00  0.00     0.016 A 
ATOM     17  C   UNL     1       6.778  76.641  38.789  1.00  0.00     0.047 A 
BRANCH  15  18
ATOM     18  O   UNL     1       5.359  76.118  36.910  1.00  0.00    -0.508 OA
ATOM     19  H   UNL     1       4.844  75.380  37.375  1.00  0.00     0.293 HD
ENDBRANCH  15  18
ENDBRANCH   1  12
BRANCH   2  20
ATOM     20  O   UNL     1      10.253  79.777  38.242  1.00  0.00    -0.502 OA
ATOM     21  H   UNL     1      11.165  79.344  38.164  1.00  0.00     0.293 HD
ENDBRANCH   2  20
BRANCH   6  22
ATOM     22  O   UNL     1      11.958  82.829  42.261  1.00  0.00    -0.507 OA
ATOM     23  H   UNL     1      12.388  83.603  42.744  1.00  0.00     0.293 HD
ENDBRANCH   6  22
BRANCH   8  24
ATOM     24  O   UNL     1       7.944  83.083  44.884  1.00  0.00    -0.508 OA
ATOM     25  H   UNL     1       8.412  83.197  45.776  1.00  0.00     0.293 HD
ENDBRANCH   8  24
TORSDOF 5
ENDMDL
MODEL 9
REMARK VINA RESULT:    -5.254      1.557      3.187
REMARK INTER + INTRA:          -6.457
REMARK INTER:                  -6.181
REMARK INTRA:                  -0.276
REMARK UNBOUND:                -0.281
REMARK SMILES O=c1c(O)c(-c2ccc(O)cc2)oc2cc(O)cc(O)c12
REMARK SMILES IDX 5 1 3 2 2 3 1 4 21 5 19 6 18 7 16 8 15 9 14 10 13 11 6 12
REMARK SMILES IDX 7 13 8 14 9 15 12 16 11 17 10 18 4 20 20 22 17 24
REMARK H PARENT 10 19 4 21 20 23 17 25
REMARK Flexibility Score: inf
ROOT
ATOM      1  C   UNL     1       7.477  74.569  37.282  1.00  0.00     0.180 A 
ATOM      2  C   UNL     1       8.805  74.841  36.909  1.00  0.00     0.208 A 
ATOM      3  C   UNL     1       9.245  76.175  36.885  1.00  0.00     0.238 A 
ATOM      4  O   UNL     1      10.418  76.416  36.498  1.00  0.00    -0.285 OA
ATOM      5  C   UNL     1       8.358  77.217  37.246  1.00  0.00     0.111 A 
ATOM      6  C   UNL     1       8.708  78.599  37.296  1.00  0.00     0.134 A 
ATOM      7  C   UNL     1       7.714  79.555  37.541  1.00  0.00     0.093 A 
ATOM      8  C   UNL     1       6.396  79.173  37.803  1.00  0.00     0.123 A 
ATOM      9  C   UNL     1       6.057  77.822  37.817  1.00  0.00     0.094 A 
ATOM     10  C   UNL     1       7.018  76.848  37.540  1.00  0.00     0.146 A 
ATOM     11  O   UNL     1       6.650  75.572  37.553  1.00  0.00    -0.452 OA
ENDROOT
BRANCH   1  12
ATOM     12  C   UNL     1       6.948  73.188  37.357  1.00  0.00     0.021 A 
ATOM     13  C   UNL     1       6.254  72.607  36.280  1.00  0.00     0.016 A 
ATOM     14  C   UNL     1       5.785  71.293  36.367  1.00  0.00     0.047 A 
ATOM     15  C   UNL     1       6.014  70.539  37.525  1.00  0.00     0.115 A 
ATOM     16  C   UNL     1       7.192  72.416  38.507  1.00  0.00     0.016 A 
ATOM     17  C   UNL     1       6.721  71.103  38.591  1.00  0.00     0.047 A 
BRANCH  15  18
ATOM     18  O   UNL     1       5.550  69.229  37.622  1.00  0.00    -0.508 OA
ATOM     19  H   UNL     1       4.590  69.025  37.874  1.00  0.00     0.293 HD
ENDBRANCH  15  18
ENDBRANCH   1  12
BRANCH   2  20
ATOM     20  O   UNL     1       9.658  73.800  36.534  1.00  0.00    -0.502 OA
ATOM     21  H   UNL     1      10.561  73.964  36.107  1.00  0.00     0.293 HD
ENDBRANCH   2  20
BRANCH   6  22
ATOM     22  O   UNL     1      10.011  79.080  37.138  1.00  0.00    -0.507 OA
ATOM     23  H   UNL     1      10.834  78.500  37.079  1.00  0.00     0.293 HD
ENDBRANCH   6  22
BRANCH   8  24
ATOM     24  O   UNL     1       5.417  80.130  38.062  1.00  0.00    -0.508 OA
ATOM     25  H   UNL     1       4.430  79.921  37.957  1.00  0.00     0.293 HD
ENDBRANCH   8  24
TORSDOF 5
ENDMDL
