MODEL 1
REMARK VINA RESULT:    -5.928      0.000      0.000
REMARK INTER + INTRA:          -9.830
REMARK INTER:                  -8.181
REMARK INTRA:                  -1.649
REMARK UNBOUND:                -1.649
REMARK SMILES O=C([O-])[C@H]1O[C@@H](Oc2cc3oc(-c4ccccc4)cc(=O)c3c(O)c2O)[C@H](O)[C@@H](O)[C@H]1O
REMARK SMILES IDX 7 1 6 2 4 3 31 4 5 5 29 6 27 7 2 8 1 9 3 10 32 11 30 13
REMARK SMILES IDX 28 15 8 17 25 18 9 19 23 20 10 21 22 22 11 23 20 24 12 25
REMARK SMILES IDX 19 26 21 27 26 28 24 30 13 32 14 33 18 34 15 35 17 36 16 37
REMARK H PARENT 32 12 30 14 28 16 26 29 24 31
REMARK Flexibility Score: inf
ROOT
ATOM      1  O   UNL     1      76.267 -54.607 196.329  1.00  0.00    -0.458 OA
ENDROOT
BRANCH   1   2
ATOM      2  C   UNL     1      75.655 -54.796 195.049  1.00  0.00     0.339 C 
ATOM      3  C   UNL     1      77.597 -54.269 193.774  1.00  0.00     0.199 C 
ATOM      4  C   UNL     1      77.005 -52.903 193.322  1.00  0.00     0.180 C 
ATOM      5  O   UNL     1      76.603 -55.236 194.087  1.00  0.00    -0.328 OA
ATOM      6  C   UNL     1      75.905 -52.388 194.269  1.00  0.00     0.181 C 
ATOM      7  C   UNL     1      74.918 -53.513 194.611  1.00  0.00     0.214 C 
BRANCH   3   8
ATOM      8  C   UNL     1      78.672 -54.215 194.833  1.00  0.00     0.073 C 
ATOM      9  O   UNL     1      79.354 -55.229 195.134  1.00  0.00    -0.547 OA
ATOM     10  O   UNL     1      78.922 -53.013 195.482  1.00  0.00    -0.547 OA
ENDBRANCH   3   8
BRANCH   4  11
ATOM     11  O   UNL     1      78.012 -51.933 193.178  1.00  0.00    -0.387 OA
ATOM     12  H   UNL     1      77.711 -51.129 193.678  1.00  0.00     0.211 HD
ENDBRANCH   4  11
BRANCH   6  13
ATOM     13  O   UNL     1      76.456 -51.875 195.455  1.00  0.00    -0.387 OA
ATOM     14  H   UNL     1      77.394 -52.197 195.505  1.00  0.00     0.211 HD
ENDBRANCH   6  13
BRANCH   7  15
ATOM     15  O   UNL     1      74.047 -53.767 193.535  1.00  0.00    -0.384 OA
ATOM     16  H   UNL     1      74.591 -53.908 192.718  1.00  0.00     0.211 HD
ENDBRANCH   7  15
ENDBRANCH   1   2
BRANCH   1  17
ATOM     17  C   UNL     1      75.567 -54.594 197.542  1.00  0.00     0.172 A 
ATOM     18  C   UNL     1      75.620 -53.494 198.420  1.00  0.00     0.201 A 
ATOM     19  C   UNL     1      74.851 -55.736 197.902  1.00  0.00     0.098 A 
ATOM     20  C   UNL     1      74.851 -53.505 199.613  1.00  0.00     0.176 A 
ATOM     21  C   UNL     1      74.126 -55.779 199.090  1.00  0.00     0.146 A 
ATOM     22  C   UNL     1      74.109 -54.663 199.955  1.00  0.00     0.111 A 
ATOM     23  O   UNL     1      73.451 -56.884 199.393  1.00  0.00    -0.456 OA
ATOM     24  C   UNL     1      73.337 -54.766 201.132  1.00  0.00     0.197 A 
ATOM     25  C   UNL     1      72.727 -57.018 200.501  1.00  0.00     0.138 A 
ATOM     26  C   UNL     1      72.644 -55.946 201.403  1.00  0.00     0.100 A 
ATOM     27  O   UNL     1      73.256 -53.812 201.953  1.00  0.00    -0.289 OA
BRANCH  18  28
ATOM     28  O   UNL     1      76.478 -52.436 198.108  1.00  0.00    -0.502 OA
ATOM     29  H   UNL     1      76.995 -51.902 198.792  1.00  0.00     0.293 HD
ENDBRANCH  18  28
BRANCH  20  30
ATOM     30  O   UNL     1      74.810 -52.391 200.458  1.00  0.00    -0.504 OA
ATOM     31  H   UNL     1      74.945 -52.430 201.458  1.00  0.00     0.293 HD
ENDBRANCH  20  30
BRANCH  25  32
ATOM     32  C   UNL     1      72.016 -58.302 200.736  1.00  0.00     0.017 A 
ATOM     33  C   UNL     1      71.158 -58.863 199.769  1.00  0.00     0.012 A 
ATOM     34  C   UNL     1      72.174 -58.965 201.968  1.00  0.00     0.012 A 
ATOM     35  C   UNL     1      70.494 -60.068 200.024  1.00  0.00     0.001 A 
ATOM     36  C   UNL     1      71.508 -60.169 202.217  1.00  0.00     0.001 A 
ATOM     37  C   UNL     1      70.671 -60.721 201.246  1.00  0.00     0.000 A 
ENDBRANCH  25  32
ENDBRANCH   1  17
TORSDOF 9
ENDMDL
MODEL 2
REMARK VINA RESULT:    -5.746      2.883      8.788
REMARK INTER + INTRA:          -9.579
REMARK INTER:                  -7.757
REMARK INTRA:                  -1.822
REMARK UNBOUND:                -1.649
REMARK SMILES O=C([O-])[C@H]1O[C@@H](Oc2cc3oc(-c4ccccc4)cc(=O)c3c(O)c2O)[C@H](O)[C@@H](O)[C@H]1O
REMARK SMILES IDX 7 1 6 2 4 3 31 4 5 5 29 6 27 7 2 8 1 9 3 10 32 11 30 13
REMARK SMILES IDX 28 15 8 17 25 18 9 19 23 20 10 21 22 22 11 23 20 24 12 25
REMARK SMILES IDX 19 26 21 27 26 28 24 30 13 32 14 33 18 34 15 35 17 36 16 37
REMARK H PARENT 32 12 30 14 28 16 26 29 24 31
REMARK Flexibility Score: inf
ROOT
ATOM      1  O   UNL     1      71.216 -56.994 199.359  1.00  0.00    -0.458 OA
ENDROOT
BRANCH   1   2
ATOM      2  C   UNL     1      71.918 -58.116 199.906  1.00  0.00     0.339 C 
ATOM      3  C   UNL     1      70.263 -59.733 199.337  1.00  0.00     0.199 C 
ATOM      4  C   UNL     1      69.824 -59.894 200.821  1.00  0.00     0.180 C 
ATOM      5  O   UNL     1      71.613 -59.308 199.194  1.00  0.00    -0.328 OA
ATOM      6  C   UNL     1      70.191 -58.675 201.687  1.00  0.00     0.181 C 
ATOM      7  C   UNL     1      71.639 -58.239 201.417  1.00  0.00     0.214 C 
BRANCH   3   8
ATOM      8  C   UNL     1      69.335 -58.943 198.446  1.00  0.00     0.073 C 
ATOM      9  O   UNL     1      68.323 -58.352 198.905  1.00  0.00    -0.547 OA
ATOM     10  O   UNL     1      69.613 -58.857 197.088  1.00  0.00    -0.547 OA
ENDBRANCH   3   8
BRANCH   4  11
ATOM     11  O   UNL     1      68.446 -60.159 200.918  1.00  0.00    -0.387 OA
ATOM     12  H   UNL     1      68.083 -60.136 199.994  1.00  0.00     0.211 HD
ENDBRANCH   4  11
BRANCH   6  13
ATOM     13  O   UNL     1      69.326 -57.597 201.438  1.00  0.00    -0.387 OA
ATOM     14  H   UNL     1      68.505 -57.751 201.976  1.00  0.00     0.211 HD
ENDBRANCH   6  13
BRANCH   7  15
ATOM     15  O   UNL     1      72.553 -59.112 202.037  1.00  0.00    -0.384 OA
ATOM     16  H   UNL     1      73.159 -59.476 201.341  1.00  0.00     0.211 HD
ENDBRANCH   7  15
ENDBRANCH   1   2
BRANCH   1  17
ATOM     17  C   UNL     1      71.705 -56.191 198.320  1.00  0.00     0.172 A 
ATOM     18  C   UNL     1      70.843 -55.547 197.410  1.00  0.00     0.201 A 
ATOM     19  C   UNL     1      73.087 -56.086 198.162  1.00  0.00     0.098 A 
ATOM     20  C   UNL     1      71.382 -54.701 196.406  1.00  0.00     0.176 A 
ATOM     21  C   UNL     1      73.631 -55.294 197.153  1.00  0.00     0.146 A 
ATOM     22  C   UNL     1      72.788 -54.585 196.271  1.00  0.00     0.111 A 
ATOM     23  O   UNL     1      74.954 -55.216 197.041  1.00  0.00    -0.456 OA
ATOM     24  C   UNL     1      73.406 -53.784 195.286  1.00  0.00     0.197 A 
ATOM     25  C   UNL     1      75.567 -54.483 196.115  1.00  0.00     0.138 A 
ATOM     26  C   UNL     1      74.798 -53.733 195.211  1.00  0.00     0.100 A 
ATOM     27  O   UNL     1      72.728 -53.108 194.466  1.00  0.00    -0.289 OA
BRANCH  18  28
ATOM     28  O   UNL     1      69.473 -55.807 197.495  1.00  0.00    -0.502 OA
ATOM     29  H   UNL     1      68.767 -55.315 196.967  1.00  0.00     0.293 HD
ENDBRANCH  18  28
BRANCH  20  30
ATOM     30  O   UNL     1      70.549 -53.975 195.547  1.00  0.00    -0.504 OA
ATOM     31  H   UNL     1      70.262 -53.020 195.706  1.00  0.00     0.293 HD
ENDBRANCH  20  30
BRANCH  25  32
ATOM     32  C   UNL     1      77.052 -54.473 196.082  1.00  0.00     0.017 A 
ATOM     33  C   UNL     1      77.772 -54.820 194.920  1.00  0.00     0.012 A 
ATOM     34  C   UNL     1      77.768 -54.140 197.247  1.00  0.00     0.012 A 
ATOM     35  C   UNL     1      79.171 -54.811 194.924  1.00  0.00     0.001 A 
ATOM     36  C   UNL     1      79.166 -54.133 197.245  1.00  0.00     0.001 A 
ATOM     37  C   UNL     1      79.867 -54.465 196.084  1.00  0.00     0.000 A 
ENDBRANCH  25  32
ENDBRANCH   1  17
TORSDOF 9
ENDMDL
MODEL 3
REMARK VINA RESULT:    -5.647      2.005      3.057
REMARK INTER + INTRA:          -9.442
REMARK INTER:                  -7.596
REMARK INTRA:                  -1.845
REMARK UNBOUND:                -1.649
REMARK SMILES O=C([O-])[C@H]1O[C@@H](Oc2cc3oc(-c4ccccc4)cc(=O)c3c(O)c2O)[C@H](O)[C@@H](O)[C@H]1O
REMARK SMILES IDX 7 1 6 2 4 3 31 4 5 5 29 6 27 7 2 8 1 9 3 10 32 11 30 13
REMARK SMILES IDX 28 15 8 17 25 18 9 19 23 20 10 21 22 22 11 23 20 24 12 25
REMARK SMILES IDX 19 26 21 27 26 28 24 30 13 32 14 33 18 34 15 35 17 36 16 37
REMARK H PARENT 32 12 30 14 28 16 26 29 24 31
REMARK Flexibility Score: inf
ROOT
ATOM      1  O   UNL     1      73.112 -54.780 196.999  1.00  0.00    -0.458 OA
ENDROOT
BRANCH   1   2
ATOM      2  C   UNL     1      72.998 -55.345 195.688  1.00  0.00     0.339 C 
ATOM      3  C   UNL     1      75.173 -54.703 194.959  1.00  0.00     0.199 C 
ATOM      4  C   UNL     1      74.600 -53.607 194.015  1.00  0.00     0.180 C 
ATOM      5  O   UNL     1      74.263 -55.769 195.200  1.00  0.00    -0.328 OA
ATOM      6  C   UNL     1      73.189 -53.146 194.425  1.00  0.00     0.181 C 
ATOM      7  C   UNL     1      72.296 -54.355 194.736  1.00  0.00     0.214 C 
BRANCH   3   8
ATOM      8  C   UNL     1      75.810 -54.217 196.239  1.00  0.00     0.073 C 
ATOM      9  O   UNL     1      75.771 -53.005 196.578  1.00  0.00    -0.547 OA
ATOM     10  O   UNL     1      76.444 -55.133 197.068  1.00  0.00    -0.547 OA
ENDBRANCH   3   8
BRANCH   4  11
ATOM     11  O   UNL     1      75.465 -52.501 193.933  1.00  0.00    -0.387 OA
ATOM     12  H   UNL     1      75.272 -51.926 194.720  1.00  0.00     0.211 HD
ENDBRANCH   4  11
BRANCH   6  13
ATOM     13  O   UNL     1      73.237 -52.302 195.547  1.00  0.00    -0.387 OA
ATOM     14  H   UNL     1      72.533 -52.611 196.176  1.00  0.00     0.211 HD
ENDBRANCH   6  13
BRANCH   7  15
ATOM     15  O   UNL     1      71.879 -54.994 193.552  1.00  0.00    -0.384 OA
ATOM     16  H   UNL     1      72.639 -55.522 193.198  1.00  0.00     0.211 HD
ENDBRANCH   7  15
ENDBRANCH   1   2
BRANCH   1  17
ATOM     17  C   UNL     1      72.991 -55.514 198.186  1.00  0.00     0.172 A 
ATOM     18  C   UNL     1      73.694 -55.160 199.354  1.00  0.00     0.201 A 
ATOM     19  C   UNL     1      72.193 -56.658 198.174  1.00  0.00     0.098 A 
ATOM     20  C   UNL     1      73.498 -55.903 200.547  1.00  0.00     0.176 A 
ATOM     21  C   UNL     1      72.025 -57.423 199.326  1.00  0.00     0.146 A 
ATOM     22  C   UNL     1      72.666 -57.050 200.528  1.00  0.00     0.111 A 
ATOM     23  O   UNL     1      71.251 -58.502 199.274  1.00  0.00    -0.456 OA
ATOM     24  C   UNL     1      72.435 -57.857 201.663  1.00  0.00     0.197 A 
ATOM     25  C   UNL     1      71.026 -59.292 200.322  1.00  0.00     0.138 A 
ATOM     26  C   UNL     1      71.612 -58.979 201.558  1.00  0.00     0.100 A 
ATOM     27  O   UNL     1      72.958 -57.590 202.779  1.00  0.00    -0.289 OA
BRANCH  18  28
ATOM     28  O   UNL     1      74.611 -54.109 199.284  1.00  0.00    -0.502 OA
ATOM     29  H   UNL     1      74.754 -53.429 200.017  1.00  0.00     0.293 HD
ENDBRANCH  18  28
BRANCH  20  30
ATOM     30  O   UNL     1      74.109 -55.521 201.746  1.00  0.00    -0.504 OA
ATOM     31  H   UNL     1      74.108 -54.579 202.111  1.00  0.00     0.293 HD
ENDBRANCH  20  30
BRANCH  25  32
ATOM     32  C   UNL     1      70.144 -60.474 200.146  1.00  0.00     0.017 A 
ATOM     33  C   UNL     1      69.082 -60.478 199.218  1.00  0.00     0.012 A 
ATOM     34  C   UNL     1      70.347 -61.614 200.946  1.00  0.00     0.012 A 
ATOM     35  C   UNL     1      68.262 -61.603 199.084  1.00  0.00     0.001 A 
ATOM     36  C   UNL     1      69.525 -62.736 200.807  1.00  0.00     0.001 A 
ATOM     37  C   UNL     1      68.485 -62.732 199.875  1.00  0.00     0.000 A 
ENDBRANCH  25  32
ENDBRANCH   1  17
TORSDOF 9
ENDMDL
MODEL 4
REMARK VINA RESULT:    -5.598      3.023      9.044
REMARK INTER + INTRA:          -9.374
REMARK INTER:                  -7.519
REMARK INTRA:                  -1.855
REMARK UNBOUND:                -1.649
REMARK SMILES O=C([O-])[C@H]1O[C@@H](Oc2cc3oc(-c4ccccc4)cc(=O)c3c(O)c2O)[C@H](O)[C@@H](O)[C@H]1O
REMARK SMILES IDX 7 1 6 2 4 3 31 4 5 5 29 6 27 7 2 8 1 9 3 10 32 11 30 13
REMARK SMILES IDX 28 15 8 17 25 18 9 19 23 20 10 21 22 22 11 23 20 24 12 25
REMARK SMILES IDX 19 26 21 27 26 28 24 30 13 32 14 33 18 34 15 35 17 36 16 37
REMARK H PARENT 32 12 30 14 28 16 26 29 24 31
REMARK Flexibility Score: inf
ROOT
ATOM      1  O   UNL     1      71.025 -56.972 199.013  1.00  0.00    -0.458 OA
ENDROOT
BRANCH   1   2
ATOM      2  C   UNL     1      71.867 -57.994 199.558  1.00  0.00     0.339 C 
ATOM      3  C   UNL     1      70.291 -59.763 199.306  1.00  0.00     0.199 C 
ATOM      4  C   UNL     1      70.030 -59.830 200.839  1.00  0.00     0.180 C 
ATOM      5  O   UNL     1      71.580 -59.259 198.978  1.00  0.00    -0.328 OA
ATOM      6  C   UNL     1      70.394 -58.520 201.563  1.00  0.00     0.181 C 
ATOM      7  C   UNL     1      71.765 -58.010 201.096  1.00  0.00     0.214 C 
BRANCH   3   8
ATOM      8  C   UNL     1      69.213 -59.116 198.471  1.00  0.00     0.073 C 
ATOM      9  O   UNL     1      68.222 -58.546 198.999  1.00  0.00    -0.547 OA
ATOM     10  O   UNL     1      69.324 -59.140 197.087  1.00  0.00    -0.547 OA
ENDBRANCH   3   8
BRANCH   4  11
ATOM     11  O   UNL     1      68.696 -60.179 201.114  1.00  0.00    -0.387 OA
ATOM     12  H   UNL     1      68.140 -59.385 200.898  1.00  0.00     0.211 HD
ENDBRANCH   4  11
BRANCH   6  13
ATOM     13  O   UNL     1      69.426 -57.529 201.335  1.00  0.00    -0.387 OA
ATOM     14  H   UNL     1      68.909 -57.426 202.177  1.00  0.00     0.211 HD
ENDBRANCH   6  13
BRANCH   7  15
ATOM     15  O   UNL     1      72.807 -58.763 201.670  1.00  0.00    -0.384 OA
ATOM     16  H   UNL     1      72.511 -59.707 201.736  1.00  0.00     0.211 HD
ENDBRANCH   7  15
ENDBRANCH   1   2
BRANCH   1  17
ATOM     17  C   UNL     1      71.327 -56.235 197.860  1.00  0.00     0.172 A 
ATOM     18  C   UNL     1      70.319 -55.724 197.019  1.00  0.00     0.201 A 
ATOM     19  C   UNL     1      72.669 -56.065 197.520  1.00  0.00     0.098 A 
ATOM     20  C   UNL     1      70.672 -54.938 195.891  1.00  0.00     0.176 A 
ATOM     21  C   UNL     1      73.031 -55.333 196.391  1.00  0.00     0.146 A 
ATOM     22  C   UNL     1      72.040 -54.753 195.570  1.00  0.00     0.111 A 
ATOM     23  O   UNL     1      74.322 -55.189 196.106  1.00  0.00    -0.456 OA
ATOM     24  C   UNL     1      72.478 -54.006 194.455  1.00  0.00     0.197 A 
ATOM     25  C   UNL     1      74.766 -54.504 195.054  1.00  0.00     0.138 A 
ATOM     26  C   UNL     1      73.844 -53.881 194.199  1.00  0.00     0.100 A 
ATOM     27  O   UNL     1      71.660 -53.444 193.676  1.00  0.00    -0.289 OA
BRANCH  18  28
ATOM     28  O   UNL     1      68.990 -56.054 197.298  1.00  0.00    -0.502 OA
ATOM     29  H   UNL     1      68.707 -56.799 197.918  1.00  0.00     0.293 HD
ENDBRANCH  18  28
BRANCH  20  30
ATOM     30  O   UNL     1      69.694 -54.339 195.091  1.00  0.00    -0.504 OA
ATOM     31  H   UNL     1      69.057 -54.847 194.494  1.00  0.00     0.293 HD
ENDBRANCH  20  30
BRANCH  25  32
ATOM     32  C   UNL     1      76.232 -54.411 194.832  1.00  0.00     0.017 A 
ATOM     33  C   UNL     1      77.159 -54.813 195.816  1.00  0.00     0.012 A 
ATOM     34  C   UNL     1      76.716 -53.880 193.622  1.00  0.00     0.012 A 
ATOM     35  C   UNL     1      78.533 -54.703 195.580  1.00  0.00     0.001 A 
ATOM     36  C   UNL     1      78.091 -53.773 193.393  1.00  0.00     0.001 A 
ATOM     37  C   UNL     1      78.999 -54.186 194.370  1.00  0.00     0.000 A 
ENDBRANCH  25  32
ENDBRANCH   1  17
TORSDOF 9
ENDMDL
MODEL 5
REMARK VINA RESULT:    -5.560      3.996      9.244
REMARK INTER + INTRA:          -9.323
REMARK INTER:                  -7.504
REMARK INTRA:                  -1.819
REMARK UNBOUND:                -1.649
REMARK SMILES O=C([O-])[C@H]1O[C@@H](Oc2cc3oc(-c4ccccc4)cc(=O)c3c(O)c2O)[C@H](O)[C@@H](O)[C@H]1O
REMARK SMILES IDX 7 1 6 2 4 3 31 4 5 5 29 6 27 7 2 8 1 9 3 10 32 11 30 13
REMARK SMILES IDX 28 15 8 17 25 18 9 19 23 20 10 21 22 22 11 23 20 24 12 25
REMARK SMILES IDX 19 26 21 27 26 28 24 30 13 32 14 33 18 34 15 35 17 36 16 37
REMARK H PARENT 32 12 30 14 28 16 26 29 24 31
REMARK Flexibility Score: inf
ROOT
ATOM      1  O   UNL     1      69.454 -59.090 199.011  1.00  0.00    -0.458 OA
ENDROOT
BRANCH   1   2
ATOM      2  C   UNL     1      68.186 -58.526 199.362  1.00  0.00     0.339 C 
ATOM      3  C   UNL     1      67.024 -60.602 199.481  1.00  0.00     0.199 C 
ATOM      4  C   UNL     1      66.248 -60.313 198.163  1.00  0.00     0.180 C 
ATOM      5  O   UNL     1      67.429 -59.422 200.164  1.00  0.00    -0.328 OA
ATOM      6  C   UNL     1      66.961 -59.283 197.266  1.00  0.00     0.181 C 
ATOM      7  C   UNL     1      67.428 -58.078 198.096  1.00  0.00     0.214 C 
BRANCH   3   8
ATOM      8  C   UNL     1      68.148 -61.605 199.390  1.00  0.00     0.073 C 
ATOM      9  O   UNL     1      68.495 -62.110 198.290  1.00  0.00    -0.547 OA
ATOM     10  O   UNL     1      68.824 -61.969 200.546  1.00  0.00    -0.547 OA
ENDBRANCH   3   8
BRANCH   4  11
ATOM     11  O   UNL     1      66.008 -61.497 197.443  1.00  0.00    -0.387 OA
ATOM     12  H   UNL     1      66.860 -62.007 197.436  1.00  0.00     0.211 HD
ENDBRANCH   4  11
BRANCH   6  13
ATOM     13  O   UNL     1      68.065 -59.856 196.614  1.00  0.00    -0.387 OA
ATOM     14  H   UNL     1      68.292 -60.691 197.102  1.00  0.00     0.211 HD
ENDBRANCH   6  13
BRANCH   7  15
ATOM     15  O   UNL     1      66.346 -57.236 198.417  1.00  0.00    -0.384 OA
ATOM     16  H   UNL     1      66.693 -56.469 198.942  1.00  0.00     0.211 HD
ENDBRANCH   7  15
ENDBRANCH   1   2
BRANCH   1  17
ATOM     17  C   UNL     1      70.674 -58.694 199.574  1.00  0.00     0.172 A 
ATOM     18  C   UNL     1      71.023 -59.021 200.899  1.00  0.00     0.201 A 
ATOM     19  C   UNL     1      71.529 -57.904 198.804  1.00  0.00     0.098 A 
ATOM     20  C   UNL     1      72.292 -58.643 201.408  1.00  0.00     0.176 A 
ATOM     21  C   UNL     1      72.760 -57.489 199.306  1.00  0.00     0.146 A 
ATOM     22  C   UNL     1      73.162 -57.860 200.608  1.00  0.00     0.111 A 
ATOM     23  O   UNL     1      73.548 -56.743 198.538  1.00  0.00    -0.456 OA
ATOM     24  C   UNL     1      74.431 -57.423 201.044  1.00  0.00     0.197 A 
ATOM     25  C   UNL     1      74.743 -56.302 198.926  1.00  0.00     0.138 A 
ATOM     26  C   UNL     1      75.222 -56.644 200.200  1.00  0.00     0.100 A 
ATOM     27  O   UNL     1      74.872 -57.720 202.188  1.00  0.00    -0.289 OA
BRANCH  18  28
ATOM     28  O   UNL     1      70.075 -59.669 201.695  1.00  0.00    -0.502 OA
ATOM     29  H   UNL     1      69.131 -59.875 201.401  1.00  0.00     0.293 HD
ENDBRANCH  18  28
BRANCH  20  30
ATOM     30  O   UNL     1      72.705 -59.032 202.687  1.00  0.00    -0.504 OA
ATOM     31  H   UNL     1      73.541 -58.695 203.142  1.00  0.00     0.293 HD
ENDBRANCH  20  30
BRANCH  25  32
ATOM     32  C   UNL     1      75.537 -55.472 197.983  1.00  0.00     0.017 A 
ATOM     33  C   UNL     1      75.113 -55.242 196.658  1.00  0.00     0.012 A 
ATOM     34  C   UNL     1      76.761 -54.923 198.407  1.00  0.00     0.012 A 
ATOM     35  C   UNL     1      75.888 -54.464 195.792  1.00  0.00     0.001 A 
ATOM     36  C   UNL     1      77.531 -54.146 197.536  1.00  0.00     0.001 A 
ATOM     37  C   UNL     1      77.094 -53.916 196.230  1.00  0.00     0.000 A 
ENDBRANCH  25  32
ENDBRANCH   1  17
TORSDOF 9
ENDMDL
MODEL 6
REMARK VINA RESULT:    -5.453      2.893      8.654
REMARK INTER + INTRA:          -9.174
REMARK INTER:                  -7.676
REMARK INTRA:                  -1.498
REMARK UNBOUND:                -1.649
REMARK SMILES O=C([O-])[C@H]1O[C@@H](Oc2cc3oc(-c4ccccc4)cc(=O)c3c(O)c2O)[C@H](O)[C@@H](O)[C@H]1O
REMARK SMILES IDX 7 1 6 2 4 3 31 4 5 5 29 6 27 7 2 8 1 9 3 10 32 11 30 13
REMARK SMILES IDX 28 15 8 17 25 18 9 19 23 20 10 21 22 22 11 23 20 24 12 25
REMARK SMILES IDX 19 26 21 27 26 28 24 30 13 32 14 33 18 34 15 35 17 36 16 37
REMARK H PARENT 32 12 30 14 28 16 26 29 24 31
REMARK Flexibility Score: inf
ROOT
ATOM      1  O   UNL     1      71.188 -57.784 200.952  1.00  0.00    -0.458 OA
ENDROOT
BRANCH   1   2
ATOM      2  C   UNL     1      71.703 -59.115 201.067  1.00  0.00     0.339 C 
ATOM      3  C   UNL     1      70.119 -60.113 199.594  1.00  0.00     0.199 C 
ATOM      4  C   UNL     1      69.376 -60.813 200.769  1.00  0.00     0.180 C 
ATOM      5  O   UNL     1      71.489 -59.853 199.872  1.00  0.00    -0.328 OA
ATOM      6  C   UNL     1      69.620 -60.123 202.124  1.00  0.00     0.181 C 
ATOM      7  C   UNL     1      71.113 -59.814 202.309  1.00  0.00     0.214 C 
BRANCH   3   8
ATOM      8  C   UNL     1      69.436 -58.909 198.992  1.00  0.00     0.073 C 
ATOM      9  O   UNL     1      68.371 -58.443 199.477  1.00  0.00    -0.547 OA
ATOM     10  O   UNL     1      70.003 -58.292 197.885  1.00  0.00    -0.547 OA
ENDBRANCH   3   8
BRANCH   4  11
ATOM     11  O   UNL     1      67.996 -60.905 200.515  1.00  0.00    -0.387 OA
ATOM     12  H   UNL     1      67.549 -61.032 201.394  1.00  0.00     0.211 HD
ENDBRANCH   4  11
BRANCH   6  13
ATOM     13  O   UNL     1      68.882 -58.933 202.227  1.00  0.00    -0.387 OA
ATOM     14  H   UNL     1      68.205 -59.069 202.941  1.00  0.00     0.211 HD
ENDBRANCH   6  13
BRANCH   7  15
ATOM     15  O   UNL     1      71.834 -60.979 202.631  1.00  0.00    -0.384 OA
ATOM     16  H   UNL     1      72.791 -60.738 202.728  1.00  0.00     0.211 HD
ENDBRANCH   7  15
ENDBRANCH   1   2
BRANCH   1  17
ATOM     17  C   UNL     1      71.981 -56.650 200.737  1.00  0.00     0.172 A 
ATOM     18  C   UNL     1      71.822 -55.476 201.499  1.00  0.00     0.201 A 
ATOM     19  C   UNL     1      72.907 -56.681 199.694  1.00  0.00     0.098 A 
ATOM     20  C   UNL     1      72.684 -54.370 201.281  1.00  0.00     0.176 A 
ATOM     21  C   UNL     1      73.731 -55.588 199.439  1.00  0.00     0.146 A 
ATOM     22  C   UNL     1      73.638 -54.424 200.233  1.00  0.00     0.111 A 
ATOM     23  O   UNL     1      74.606 -55.661 198.440  1.00  0.00    -0.456 OA
ATOM     24  C   UNL     1      74.517 -53.362 199.934  1.00  0.00     0.197 A 
ATOM     25  C   UNL     1      75.438 -54.671 198.123  1.00  0.00     0.138 A 
ATOM     26  C   UNL     1      75.420 -53.488 198.877  1.00  0.00     0.100 A 
ATOM     27  O   UNL     1      74.509 -52.291 200.600  1.00  0.00    -0.289 OA
BRANCH  18  28
ATOM     28  O   UNL     1      70.774 -55.420 202.422  1.00  0.00    -0.502 OA
ATOM     29  H   UNL     1      70.812 -54.916 203.296  1.00  0.00     0.293 HD
ENDBRANCH  18  28
BRANCH  20  30
ATOM     30  O   UNL     1      72.613 -53.227 202.083  1.00  0.00    -0.504 OA
ATOM     31  H   UNL     1      71.751 -52.819 202.417  1.00  0.00     0.293 HD
ENDBRANCH  20  30
BRANCH  25  32
ATOM     32  C   UNL     1      76.372 -54.864 196.983  1.00  0.00     0.017 A 
ATOM     33  C   UNL     1      76.001 -55.592 195.834  1.00  0.00     0.012 A 
ATOM     34  C   UNL     1      77.674 -54.336 197.059  1.00  0.00     0.012 A 
ATOM     35  C   UNL     1      76.907 -55.765 194.782  1.00  0.00     0.001 A 
ATOM     36  C   UNL     1      78.575 -54.512 196.005  1.00  0.00     0.001 A 
ATOM     37  C   UNL     1      78.192 -55.224 194.867  1.00  0.00     0.000 A 
ENDBRANCH  25  32
ENDBRANCH   1  17
TORSDOF 9
ENDMDL
MODEL 7
REMARK VINA RESULT:    -5.395      3.064      8.744
REMARK INTER + INTRA:          -9.094
REMARK INTER:                  -7.414
REMARK INTRA:                  -1.679
REMARK UNBOUND:                -1.649
REMARK SMILES O=C([O-])[C@H]1O[C@@H](Oc2cc3oc(-c4ccccc4)cc(=O)c3c(O)c2O)[C@H](O)[C@@H](O)[C@H]1O
REMARK SMILES IDX 7 1 6 2 4 3 31 4 5 5 29 6 27 7 2 8 1 9 3 10 32 11 30 13
REMARK SMILES IDX 28 15 8 17 25 18 9 19 23 20 10 21 22 22 11 23 20 24 12 25
REMARK SMILES IDX 19 26 21 27 26 28 24 30 13 32 14 33 18 34 15 35 17 36 16 37
REMARK H PARENT 32 12 30 14 28 16 26 29 24 31
REMARK Flexibility Score: inf
ROOT
ATOM      1  O   UNL     1      70.496 -57.862 199.805  1.00  0.00    -0.458 OA
ENDROOT
BRANCH   1   2
ATOM      2  C   UNL     1      69.386 -57.863 198.901  1.00  0.00     0.339 C 
ATOM      3  C   UNL     1      67.869 -58.942 200.387  1.00  0.00     0.199 C 
ATOM      4  C   UNL     1      67.917 -60.267 199.572  1.00  0.00     0.180 C 
ATOM      5  O   UNL     1      68.153 -57.790 199.603  1.00  0.00    -0.328 OA
ATOM      6  C   UNL     1      69.189 -60.392 198.713  1.00  0.00     0.181 C 
ATOM      7  C   UNL     1      69.461 -59.082 197.959  1.00  0.00     0.214 C 
BRANCH   3   8
ATOM      8  C   UNL     1      68.631 -58.929 201.690  1.00  0.00     0.073 C 
ATOM      9  O   UNL     1      68.506 -57.990 202.519  1.00  0.00    -0.547 OA
ATOM     10  O   UNL     1      69.481 -59.987 201.987  1.00  0.00    -0.547 OA
ENDBRANCH   3   8
BRANCH   4  11
ATOM     11  O   UNL     1      67.790 -61.387 200.412  1.00  0.00    -0.387 OA
ATOM     12  H   UNL     1      66.817 -61.553 200.525  1.00  0.00     0.211 HD
ENDBRANCH   4  11
BRANCH   6  13
ATOM     13  O   UNL     1      70.305 -60.714 199.503  1.00  0.00    -0.387 OA
ATOM     14  H   UNL     1      70.012 -60.678 200.451  1.00  0.00     0.211 HD
ENDBRANCH   6  13
BRANCH   7  15
ATOM     15  O   UNL     1      68.586 -58.937 196.865  1.00  0.00    -0.384 OA
ATOM     16  H   UNL     1      68.262 -59.837 196.603  1.00  0.00     0.211 HD
ENDBRANCH   7  15
ENDBRANCH   1   2
BRANCH   1  17
ATOM     17  C   UNL     1      71.433 -56.824 199.899  1.00  0.00     0.172 A 
ATOM     18  C   UNL     1      71.324 -55.810 200.871  1.00  0.00     0.201 A 
ATOM     19  C   UNL     1      72.462 -56.778 198.958  1.00  0.00     0.098 A 
ATOM     20  C   UNL     1      72.326 -54.809 200.962  1.00  0.00     0.176 A 
ATOM     21  C   UNL     1      73.429 -55.776 199.008  1.00  0.00     0.146 A 
ATOM     22  C   UNL     1      73.379 -54.787 200.014  1.00  0.00     0.111 A 
ATOM     23  O   UNL     1      74.397 -55.772 198.096  1.00  0.00    -0.456 OA
ATOM     24  C   UNL     1      74.403 -53.815 200.019  1.00  0.00     0.197 A 
ATOM     25  C   UNL     1      75.367 -54.861 198.065  1.00  0.00     0.138 A 
ATOM     26  C   UNL     1      75.398 -53.854 199.042  1.00  0.00     0.100 A 
ATOM     27  O   UNL     1      74.441 -52.903 200.889  1.00  0.00    -0.289 OA
BRANCH  18  28
ATOM     28  O   UNL     1      70.191 -55.794 201.689  1.00  0.00    -0.502 OA
ATOM     29  H   UNL     1      69.977 -55.061 202.350  1.00  0.00     0.293 HD
ENDBRANCH  18  28
BRANCH  20  30
ATOM     30  O   UNL     1      72.295 -53.844 201.974  1.00  0.00    -0.504 OA
ATOM     31  H   UNL     1      72.808 -52.975 201.947  1.00  0.00     0.293 HD
ENDBRANCH  20  30
BRANCH  25  32
ATOM     32  C   UNL     1      76.396 -54.953 196.997  1.00  0.00     0.017 A 
ATOM     33  C   UNL     1      76.156 -55.645 195.792  1.00  0.00     0.012 A 
ATOM     34  C   UNL     1      77.658 -54.363 197.199  1.00  0.00     0.012 A 
ATOM     35  C   UNL     1      77.149 -55.722 194.810  1.00  0.00     0.001 A 
ATOM     36  C   UNL     1      78.646 -54.445 196.213  1.00  0.00     0.001 A 
ATOM     37  C   UNL     1      78.391 -55.121 195.019  1.00  0.00     0.000 A 
ENDBRANCH  25  32
ENDBRANCH   1  17
TORSDOF 9
ENDMDL
MODEL 8
REMARK VINA RESULT:    -5.389      1.104      2.436
REMARK INTER + INTRA:          -9.086
REMARK INTER:                  -8.042
REMARK INTRA:                  -1.045
REMARK UNBOUND:                -1.649
REMARK SMILES O=C([O-])[C@H]1O[C@@H](Oc2cc3oc(-c4ccccc4)cc(=O)c3c(O)c2O)[C@H](O)[C@@H](O)[C@H]1O
REMARK SMILES IDX 7 1 6 2 4 3 31 4 5 5 29 6 27 7 2 8 1 9 3 10 32 11 30 13
REMARK SMILES IDX 28 15 8 17 25 18 9 19 23 20 10 21 22 22 11 23 20 24 12 25
REMARK SMILES IDX 19 26 21 27 26 28 24 30 13 32 14 33 18 34 15 35 17 36 16 37
REMARK H PARENT 32 12 30 14 28 16 26 29 24 31
REMARK Flexibility Score: inf
ROOT
ATOM      1  O   UNL     1      75.790 -54.659 197.095  1.00  0.00    -0.458 OA
ENDROOT
BRANCH   1   2
ATOM      2  C   UNL     1      77.047 -53.979 197.024  1.00  0.00     0.339 C 
ATOM      3  C   UNL     1      76.587 -52.838 194.983  1.00  0.00     0.199 C 
ATOM      4  C   UNL     1      77.574 -53.740 194.186  1.00  0.00     0.180 C 
ATOM      5  O   UNL     1      76.917 -52.728 196.362  1.00  0.00    -0.328 OA
ATOM      6  C   UNL     1      77.839 -55.090 194.877  1.00  0.00     0.181 C 
ATOM      7  C   UNL     1      78.113 -54.885 196.374  1.00  0.00     0.214 C 
BRANCH   3   8
ATOM      8  C   UNL     1      75.117 -53.116 194.784  1.00  0.00     0.073 C 
ATOM      9  O   UNL     1      74.717 -54.070 194.066  1.00  0.00    -0.547 OA
ATOM     10  O   UNL     1      74.184 -52.307 195.419  1.00  0.00    -0.547 OA
ENDBRANCH   3   8
BRANCH   4  11
ATOM     11  O   UNL     1      77.123 -53.950 192.871  1.00  0.00    -0.387 OA
ATOM     12  H   UNL     1      77.817 -53.577 192.266  1.00  0.00     0.211 HD
ENDBRANCH   4  11
BRANCH   6  13
ATOM     13  O   UNL     1      76.749 -55.963 194.719  1.00  0.00    -0.387 OA
ATOM     14  H   UNL     1      75.996 -55.588 195.247  1.00  0.00     0.211 HD
ENDBRANCH   6  13
BRANCH   7  15
ATOM     15  O   UNL     1      79.410 -54.381 196.586  1.00  0.00    -0.384 OA
ATOM     16  H   UNL     1      79.758 -54.758 197.434  1.00  0.00     0.211 HD
ENDBRANCH   7  15
ENDBRANCH   1   2
BRANCH   1  17
ATOM     17  C   UNL     1      75.005 -54.744 198.252  1.00  0.00     0.172 A 
ATOM     18  C   UNL     1      74.909 -53.676 199.165  1.00  0.00     0.201 A 
ATOM     19  C   UNL     1      74.357 -55.950 198.522  1.00  0.00     0.098 A 
ATOM     20  C   UNL     1      74.060 -53.789 200.297  1.00  0.00     0.176 A 
ATOM     21  C   UNL     1      73.555 -56.092 199.652  1.00  0.00     0.146 A 
ATOM     22  C   UNL     1      73.388 -55.012 200.547  1.00  0.00     0.111 A 
ATOM     23  O   UNL     1      72.949 -57.255 199.869  1.00  0.00    -0.456 OA
ATOM     24  C   UNL     1      72.544 -55.217 201.659  1.00  0.00     0.197 A 
ATOM     25  C   UNL     1      72.160 -57.484 200.916  1.00  0.00     0.138 A 
ATOM     26  C   UNL     1      71.928 -56.455 201.842  1.00  0.00     0.100 A 
ATOM     27  O   UNL     1      72.330 -54.302 202.501  1.00  0.00    -0.289 OA
BRANCH  18  28
ATOM     28  O   UNL     1      75.702 -52.546 198.951  1.00  0.00    -0.502 OA
ATOM     29  H   UNL     1      76.087 -52.283 198.056  1.00  0.00     0.293 HD
ENDBRANCH  18  28
BRANCH  20  30
ATOM     30  O   UNL     1      73.871 -52.713 201.170  1.00  0.00    -0.504 OA
ATOM     31  H   UNL     1      73.066 -52.603 201.771  1.00  0.00     0.293 HD
ENDBRANCH  20  30
BRANCH  25  32
ATOM     32  C   UNL     1      71.536 -58.825 201.057  1.00  0.00     0.017 A 
ATOM     33  C   UNL     1      70.750 -59.391 200.033  1.00  0.00     0.012 A 
ATOM     34  C   UNL     1      71.704 -59.543 202.256  1.00  0.00     0.012 A 
ATOM     35  C   UNL     1      70.168 -60.652 200.200  1.00  0.00     0.001 A 
ATOM     36  C   UNL     1      71.120 -60.803 202.418  1.00  0.00     0.001 A 
ATOM     37  C   UNL     1      70.355 -61.358 201.390  1.00  0.00     0.000 A 
ENDBRANCH  25  32
ENDBRANCH   1  17
TORSDOF 9
ENDMDL
MODEL 9
REMARK VINA RESULT:    -5.379      2.398      3.958
REMARK INTER + INTRA:          -9.072
REMARK INTER:                  -7.541
REMARK INTRA:                  -1.532
REMARK UNBOUND:                -1.649
REMARK SMILES O=C([O-])[C@H]1O[C@@H](Oc2cc3oc(-c4ccccc4)cc(=O)c3c(O)c2O)[C@H](O)[C@@H](O)[C@H]1O
REMARK SMILES IDX 7 1 6 2 4 3 31 4 5 5 29 6 27 7 2 8 1 9 3 10 32 11 30 13
REMARK SMILES IDX 28 15 8 17 25 18 9 19 23 20 10 21 22 22 11 23 20 24 12 25
REMARK SMILES IDX 19 26 21 27 26 28 24 30 13 32 14 33 18 34 15 35 17 36 16 37
REMARK H PARENT 32 12 30 14 28 16 26 29 24 31
REMARK Flexibility Score: inf
ROOT
ATOM      1  O   UNL     1      74.759 -54.257 195.538  1.00  0.00    -0.458 OA
ENDROOT
BRANCH   1   2
ATOM      2  C   UNL     1      75.819 -54.809 194.749  1.00  0.00     0.339 C 
ATOM      3  C   UNL     1      77.491 -54.631 196.437  1.00  0.00     0.199 C 
ATOM      4  C   UNL     1      78.198 -53.458 195.698  1.00  0.00     0.180 C 
ATOM      5  O   UNL     1      76.765 -55.488 195.564  1.00  0.00    -0.328 OA
ATOM      6  C   UNL     1      77.262 -52.715 194.726  1.00  0.00     0.181 C 
ATOM      7  C   UNL     1      76.465 -53.715 193.876  1.00  0.00     0.214 C 
BRANCH   3   8
ATOM      8  C   UNL     1      76.680 -54.262 197.655  1.00  0.00     0.073 C 
ATOM      9  O   UNL     1      76.441 -53.061 197.951  1.00  0.00    -0.547 OA
ATOM     10  O   UNL     1      76.175 -55.273 198.462  1.00  0.00    -0.547 OA
ENDBRANCH   3   8
BRANCH   4  11
ATOM     11  O   UNL     1      78.767 -52.551 196.609  1.00  0.00    -0.387 OA
ATOM     12  H   UNL     1      79.509 -52.092 196.134  1.00  0.00     0.211 HD
ENDBRANCH   4  11
BRANCH   6  13
ATOM     13  O   UNL     1      76.371 -51.880 195.419  1.00  0.00    -0.387 OA
ATOM     14  H   UNL     1      76.498 -52.057 196.388  1.00  0.00     0.211 HD
ENDBRANCH   6  13
BRANCH   7  15
ATOM     15  O   UNL     1      77.272 -54.276 192.867  1.00  0.00    -0.384 OA
ATOM     16  H   UNL     1      76.691 -54.797 192.255  1.00  0.00     0.211 HD
ENDBRANCH   7  15
ENDBRANCH   1   2
BRANCH   1  17
ATOM     17  C   UNL     1      73.491 -54.837 195.668  1.00  0.00     0.172 A 
ATOM     18  C   UNL     1      72.443 -54.541 194.774  1.00  0.00     0.201 A 
ATOM     19  C   UNL     1      73.261 -55.681 196.754  1.00  0.00     0.098 A 
ATOM     20  C   UNL     1      71.190 -55.193 194.914  1.00  0.00     0.176 A 
ATOM     21  C   UNL     1      72.023 -56.295 196.931  1.00  0.00     0.146 A 
ATOM     22  C   UNL     1      70.977 -56.068 196.009  1.00  0.00     0.111 A 
ATOM     23  O   UNL     1      71.846 -57.099 197.975  1.00  0.00    -0.456 OA
ATOM     24  C   UNL     1      69.756 -56.739 196.236  1.00  0.00     0.197 A 
ATOM     25  C   UNL     1      70.704 -57.733 198.225  1.00  0.00     0.138 A 
ATOM     26  C   UNL     1      69.621 -57.574 197.345  1.00  0.00     0.100 A 
ATOM     27  O   UNL     1      68.774 -56.602 195.456  1.00  0.00    -0.289 OA
BRANCH  18  28
ATOM     28  O   UNL     1      72.658 -53.565 193.798  1.00  0.00    -0.502 OA
ATOM     29  H   UNL     1      72.661 -52.571 193.978  1.00  0.00     0.293 HD
ENDBRANCH  18  28
BRANCH  20  30
ATOM     30  O   UNL     1      70.161 -54.992 193.989  1.00  0.00    -0.504 OA
ATOM     31  H   UNL     1      70.303 -54.888 192.994  1.00  0.00     0.293 HD
ENDBRANCH  20  30
BRANCH  25  32
ATOM     32  C   UNL     1      70.621 -58.605 199.425  1.00  0.00     0.017 A 
ATOM     33  C   UNL     1      71.549 -58.505 200.481  1.00  0.00     0.012 A 
ATOM     34  C   UNL     1      69.609 -59.581 199.503  1.00  0.00     0.012 A 
ATOM     35  C   UNL     1      71.450 -59.348 201.594  1.00  0.00     0.001 A 
ATOM     36  C   UNL     1      69.516 -60.420 200.617  1.00  0.00     0.001 A 
ATOM     37  C   UNL     1      70.434 -60.302 201.663  1.00  0.00     0.000 A 
ENDBRANCH  25  32
ENDBRANCH   1  17
TORSDOF 9
ENDMDL
