MODEL 1
REMARK VINA RESULT:    -5.728      0.000      0.000
REMARK INTER + INTRA:          -6.152
REMARK INTER:                  -6.062
REMARK INTRA:                  -0.089
REMARK UNBOUND:                -0.089
REMARK SMILES C=C(C)[C@@H]1CC=C(C)C(=O)C1
REMARK SMILES IDX 8 1 7 2 6 3 5 4 4 5 11 6 9 7 10 8 2 9 1 10 3 11
REMARK H PARENT
REMARK Flexibility Score: inf
ROOT
ATOM      1  C   UNL     1     -13.423 -41.213  41.337  1.00  0.00     0.048 C 
ATOM      2  C   UNL     1     -13.252 -40.141  40.296  1.00  0.00    -0.012 C 
ATOM      3  C   UNL     1     -13.216 -38.846  40.660  1.00  0.00    -0.019 C 
ATOM      4  C   UNL     1     -12.967 -37.744  39.665  1.00  0.00     0.036 C 
ATOM      5  C   UNL     1     -13.502 -38.121  38.270  1.00  0.00     0.025 C 
ATOM      6  C   UNL     1     -12.907 -39.466  37.813  1.00  0.00     0.089 C 
ATOM      7  C   UNL     1     -13.099 -40.519  38.870  1.00  0.00     0.158 C 
ATOM      8  O   UNL     1     -13.084 -41.733  38.536  1.00  0.00    -0.295 OA
ENDROOT
BRANCH   5   9
ATOM      9  C   UNL     1     -13.236 -37.020  37.253  1.00  0.00    -0.077 C 
ATOM     10  C   UNL     1     -14.044 -35.949  37.191  1.00  0.00     0.008 C 
ATOM     11  C   UNL     1     -12.072 -37.099  36.297  1.00  0.00     0.039 C 
ENDBRANCH   5   9
TORSDOF 1
ENDMDL
MODEL 2
REMARK VINA RESULT:    -5.670      0.884      1.425
REMARK INTER + INTRA:          -6.091
REMARK INTER:                  -5.992
REMARK INTRA:                  -0.098
REMARK UNBOUND:                -0.089
REMARK SMILES C=C(C)[C@@H]1CC=C(C)C(=O)C1
REMARK SMILES IDX 8 1 7 2 6 3 5 4 4 5 11 6 9 7 10 8 2 9 1 10 3 11
REMARK H PARENT
REMARK Flexibility Score: inf
ROOT
ATOM      1  C   UNL     1     -13.074 -41.241  41.335  1.00  0.00     0.048 C 
ATOM      2  C   UNL     1     -13.174 -39.977  40.527  1.00  0.00    -0.012 C 
ATOM      3  C   UNL     1     -13.171 -38.780  41.141  1.00  0.00    -0.019 C 
ATOM      4  C   UNL     1     -13.188 -37.486  40.371  1.00  0.00     0.036 C 
ATOM      5  C   UNL     1     -13.936 -37.645  39.032  1.00  0.00     0.025 C 
ATOM      6  C   UNL     1     -13.332 -38.803  38.216  1.00  0.00     0.089 C 
ATOM      7  C   UNL     1     -13.252 -40.054  39.047  1.00  0.00     0.158 C 
ATOM      8  O   UNL     1     -13.206 -41.172  38.469  1.00  0.00    -0.295 OA
ENDROOT
BRANCH   5   9
ATOM      9  C   UNL     1     -13.940 -36.347  38.238  1.00  0.00    -0.077 C 
ATOM     10  C   UNL     1     -13.409 -36.308  37.006  1.00  0.00     0.008 C 
ATOM     11  C   UNL     1     -14.531 -35.080  38.806  1.00  0.00     0.039 C 
ENDBRANCH   5   9
TORSDOF 1
ENDMDL
MODEL 3
REMARK VINA RESULT:    -5.623      1.612      2.197
REMARK INTER + INTRA:          -6.041
REMARK INTER:                  -5.943
REMARK INTRA:                  -0.098
REMARK UNBOUND:                -0.089
REMARK SMILES C=C(C)[C@@H]1CC=C(C)C(=O)C1
REMARK SMILES IDX 8 1 7 2 6 3 5 4 4 5 11 6 9 7 10 8 2 9 1 10 3 11
REMARK H PARENT
REMARK Flexibility Score: inf
ROOT
ATOM      1  C   UNL     1     -13.089 -40.685  41.386  1.00  0.00     0.048 C 
ATOM      2  C   UNL     1     -13.191 -39.694  40.260  1.00  0.00    -0.012 C 
ATOM      3  C   UNL     1     -13.067 -40.104  38.985  1.00  0.00    -0.019 C 
ATOM      4  C   UNL     1     -13.242 -39.164  37.822  1.00  0.00     0.036 C 
ATOM      5  C   UNL     1     -12.820 -37.730  38.197  1.00  0.00     0.025 C 
ATOM      6  C   UNL     1     -13.581 -37.258  39.450  1.00  0.00     0.089 C 
ATOM      7  C   UNL     1     -13.454 -38.265  40.560  1.00  0.00     0.158 C 
ATOM      8  O   UNL     1     -13.618 -37.889  41.751  1.00  0.00    -0.295 OA
ENDROOT
BRANCH   5   9
ATOM      9  C   UNL     1     -13.013 -36.769  37.033  1.00  0.00    -0.077 C 
ATOM     10  C   UNL     1     -14.079 -35.954  37.001  1.00  0.00     0.008 C 
ATOM     11  C   UNL     1     -12.025 -36.706  35.894  1.00  0.00     0.039 C 
ENDBRANCH   5   9
TORSDOF 1
ENDMDL
MODEL 4
REMARK VINA RESULT:    -5.613      1.514      4.275
REMARK INTER + INTRA:          -6.031
REMARK INTER:                  -5.939
REMARK INTRA:                  -0.092
REMARK UNBOUND:                -0.089
REMARK SMILES C=C(C)[C@@H]1CC=C(C)C(=O)C1
REMARK SMILES IDX 8 1 7 2 6 3 5 4 4 5 11 6 9 7 10 8 2 9 1 10 3 11
REMARK H PARENT
REMARK Flexibility Score: inf
ROOT
ATOM      1  C   UNL     1     -13.073 -36.070  36.519  1.00  0.00     0.048 C 
ATOM      2  C   UNL     1     -13.199 -37.004  37.691  1.00  0.00    -0.012 C 
ATOM      3  C   UNL     1     -13.676 -36.554  38.865  1.00  0.00    -0.019 C 
ATOM      4  C   UNL     1     -13.897 -37.468  40.041  1.00  0.00     0.036 C 
ATOM      5  C   UNL     1     -12.894 -38.638  40.033  1.00  0.00     0.025 C 
ATOM      6  C   UNL     1     -12.958 -39.389  38.689  1.00  0.00     0.089 C 
ATOM      7  C   UNL     1     -12.820 -38.431  37.538  1.00  0.00     0.158 C 
ATOM      8  O   UNL     1     -12.420 -38.862  36.425  1.00  0.00    -0.295 OA
ENDROOT
BRANCH   5   9
ATOM      9  C   UNL     1     -13.124 -39.579  41.207  1.00  0.00    -0.077 C 
ATOM     10  C   UNL     1     -12.948 -39.143  42.465  1.00  0.00     0.008 C 
ATOM     11  C   UNL     1     -13.549 -41.011  40.996  1.00  0.00     0.039 C 
ENDBRANCH   5   9
TORSDOF 1
ENDMDL
MODEL 5
REMARK VINA RESULT:    -5.593      2.632      4.485
REMARK INTER + INTRA:          -6.009
REMARK INTER:                  -5.915
REMARK INTRA:                  -0.094
REMARK UNBOUND:                -0.089
REMARK SMILES C=C(C)[C@@H]1CC=C(C)C(=O)C1
REMARK SMILES IDX 8 1 7 2 6 3 5 4 4 5 11 6 9 7 10 8 2 9 1 10 3 11
REMARK H PARENT
REMARK Flexibility Score: inf
ROOT
ATOM      1  C   UNL     1     -14.042 -36.829  41.730  1.00  0.00     0.048 C 
ATOM      2  C   UNL     1     -13.499 -38.108  41.156  1.00  0.00    -0.012 C 
ATOM      3  C   UNL     1     -13.511 -38.311  39.827  1.00  0.00    -0.019 C 
ATOM      4  C   UNL     1     -12.905 -39.540  39.200  1.00  0.00     0.036 C 
ATOM      5  C   UNL     1     -12.995 -40.751  40.149  1.00  0.00     0.025 C 
ATOM      6  C   UNL     1     -12.357 -40.414  41.509  1.00  0.00     0.089 C 
ATOM      7  C   UNL     1     -12.926 -39.135  42.061  1.00  0.00     0.158 C 
ATOM      8  O   UNL     1     -12.871 -38.924  43.302  1.00  0.00    -0.295 OA
ENDROOT
BRANCH   5   9
ATOM      9  C   UNL     1     -12.367 -41.991  39.531  1.00  0.00    -0.077 C 
ATOM     10  C   UNL     1     -12.781 -42.432  38.332  1.00  0.00     0.008 C 
ATOM     11  C   UNL     1     -11.275 -42.755  40.239  1.00  0.00     0.039 C 
ENDBRANCH   5   9
TORSDOF 1
ENDMDL
MODEL 6
REMARK VINA RESULT:    -5.590      2.241      4.865
REMARK INTER + INTRA:          -6.006
REMARK INTER:                  -5.916
REMARK INTRA:                  -0.091
REMARK UNBOUND:                -0.089
REMARK SMILES C=C(C)[C@@H]1CC=C(C)C(=O)C1
REMARK SMILES IDX 8 1 7 2 6 3 5 4 4 5 11 6 9 7 10 8 2 9 1 10 3 11
REMARK H PARENT
REMARK Flexibility Score: inf
ROOT
ATOM      1  C   UNL     1     -13.840 -35.999  36.846  1.00  0.00     0.048 C 
ATOM      2  C   UNL     1     -13.565 -36.924  38.000  1.00  0.00    -0.012 C 
ATOM      3  C   UNL     1     -12.853 -38.049  37.808  1.00  0.00    -0.019 C 
ATOM      4  C   UNL     1     -12.483 -38.964  38.946  1.00  0.00     0.036 C 
ATOM      5  C   UNL     1     -13.546 -38.925  40.060  1.00  0.00     0.025 C 
ATOM      6  C   UNL     1     -13.779 -37.477  40.528  1.00  0.00     0.089 C 
ATOM      7  C   UNL     1     -14.060 -36.578  39.355  1.00  0.00     0.158 C 
ATOM      8  O   UNL     1     -14.685 -35.501  39.543  1.00  0.00    -0.295 OA
ENDROOT
BRANCH   5   9
ATOM      9  C   UNL     1     -13.170 -39.832  41.223  1.00  0.00    -0.077 C 
ATOM     10  C   UNL     1     -13.230 -41.166  41.085  1.00  0.00     0.008 C 
ATOM     11  C   UNL     1     -12.726 -39.266  42.549  1.00  0.00     0.039 C 
ENDBRANCH   5   9
TORSDOF 1
ENDMDL
MODEL 7
REMARK VINA RESULT:    -5.550      2.147      4.642
REMARK INTER + INTRA:          -5.963
REMARK INTER:                  -5.865
REMARK INTRA:                  -0.098
REMARK UNBOUND:                -0.089
REMARK SMILES C=C(C)[C@@H]1CC=C(C)C(=O)C1
REMARK SMILES IDX 8 1 7 2 6 3 5 4 4 5 11 6 9 7 10 8 2 9 1 10 3 11
REMARK H PARENT
REMARK Flexibility Score: inf
ROOT
ATOM      1  C   UNL     1     -11.650 -37.746  35.920  1.00  0.00     0.048 C 
ATOM      2  C   UNL     1     -11.948 -38.412  37.236  1.00  0.00    -0.012 C 
ATOM      3  C   UNL     1     -12.920 -39.338  37.319  1.00  0.00    -0.019 C 
ATOM      4  C   UNL     1     -13.200 -40.089  38.594  1.00  0.00     0.036 C 
ATOM      5  C   UNL     1     -12.867 -39.232  39.830  1.00  0.00     0.025 C 
ATOM      6  C   UNL     1     -11.413 -38.729  39.756  1.00  0.00     0.089 C 
ATOM      7  C   UNL     1     -11.148 -38.061  38.435  1.00  0.00     0.158 C 
ATOM      8  O   UNL     1     -10.206 -37.230  38.345  1.00  0.00    -0.295 OA
ENDROOT
BRANCH   5   9
ATOM      9  C   UNL     1     -13.128 -39.992  41.123  1.00  0.00    -0.077 C 
ATOM     10  C   UNL     1     -13.628 -41.238  41.084  1.00  0.00     0.008 C 
ATOM     11  C   UNL     1     -12.838 -39.376  42.469  1.00  0.00     0.039 C 
ENDBRANCH   5   9
TORSDOF 1
ENDMDL
MODEL 8
REMARK VINA RESULT:    -5.447      2.838      3.852
REMARK INTER + INTRA:          -5.855
REMARK INTER:                  -5.759
REMARK INTRA:                  -0.096
REMARK UNBOUND:                -0.089
REMARK SMILES C=C(C)[C@@H]1CC=C(C)C(=O)C1
REMARK SMILES IDX 8 1 7 2 6 3 5 4 4 5 11 6 9 7 10 8 2 9 1 10 3 11
REMARK H PARENT
REMARK Flexibility Score: inf
ROOT
ATOM      1  C   UNL     1      -8.079 -37.238  39.897  1.00  0.00     0.048 C 
ATOM      2  C   UNL     1      -9.470 -37.084  39.348  1.00  0.00    -0.012 C 
ATOM      3  C   UNL     1      -9.697 -36.271  38.300  1.00  0.00    -0.019 C 
ATOM      4  C   UNL     1     -11.056 -36.147  37.665  1.00  0.00     0.036 C 
ATOM      5  C   UNL     1     -12.177 -36.375  38.698  1.00  0.00     0.025 C 
ATOM      6  C   UNL     1     -11.984 -37.730  39.405  1.00  0.00     0.089 C 
ATOM      7  C   UNL     1     -10.588 -37.851  39.951  1.00  0.00     0.158 C 
ATOM      8  O   UNL     1     -10.367 -38.648  40.900  1.00  0.00    -0.295 OA
ENDROOT
BRANCH   5   9
ATOM      9  C   UNL     1     -13.554 -36.271  38.059  1.00  0.00    -0.077 C 
ATOM     10  C   UNL     1     -14.652 -36.579  38.769  1.00  0.00     0.008 C 
ATOM     11  C   UNL     1     -13.725 -35.828  36.627  1.00  0.00     0.039 C 
ENDBRANCH   5   9
TORSDOF 1
ENDMDL
MODEL 9
REMARK VINA RESULT:    -5.396      2.268      2.469
REMARK INTER + INTRA:          -5.801
REMARK INTER:                  -5.703
REMARK INTRA:                  -0.098
REMARK UNBOUND:                -0.089
REMARK SMILES C=C(C)[C@@H]1CC=C(C)C(=O)C1
REMARK SMILES IDX 8 1 7 2 6 3 5 4 4 5 11 6 9 7 10 8 2 9 1 10 3 11
REMARK H PARENT
REMARK Flexibility Score: inf
ROOT
ATOM      1  C   UNL     1     -12.236 -39.601  42.446  1.00  0.00     0.048 C 
ATOM      2  C   UNL     1     -12.668 -38.541  41.471  1.00  0.00    -0.012 C 
ATOM      3  C   UNL     1     -13.836 -37.898  41.647  1.00  0.00    -0.019 C 
ATOM      4  C   UNL     1     -14.274 -36.775  40.744  1.00  0.00     0.036 C 
ATOM      5  C   UNL     1     -13.722 -36.960  39.317  1.00  0.00     0.025 C 
ATOM      6  C   UNL     1     -12.190 -37.119  39.353  1.00  0.00     0.089 C 
ATOM      7  C   UNL     1     -11.789 -38.190  40.329  1.00  0.00     0.158 C 
ATOM      8  O   UNL     1     -10.673 -38.758  40.193  1.00  0.00    -0.295 OA
ENDROOT
BRANCH   5   9
ATOM      9  C   UNL     1     -14.142 -35.818  38.404  1.00  0.00    -0.077 C 
ATOM     10  C   UNL     1     -14.685 -34.704  38.922  1.00  0.00     0.008 C 
ATOM     11  C   UNL     1     -13.965 -35.902  36.908  1.00  0.00     0.039 C 
ENDBRANCH   5   9
TORSDOF 1
ENDMDL
