MODEL 1
REMARK VINA RESULT:    -3.408      0.000      0.000
REMARK INTER + INTRA:          -3.832
REMARK INTER:                  -3.806
REMARK INTRA:                  -0.026
REMARK UNBOUND:                -0.026
REMARK SMILES CC(C)CC=O
REMARK SMILES IDX 4 1 2 2 1 3 3 4 5 5 6 6
REMARK H PARENT
REMARK Flexibility Score: inf
ROOT
ATOM      1  C   UNL     1      24.206  57.149  -8.523  1.00  0.00     0.075 C 
ENDROOT
BRANCH   1   2
ATOM      2  C   UNL     1      24.190  55.610  -8.420  1.00  0.00    -0.010 C 
ATOM      3  C   UNL     1      23.055  55.120  -7.508  1.00  0.00     0.008 C 
ATOM      4  C   UNL     1      25.538  55.099  -7.894  1.00  0.00     0.008 C 
ENDBRANCH   1   2
BRANCH   1   5
ATOM      5  C   UNL     1      25.591  57.695  -8.723  1.00  0.00     0.224 C 
ATOM      6  O   UNL     1      25.744  58.852  -9.079  1.00  0.00    -0.303 OA
ENDBRANCH   1   5
TORSDOF 2
ENDMDL
MODEL 2
REMARK VINA RESULT:    -3.188     16.173     17.367
REMARK INTER + INTRA:          -3.587
REMARK INTER:                  -3.549
REMARK INTRA:                  -0.038
REMARK UNBOUND:                -0.026
REMARK SMILES CC(C)CC=O
REMARK SMILES IDX 4 1 2 2 1 3 3 4 5 5 6 6
REMARK H PARENT
REMARK Flexibility Score: inf
ROOT
ATOM      1  C   UNL     1      18.853  43.664   2.501  1.00  0.00     0.075 C 
ENDROOT
BRANCH   1   2
ATOM      2  C   UNL     1      20.029  44.134   1.619  1.00  0.00    -0.010 C 
ATOM      3  C   UNL     1      19.530  44.788   0.321  1.00  0.00     0.008 C 
ATOM      4  C   UNL     1      20.948  42.950   1.287  1.00  0.00     0.008 C 
ENDBRANCH   1   2
BRANCH   1   5
ATOM      5  C   UNL     1      17.526  43.815   1.815  1.00  0.00     0.224 C 
ATOM      6  O   UNL     1      16.597  44.350   2.396  1.00  0.00    -0.303 OA
ENDBRANCH   1   5
TORSDOF 2
ENDMDL
MODEL 3
REMARK VINA RESULT:    -3.152      2.466      3.353
REMARK INTER + INTRA:          -3.547
REMARK INTER:                  -3.523
REMARK INTRA:                  -0.024
REMARK UNBOUND:                -0.026
REMARK SMILES CC(C)CC=O
REMARK SMILES IDX 4 1 2 2 1 3 3 4 5 5 6 6
REMARK H PARENT
REMARK Flexibility Score: inf
ROOT
ATOM      1  C   UNL     1      23.398  55.907  -8.188  1.00  0.00     0.075 C 
ENDROOT
BRANCH   1   2
ATOM      2  C   UNL     1      24.832  56.308  -7.784  1.00  0.00    -0.010 C 
ATOM      3  C   UNL     1      25.378  57.425  -8.687  1.00  0.00     0.008 C 
ATOM      4  C   UNL     1      25.760  55.087  -7.845  1.00  0.00     0.008 C 
ENDBRANCH   1   2
BRANCH   1   5
ATOM      5  C   UNL     1      22.901  54.712  -7.426  1.00  0.00     0.224 C 
ATOM      6  O   UNL     1      22.697  54.797  -6.226  1.00  0.00    -0.303 OA
ENDBRANCH   1   5
TORSDOF 2
ENDMDL
MODEL 4
REMARK VINA RESULT:    -3.151     15.885     16.942
REMARK INTER + INTRA:          -3.545
REMARK INTER:                  -3.507
REMARK INTRA:                  -0.038
REMARK UNBOUND:                -0.026
REMARK SMILES CC(C)CC=O
REMARK SMILES IDX 4 1 2 2 1 3 3 4 5 5 6 6
REMARK H PARENT
REMARK Flexibility Score: inf
ROOT
ATOM      1  C   UNL     1      20.970  43.243   1.488  1.00  0.00     0.075 C 
ENDROOT
BRANCH   1   2
ATOM      2  C   UNL     1      19.871  44.314   1.653  1.00  0.00    -0.010 C 
ATOM      3  C   UNL     1      18.650  43.755   2.398  1.00  0.00     0.008 C 
ATOM      4  C   UNL     1      19.443  44.850   0.280  1.00  0.00     0.008 C 
ENDBRANCH   1   2
BRANCH   1   5
ATOM      5  C   UNL     1      20.763  42.394   0.267  1.00  0.00     0.224 C 
ATOM      6  O   UNL     1      21.726  41.988  -0.363  1.00  0.00    -0.303 OA
ENDBRANCH   1   5
TORSDOF 2
ENDMDL
MODEL 5
REMARK VINA RESULT:    -3.115     15.773     16.657
REMARK INTER + INTRA:          -3.505
REMARK INTER:                  -3.466
REMARK INTRA:                  -0.038
REMARK UNBOUND:                -0.026
REMARK SMILES CC(C)CC=O
REMARK SMILES IDX 4 1 2 2 1 3 3 4 5 5 6 6
REMARK H PARENT
REMARK Flexibility Score: inf
ROOT
ATOM      1  C   UNL     1      19.332  44.703   0.237  1.00  0.00     0.075 C 
ENDROOT
BRANCH   1   2
ATOM      2  C   UNL     1      19.933  44.201   1.567  1.00  0.00    -0.010 C 
ATOM      3  C   UNL     1      20.955  43.079   1.332  1.00  0.00     0.008 C 
ATOM      4  C   UNL     1      18.819  43.706   2.498  1.00  0.00     0.008 C 
ENDBRANCH   1   2
BRANCH   1   5
ATOM      5  C   UNL     1      17.859  44.427   0.135  1.00  0.00     0.224 C 
ATOM      6  O   UNL     1      17.098  45.311  -0.225  1.00  0.00    -0.303 OA
ENDBRANCH   1   5
TORSDOF 2
ENDMDL
MODEL 6
REMARK VINA RESULT:    -3.035     15.439     16.786
REMARK INTER + INTRA:          -3.416
REMARK INTER:                  -3.374
REMARK INTRA:                  -0.043
REMARK UNBOUND:                -0.026
REMARK SMILES CC(C)CC=O
REMARK SMILES IDX 4 1 2 2 1 3 3 4 5 5 6 6
REMARK H PARENT
REMARK Flexibility Score: inf
ROOT
ATOM      1  C   UNL     1      19.591  43.542   1.627  1.00  0.00     0.075 C 
ENDROOT
BRANCH   1   2
ATOM      2  C   UNL     1      18.864  44.035   0.359  1.00  0.00    -0.010 C 
ATOM      3  C   UNL     1      19.432  45.377  -0.128  1.00  0.00     0.008 C 
ATOM      4  C   UNL     1      17.360  44.174   0.632  1.00  0.00     0.008 C 
ENDBRANCH   1   2
BRANCH   1   5
ATOM      5  C   UNL     1      20.988  43.072   1.340  1.00  0.00     0.224 C 
ATOM      6  O   UNL     1      21.196  42.318   0.403  1.00  0.00    -0.303 OA
ENDBRANCH   1   5
TORSDOF 2
ENDMDL
MODEL 7
REMARK VINA RESULT:    -2.832      7.623      8.643
REMARK INTER + INTRA:          -3.189
REMARK INTER:                  -3.150
REMARK INTRA:                  -0.039
REMARK UNBOUND:                -0.026
REMARK SMILES CC(C)CC=O
REMARK SMILES IDX 4 1 2 2 1 3 3 4 5 5 6 6
REMARK H PARENT
REMARK Flexibility Score: inf
ROOT
ATOM      1  C   UNL     1      31.838  58.575 -13.236  1.00  0.00     0.075 C 
ENDROOT
BRANCH   1   2
ATOM      2  C   UNL     1      32.250  57.229 -13.867  1.00  0.00    -0.010 C 
ATOM      3  C   UNL     1      31.190  56.145 -13.618  1.00  0.00     0.008 C 
ATOM      4  C   UNL     1      33.604  56.772 -13.306  1.00  0.00     0.008 C 
ENDBRANCH   1   2
BRANCH   1   5
ATOM      5  C   UNL     1      30.380  58.619 -12.879  1.00  0.00     0.224 C 
ATOM      6  O   UNL     1      30.037  58.978 -11.765  1.00  0.00    -0.303 OA
ENDBRANCH   1   5
TORSDOF 2
ENDMDL
MODEL 8
REMARK VINA RESULT:    -2.792     16.884     17.542
REMARK INTER + INTRA:          -3.145
REMARK INTER:                  -3.107
REMARK INTRA:                  -0.037
REMARK UNBOUND:                -0.026
REMARK SMILES CC(C)CC=O
REMARK SMILES IDX 4 1 2 2 1 3 3 4 5 5 6 6
REMARK H PARENT
REMARK Flexibility Score: inf
ROOT
ATOM      1  C   UNL     1      18.852  43.637   2.339  1.00  0.00     0.075 C 
ENDROOT
BRANCH   1   2
ATOM      2  C   UNL     1      17.709  43.915   1.340  1.00  0.00    -0.010 C 
ATOM      3  C   UNL     1      16.376  44.155   2.065  1.00  0.00     0.008 C 
ATOM      4  C   UNL     1      17.566  42.743   0.359  1.00  0.00     0.008 C 
ENDBRANCH   1   2
BRANCH   1   5
ATOM      5  C   UNL     1      20.186  44.097   1.825  1.00  0.00     0.224 C 
ATOM      6  O   UNL     1      21.031  43.276   1.506  1.00  0.00    -0.303 OA
ENDBRANCH   1   5
TORSDOF 2
ENDMDL
MODEL 9
REMARK VINA RESULT:    -2.792     16.365     16.861
REMARK INTER + INTRA:          -3.144
REMARK INTER:                  -3.106
REMARK INTRA:                  -0.038
REMARK UNBOUND:                -0.026
REMARK SMILES CC(C)CC=O
REMARK SMILES IDX 4 1 2 2 1 3 3 4 5 5 6 6
REMARK H PARENT
REMARK Flexibility Score: inf
ROOT
ATOM      1  C   UNL     1      18.817  43.052   0.300  1.00  0.00     0.075 C 
ENDROOT
BRANCH   1   2
ATOM      2  C   UNL     1      20.030  43.024   1.253  1.00  0.00    -0.010 C 
ATOM      3  C   UNL     1      20.282  44.404   1.881  1.00  0.00     0.008 C 
ATOM      4  C   UNL     1      21.284  42.557   0.502  1.00  0.00     0.008 C 
ENDBRANCH   1   2
BRANCH   1   5
ATOM      5  C   UNL     1      18.251  44.433   0.134  1.00  0.00     0.224 C 
ATOM      6  O   UNL     1      17.064  44.632   0.334  1.00  0.00    -0.303 OA
ENDBRANCH   1   5
TORSDOF 2
ENDMDL
