MODEL 1
REMARK VINA RESULT:    -3.938      0.000      0.000
REMARK INTER + INTRA:          -5.914
REMARK INTER:                  -5.549
REMARK INTRA:                  -0.365
REMARK UNBOUND:                -0.365
REMARK SMILES CCCCCCCCC(=O)[O-]
REMARK SMILES IDX 6 1 7 2 8 3 9 4 10 5 11 6 5 7 4 8 3 9 2 10 1 11
REMARK H PARENT
REMARK Flexibility Score: inf
ROOT
ATOM      1  C   UNL     1      -9.466  16.196 -12.671  1.00  0.00     0.000 C 
ENDROOT
BRANCH   1   2
ATOM      2  C   UNL     1      -9.169  17.703 -12.652  1.00  0.00     0.006 C 
BRANCH   2   3
ATOM      3  C   UNL     1      -8.358  18.161 -13.871  1.00  0.00     0.053 C 
BRANCH   3   4
ATOM      4  C   UNL     1      -7.997  19.608 -13.745  1.00  0.00     0.041 C 
ATOM      5  O   UNL     1      -8.182  20.394 -14.710  1.00  0.00    -0.550 OA
ATOM      6  O   UNL     1      -7.408  20.078 -12.577  1.00  0.00    -0.550 OA
ENDBRANCH   3   4
ENDBRANCH   2   3
ENDBRANCH   1   2
BRANCH   1   7
ATOM      7  C   UNL     1      -8.285  15.353 -12.167  1.00  0.00     0.000 C 
BRANCH   7   8
ATOM      8  C   UNL     1      -7.780  14.405 -13.262  1.00  0.00    -0.000 C 
BRANCH   8   9
ATOM      9  C   UNL     1      -8.874  14.131 -14.300  1.00  0.00    -0.000 C 
BRANCH   9  10
ATOM     10  C   UNL     1      -8.746  12.716 -14.874  1.00  0.00    -0.003 C 
ATOM     11  C   UNL     1      -9.981  12.335 -15.686  1.00  0.00     0.004 C 
ENDBRANCH   9  10
ENDBRANCH   8   9
ENDBRANCH   7   8
ENDBRANCH   1   7
TORSDOF 7
ENDMDL
MODEL 2
REMARK VINA RESULT:    -3.786      2.369      2.954
REMARK INTER + INTRA:          -5.700
REMARK INTER:                  -4.976
REMARK INTRA:                  -0.724
REMARK UNBOUND:                -0.365
REMARK SMILES CCCCCCCCC(=O)[O-]
REMARK SMILES IDX 6 1 7 2 8 3 9 4 10 5 11 6 5 7 4 8 3 9 2 10 1 11
REMARK H PARENT
REMARK Flexibility Score: inf
ROOT
ATOM      1  C   UNL     1      -6.915  16.154 -15.425  1.00  0.00     0.000 C 
ENDROOT
BRANCH   1   2
ATOM      2  C   UNL     1      -8.241  16.909 -15.244  1.00  0.00     0.006 C 
BRANCH   2   3
ATOM      3  C   UNL     1      -8.366  17.560 -13.861  1.00  0.00     0.053 C 
BRANCH   3   4
ATOM      4  C   UNL     1      -8.821  16.555 -12.850  1.00  0.00     0.041 C 
ATOM      5  O   UNL     1     -10.042  16.262 -12.753  1.00  0.00    -0.550 OA
ATOM      6  O   UNL     1      -7.903  15.978 -11.981  1.00  0.00    -0.550 OA
ENDBRANCH   3   4
ENDBRANCH   2   3
ENDBRANCH   1   2
BRANCH   1   7
ATOM      7  C   UNL     1      -7.119  14.670 -15.763  1.00  0.00     0.000 C 
BRANCH   7   8
ATOM      8  C   UNL     1      -6.867  13.787 -14.534  1.00  0.00    -0.000 C 
BRANCH   8   9
ATOM      9  C   UNL     1      -8.031  12.815 -14.306  1.00  0.00    -0.000 C 
BRANCH   9  10
ATOM     10  C   UNL     1      -9.316  13.331 -14.964  1.00  0.00    -0.003 C 
ATOM     11  C   UNL     1     -10.018  12.224 -15.746  1.00  0.00     0.004 C 
ENDBRANCH   9  10
ENDBRANCH   8   9
ENDBRANCH   7   8
ENDBRANCH   1   7
TORSDOF 7
ENDMDL
MODEL 3
REMARK VINA RESULT:    -3.694      2.396      3.042
REMARK INTER + INTRA:          -5.571
REMARK INTER:                  -4.782
REMARK INTRA:                  -0.788
REMARK UNBOUND:                -0.365
REMARK SMILES CCCCCCCCC(=O)[O-]
REMARK SMILES IDX 6 1 7 2 8 3 9 4 10 5 11 6 5 7 4 8 3 9 2 10 1 11
REMARK H PARENT
REMARK Flexibility Score: inf
ROOT
ATOM      1  C   UNL     1      -8.156  17.194 -15.431  1.00  0.00     0.000 C 
ENDROOT
BRANCH   1   2
ATOM      2  C   UNL     1      -7.801  18.187 -14.313  1.00  0.00     0.006 C 
BRANCH   2   3
ATOM      3  C   UNL     1      -8.808  18.158 -13.157  1.00  0.00     0.053 C 
BRANCH   3   4
ATOM      4  C   UNL     1      -8.989  16.759 -12.657  1.00  0.00     0.041 C 
ATOM      5  O   UNL     1     -10.116  16.203 -12.723  1.00  0.00    -0.550 OA
ATOM      6  O   UNL     1      -7.923  16.087 -12.071  1.00  0.00    -0.550 OA
ENDBRANCH   3   4
ENDBRANCH   2   3
ENDBRANCH   1   2
BRANCH   1   7
ATOM      7  C   UNL     1      -6.949  16.361 -15.889  1.00  0.00     0.000 C 
BRANCH   7   8
ATOM      8  C   UNL     1      -7.127  14.885 -15.513  1.00  0.00    -0.000 C 
BRANCH   8   9
ATOM      9  C   UNL     1      -8.580  14.437 -15.710  1.00  0.00    -0.000 C 
BRANCH   9  10
ATOM     10  C   UNL     1      -8.984  13.401 -14.656  1.00  0.00    -0.003 C 
ATOM     11  C   UNL     1      -7.791  12.993 -13.796  1.00  0.00     0.004 C 
ENDBRANCH   9  10
ENDBRANCH   8   9
ENDBRANCH   7   8
ENDBRANCH   1   7
TORSDOF 7
ENDMDL
MODEL 4
REMARK VINA RESULT:    -3.592      3.123      5.327
REMARK INTER + INTRA:          -5.427
REMARK INTER:                  -4.839
REMARK INTRA:                  -0.588
REMARK UNBOUND:                -0.365
REMARK SMILES CCCCCCCCC(=O)[O-]
REMARK SMILES IDX 6 1 7 2 8 3 9 4 10 5 11 6 5 7 4 8 3 9 2 10 1 11
REMARK H PARENT
REMARK Flexibility Score: inf
ROOT
ATOM      1  C   UNL     1      -8.274  15.132 -12.288  1.00  0.00     0.000 C 
ENDROOT
BRANCH   1   2
ATOM      2  C   UNL     1      -7.743  14.717 -13.669  1.00  0.00     0.006 C 
BRANCH   2   3
ATOM      3  C   UNL     1      -8.310  13.372 -14.140  1.00  0.00     0.053 C 
BRANCH   3   4
ATOM      4  C   UNL     1      -9.284  13.578 -15.257  1.00  0.00     0.041 C 
ATOM      5  O   UNL     1     -10.214  12.751 -15.448  1.00  0.00    -0.550 OA
ATOM      6  O   UNL     1      -9.136  14.658 -16.118  1.00  0.00    -0.550 OA
ENDBRANCH   3   4
ENDBRANCH   2   3
ENDBRANCH   1   2
BRANCH   1   7
ATOM      7  C   UNL     1      -9.256  16.311 -12.361  1.00  0.00     0.000 C 
BRANCH   7   8
ATOM      8  C   UNL     1      -8.989  17.171 -13.602  1.00  0.00    -0.000 C 
BRANCH   8   9
ATOM      9  C   UNL     1      -8.800  18.644 -13.221  1.00  0.00    -0.000 C 
BRANCH   9  10
ATOM     10  C   UNL     1      -7.665  19.281 -14.030  1.00  0.00    -0.003 C 
ATOM     11  C   UNL     1      -6.571  18.263 -14.342  1.00  0.00     0.004 C 
ENDBRANCH   9  10
ENDBRANCH   8   9
ENDBRANCH   7   8
ENDBRANCH   1   7
TORSDOF 7
ENDMDL
MODEL 5
REMARK VINA RESULT:    -3.577      3.192      5.665
REMARK INTER + INTRA:          -5.405
REMARK INTER:                  -5.001
REMARK INTRA:                  -0.404
REMARK UNBOUND:                -0.365
REMARK SMILES CCCCCCCCC(=O)[O-]
REMARK SMILES IDX 6 1 7 2 8 3 9 4 10 5 11 6 5 7 4 8 3 9 2 10 1 11
REMARK H PARENT
REMARK Flexibility Score: inf
ROOT
ATOM      1  C   UNL     1      -8.984  17.725 -13.002  1.00  0.00     0.000 C 
ENDROOT
BRANCH   1   2
ATOM      2  C   UNL     1      -9.325  16.317 -12.491  1.00  0.00     0.006 C 
BRANCH   2   3
ATOM      3  C   UNL     1      -8.789  15.210 -13.407  1.00  0.00     0.053 C 
BRANCH   3   4
ATOM      4  C   UNL     1      -7.769  14.384 -12.688  1.00  0.00     0.041 C 
ATOM      5  O   UNL     1      -6.944  13.689 -13.337  1.00  0.00    -0.550 OA
ATOM      6  O   UNL     1      -7.763  14.343 -11.299  1.00  0.00    -0.550 OA
ENDBRANCH   3   4
ENDBRANCH   2   3
ENDBRANCH   1   2
BRANCH   1   7
ATOM      7  C   UNL     1      -7.843  17.721 -14.031  1.00  0.00     0.000 C 
BRANCH   7   8
ATOM      8  C   UNL     1      -8.123  18.714 -15.165  1.00  0.00    -0.000 C 
BRANCH   8   9
ATOM      9  C   UNL     1      -7.777  20.146 -14.741  1.00  0.00    -0.000 C 
BRANCH   9  10
ATOM     10  C   UNL     1      -6.390  20.209 -14.093  1.00  0.00    -0.003 C 
ATOM     11  C   UNL     1      -6.421  21.016 -12.798  1.00  0.00     0.004 C 
ENDBRANCH   9  10
ENDBRANCH   8   9
ENDBRANCH   7   8
ENDBRANCH   1   7
TORSDOF 7
ENDMDL
MODEL 6
REMARK VINA RESULT:    -3.531      3.080      5.188
REMARK INTER + INTRA:          -5.341
REMARK INTER:                  -4.622
REMARK INTRA:                  -0.718
REMARK UNBOUND:                -0.365
REMARK SMILES CCCCCCCCC(=O)[O-]
REMARK SMILES IDX 6 1 7 2 8 3 9 4 10 5 11 6 5 7 4 8 3 9 2 10 1 11
REMARK H PARENT
REMARK Flexibility Score: inf
ROOT
ATOM      1  C   UNL     1      -8.143  15.741 -15.764  1.00  0.00     0.000 C 
ENDROOT
BRANCH   1   2
ATOM      2  C   UNL     1      -8.016  14.252 -15.409  1.00  0.00     0.006 C 
BRANCH   2   3
ATOM      3  C   UNL     1      -8.570  13.928 -14.015  1.00  0.00     0.053 C 
BRANCH   3   4
ATOM      4  C   UNL     1      -7.452  13.775 -13.032  1.00  0.00     0.041 C 
ATOM      5  O   UNL     1      -6.355  13.273 -13.392  1.00  0.00    -0.550 OA
ATOM      6  O   UNL     1      -7.640  14.139 -11.704  1.00  0.00    -0.550 OA
ENDBRANCH   3   4
ENDBRANCH   2   3
ENDBRANCH   1   2
BRANCH   1   7
ATOM      7  C   UNL     1      -6.851  16.527 -15.495  1.00  0.00     0.000 C 
BRANCH   7   8
ATOM      8  C   UNL     1      -6.946  17.303 -14.176  1.00  0.00    -0.000 C 
BRANCH   8   9
ATOM      9  C   UNL     1      -7.841  18.539 -14.327  1.00  0.00    -0.000 C 
BRANCH   9  10
ATOM     10  C   UNL     1      -8.768  18.698 -13.117  1.00  0.00    -0.003 C 
ATOM     11  C   UNL     1      -9.220  17.340 -12.586  1.00  0.00     0.004 C 
ENDBRANCH   9  10
ENDBRANCH   8   9
ENDBRANCH   7   8
ENDBRANCH   1   7
TORSDOF 7
ENDMDL
MODEL 7
REMARK VINA RESULT:    -3.450      2.435      5.087
REMARK INTER + INTRA:          -5.227
REMARK INTER:                  -4.539
REMARK INTRA:                  -0.687
REMARK UNBOUND:                -0.365
REMARK SMILES CCCCCCCCC(=O)[O-]
REMARK SMILES IDX 6 1 7 2 8 3 9 4 10 5 11 6 5 7 4 8 3 9 2 10 1 11
REMARK H PARENT
REMARK Flexibility Score: inf
ROOT
ATOM      1  C   UNL     1      -7.108  16.154 -15.244  1.00  0.00     0.000 C 
ENDROOT
BRANCH   1   2
ATOM      2  C   UNL     1      -7.153  14.795 -14.527  1.00  0.00     0.006 C 
BRANCH   2   3
ATOM      3  C   UNL     1      -8.492  14.545 -13.820  1.00  0.00     0.053 C 
BRANCH   3   4
ATOM      4  C   UNL     1      -8.749  15.607 -12.797  1.00  0.00     0.041 C 
ATOM      5  O   UNL     1      -9.816  16.273 -12.830  1.00  0.00    -0.550 OA
ATOM      6  O   UNL     1      -7.786  15.894 -11.837  1.00  0.00    -0.550 OA
ENDBRANCH   3   4
ENDBRANCH   2   3
ENDBRANCH   1   2
BRANCH   1   7
ATOM      7  C   UNL     1      -5.912  17.014 -14.809  1.00  0.00     0.000 C 
BRANCH   7   8
ATOM      8  C   UNL     1      -6.339  18.468 -14.575  1.00  0.00    -0.000 C 
BRANCH   8   9
ATOM      9  C   UNL     1      -7.860  18.621 -14.689  1.00  0.00    -0.000 C 
BRANCH   9  10
ATOM     10  C   UNL     1      -8.416  19.462 -13.535  1.00  0.00    -0.003 C 
ATOM     11  C   UNL     1      -7.389  20.480 -13.048  1.00  0.00     0.004 C 
ENDBRANCH   9  10
ENDBRANCH   8   9
ENDBRANCH   7   8
ENDBRANCH   1   7
TORSDOF 7
ENDMDL
MODEL 8
REMARK VINA RESULT:    -3.392      3.225      5.910
REMARK INTER + INTRA:          -5.145
REMARK INTER:                  -4.820
REMARK INTRA:                  -0.325
REMARK UNBOUND:                -0.365
REMARK SMILES CCCCCCCCC(=O)[O-]
REMARK SMILES IDX 6 1 7 2 8 3 9 4 10 5 11 6 5 7 4 8 3 9 2 10 1 11
REMARK H PARENT
REMARK Flexibility Score: inf
ROOT
ATOM      1  C   UNL     1      -9.235  16.893 -12.508  1.00  0.00     0.000 C 
ENDROOT
BRANCH   1   2
ATOM      2  C   UNL     1      -8.514  15.548 -12.324  1.00  0.00     0.006 C 
BRANCH   2   3
ATOM      3  C   UNL     1      -7.837  15.061 -13.612  1.00  0.00     0.053 C 
BRANCH   3   4
ATOM      4  C   UNL     1      -8.469  13.789 -14.084  1.00  0.00     0.041 C 
ATOM      5  O   UNL     1      -9.567  13.817 -14.699  1.00  0.00    -0.550 OA
ATOM      6  O   UNL     1      -7.869  12.568 -13.801  1.00  0.00    -0.550 OA
ENDBRANCH   3   4
ENDBRANCH   2   3
ENDBRANCH   1   2
BRANCH   1   7
ATOM      7  C   UNL     1      -8.695  17.697 -13.700  1.00  0.00     0.000 C 
BRANCH   7   8
ATOM      8  C   UNL     1      -8.477  19.166 -13.318  1.00  0.00    -0.000 C 
BRANCH   8   9
ATOM      9  C   UNL     1      -8.164  20.016 -14.555  1.00  0.00    -0.000 C 
BRANCH   9  10
ATOM     10  C   UNL     1      -6.964  20.935 -14.301  1.00  0.00    -0.003 C 
ATOM     11  C   UNL     1      -6.562  20.925 -12.829  1.00  0.00     0.004 C 
ENDBRANCH   9  10
ENDBRANCH   8   9
ENDBRANCH   7   8
ENDBRANCH   1   7
TORSDOF 7
ENDMDL
MODEL 9
REMARK VINA RESULT:    -3.236      1.629      2.319
REMARK INTER + INTRA:          -4.925
REMARK INTER:                  -4.459
REMARK INTRA:                  -0.466
REMARK UNBOUND:                -0.365
REMARK SMILES CCCCCCCCC(=O)[O-]
REMARK SMILES IDX 6 1 7 2 8 3 9 4 10 5 11 6 5 7 4 8 3 9 2 10 1 11
REMARK H PARENT
REMARK Flexibility Score: inf
ROOT
ATOM      1  C   UNL     1      -6.754  16.898 -15.357  1.00  0.00     0.000 C 
ENDROOT
BRANCH   1   2
ATOM      2  C   UNL     1      -6.795  18.433 -15.300  1.00  0.00     0.006 C 
BRANCH   2   3
ATOM      3  C   UNL     1      -8.152  18.970 -14.826  1.00  0.00     0.053 C 
BRANCH   3   4
ATOM      4  C   UNL     1      -8.154  19.141 -13.339  1.00  0.00     0.041 C 
ATOM      5  O   UNL     1      -7.471  20.055 -12.805  1.00  0.00    -0.550 OA
ATOM      6  O   UNL     1      -8.871  18.261 -12.539  1.00  0.00    -0.550 OA
ENDBRANCH   3   4
ENDBRANCH   2   3
ENDBRANCH   1   2
BRANCH   1   7
ATOM      7  C   UNL     1      -8.133  16.278 -15.627  1.00  0.00     0.000 C 
BRANCH   7   8
ATOM      8  C   UNL     1      -8.525  15.304 -14.509  1.00  0.00    -0.000 C 
BRANCH   8   9
ATOM      9  C   UNL     1      -7.484  14.189 -14.359  1.00  0.00    -0.000 C 
BRANCH   9  10
ATOM     10  C   UNL     1      -8.158  12.817 -14.252  1.00  0.00    -0.003 C 
ATOM     11  C   UNL     1      -9.303  12.685 -15.252  1.00  0.00     0.004 C 
ENDBRANCH   9  10
ENDBRANCH   8   9
ENDBRANCH   7   8
ENDBRANCH   1   7
TORSDOF 7
ENDMDL
