MODEL 1
REMARK VINA RESULT:    -5.326      0.000      0.000
REMARK INTER + INTRA:         -10.192
REMARK INTER:                  -9.062
REMARK INTRA:                  -1.130
REMARK UNBOUND:                -1.130
REMARK SMILES CCCCCCCCCCCCCC(=O)[O-]
REMARK SMILES IDX 8 1 9 2 10 3 11 4 12 5 13 6 14 7 15 8 16 9 7 10 6 11 5 12
REMARK SMILES IDX 4 13 3 14 2 15 1 16
REMARK H PARENT
REMARK Flexibility Score: inf
ROOT
ATOM      1  C   UNL     1      47.052 -45.831 165.648  1.00  0.00     0.000 C 
ENDROOT
BRANCH   1   2
ATOM      2  C   UNL     1      47.801 -46.401 164.430  1.00  0.00     0.000 C 
BRANCH   2   3
ATOM      3  C   UNL     1      49.150 -47.032 164.809  1.00  0.00     0.000 C 
BRANCH   3   4
ATOM      4  C   UNL     1      50.334 -46.079 164.583  1.00  0.00     0.000 C 
BRANCH   4   5
ATOM      5  C   UNL     1      51.481 -46.389 165.556  1.00  0.00     0.006 C 
BRANCH   5   6
ATOM      6  C   UNL     1      51.871 -47.873 165.541  1.00  0.00     0.053 C 
BRANCH   6   7
ATOM      7  C   UNL     1      53.201 -48.104 166.189  1.00  0.00     0.041 C 
ATOM      8  O   UNL     1      53.465 -49.216 166.719  1.00  0.00    -0.550 OA
ATOM      9  O   UNL     1      54.139 -47.080 166.235  1.00  0.00    -0.550 OA
ENDBRANCH   6   7
ENDBRANCH   5   6
ENDBRANCH   4   5
ENDBRANCH   3   4
ENDBRANCH   2   3
ENDBRANCH   1   2
BRANCH   1  10
ATOM     10  C   UNL     1      45.546 -45.671 165.392  1.00  0.00     0.000 C 
BRANCH  10  11
ATOM     11  C   UNL     1      45.147 -46.053 163.959  1.00  0.00    -0.000 C 
BRANCH  11  12
ATOM     12  C   UNL     1      44.148 -47.217 163.958  1.00  0.00    -0.000 C 
BRANCH  12  13
ATOM     13  C   UNL     1      44.495 -48.240 165.050  1.00  0.00    -0.000 C 
BRANCH  13  14
ATOM     14  C   UNL     1      45.272 -49.454 164.508  1.00  0.00    -0.000 C 
BRANCH  14  15
ATOM     15  C   UNL     1      45.745 -49.320 163.049  1.00  0.00    -0.003 C 
ATOM     16  C   UNL     1      47.226 -49.649 162.868  1.00  0.00     0.004 C 
ENDBRANCH  14  15
ENDBRANCH  13  14
ENDBRANCH  12  13
ENDBRANCH  11  12
ENDBRANCH  10  11
ENDBRANCH   1  10
TORSDOF 12
ENDMDL
MODEL 2
REMARK VINA RESULT:    -5.297      1.886      2.625
REMARK INTER + INTRA:         -10.143
REMARK INTER:                  -9.192
REMARK INTRA:                  -0.950
REMARK UNBOUND:                -1.130
REMARK SMILES CCCCCCCCCCCCCC(=O)[O-]
REMARK SMILES IDX 8 1 9 2 10 3 11 4 12 5 13 6 14 7 15 8 16 9 7 10 6 11 5 12
REMARK SMILES IDX 4 13 3 14 2 15 1 16
REMARK H PARENT
REMARK Flexibility Score: inf
ROOT
ATOM      1  C   UNL     1      48.346 -46.767 165.064  1.00  0.00     0.000 C 
ENDROOT
BRANCH   1   2
ATOM      2  C   UNL     1      49.863 -46.559 164.907  1.00  0.00     0.000 C 
BRANCH   2   3
ATOM      3  C   UNL     1      50.680 -47.749 165.435  1.00  0.00     0.000 C 
BRANCH   3   4
ATOM      4  C   UNL     1      52.129 -47.367 165.775  1.00  0.00     0.000 C 
BRANCH   4   5
ATOM      5  C   UNL     1      52.324 -45.845 165.713  1.00  0.00     0.006 C 
BRANCH   5   6
ATOM      6  C   UNL     1      53.793 -45.440 165.895  1.00  0.00     0.053 C 
BRANCH   6   7
ATOM      7  C   UNL     1      54.129 -44.204 165.118  1.00  0.00     0.041 C 
ATOM      8  O   UNL     1      53.615 -43.097 165.433  1.00  0.00    -0.550 OA
ATOM      9  O   UNL     1      54.984 -44.280 164.026  1.00  0.00    -0.550 OA
ENDBRANCH   6   7
ENDBRANCH   5   6
ENDBRANCH   4   5
ENDBRANCH   3   4
ENDBRANCH   2   3
ENDBRANCH   1   2
BRANCH   1  10
ATOM     10  C   UNL     1      47.613 -45.479 165.468  1.00  0.00     0.000 C 
BRANCH  10  11
ATOM     11  C   UNL     1      46.130 -45.718 165.788  1.00  0.00    -0.000 C 
BRANCH  11  12
ATOM     12  C   UNL     1      45.398 -46.318 164.581  1.00  0.00    -0.000 C 
BRANCH  12  13
ATOM     13  C   UNL     1      44.611 -47.574 164.983  1.00  0.00    -0.000 C 
BRANCH  13  14
ATOM     14  C   UNL     1      45.201 -48.867 164.389  1.00  0.00    -0.000 C 
BRANCH  14  15
ATOM     15  C   UNL     1      45.842 -48.705 163.000  1.00  0.00    -0.003 C 
ATOM     16  C   UNL     1      47.129 -49.513 162.838  1.00  0.00     0.004 C 
ENDBRANCH  14  15
ENDBRANCH  13  14
ENDBRANCH  12  13
ENDBRANCH  11  12
ENDBRANCH  10  11
ENDBRANCH   1  10
TORSDOF 12
ENDMDL
MODEL 3
REMARK VINA RESULT:    -5.291      7.773     10.710
REMARK INTER + INTRA:         -10.133
REMARK INTER:                  -9.044
REMARK INTRA:                  -1.090
REMARK UNBOUND:                -1.130
REMARK SMILES CCCCCCCCCCCCCC(=O)[O-]
REMARK SMILES IDX 8 1 9 2 10 3 11 4 12 5 13 6 14 7 15 8 16 9 7 10 6 11 5 12
REMARK SMILES IDX 4 13 3 14 2 15 1 16
REMARK H PARENT
REMARK Flexibility Score: inf
ROOT
ATOM      1  C   UNL     1      41.779 -49.072 163.853  1.00  0.00     0.000 C 
ENDROOT
BRANCH   1   2
ATOM      2  C   UNL     1      40.581 -49.995 163.563  1.00  0.00     0.000 C 
BRANCH   2   3
ATOM      3  C   UNL     1      39.478 -49.294 162.754  1.00  0.00     0.000 C 
BRANCH   3   4
ATOM      4  C   UNL     1      39.939 -47.952 162.165  1.00  0.00     0.000 C 
BRANCH   4   5
ATOM      5  C   UNL     1      38.961 -47.461 161.087  1.00  0.00     0.006 C 
BRANCH   5   6
ATOM      6  C   UNL     1      37.702 -48.334 161.004  1.00  0.00     0.053 C 
BRANCH   6   7
ATOM      7  C   UNL     1      36.515 -47.553 160.530  1.00  0.00     0.041 C 
ATOM      8  O   UNL     1      36.675 -46.472 159.904  1.00  0.00    -0.550 OA
ATOM      9  O   UNL     1      35.230 -48.004 160.808  1.00  0.00    -0.550 OA
ENDBRANCH   6   7
ENDBRANCH   5   6
ENDBRANCH   4   5
ENDBRANCH   3   4
ENDBRANCH   2   3
ENDBRANCH   1   2
BRANCH   1  10
ATOM     10  C   UNL     1      41.778 -48.541 165.295  1.00  0.00     0.000 C 
BRANCH  10  11
ATOM     11  C   UNL     1      43.195 -48.352 165.856  1.00  0.00    -0.000 C 
BRANCH  11  12
ATOM     12  C   UNL     1      44.243 -48.442 164.741  1.00  0.00    -0.000 C 
BRANCH  12  13
ATOM     13  C   UNL     1      44.863 -47.066 164.456  1.00  0.00    -0.000 C 
BRANCH  13  14
ATOM     14  C   UNL     1      44.512 -46.528 163.056  1.00  0.00    -0.000 C 
BRANCH  14  15
ATOM     15  C   UNL     1      44.972 -47.418 161.888  1.00  0.00    -0.003 C 
ATOM     16  C   UNL     1      43.812 -47.945 161.044  1.00  0.00     0.004 C 
ENDBRANCH  14  15
ENDBRANCH  13  14
ENDBRANCH  12  13
ENDBRANCH  11  12
ENDBRANCH  10  11
ENDBRANCH   1  10
TORSDOF 12
ENDMDL
MODEL 4
REMARK VINA RESULT:    -5.283      6.027      8.094
REMARK INTER + INTRA:         -10.119
REMARK INTER:                  -9.180
REMARK INTRA:                  -0.939
REMARK UNBOUND:                -1.130
REMARK SMILES CCCCCCCCCCCCCC(=O)[O-]
REMARK SMILES IDX 8 1 9 2 10 3 11 4 12 5 13 6 14 7 15 8 16 9 7 10 6 11 5 12
REMARK SMILES IDX 4 13 3 14 2 15 1 16
REMARK H PARENT
REMARK Flexibility Score: inf
ROOT
ATOM      1  C   UNL     1      41.532 -49.032 163.777  1.00  0.00     0.000 C 
ENDROOT
BRANCH   1   2
ATOM      2  C   UNL     1      41.916 -48.383 165.120  1.00  0.00     0.000 C 
BRANCH   2   3
ATOM      3  C   UNL     1      43.434 -48.388 165.365  1.00  0.00     0.000 C 
BRANCH   3   4
ATOM      4  C   UNL     1      44.170 -49.415 164.492  1.00  0.00     0.000 C 
BRANCH   4   5
ATOM      5  C   UNL     1      45.566 -48.905 164.102  1.00  0.00     0.006 C 
BRANCH   5   6
ATOM      6  C   UNL     1      45.758 -48.848 162.581  1.00  0.00     0.053 C 
BRANCH   6   7
ATOM      7  C   UNL     1      44.947 -47.753 161.959  1.00  0.00     0.041 C 
ATOM      8  O   UNL     1      44.870 -46.626 162.516  1.00  0.00    -0.550 OA
ATOM      9  O   UNL     1      44.249 -47.988 160.781  1.00  0.00    -0.550 OA
ENDBRANCH   6   7
ENDBRANCH   5   6
ENDBRANCH   4   5
ENDBRANCH   3   4
ENDBRANCH   2   3
ENDBRANCH   1   2
BRANCH   1  10
ATOM     10  C   UNL     1      41.324 -47.997 162.661  1.00  0.00     0.000 C 
BRANCH  10  11
ATOM     11  C   UNL     1      39.900 -48.025 162.087  1.00  0.00    -0.000 C 
BRANCH  11  12
ATOM     12  C   UNL     1      39.076 -49.152 162.719  1.00  0.00    -0.000 C 
BRANCH  12  13
ATOM     13  C   UNL     1      37.654 -49.187 162.138  1.00  0.00    -0.000 C 
BRANCH  13  14
ATOM     14  C   UNL     1      37.517 -48.367 160.842  1.00  0.00    -0.000 C 
BRANCH  14  15
ATOM     15  C   UNL     1      36.138 -47.715 160.633  1.00  0.00    -0.003 C 
ATOM     16  C   UNL     1      35.764 -47.568 159.159  1.00  0.00     0.004 C 
ENDBRANCH  14  15
ENDBRANCH  13  14
ENDBRANCH  12  13
ENDBRANCH  11  12
ENDBRANCH  10  11
ENDBRANCH   1  10
TORSDOF 12
ENDMDL
MODEL 5
REMARK VINA RESULT:    -5.267      3.783      7.400
REMARK INTER + INTRA:         -10.092
REMARK INTER:                  -9.252
REMARK INTRA:                  -0.840
REMARK UNBOUND:                -1.130
REMARK SMILES CCCCCCCCCCCCCC(=O)[O-]
REMARK SMILES IDX 8 1 9 2 10 3 11 4 12 5 13 6 14 7 15 8 16 9 7 10 6 11 5 12
REMARK SMILES IDX 4 13 3 14 2 15 1 16
REMARK H PARENT
REMARK Flexibility Score: inf
ROOT
ATOM      1  C   UNL     1      49.141 -49.083 165.142  1.00  0.00     0.000 C 
ENDROOT
BRANCH   1   2
ATOM      2  C   UNL     1      48.032 -48.455 164.279  1.00  0.00     0.000 C 
BRANCH   2   3
ATOM      3  C   UNL     1      47.518 -49.410 163.190  1.00  0.00     0.000 C 
BRANCH   3   4
ATOM      4  C   UNL     1      45.985 -49.420 163.088  1.00  0.00     0.000 C 
BRANCH   4   5
ATOM      5  C   UNL     1      45.342 -49.399 164.482  1.00  0.00     0.006 C 
BRANCH   5   6
ATOM      6  C   UNL     1      44.150 -48.436 164.557  1.00  0.00     0.053 C 
BRANCH   6   7
ATOM      7  C   UNL     1      44.573 -47.012 164.359  1.00  0.00     0.041 C 
ATOM      8  O   UNL     1      45.119 -46.376 165.299  1.00  0.00    -0.550 OA
ATOM      9  O   UNL     1      44.336 -46.379 163.146  1.00  0.00    -0.550 OA
ENDBRANCH   6   7
ENDBRANCH   5   6
ENDBRANCH   4   5
ENDBRANCH   3   4
ENDBRANCH   2   3
ENDBRANCH   1   2
BRANCH   1  10
ATOM     10  C   UNL     1      50.262 -48.087 165.478  1.00  0.00     0.000 C 
BRANCH  10  11
ATOM     11  C   UNL     1      50.035 -46.707 164.845  1.00  0.00    -0.000 C 
BRANCH  11  12
ATOM     12  C   UNL     1      51.214 -45.769 165.134  1.00  0.00    -0.000 C 
BRANCH  12  13
ATOM     13  C   UNL     1      52.376 -46.532 165.789  1.00  0.00    -0.000 C 
BRANCH  13  14
ATOM     14  C   UNL     1      53.602 -45.639 166.058  1.00  0.00    -0.000 C 
BRANCH  14  15
ATOM     15  C   UNL     1      53.582 -44.280 165.337  1.00  0.00    -0.003 C 
ATOM     16  C   UNL     1      54.729 -44.114 164.342  1.00  0.00     0.004 C 
ENDBRANCH  14  15
ENDBRANCH  13  14
ENDBRANCH  12  13
ENDBRANCH  11  12
ENDBRANCH  10  11
ENDBRANCH   1  10
TORSDOF 12
ENDMDL
MODEL 6
REMARK VINA RESULT:    -5.263      3.435      7.279
REMARK INTER + INTRA:         -10.085
REMARK INTER:                  -9.122
REMARK INTRA:                  -0.963
REMARK UNBOUND:                -1.130
REMARK SMILES CCCCCCCCCCCCCC(=O)[O-]
REMARK SMILES IDX 8 1 9 2 10 3 11 4 12 5 13 6 14 7 15 8 16 9 7 10 6 11 5 12
REMARK SMILES IDX 4 13 3 14 2 15 1 16
REMARK H PARENT
REMARK Flexibility Score: inf
ROOT
ATOM      1  C   UNL     1      49.055 -45.524 164.280  1.00  0.00     0.000 C 
ENDROOT
BRANCH   1   2
ATOM      2  C   UNL     1      48.024 -46.537 164.810  1.00  0.00     0.000 C 
BRANCH   2   3
ATOM      3  C   UNL     1      46.893 -45.866 165.606  1.00  0.00     0.000 C 
BRANCH   3   4
ATOM      4  C   UNL     1      45.498 -46.305 165.136  1.00  0.00     0.000 C 
BRANCH   4   5
ATOM      5  C   UNL     1      45.409 -46.299 163.603  1.00  0.00     0.006 C 
BRANCH   5   6
ATOM      6  C   UNL     1      44.572 -47.467 163.065  1.00  0.00     0.053 C 
BRANCH   6   7
ATOM      7  C   UNL     1      45.213 -48.789 163.358  1.00  0.00     0.041 C 
ATOM      8  O   UNL     1      44.654 -49.607 164.136  1.00  0.00    -0.550 OA
ATOM      9  O   UNL     1      46.444 -49.104 162.797  1.00  0.00    -0.550 OA
ENDBRANCH   6   7
ENDBRANCH   5   6
ENDBRANCH   4   5
ENDBRANCH   3   4
ENDBRANCH   2   3
ENDBRANCH   1   2
BRANCH   1  10
ATOM     10  C   UNL     1      50.477 -45.810 164.788  1.00  0.00     0.000 C 
BRANCH  10  11
ATOM     11  C   UNL     1      50.672 -47.275 165.204  1.00  0.00    -0.000 C 
BRANCH  11  12
ATOM     12  C   UNL     1      52.106 -47.523 165.687  1.00  0.00    -0.000 C 
BRANCH  12  13
ATOM     13  C   UNL     1      52.721 -46.241 166.268  1.00  0.00    -0.000 C 
BRANCH  13  14
ATOM     14  C   UNL     1      54.141 -45.965 165.739  1.00  0.00    -0.000 C 
BRANCH  14  15
ATOM     15  C   UNL     1      54.539 -44.479 165.703  1.00  0.00    -0.003 C 
ATOM     16  C   UNL     1      53.521 -43.604 164.973  1.00  0.00     0.004 C 
ENDBRANCH  14  15
ENDBRANCH  13  14
ENDBRANCH  12  13
ENDBRANCH  11  12
ENDBRANCH  10  11
ENDBRANCH   1  10
TORSDOF 12
ENDMDL
MODEL 7
REMARK VINA RESULT:    -5.249      1.081      2.811
REMARK INTER + INTRA:         -10.062
REMARK INTER:                  -8.976
REMARK INTRA:                  -1.087
REMARK UNBOUND:                -1.130
REMARK SMILES CCCCCCCCCCCCCC(=O)[O-]
REMARK SMILES IDX 8 1 9 2 10 3 11 4 12 5 13 6 14 7 15 8 16 9 7 10 6 11 5 12
REMARK SMILES IDX 4 13 3 14 2 15 1 16
REMARK H PARENT
REMARK Flexibility Score: inf
ROOT
ATOM      1  C   UNL     1      48.344 -49.470 163.345  1.00  0.00     0.000 C 
ENDROOT
BRANCH   1   2
ATOM      2  C   UNL     1      48.155 -48.527 164.547  1.00  0.00     0.000 C 
BRANCH   2   3
ATOM      3  C   UNL     1      49.491 -48.030 165.123  1.00  0.00     0.000 C 
BRANCH   3   4
ATOM      4  C   UNL     1      49.777 -46.563 164.770  1.00  0.00     0.000 C 
BRANCH   4   5
ATOM      5  C   UNL     1      51.122 -46.109 165.357  1.00  0.00     0.006 C 
BRANCH   5   6
ATOM      6  C   UNL     1      52.024 -47.294 165.726  1.00  0.00     0.053 C 
BRANCH   6   7
ATOM      7  C   UNL     1      53.468 -46.897 165.779  1.00  0.00     0.041 C 
ATOM      8  O   UNL     1      54.368 -47.744 165.535  1.00  0.00    -0.550 OA
ATOM      9  O   UNL     1      53.819 -45.600 166.129  1.00  0.00    -0.550 OA
ENDBRANCH   6   7
ENDBRANCH   5   6
ENDBRANCH   4   5
ENDBRANCH   3   4
ENDBRANCH   2   3
ENDBRANCH   1   2
BRANCH   1  10
ATOM     10  C   UNL     1      47.054 -49.652 162.530  1.00  0.00     0.000 C 
BRANCH  10  11
ATOM     11  C   UNL     1      45.788 -49.453 163.376  1.00  0.00    -0.000 C 
BRANCH  11  12
ATOM     12  C   UNL     1      44.906 -48.344 162.791  1.00  0.00    -0.000 C 
BRANCH  12  13
ATOM     13  C   UNL     1      43.864 -47.871 163.816  1.00  0.00    -0.000 C 
BRANCH  13  14
ATOM     14  C   UNL     1      44.495 -47.161 165.028  1.00  0.00    -0.000 C 
BRANCH  14  15
ATOM     15  C   UNL     1      45.547 -46.094 164.676  1.00  0.00    -0.003 C 
ATOM     16  C   UNL     1      46.217 -45.486 165.907  1.00  0.00     0.004 C 
ENDBRANCH  14  15
ENDBRANCH  13  14
ENDBRANCH  12  13
ENDBRANCH  11  12
ENDBRANCH  10  11
ENDBRANCH   1  10
TORSDOF 12
ENDMDL
MODEL 8
REMARK VINA RESULT:    -5.242      8.170     11.328
REMARK INTER + INTRA:         -10.049
REMARK INTER:                  -9.094
REMARK INTRA:                  -0.955
REMARK UNBOUND:                -1.130
REMARK SMILES CCCCCCCCCCCCCC(=O)[O-]
REMARK SMILES IDX 8 1 9 2 10 3 11 4 12 5 13 6 14 7 15 8 16 9 7 10 6 11 5 12
REMARK SMILES IDX 4 13 3 14 2 15 1 16
REMARK H PARENT
REMARK Flexibility Score: inf
ROOT
ATOM      1  C   UNL     1      40.985 -48.358 162.968  1.00  0.00     0.000 C 
ENDROOT
BRANCH   1   2
ATOM      2  C   UNL     1      39.632 -48.954 162.537  1.00  0.00     0.000 C 
BRANCH   2   3
ATOM      3  C   UNL     1      38.910 -48.087 161.494  1.00  0.00     0.000 C 
BRANCH   3   4
ATOM      4  C   UNL     1      37.412 -48.413 161.390  1.00  0.00     0.000 C 
BRANCH   4   5
ATOM      5  C   UNL     1      37.019 -49.512 162.388  1.00  0.00     0.006 C 
BRANCH   5   6
ATOM      6  C   UNL     1      35.732 -50.238 161.973  1.00  0.00     0.053 C 
BRANCH   6   7
ATOM      7  C   UNL     1      35.805 -51.706 162.266  1.00  0.00     0.041 C 
ATOM      8  O   UNL     1      35.567 -52.547 161.359  1.00  0.00    -0.550 OA
ATOM      9  O   UNL     1      36.104 -52.144 163.550  1.00  0.00    -0.550 OA
ENDBRANCH   6   7
ENDBRANCH   5   6
ENDBRANCH   4   5
ENDBRANCH   3   4
ENDBRANCH   2   3
ENDBRANCH   1   2
BRANCH   1  10
ATOM     10  C   UNL     1      41.677 -49.192 164.057  1.00  0.00     0.000 C 
BRANCH  10  11
ATOM     11  C   UNL     1      42.254 -48.326 165.186  1.00  0.00    -0.000 C 
BRANCH  11  12
ATOM     12  C   UNL     1      43.787 -48.332 165.155  1.00  0.00    -0.000 C 
BRANCH  12  13
ATOM     13  C   UNL     1      44.315 -49.474 164.273  1.00  0.00    -0.000 C 
BRANCH  13  14
ATOM     14  C   UNL     1      45.325 -48.995 163.214  1.00  0.00    -0.000 C 
BRANCH  14  15
ATOM     15  C   UNL     1      44.925 -47.706 162.476  1.00  0.00    -0.003 C 
ATOM     16  C   UNL     1      44.203 -47.972 161.155  1.00  0.00     0.004 C 
ENDBRANCH  14  15
ENDBRANCH  13  14
ENDBRANCH  12  13
ENDBRANCH  11  12
ENDBRANCH  10  11
ENDBRANCH   1  10
TORSDOF 12
ENDMDL
MODEL 9
REMARK VINA RESULT:    -5.214      3.282      7.103
REMARK INTER + INTRA:         -10.001
REMARK INTER:                  -9.191
REMARK INTRA:                  -0.810
REMARK UNBOUND:                -1.130
REMARK SMILES CCCCCCCCCCCCCC(=O)[O-]
REMARK SMILES IDX 8 1 9 2 10 3 11 4 12 5 13 6 14 7 15 8 16 9 7 10 6 11 5 12
REMARK SMILES IDX 4 13 3 14 2 15 1 16
REMARK H PARENT
REMARK Flexibility Score: inf
ROOT
ATOM      1  C   UNL     1      48.368 -47.613 164.827  1.00  0.00     0.000 C 
ENDROOT
BRANCH   1   2
ATOM      2  C   UNL     1      47.892 -46.159 164.654  1.00  0.00     0.000 C 
BRANCH   2   3
ATOM      3  C   UNL     1      46.804 -45.769 165.667  1.00  0.00     0.000 C 
BRANCH   3   4
ATOM      4  C   UNL     1      45.390 -46.121 165.180  1.00  0.00     0.000 C 
BRANCH   4   5
ATOM      5  C   UNL     1      45.332 -46.165 163.646  1.00  0.00     0.006 C 
BRANCH   5   6
ATOM      6  C   UNL     1      44.410 -47.278 163.131  1.00  0.00     0.053 C 
BRANCH   6   7
ATOM      7  C   UNL     1      45.019 -48.634 163.316  1.00  0.00     0.041 C 
ATOM      8  O   UNL     1      44.573 -49.414 164.199  1.00  0.00    -0.550 OA
ATOM      9  O   UNL     1      46.100 -49.023 162.536  1.00  0.00    -0.550 OA
ENDBRANCH   6   7
ENDBRANCH   5   6
ENDBRANCH   4   5
ENDBRANCH   3   4
ENDBRANCH   2   3
ENDBRANCH   1   2
BRANCH   1  10
ATOM     10  C   UNL     1      49.871 -47.710 165.128  1.00  0.00     0.000 C 
BRANCH  10  11
ATOM     11  C   UNL     1      50.571 -46.344 165.086  1.00  0.00    -0.000 C 
BRANCH  11  12
ATOM     12  C   UNL     1      51.951 -46.412 165.751  1.00  0.00    -0.000 C 
BRANCH  12  13
ATOM     13  C   UNL     1      52.439 -47.865 165.857  1.00  0.00    -0.000 C 
BRANCH  13  14
ATOM     14  C   UNL     1      53.975 -47.981 165.877  1.00  0.00    -0.000 C 
BRANCH  14  15
ATOM     15  C   UNL     1      54.554 -48.674 167.123  1.00  0.00    -0.003 C 
ATOM     16  C   UNL     1      53.972 -50.067 167.358  1.00  0.00     0.004 C 
ENDBRANCH  14  15
ENDBRANCH  13  14
ENDBRANCH  12  13
ENDBRANCH  11  12
ENDBRANCH  10  11
ENDBRANCH   1  10
TORSDOF 12
ENDMDL
