MODEL 1
REMARK VINA RESULT:     2.100      0.000      0.000
REMARK INTER + INTRA:           3.483
REMARK INTER:                   4.556
REMARK INTRA:                  -1.073
REMARK UNBOUND:                -1.073
REMARK SMILES CCCCCCCCCCCCCCCCCCCCCC(=O)[O-]
REMARK SMILES IDX 12 1 11 2 10 3 9 4 8 5 7 6 6 7 5 8 4 9 3 10 2 11 1 12 13 13
REMARK SMILES IDX 14 14 15 15 16 16 17 17 18 18 19 19 20 20 21 21 22 22 23 23
REMARK SMILES IDX 24 24
REMARK H PARENT
REMARK Flexibility Score: inf
ROOT
ATOM      1  C   UNL     1     104.581 106.665 105.728  1.00  0.00     0.000 C 
ENDROOT
BRANCH   1   2
ATOM      2  C   UNL     1     104.680 105.539 104.684  1.00  0.00     0.000 C 
BRANCH   2   3
ATOM      3  C   UNL     1     104.625 106.057 103.235  1.00  0.00     0.000 C 
BRANCH   3   4
ATOM      4  C   UNL     1     104.331 104.983 102.172  1.00  0.00    -0.000 C 
BRANCH   4   5
ATOM      5  C   UNL     1     103.763 103.687 102.774  1.00  0.00    -0.000 C 
BRANCH   5   6
ATOM      6  C   UNL     1     103.325 102.667 101.705  1.00  0.00    -0.000 C 
BRANCH   6   7
ATOM      7  C   UNL     1     103.551 103.109 100.247  1.00  0.00    -0.000 C 
BRANCH   7   8
ATOM      8  C   UNL     1     103.381 101.962  99.237  1.00  0.00    -0.000 C 
BRANCH   8   9
ATOM      9  C   UNL     1     103.663 102.394  97.787  1.00  0.00    -0.000 C 
BRANCH   9  10
ATOM     10  C   UNL     1     103.362 103.876  97.478  1.00  0.00    -0.000 C 
BRANCH  10  11
ATOM     11  C   UNL     1     104.589 104.805  97.501  1.00  0.00    -0.003 C 
ATOM     12  C   UNL     1     104.230 106.253  97.831  1.00  0.00     0.004 C 
ENDBRANCH  10  11
ENDBRANCH   9  10
ENDBRANCH   8   9
ENDBRANCH   7   8
ENDBRANCH   6   7
ENDBRANCH   5   6
ENDBRANCH   4   5
ENDBRANCH   3   4
ENDBRANCH   2   3
ENDBRANCH   1   2
BRANCH   1  13
ATOM     13  C   UNL     1     104.374 106.133 107.155  1.00  0.00     0.000 C 
BRANCH  13  14
ATOM     14  C   UNL     1     104.594 104.616 107.258  1.00  0.00     0.000 C 
BRANCH  14  15
ATOM     15  C   UNL     1     103.259 103.863 107.207  1.00  0.00     0.000 C 
BRANCH  15  16
ATOM     16  C   UNL     1     103.485 102.347 107.126  1.00  0.00     0.000 C 
BRANCH  16  17
ATOM     17  C   UNL     1     103.423 101.662 108.499  1.00  0.00     0.000 C 
BRANCH  17  18
ATOM     18  C   UNL     1     103.205 102.657 109.651  1.00  0.00     0.000 C 
BRANCH  18  19
ATOM     19  C   UNL     1     103.364 101.963 111.012  1.00  0.00     0.000 C 
BRANCH  19  20
ATOM     20  C   UNL     1     103.764 102.936 112.133  1.00  0.00     0.006 C 
BRANCH  20  21
ATOM     21  C   UNL     1     103.372 104.388 111.825  1.00  0.00     0.053 C 
BRANCH  21  22
ATOM     22  C   UNL     1     104.544 105.300 112.019  1.00  0.00     0.041 C 
ATOM     23  O   UNL     1     105.714 104.836 112.038  1.00  0.00    -0.550 OA
ATOM     24  O   UNL     1     104.343 106.667 112.169  1.00  0.00    -0.550 OA
ENDBRANCH  21  22
ENDBRANCH  20  21
ENDBRANCH  19  20
ENDBRANCH  18  19
ENDBRANCH  17  18
ENDBRANCH  16  17
ENDBRANCH  15  16
ENDBRANCH  14  15
ENDBRANCH  13  14
ENDBRANCH   1  13
TORSDOF 20
ENDMDL
MODEL 2
REMARK VINA RESULT:     2.119      4.452     10.826
REMARK INTER + INTRA:           3.524
REMARK INTER:                   4.850
REMARK INTRA:                  -1.327
REMARK UNBOUND:                -1.073
REMARK SMILES CCCCCCCCCCCCCCCCCCCCCC(=O)[O-]
REMARK SMILES IDX 12 1 11 2 10 3 9 4 8 5 7 6 6 7 5 8 4 9 3 10 2 11 1 12 13 13
REMARK SMILES IDX 14 14 15 15 16 16 17 17 18 18 19 19 20 20 21 21 22 22 23 23
REMARK SMILES IDX 24 24
REMARK H PARENT
REMARK Flexibility Score: inf
ROOT
ATOM      1  C   UNL     1     103.238 101.749 104.048  1.00  0.00     0.000 C 
ENDROOT
BRANCH   1   2
ATOM      2  C   UNL     1     103.262 102.919 105.049  1.00  0.00     0.000 C 
BRANCH   2   3
ATOM      3  C   UNL     1     103.522 102.466 106.497  1.00  0.00     0.000 C 
BRANCH   3   4
ATOM      4  C   UNL     1     103.689 103.608 107.515  1.00  0.00    -0.000 C 
BRANCH   4   5
ATOM      5  C   UNL     1     104.190 104.912 106.872  1.00  0.00    -0.000 C 
BRANCH   5   6
ATOM      6  C   UNL     1     104.639 105.961 107.908  1.00  0.00    -0.000 C 
BRANCH   6   7
ATOM      7  C   UNL     1     104.947 105.405 109.310  1.00  0.00    -0.000 C 
BRANCH   7   8
ATOM      8  C   UNL     1     104.453 106.321 110.442  1.00  0.00    -0.000 C 
BRANCH   8   9
ATOM      9  C   UNL     1     104.444 105.625 111.815  1.00  0.00    -0.000 C 
BRANCH   9  10
ATOM     10  C   UNL     1     104.593 104.090 111.769  1.00  0.00    -0.000 C 
BRANCH  10  11
ATOM     11  C   UNL     1     103.270 103.307 111.834  1.00  0.00    -0.003 C 
ATOM     12  C   UNL     1     103.471 101.827 112.153  1.00  0.00     0.004 C 
ENDBRANCH  10  11
ENDBRANCH   9  10
ENDBRANCH   8   9
ENDBRANCH   7   8
ENDBRANCH   6   7
ENDBRANCH   5   6
ENDBRANCH   4   5
ENDBRANCH   3   4
ENDBRANCH   2   3
ENDBRANCH   1   2
BRANCH   1  13
ATOM     13  C   UNL     1     103.668 102.171 102.634  1.00  0.00     0.000 C 
BRANCH  13  14
ATOM     14  C   UNL     1     103.355 103.645 102.336  1.00  0.00     0.000 C 
BRANCH  14  15
ATOM     15  C   UNL     1     104.642 104.478 102.281  1.00  0.00     0.000 C 
BRANCH  15  16
ATOM     16  C   UNL     1     104.328 105.980 102.353  1.00  0.00     0.000 C 
BRANCH  16  17
ATOM     17  C   UNL     1     104.486 106.685 100.998  1.00  0.00     0.000 C 
BRANCH  17  18
ATOM     18  C   UNL     1     104.786 105.709  99.849  1.00  0.00     0.000 C 
BRANCH  18  19
ATOM     19  C   UNL     1     104.512 106.364  98.487  1.00  0.00     0.000 C 
BRANCH  19  20
ATOM     20  C   UNL     1     104.107 105.347  97.408  1.00  0.00     0.006 C 
BRANCH  20  21
ATOM     21  C   UNL     1     104.632 103.934  97.699  1.00  0.00     0.053 C 
BRANCH  21  22
ATOM     22  C   UNL     1     103.500 102.958  97.769  1.00  0.00     0.041 C 
ATOM     23  O   UNL     1     103.730 101.724  97.869  1.00  0.00    -0.550 OA
ATOM     24  O   UNL     1     102.187 103.412  97.736  1.00  0.00    -0.550 OA
ENDBRANCH  21  22
ENDBRANCH  20  21
ENDBRANCH  19  20
ENDBRANCH  18  19
ENDBRANCH  17  18
ENDBRANCH  16  17
ENDBRANCH  15  16
ENDBRANCH  14  15
ENDBRANCH  13  14
ENDBRANCH   1  13
TORSDOF 20
ENDMDL
MODEL 3
REMARK VINA RESULT:     2.154      1.586      3.319
REMARK INTER + INTRA:           3.600
REMARK INTER:                   4.832
REMARK INTRA:                  -1.232
REMARK UNBOUND:                -1.073
REMARK SMILES CCCCCCCCCCCCCCCCCCCCCC(=O)[O-]
REMARK SMILES IDX 12 1 11 2 10 3 9 4 8 5 7 6 6 7 5 8 4 9 3 10 2 11 1 12 13 13
REMARK SMILES IDX 14 14 15 15 16 16 17 17 18 18 19 19 20 20 21 21 22 22 23 23
REMARK SMILES IDX 24 24
REMARK H PARENT
REMARK Flexibility Score: inf
ROOT
ATOM      1  C   UNL     1     103.595 101.596 105.699  1.00  0.00     0.000 C 
ENDROOT
BRANCH   1   2
ATOM      2  C   UNL     1     103.200 102.630 104.630  1.00  0.00     0.000 C 
BRANCH   2   3
ATOM      3  C   UNL     1     103.494 102.154 103.196  1.00  0.00     0.000 C 
BRANCH   3   4
ATOM      4  C   UNL     1     103.535 103.270 102.136  1.00  0.00    -0.000 C 
BRANCH   4   5
ATOM      5  C   UNL     1     103.916 104.638 102.725  1.00  0.00    -0.000 C 
BRANCH   5   6
ATOM      6  C   UNL     1     104.611 105.561 101.706  1.00  0.00    -0.000 C 
BRANCH   6   7
ATOM      7  C   UNL     1     104.560 105.078 100.244  1.00  0.00    -0.000 C 
BRANCH   7   8
ATOM      8  C   UNL     1     104.682 106.224  99.227  1.00  0.00    -0.000 C 
BRANCH   8   9
ATOM      9  C   UNL     1     104.218 105.824  97.815  1.00  0.00    -0.000 C 
BRANCH   9  10
ATOM     10  C   UNL     1     104.540 104.371  97.410  1.00  0.00    -0.000 C 
BRANCH  10  11
ATOM     11  C   UNL     1     103.334 103.413  97.414  1.00  0.00    -0.003 C 
ATOM     12  C   UNL     1     103.682 102.023  97.942  1.00  0.00     0.004 C 
ENDBRANCH  10  11
ENDBRANCH   9  10
ENDBRANCH   8   9
ENDBRANCH   7   8
ENDBRANCH   6   7
ENDBRANCH   5   6
ENDBRANCH   4   5
ENDBRANCH   3   4
ENDBRANCH   2   3
ENDBRANCH   1   2
BRANCH   1  13
ATOM     13  C   UNL     1     103.546 102.169 107.125  1.00  0.00     0.000 C 
BRANCH  13  14
ATOM     14  C   UNL     1     103.288 103.683 107.144  1.00  0.00     0.000 C 
BRANCH  14  15
ATOM     15  C   UNL     1     104.607 104.465 107.120  1.00  0.00     0.000 C 
BRANCH  15  16
ATOM     16  C   UNL     1     104.351 105.978 107.153  1.00  0.00     0.000 C 
BRANCH  16  17
ATOM     17  C   UNL     1     104.632 106.598 108.530  1.00  0.00     0.000 C 
BRANCH  17  18
ATOM     18  C   UNL     1     104.688 105.552 109.654  1.00  0.00     0.000 C 
BRANCH  18  19
ATOM     19  C   UNL     1     104.543 106.218 111.031  1.00  0.00     0.000 C 
BRANCH  19  20
ATOM     20  C   UNL     1     104.270 105.206 112.156  1.00  0.00     0.006 C 
BRANCH  20  21
ATOM     21  C   UNL     1     104.583 103.762 111.742  1.00  0.00     0.053 C 
BRANCH  21  22
ATOM     22  C   UNL     1     103.410 102.872 112.014  1.00  0.00     0.041 C 
ATOM     23  O   UNL     1     103.582 101.648 112.254  1.00  0.00    -0.550 OA
ATOM     24  O   UNL     1     102.123 103.398 112.013  1.00  0.00    -0.550 OA
ENDBRANCH  21  22
ENDBRANCH  20  21
ENDBRANCH  19  20
ENDBRANCH  18  19
ENDBRANCH  17  18
ENDBRANCH  16  17
ENDBRANCH  15  16
ENDBRANCH  14  15
ENDBRANCH  13  14
ENDBRANCH   1  13
TORSDOF 20
ENDMDL
MODEL 4
REMARK VINA RESULT:     2.482      4.200     10.248
REMARK INTER + INTRA:           4.311
REMARK INTER:                   5.435
REMARK INTRA:                  -1.125
REMARK UNBOUND:                -1.073
REMARK SMILES CCCCCCCCCCCCCCCCCCCCCC(=O)[O-]
REMARK SMILES IDX 12 1 11 2 10 3 9 4 8 5 7 6 6 7 5 8 4 9 3 10 2 11 1 12 13 13
REMARK SMILES IDX 14 14 15 15 16 16 17 17 18 18 19 19 20 20 21 21 22 22 23 23
REMARK SMILES IDX 24 24
REMARK H PARENT
REMARK Flexibility Score: inf
ROOT
ATOM      1  C   UNL     1     104.751 106.680 103.415  1.00  0.00     0.000 C 
ENDROOT
BRANCH   1   2
ATOM      2  C   UNL     1     104.833 105.857 104.713  1.00  0.00     0.000 C 
BRANCH   2   3
ATOM      3  C   UNL     1     104.484 106.677 105.968  1.00  0.00     0.000 C 
BRANCH   3   4
ATOM      4  C   UNL     1     104.158 105.842 107.220  1.00  0.00    -0.000 C 
BRANCH   4   5
ATOM      5  C   UNL     1     104.729 104.416 107.151  1.00  0.00    -0.000 C 
BRANCH   5   6
ATOM      6  C   UNL     1     103.636 103.330 107.139  1.00  0.00    -0.000 C 
BRANCH   6   7
ATOM      7  C   UNL     1     103.337 102.689 108.507  1.00  0.00    -0.000 C 
BRANCH   7   8
ATOM      8  C   UNL     1     103.681 103.608 109.691  1.00  0.00    -0.000 C 
BRANCH   8   9
ATOM      9  C   UNL     1     103.315 102.993 111.053  1.00  0.00    -0.000 C 
BRANCH   9  10
ATOM     10  C   UNL     1     103.859 103.754 112.280  1.00  0.00    -0.000 C 
BRANCH  10  11
ATOM     11  C   UNL     1     104.890 104.850 111.959  1.00  0.00    -0.003 C 
ATOM     12  C   UNL     1     104.307 106.259 112.052  1.00  0.00     0.004 C 
ENDBRANCH  10  11
ENDBRANCH   9  10
ENDBRANCH   8   9
ENDBRANCH   7   8
ENDBRANCH   6   7
ENDBRANCH   5   6
ENDBRANCH   4   5
ENDBRANCH   3   4
ENDBRANCH   2   3
ENDBRANCH   1   2
BRANCH   1  13
ATOM     13  C   UNL     1     104.135 105.889 102.250  1.00  0.00     0.000 C 
BRANCH  13  14
ATOM     14  C   UNL     1     104.531 104.406 102.268  1.00  0.00     0.000 C 
BRANCH  14  15
ATOM     15  C   UNL     1     103.292 103.508 102.377  1.00  0.00     0.000 C 
BRANCH  15  16
ATOM     16  C   UNL     1     103.681 102.024 102.325  1.00  0.00     0.000 C 
BRANCH  16  17
ATOM     17  C   UNL     1     103.426 101.391 100.949  1.00  0.00     0.000 C 
BRANCH  17  18
ATOM     18  C   UNL     1     103.245 102.437  99.837  1.00  0.00     0.000 C 
BRANCH  18  19
ATOM     19  C   UNL     1     103.591 101.843  98.463  1.00  0.00     0.000 C 
BRANCH  19  20
ATOM     20  C   UNL     1     103.829 102.918  97.392  1.00  0.00     0.006 C 
BRANCH  20  21
ATOM     21  C   UNL     1     103.335 104.305  97.825  1.00  0.00     0.053 C 
BRANCH  21  22
ATOM     22  C   UNL     1     104.460 105.294  97.800  1.00  0.00     0.041 C 
ATOM     23  O   UNL     1     104.220 106.530  97.826  1.00  0.00    -0.550 OA
ATOM     24  O   UNL     1     105.776 104.849  97.761  1.00  0.00    -0.550 OA
ENDBRANCH  21  22
ENDBRANCH  20  21
ENDBRANCH  19  20
ENDBRANCH  18  19
ENDBRANCH  17  18
ENDBRANCH  16  17
ENDBRANCH  15  16
ENDBRANCH  14  15
ENDBRANCH  13  14
ENDBRANCH   1  13
TORSDOF 20
ENDMDL
MODEL 5
REMARK VINA RESULT:     2.620      0.608      1.710
REMARK INTER + INTRA:           4.611
REMARK INTER:                   5.962
REMARK INTRA:                  -1.351
REMARK UNBOUND:                -1.073
REMARK SMILES CCCCCCCCCCCCCCCCCCCCCC(=O)[O-]
REMARK SMILES IDX 12 1 11 2 10 3 9 4 8 5 7 6 6 7 5 8 4 9 3 10 2 11 1 12 13 13
REMARK SMILES IDX 14 14 15 15 16 16 17 17 18 18 19 19 20 20 21 21 22 22 23 23
REMARK SMILES IDX 24 24
REMARK H PARENT
REMARK Flexibility Score: inf
ROOT
ATOM      1  C   UNL     1     104.818 106.542 103.734  1.00  0.00     0.000 C 
ENDROOT
BRANCH   1   2
ATOM      2  C   UNL     1     104.037 105.971 102.537  1.00  0.00     0.000 C 
BRANCH   2   3
ATOM      3  C   UNL     1     104.472 104.542 102.163  1.00  0.00     0.000 C 
BRANCH   3   4
ATOM      4  C   UNL     1     103.514 103.430 102.628  1.00  0.00    -0.000 C 
BRANCH   4   5
ATOM      5  C   UNL     1     103.469 102.238 101.658  1.00  0.00    -0.000 C 
BRANCH   5   6
ATOM      6  C   UNL     1     103.181 102.654 100.203  1.00  0.00    -0.000 C 
BRANCH   6   7
ATOM      7  C   UNL     1     103.416 101.556  99.150  1.00  0.00    -0.000 C 
BRANCH   7   8
ATOM      8  C   UNL     1     103.636 102.117  97.735  1.00  0.00    -0.000 C 
BRANCH   8   9
ATOM      9  C   UNL     1     103.415 103.637  97.652  1.00  0.00    -0.000 C 
BRANCH   9  10
ATOM     10  C   UNL     1     104.698 104.475  97.475  1.00  0.00    -0.000 C 
BRANCH  10  11
ATOM     11  C   UNL     1     104.752 105.765  98.313  1.00  0.00    -0.003 C 
ATOM     12  C   UNL     1     104.129 106.963  97.599  1.00  0.00     0.004 C 
ENDBRANCH  10  11
ENDBRANCH   9  10
ENDBRANCH   8   9
ENDBRANCH   7   8
ENDBRANCH   6   7
ENDBRANCH   5   6
ENDBRANCH   4   5
ENDBRANCH   3   4
ENDBRANCH   2   3
ENDBRANCH   1   2
BRANCH   1  13
ATOM     13  C   UNL     1     104.763 105.628 104.968  1.00  0.00     0.000 C 
BRANCH  13  14
ATOM     14  C   UNL     1     104.399 106.389 106.252  1.00  0.00     0.000 C 
BRANCH  14  15
ATOM     15  C   UNL     1     104.348 105.441 107.457  1.00  0.00     0.000 C 
BRANCH  15  16
ATOM     16  C   UNL     1     104.508 103.979 107.013  1.00  0.00     0.000 C 
BRANCH  16  17
ATOM     17  C   UNL     1     103.271 103.125 107.328  1.00  0.00     0.000 C 
BRANCH  17  18
ATOM     18  C   UNL     1     103.421 102.314 108.625  1.00  0.00     0.000 C 
BRANCH  18  19
ATOM     19  C   UNL     1     102.984 103.141 109.843  1.00  0.00     0.000 C 
BRANCH  19  20
ATOM     20  C   UNL     1     103.835 102.858 111.091  1.00  0.00     0.006 C 
BRANCH  20  21
ATOM     21  C   UNL     1     103.641 103.910 112.191  1.00  0.00     0.053 C 
BRANCH  21  22
ATOM     22  C   UNL     1     104.562 105.070 111.975  1.00  0.00     0.041 C 
ATOM     23  O   UNL     1     104.105 106.242 111.915  1.00  0.00    -0.550 OA
ATOM     24  O   UNL     1     105.930 104.859 111.851  1.00  0.00    -0.550 OA
ENDBRANCH  21  22
ENDBRANCH  20  21
ENDBRANCH  19  20
ENDBRANCH  18  19
ENDBRANCH  17  18
ENDBRANCH  16  17
ENDBRANCH  15  16
ENDBRANCH  14  15
ENDBRANCH  13  14
ENDBRANCH   1  13
TORSDOF 20
ENDMDL
MODEL 6
REMARK VINA RESULT:     2.662      4.463     10.012
REMARK INTER + INTRA:           4.702
REMARK INTER:                   5.901
REMARK INTRA:                  -1.199
REMARK UNBOUND:                -1.073
REMARK SMILES CCCCCCCCCCCCCCCCCCCCCC(=O)[O-]
REMARK SMILES IDX 12 1 11 2 10 3 9 4 8 5 7 6 6 7 5 8 4 9 3 10 2 11 1 12 13 13
REMARK SMILES IDX 14 14 15 15 16 16 17 17 18 18 19 19 20 20 21 21 22 22 23 23
REMARK SMILES IDX 24 24
REMARK H PARENT
REMARK Flexibility Score: inf
ROOT
ATOM      1  C   UNL     1     104.665 106.875 105.850  1.00  0.00     0.000 C 
ENDROOT
BRANCH   1   2
ATOM      2  C   UNL     1     104.329 106.165 107.173  1.00  0.00     0.000 C 
BRANCH   2   3
ATOM      3  C   UNL     1     104.591 104.649 107.126  1.00  0.00     0.000 C 
BRANCH   3   4
ATOM      4  C   UNL     1     103.333 103.778 106.957  1.00  0.00    -0.000 C 
BRANCH   4   5
ATOM      5  C   UNL     1     103.640 102.272 106.997  1.00  0.00    -0.000 C 
BRANCH   5   6
ATOM      6  C   UNL     1     103.299 101.623 108.352  1.00  0.00    -0.000 C 
BRANCH   6   7
ATOM      7  C   UNL     1     103.303 102.584 109.556  1.00  0.00    -0.000 C 
BRANCH   7   8
ATOM      8  C   UNL     1     103.447 101.858 110.904  1.00  0.00    -0.000 C 
BRANCH   8   9
ATOM      9  C   UNL     1     103.598 102.824 112.092  1.00  0.00    -0.000 C 
BRANCH   9  10
ATOM     10  C   UNL     1     103.444 104.319 111.741  1.00  0.00    -0.000 C 
BRANCH  10  11
ATOM     11  C   UNL     1     104.734 105.150 111.858  1.00  0.00    -0.003 C 
ATOM     12  C   UNL     1     104.470 106.602 112.252  1.00  0.00     0.004 C 
ENDBRANCH  10  11
ENDBRANCH   9  10
ENDBRANCH   8   9
ENDBRANCH   7   8
ENDBRANCH   6   7
ENDBRANCH   5   6
ENDBRANCH   4   5
ENDBRANCH   3   4
ENDBRANCH   2   3
ENDBRANCH   1   2
BRANCH   1  13
ATOM     13  C   UNL     1     104.737 105.905 104.659  1.00  0.00     0.000 C 
BRANCH  13  14
ATOM     14  C   UNL     1     104.436 106.592 103.319  1.00  0.00     0.000 C 
BRANCH  14  15
ATOM     15  C   UNL     1     104.434 105.575 102.170  1.00  0.00     0.000 C 
BRANCH  15  16
ATOM     16  C   UNL     1     104.579 104.143 102.703  1.00  0.00     0.000 C 
BRANCH  16  17
ATOM     17  C   UNL     1     103.246 103.380 102.724  1.00  0.00     0.000 C 
BRANCH  17  18
ATOM     18  C   UNL     1     103.432 101.854 102.687  1.00  0.00     0.000 C 
BRANCH  18  19
ATOM     19  C   UNL     1     103.548 101.351 101.241  1.00  0.00     0.000 C 
BRANCH  19  20
ATOM     20  C   UNL     1     103.244 102.444 100.204  1.00  0.00     0.006 C 
BRANCH  20  21
ATOM     21  C   UNL     1     103.557 102.001  98.768  1.00  0.00     0.053 C 
BRANCH  21  22
ATOM     22  C   UNL     1     103.162 103.067  97.793  1.00  0.00     0.041 C 
ATOM     23  O   UNL     1     104.043 103.745  97.201  1.00  0.00    -0.550 OA
ATOM     24  O   UNL     1     101.819 103.305  97.529  1.00  0.00    -0.550 OA
ENDBRANCH  21  22
ENDBRANCH  20  21
ENDBRANCH  19  20
ENDBRANCH  18  19
ENDBRANCH  17  18
ENDBRANCH  16  17
ENDBRANCH  15  16
ENDBRANCH  14  15
ENDBRANCH  13  14
ENDBRANCH   1  13
TORSDOF 20
ENDMDL
MODEL 7
REMARK VINA RESULT:     2.734      1.609      3.410
REMARK INTER + INTRA:           4.859
REMARK INTER:                   5.815
REMARK INTRA:                  -0.956
REMARK UNBOUND:                -1.073
REMARK SMILES CCCCCCCCCCCCCCCCCCCCCC(=O)[O-]
REMARK SMILES IDX 12 1 11 2 10 3 9 4 8 5 7 6 6 7 5 8 4 9 3 10 2 11 1 12 13 13
REMARK SMILES IDX 14 14 15 15 16 16 17 17 18 18 19 19 20 20 21 21 22 22 23 23
REMARK SMILES IDX 24 24
REMARK H PARENT
REMARK Flexibility Score: inf
ROOT
ATOM      1  C   UNL     1     103.354 101.773 103.524  1.00  0.00     0.000 C 
ENDROOT
BRANCH   1   2
ATOM      2  C   UNL     1     103.554 102.443 102.154  1.00  0.00     0.000 C 
BRANCH   2   3
ATOM      3  C   UNL     1     103.426 103.976 102.209  1.00  0.00     0.000 C 
BRANCH   3   4
ATOM      4  C   UNL     1     104.738 104.727 102.502  1.00  0.00    -0.000 C 
BRANCH   4   5
ATOM      5  C   UNL     1     104.556 106.253 102.540  1.00  0.00    -0.000 C 
BRANCH   5   6
ATOM      6  C   UNL     1     104.417 106.878 101.139  1.00  0.00    -0.000 C 
BRANCH   6   7
ATOM      7  C   UNL     1     104.794 105.952  99.968  1.00  0.00    -0.000 C 
BRANCH   7   8
ATOM      8  C   UNL     1     104.469 106.557  98.592  1.00  0.00    -0.000 C 
BRANCH   8   9
ATOM      9  C   UNL     1     104.462 105.511  97.464  1.00  0.00    -0.000 C 
BRANCH   9  10
ATOM     10  C   UNL     1     104.573 104.045  97.932  1.00  0.00    -0.000 C 
BRANCH  10  11
ATOM     11  C   UNL     1     103.314 103.192  97.700  1.00  0.00    -0.003 C 
ATOM     12  C   UNL     1     103.601 101.691  97.720  1.00  0.00     0.004 C 
ENDBRANCH  10  11
ENDBRANCH   9  10
ENDBRANCH   8   9
ENDBRANCH   7   8
ENDBRANCH   6   7
ENDBRANCH   5   6
ENDBRANCH   4   5
ENDBRANCH   3   4
ENDBRANCH   2   3
ENDBRANCH   1   2
BRANCH   1  13
ATOM     13  C   UNL     1     103.102 102.790 104.650  1.00  0.00     0.000 C 
BRANCH  13  14
ATOM     14  C   UNL     1     103.532 102.264 106.028  1.00  0.00     0.000 C 
BRANCH  14  15
ATOM     15  C   UNL     1     103.336 103.335 107.109  1.00  0.00     0.000 C 
BRANCH  15  16
ATOM     16  C   UNL     1     104.611 104.168 107.296  1.00  0.00     0.000 C 
BRANCH  16  17
ATOM     17  C   UNL     1     104.326 105.674 107.406  1.00  0.00     0.000 C 
BRANCH  17  18
ATOM     18  C   UNL     1     104.623 106.235 108.805  1.00  0.00     0.000 C 
BRANCH  18  19
ATOM     19  C   UNL     1     104.623 105.116 109.857  1.00  0.00     0.000 C 
BRANCH  19  20
ATOM     20  C   UNL     1     104.269 105.621 111.265  1.00  0.00     0.006 C 
BRANCH  20  21
ATOM     21  C   UNL     1     104.309 104.508 112.321  1.00  0.00     0.053 C 
BRANCH  21  22
ATOM     22  C   UNL     1     103.417 103.374 111.922  1.00  0.00     0.041 C 
ATOM     23  O   UNL     1     102.182 103.422 112.165  1.00  0.00    -0.550 OA
ATOM     24  O   UNL     1     103.948 102.267 111.272  1.00  0.00    -0.550 OA
ENDBRANCH  21  22
ENDBRANCH  20  21
ENDBRANCH  19  20
ENDBRANCH  18  19
ENDBRANCH  17  18
ENDBRANCH  16  17
ENDBRANCH  15  16
ENDBRANCH  14  15
ENDBRANCH  13  14
ENDBRANCH   1  13
TORSDOF 20
ENDMDL
MODEL 8
REMARK VINA RESULT:     2.915      4.548     10.556
REMARK INTER + INTRA:           5.251
REMARK INTER:                   6.600
REMARK INTRA:                  -1.349
REMARK UNBOUND:                -1.073
REMARK SMILES CCCCCCCCCCCCCCCCCCCCCC(=O)[O-]
REMARK SMILES IDX 12 1 11 2 10 3 9 4 8 5 7 6 6 7 5 8 4 9 3 10 2 11 1 12 13 13
REMARK SMILES IDX 14 14 15 15 16 16 17 17 18 18 19 19 20 20 21 21 22 22 23 23
REMARK SMILES IDX 24 24
REMARK H PARENT
REMARK Flexibility Score: inf
ROOT
ATOM      1  C   UNL     1     103.267 101.953 106.226  1.00  0.00     0.000 C 
ENDROOT
BRANCH   1   2
ATOM      2  C   UNL     1     103.277 102.969 107.382  1.00  0.00     0.000 C 
BRANCH   2   3
ATOM      3  C   UNL     1     104.482 103.925 107.332  1.00  0.00     0.000 C 
BRANCH   3   4
ATOM      4  C   UNL     1     104.142 105.382 106.969  1.00  0.00    -0.000 C 
BRANCH   4   5
ATOM      5  C   UNL     1     104.696 106.395 107.983  1.00  0.00    -0.000 C 
BRANCH   5   6
ATOM      6  C   UNL     1     104.680 105.869 109.432  1.00  0.00    -0.000 C 
BRANCH   6   7
ATOM      7  C   UNL     1     104.587 106.953 110.520  1.00  0.00    -0.000 C 
BRANCH   7   8
ATOM      8  C   UNL     1     104.498 106.373 111.942  1.00  0.00    -0.000 C 
BRANCH   8   9
ATOM      9  C   UNL     1     104.687 104.846 111.978  1.00  0.00    -0.000 C 
BRANCH   9  10
ATOM     10  C   UNL     1     103.398 104.035 112.227  1.00  0.00    -0.000 C 
BRANCH  10  11
ATOM     11  C   UNL     1     103.230 102.793 111.335  1.00  0.00    -0.003 C 
ATOM     12  C   UNL     1     103.716 101.510 112.006  1.00  0.00     0.004 C 
ENDBRANCH  10  11
ENDBRANCH   9  10
ENDBRANCH   8   9
ENDBRANCH   7   8
ENDBRANCH   6   7
ENDBRANCH   5   6
ENDBRANCH   4   5
ENDBRANCH   3   4
ENDBRANCH   2   3
ENDBRANCH   1   2
BRANCH   1  13
ATOM     13  C   UNL     1     103.133 102.624 104.849  1.00  0.00     0.000 C 
BRANCH  13  14
ATOM     14  C   UNL     1     103.480 101.673 103.693  1.00  0.00     0.000 C 
BRANCH  14  15
ATOM     15  C   UNL     1     103.377 102.393 102.342  1.00  0.00     0.000 C 
BRANCH  15  16
ATOM     16  C   UNL     1     103.243 103.910 102.535  1.00  0.00     0.000 C 
BRANCH  16  17
ATOM     17  C   UNL     1     104.584 104.646 102.398  1.00  0.00     0.000 C 
BRANCH  17  18
ATOM     18  C   UNL     1     104.439 106.173 102.507  1.00  0.00     0.000 C 
BRANCH  18  19
ATOM     19  C   UNL     1     104.589 106.837 101.131  1.00  0.00     0.000 C 
BRANCH  19  20
ATOM     20  C   UNL     1     104.707 105.817  99.987  1.00  0.00     0.006 C 
BRANCH  20  21
ATOM     21  C   UNL     1     104.474 106.446  98.606  1.00  0.00     0.053 C 
BRANCH  21  22
ATOM     22  C   UNL     1     104.415 105.387  97.550  1.00  0.00     0.041 C 
ATOM     23  O   UNL     1     104.173 104.191  97.863  1.00  0.00    -0.550 OA
ATOM     24  O   UNL     1     104.617 105.722  96.217  1.00  0.00    -0.550 OA
ENDBRANCH  21  22
ENDBRANCH  20  21
ENDBRANCH  19  20
ENDBRANCH  18  19
ENDBRANCH  17  18
ENDBRANCH  16  17
ENDBRANCH  15  16
ENDBRANCH  14  15
ENDBRANCH  13  14
ENDBRANCH   1  13
TORSDOF 20
ENDMDL
MODEL 9
REMARK VINA RESULT:     3.052      4.286     10.860
REMARK INTER + INTRA:           5.547
REMARK INTER:                   6.739
REMARK INTRA:                  -1.192
REMARK UNBOUND:                -1.073
REMARK SMILES CCCCCCCCCCCCCCCCCCCCCC(=O)[O-]
REMARK SMILES IDX 12 1 11 2 10 3 9 4 8 5 7 6 6 7 5 8 4 9 3 10 2 11 1 12 13 13
REMARK SMILES IDX 14 14 15 15 16 16 17 17 18 18 19 19 20 20 21 21 22 22 23 23
REMARK SMILES IDX 24 24
REMARK H PARENT
REMARK Flexibility Score: inf
ROOT
ATOM      1  C   UNL     1     103.623 102.206 102.893  1.00  0.00     0.000 C 
ENDROOT
BRANCH   1   2
ATOM      2  C   UNL     1     103.273 102.028 104.382  1.00  0.00     0.000 C 
BRANCH   2   3
ATOM      3  C   UNL     1     103.502 103.306 105.209  1.00  0.00     0.000 C 
BRANCH   3   4
ATOM      4  C   UNL     1     103.443 103.111 106.735  1.00  0.00    -0.000 C 
BRANCH   4   5
ATOM      5  C   UNL     1     103.687 101.654 107.161  1.00  0.00    -0.000 C 
BRANCH   5   6
ATOM      6  C   UNL     1     103.206 101.356 108.594  1.00  0.00    -0.000 C 
BRANCH   6   7
ATOM      7  C   UNL     1     103.478 102.472 109.620  1.00  0.00    -0.000 C 
BRANCH   7   8
ATOM      8  C   UNL     1     103.185 102.043 111.067  1.00  0.00    -0.000 C 
BRANCH   8   9
ATOM      9  C   UNL     1     103.563 103.120 112.099  1.00  0.00    -0.000 C 
BRANCH   9  10
ATOM     10  C   UNL     1     103.866 104.513 111.508  1.00  0.00    -0.000 C 
BRANCH  10  11
ATOM     11  C   UNL     1     104.766 105.407 112.380  1.00  0.00    -0.003 C 
ATOM     12  C   UNL     1     104.558 106.897 112.115  1.00  0.00     0.004 C 
ENDBRANCH  10  11
ENDBRANCH   9  10
ENDBRANCH   8   9
ENDBRANCH   7   8
ENDBRANCH   6   7
ENDBRANCH   5   6
ENDBRANCH   4   5
ENDBRANCH   3   4
ENDBRANCH   2   3
ENDBRANCH   1   2
BRANCH   1  13
ATOM     13  C   UNL     1     103.341 103.628 102.384  1.00  0.00     0.000 C 
BRANCH  13  14
ATOM     14  C   UNL     1     104.621 104.462 102.223  1.00  0.00     0.000 C 
BRANCH  14  15
ATOM     15  C   UNL     1     104.360 105.937 102.553  1.00  0.00     0.000 C 
BRANCH  15  16
ATOM     16  C   UNL     1     104.500 106.814 101.301  1.00  0.00     0.000 C 
BRANCH  16  17
ATOM     17  C   UNL     1     104.692 105.992 100.018  1.00  0.00     0.000 C 
BRANCH  17  18
ATOM     18  C   UNL     1     104.617 106.849  98.744  1.00  0.00     0.000 C 
BRANCH  18  19
ATOM     19  C   UNL     1     104.273 105.985  97.522  1.00  0.00     0.000 C 
BRANCH  19  20
ATOM     20  C   UNL     1     104.570 104.493  97.744  1.00  0.00     0.006 C 
BRANCH  20  21
ATOM     21  C   UNL     1     103.349 103.601  97.479  1.00  0.00     0.053 C 
BRANCH  21  22
ATOM     22  C   UNL     1     103.567 102.232  98.047  1.00  0.00     0.041 C 
ATOM     23  O   UNL     1     103.341 102.006  99.265  1.00  0.00    -0.550 OA
ATOM     24  O   UNL     1     104.010 101.202  97.227  1.00  0.00    -0.550 OA
ENDBRANCH  21  22
ENDBRANCH  20  21
ENDBRANCH  19  20
ENDBRANCH  18  19
ENDBRANCH  17  18
ENDBRANCH  16  17
ENDBRANCH  15  16
ENDBRANCH  14  15
ENDBRANCH  13  14
ENDBRANCH   1  13
TORSDOF 20
ENDMDL
