MODEL 1
REMARK VINA RESULT:    -4.245      0.000      0.000
REMARK INTER + INTRA:          -8.525
REMARK INTER:                  -7.223
REMARK INTRA:                  -1.302
REMARK UNBOUND:                -1.302
REMARK SMILES CCCCCCCCCCCCCC(=O)[O-]
REMARK SMILES IDX 8 1 9 2 10 3 11 4 12 5 13 6 14 7 15 8 16 9 7 10 6 11 5 12
REMARK SMILES IDX 4 13 3 14 2 15 1 16
REMARK H PARENT
REMARK Flexibility Score: inf
ROOT
ATOM      1  C   UNL     1      14.988  30.061  70.336  1.00  0.00     0.000 C 
ENDROOT
BRANCH   1   2
ATOM      2  C   UNL     1      14.738  30.513  68.888  1.00  0.00     0.000 C 
BRANCH   2   3
ATOM      3  C   UNL     1      15.084  31.994  68.664  1.00  0.00     0.000 C 
BRANCH   3   4
ATOM      4  C   UNL     1      13.912  32.795  68.074  1.00  0.00     0.000 C 
BRANCH   4   5
ATOM      5  C   UNL     1      14.418  34.040  67.331  1.00  0.00     0.006 C 
BRANCH   5   6
ATOM      6  C   UNL     1      13.709  35.321  67.793  1.00  0.00     0.053 C 
BRANCH   6   7
ATOM      7  C   UNL     1      14.477  36.550  67.413  1.00  0.00     0.041 C 
ATOM      8  O   UNL     1      13.867  37.588  67.045  1.00  0.00    -0.550 OA
ATOM      9  O   UNL     1      15.866  36.536  67.433  1.00  0.00    -0.550 OA
ENDBRANCH   6   7
ENDBRANCH   5   6
ENDBRANCH   4   5
ENDBRANCH   3   4
ENDBRANCH   2   3
ENDBRANCH   1   2
BRANCH   1  10
ATOM     10  C   UNL     1      16.102  30.866  71.030  1.00  0.00     0.000 C 
BRANCH  10  11
ATOM     11  C   UNL     1      17.476  30.168  71.096  1.00  0.00    -0.000 C 
BRANCH  11  12
ATOM     12  C   UNL     1      18.682  31.068  70.770  1.00  0.00    -0.000 C 
BRANCH  12  13
ATOM     13  C   UNL     1      19.388  30.670  69.466  1.00  0.00    -0.000 C 
BRANCH  13  14
ATOM     14  C   UNL     1      18.433  29.911  68.535  1.00  0.00    -0.000 C 
BRANCH  14  15
ATOM     15  C   UNL     1      18.303  30.622  67.184  1.00  0.00    -0.003 C 
ATOM     16  C   UNL     1      18.506  32.127  67.331  1.00  0.00     0.004 C 
ENDBRANCH  14  15
ENDBRANCH  13  14
ENDBRANCH  12  13
ENDBRANCH  11  12
ENDBRANCH  10  11
ENDBRANCH   1  10
TORSDOF 12
ENDMDL
MODEL 2
REMARK VINA RESULT:    -4.189      1.693      2.450
REMARK INTER + INTRA:          -8.431
REMARK INTER:                  -6.649
REMARK INTRA:                  -1.781
REMARK UNBOUND:                -1.302
REMARK SMILES CCCCCCCCCCCCCC(=O)[O-]
REMARK SMILES IDX 8 1 9 2 10 3 11 4 12 5 13 6 14 7 15 8 16 9 7 10 6 11 5 12
REMARK SMILES IDX 4 13 3 14 2 15 1 16
REMARK H PARENT
REMARK Flexibility Score: inf
ROOT
ATOM      1  C   UNL     1      16.996  30.330  71.506  1.00  0.00     0.000 C 
ENDROOT
BRANCH   1   2
ATOM      2  C   UNL     1      15.727  30.310  70.639  1.00  0.00     0.000 C 
BRANCH   2   3
ATOM      3  C   UNL     1      15.731  31.407  69.562  1.00  0.00     0.000 C 
BRANCH   3   4
ATOM      4  C   UNL     1      15.585  30.843  68.140  1.00  0.00     0.000 C 
BRANCH   4   5
ATOM      5  C   UNL     1      15.117  31.932  67.164  1.00  0.00     0.006 C 
BRANCH   5   6
ATOM      6  C   UNL     1      15.180  33.335  67.784  1.00  0.00     0.053 C 
BRANCH   6   7
ATOM      7  C   UNL     1      13.850  34.023  67.741  1.00  0.00     0.041 C 
ATOM      8  O   UNL     1      12.820  33.389  67.391  1.00  0.00    -0.550 OA
ATOM      9  O   UNL     1      13.754  35.373  68.053  1.00  0.00    -0.550 OA
ENDBRANCH   6   7
ENDBRANCH   5   6
ENDBRANCH   4   5
ENDBRANCH   3   4
ENDBRANCH   2   3
ENDBRANCH   1   2
BRANCH   1  10
ATOM     10  C   UNL     1      18.214  30.919  70.772  1.00  0.00     0.000 C 
BRANCH  10  11
ATOM     11  C   UNL     1      19.065  29.901  69.986  1.00  0.00    -0.000 C 
BRANCH  11  12
ATOM     12  C   UNL     1      19.319  30.263  68.511  1.00  0.00    -0.000 C 
BRANCH  12  13
ATOM     13  C   UNL     1      19.327  31.779  68.262  1.00  0.00    -0.000 C 
BRANCH  13  14
ATOM     14  C   UNL     1      18.806  32.107  66.857  1.00  0.00    -0.000 C 
BRANCH  14  15
ATOM     15  C   UNL     1      18.659  30.834  66.015  1.00  0.00    -0.003 C 
ATOM     16  C   UNL     1      18.596  31.164  64.526  1.00  0.00     0.004 C 
ENDBRANCH  14  15
ENDBRANCH  13  14
ENDBRANCH  12  13
ENDBRANCH  11  12
ENDBRANCH  10  11
ENDBRANCH   1  10
TORSDOF 12
ENDMDL
MODEL 3
REMARK VINA RESULT:    -4.169      1.584      2.345
REMARK INTER + INTRA:          -8.396
REMARK INTER:                  -7.021
REMARK INTRA:                  -1.375
REMARK UNBOUND:                -1.302
REMARK SMILES CCCCCCCCCCCCCC(=O)[O-]
REMARK SMILES IDX 8 1 9 2 10 3 11 4 12 5 13 6 14 7 15 8 16 9 7 10 6 11 5 12
REMARK SMILES IDX 4 13 3 14 2 15 1 16
REMARK H PARENT
REMARK Flexibility Score: inf
ROOT
ATOM      1  C   UNL     1      16.540  30.955  71.088  1.00  0.00     0.000 C 
ENDROOT
BRANCH   1   2
ATOM      2  C   UNL     1      15.403  30.690  70.088  1.00  0.00     0.000 C 
BRANCH   2   3
ATOM      3  C   UNL     1      15.579  31.466  68.773  1.00  0.00     0.000 C 
BRANCH   3   4
ATOM      4  C   UNL     1      14.502  32.544  68.571  1.00  0.00     0.000 C 
BRANCH   4   5
ATOM      5  C   UNL     1      14.902  33.514  67.449  1.00  0.00     0.006 C 
BRANCH   5   6
ATOM      6  C   UNL     1      16.324  33.253  66.934  1.00  0.00     0.053 C 
BRANCH   6   7
ATOM      7  C   UNL     1      17.020  34.524  66.550  1.00  0.00     0.041 C 
ATOM      8  O   UNL     1      18.202  34.493  66.118  1.00  0.00    -0.550 OA
ATOM      9  O   UNL     1      16.373  35.744  66.704  1.00  0.00    -0.550 OA
ENDBRANCH   6   7
ENDBRANCH   5   6
ENDBRANCH   4   5
ENDBRANCH   3   4
ENDBRANCH   2   3
ENDBRANCH   1   2
BRANCH   1  10
ATOM     10  C   UNL     1      17.792  30.103  70.809  1.00  0.00     0.000 C 
BRANCH  10  11
ATOM     11  C   UNL     1      19.108  30.894  70.662  1.00  0.00    -0.000 C 
BRANCH  11  12
ATOM     12  C   UNL     1      19.875  30.647  69.351  1.00  0.00    -0.000 C 
BRANCH  12  13
ATOM     13  C   UNL     1      19.286  31.419  68.161  1.00  0.00    -0.000 C 
BRANCH  13  14
ATOM     14  C   UNL     1      18.764  30.456  67.087  1.00  0.00    -0.000 C 
BRANCH  14  15
ATOM     15  C   UNL     1      19.490  30.673  65.755  1.00  0.00    -0.003 C 
ATOM     16  C   UNL     1      18.523  31.136  64.669  1.00  0.00     0.004 C 
ENDBRANCH  14  15
ENDBRANCH  13  14
ENDBRANCH  12  13
ENDBRANCH  11  12
ENDBRANCH  10  11
ENDBRANCH   1  10
TORSDOF 12
ENDMDL
MODEL 4
REMARK VINA RESULT:    -4.089      1.314      3.211
REMARK INTER + INTRA:          -8.259
REMARK INTER:                  -6.516
REMARK INTRA:                  -1.743
REMARK UNBOUND:                -1.302
REMARK SMILES CCCCCCCCCCCCCC(=O)[O-]
REMARK SMILES IDX 8 1 9 2 10 3 11 4 12 5 13 6 14 7 15 8 16 9 7 10 6 11 5 12
REMARK SMILES IDX 4 13 3 14 2 15 1 16
REMARK H PARENT
REMARK Flexibility Score: inf
ROOT
ATOM      1  C   UNL     1      18.963  30.558  66.868  1.00  0.00     0.000 C 
ENDROOT
BRANCH   1   2
ATOM      2  C   UNL     1      17.894  31.590  66.474  1.00  0.00     0.000 C 
BRANCH   2   3
ATOM      3  C   UNL     1      16.564  30.935  66.065  1.00  0.00     0.000 C 
BRANCH   3   4
ATOM      4  C   UNL     1      15.340  31.746  66.517  1.00  0.00     0.000 C 
BRANCH   4   5
ATOM      5  C   UNL     1      15.756  32.894  67.449  1.00  0.00     0.006 C 
BRANCH   5   6
ATOM      6  C   UNL     1      15.038  34.207  67.110  1.00  0.00     0.053 C 
BRANCH   6   7
ATOM      7  C   UNL     1      15.994  35.358  67.022  1.00  0.00     0.041 C 
ATOM      8  O   UNL     1      15.682  36.478  67.505  1.00  0.00    -0.550 OA
ATOM      9  O   UNL     1      17.213  35.201  66.375  1.00  0.00    -0.550 OA
ENDBRANCH   6   7
ENDBRANCH   5   6
ENDBRANCH   4   5
ENDBRANCH   3   4
ENDBRANCH   2   3
ENDBRANCH   1   2
BRANCH   1  10
ATOM     10  C   UNL     1      18.856  30.117  68.339  1.00  0.00     0.000 C 
BRANCH  10  11
ATOM     11  C   UNL     1      18.421  31.220  69.327  1.00  0.00    -0.000 C 
BRANCH  11  12
ATOM     12  C   UNL     1      18.538  30.845  70.816  1.00  0.00    -0.000 C 
BRANCH  12  13
ATOM     13  C   UNL     1      17.177  30.557  71.466  1.00  0.00    -0.000 C 
BRANCH  13  14
ATOM     14  C   UNL     1      16.027  30.939  70.526  1.00  0.00    -0.000 C 
BRANCH  14  15
ATOM     15  C   UNL     1      15.048  29.772  70.353  1.00  0.00    -0.003 C 
ATOM     16  C   UNL     1      15.273  29.057  69.023  1.00  0.00     0.004 C 
ENDBRANCH  14  15
ENDBRANCH  13  14
ENDBRANCH  12  13
ENDBRANCH  11  12
ENDBRANCH  10  11
ENDBRANCH   1  10
TORSDOF 12
ENDMDL
MODEL 5
REMARK VINA RESULT:    -4.054      3.156      5.942
REMARK INTER + INTRA:          -8.200
REMARK INTER:                  -6.346
REMARK INTRA:                  -1.854
REMARK UNBOUND:                -1.302
REMARK SMILES CCCCCCCCCCCCCC(=O)[O-]
REMARK SMILES IDX 8 1 9 2 10 3 11 4 12 5 13 6 14 7 15 8 16 9 7 10 6 11 5 12
REMARK SMILES IDX 4 13 3 14 2 15 1 16
REMARK H PARENT
REMARK Flexibility Score: inf
ROOT
ATOM      1  C   UNL     1      14.878  30.228  70.003  1.00  0.00     0.000 C 
ENDROOT
BRANCH   1   2
ATOM      2  C   UNL     1      15.410  29.097  70.899  1.00  0.00     0.000 C 
BRANCH   2   3
ATOM      3  C   UNL     1      16.640  29.521  71.717  1.00  0.00     0.000 C 
BRANCH   3   4
ATOM      4  C   UNL     1      17.187  30.895  71.299  1.00  0.00     0.000 C 
BRANCH   4   5
ATOM      5  C   UNL     1      18.650  30.788  70.845  1.00  0.00     0.006 C 
BRANCH   5   6
ATOM      6  C   UNL     1      18.832  31.176  69.371  1.00  0.00     0.053 C 
BRANCH   6   7
ATOM      7  C   UNL     1      18.870  29.973  68.479  1.00  0.00     0.041 C 
ATOM      8  O   UNL     1      18.953  30.112  67.231  1.00  0.00    -0.550 OA
ATOM      9  O   UNL     1      18.779  28.699  69.026  1.00  0.00    -0.550 OA
ENDBRANCH   6   7
ENDBRANCH   5   6
ENDBRANCH   4   5
ENDBRANCH   3   4
ENDBRANCH   2   3
ENDBRANCH   1   2
BRANCH   1  10
ATOM     10  C   UNL     1      14.996  29.907  68.502  1.00  0.00     0.000 C 
BRANCH  10  11
ATOM     11  C   UNL     1      15.462  31.079  67.613  1.00  0.00    -0.000 C 
BRANCH  11  12
ATOM     12  C   UNL     1      15.506  32.450  68.310  1.00  0.00    -0.000 C 
BRANCH  12  13
ATOM     13  C   UNL     1      14.552  33.473  67.675  1.00  0.00    -0.000 C 
BRANCH  13  14
ATOM     14  C   UNL     1      13.173  33.426  68.345  1.00  0.00    -0.000 C 
BRANCH  14  15
ATOM     15  C   UNL     1      12.198  32.564  67.535  1.00  0.00    -0.003 C 
ATOM     16  C   UNL     1      11.417  31.617  68.441  1.00  0.00     0.004 C 
ENDBRANCH  14  15
ENDBRANCH  13  14
ENDBRANCH  12  13
ENDBRANCH  11  12
ENDBRANCH  10  11
ENDBRANCH   1  10
TORSDOF 12
ENDMDL
MODEL 6
REMARK VINA RESULT:    -4.047     11.851     13.907
REMARK INTER + INTRA:          -8.189
REMARK INTER:                  -6.442
REMARK INTRA:                  -1.747
REMARK UNBOUND:                -1.302
REMARK SMILES CCCCCCCCCCCCCC(=O)[O-]
REMARK SMILES IDX 8 1 9 2 10 3 11 4 12 5 13 6 14 7 15 8 16 9 7 10 6 11 5 12
REMARK SMILES IDX 4 13 3 14 2 15 1 16
REMARK H PARENT
REMARK Flexibility Score: inf
ROOT
ATOM      1  C   UNL     1      15.382  42.627  60.768  1.00  0.00     0.000 C 
ENDROOT
BRANCH   1   2
ATOM      2  C   UNL     1      15.939  43.748  59.875  1.00  0.00     0.000 C 
BRANCH   2   3
ATOM      3  C   UNL     1      17.473  43.830  59.917  1.00  0.00     0.000 C 
BRANCH   3   4
ATOM      4  C   UNL     1      18.093  42.838  60.914  1.00  0.00     0.000 C 
BRANCH   4   5
ATOM      5  C   UNL     1      19.595  43.105  61.089  1.00  0.00     0.006 C 
BRANCH   5   6
ATOM      6  C   UNL     1      20.425  41.815  61.036  1.00  0.00     0.053 C 
BRANCH   6   7
ATOM      7  C   UNL     1      21.852  42.054  61.425  1.00  0.00     0.041 C 
ATOM      8  O   UNL     1      22.578  42.814  60.732  1.00  0.00    -0.550 OA
ATOM      9  O   UNL     1      22.389  41.409  62.532  1.00  0.00    -0.550 OA
ENDBRANCH   6   7
ENDBRANCH   5   6
ENDBRANCH   4   5
ENDBRANCH   3   4
ENDBRANCH   2   3
ENDBRANCH   1   2
BRANCH   1  10
ATOM     10  C   UNL     1      14.020  42.981  61.393  1.00  0.00     0.000 C 
BRANCH  10  11
ATOM     11  C   UNL     1      14.004  44.258  62.258  1.00  0.00    -0.000 C 
BRANCH  11  12
ATOM     12  C   UNL     1      14.951  44.237  63.471  1.00  0.00    -0.000 C 
BRANCH  12  13
ATOM     13  C   UNL     1      16.089  45.262  63.357  1.00  0.00    -0.000 C 
BRANCH  13  14
ATOM     14  C   UNL     1      17.394  44.698  63.931  1.00  0.00    -0.000 C 
BRANCH  14  15
ATOM     15  C   UNL     1      17.209  43.250  64.397  1.00  0.00    -0.003 C 
ATOM     16  C   UNL     1      18.554  42.586  64.682  1.00  0.00     0.004 C 
ENDBRANCH  14  15
ENDBRANCH  13  14
ENDBRANCH  12  13
ENDBRANCH  11  12
ENDBRANCH  10  11
ENDBRANCH   1  10
TORSDOF 12
ENDMDL
MODEL 7
REMARK VINA RESULT:    -4.046      1.040      1.743
REMARK INTER + INTRA:          -8.187
REMARK INTER:                  -6.662
REMARK INTRA:                  -1.525
REMARK UNBOUND:                -1.302
REMARK SMILES CCCCCCCCCCCCCC(=O)[O-]
REMARK SMILES IDX 8 1 9 2 10 3 11 4 12 5 13 6 14 7 15 8 16 9 7 10 6 11 5 12
REMARK SMILES IDX 4 13 3 14 2 15 1 16
REMARK H PARENT
REMARK Flexibility Score: inf
ROOT
ATOM      1  C   UNL     1      14.703  30.344  68.314  1.00  0.00     0.000 C 
ENDROOT
BRANCH   1   2
ATOM      2  C   UNL     1      15.924  30.746  67.471  1.00  0.00     0.000 C 
BRANCH   2   3
ATOM      3  C   UNL     1      16.090  32.270  67.360  1.00  0.00     0.000 C 
BRANCH   3   4
ATOM      4  C   UNL     1      14.990  33.042  68.106  1.00  0.00     0.000 C 
BRANCH   4   5
ATOM      5  C   UNL     1      14.153  33.883  67.131  1.00  0.00     0.006 C 
BRANCH   5   6
ATOM      6  C   UNL     1      13.788  35.256  67.712  1.00  0.00     0.053 C 
BRANCH   6   7
ATOM      7  C   UNL     1      14.375  36.375  66.908  1.00  0.00     0.041 C 
ATOM      8  O   UNL     1      13.892  37.535  66.990  1.00  0.00    -0.550 OA
ATOM      9  O   UNL     1      15.433  36.129  66.042  1.00  0.00    -0.550 OA
ENDBRANCH   6   7
ENDBRANCH   5   6
ENDBRANCH   4   5
ENDBRANCH   3   4
ENDBRANCH   2   3
ENDBRANCH   1   2
BRANCH   1  10
ATOM     10  C   UNL     1      15.090  29.654  69.635  1.00  0.00     0.000 C 
BRANCH  10  11
ATOM     11  C   UNL     1      15.639  30.590  70.732  1.00  0.00    -0.000 C 
BRANCH  11  12
ATOM     12  C   UNL     1      16.823  30.026  71.538  1.00  0.00    -0.000 C 
BRANCH  12  13
ATOM     13  C   UNL     1      18.084  29.826  70.685  1.00  0.00    -0.000 C 
BRANCH  13  14
ATOM     14  C   UNL     1      18.620  31.169  70.175  1.00  0.00    -0.000 C 
BRANCH  14  15
ATOM     15  C   UNL     1      19.519  30.972  68.948  1.00  0.00    -0.003 C 
ATOM     16  C   UNL     1      19.292  29.604  68.313  1.00  0.00     0.004 C 
ENDBRANCH  14  15
ENDBRANCH  13  14
ENDBRANCH  12  13
ENDBRANCH  11  12
ENDBRANCH  10  11
ENDBRANCH   1  10
TORSDOF 12
ENDMDL
MODEL 8
REMARK VINA RESULT:    -4.045      2.335      2.589
REMARK INTER + INTRA:          -8.185
REMARK INTER:                  -6.611
REMARK INTRA:                  -1.574
REMARK UNBOUND:                -1.302
REMARK SMILES CCCCCCCCCCCCCC(=O)[O-]
REMARK SMILES IDX 8 1 9 2 10 3 11 4 12 5 13 6 14 7 15 8 16 9 7 10 6 11 5 12
REMARK SMILES IDX 4 13 3 14 2 15 1 16
REMARK H PARENT
REMARK Flexibility Score: inf
ROOT
ATOM      1  C   UNL     1      15.523  31.265  69.645  1.00  0.00     0.000 C 
ENDROOT
BRANCH   1   2
ATOM      2  C   UNL     1      15.696  30.628  68.256  1.00  0.00     0.000 C 
BRANCH   2   3
ATOM      3  C   UNL     1      15.958  31.670  67.157  1.00  0.00     0.000 C 
BRANCH   3   4
ATOM      4  C   UNL     1      15.717  33.111  67.635  1.00  0.00     0.000 C 
BRANCH   4   5
ATOM      5  C   UNL     1      14.596  33.777  66.823  1.00  0.00     0.006 C 
BRANCH   5   6
ATOM      6  C   UNL     1      13.378  34.125  67.690  1.00  0.00     0.053 C 
BRANCH   6   7
ATOM      7  C   UNL     1      12.563  32.910  68.018  1.00  0.00     0.041 C 
ATOM      8  O   UNL     1      12.162  32.716  69.195  1.00  0.00    -0.550 OA
ATOM      9  O   UNL     1      12.279  31.976  67.029  1.00  0.00    -0.550 OA
ENDBRANCH   6   7
ENDBRANCH   5   6
ENDBRANCH   4   5
ENDBRANCH   3   4
ENDBRANCH   2   3
ENDBRANCH   1   2
BRANCH   1  10
ATOM     10  C   UNL     1      15.524  30.228  70.783  1.00  0.00     0.000 C 
BRANCH  10  11
ATOM     11  C   UNL     1      16.837  30.134  71.587  1.00  0.00    -0.000 C 
BRANCH  11  12
ATOM     12  C   UNL     1      17.997  30.989  71.046  1.00  0.00    -0.000 C 
BRANCH  12  13
ATOM     13  C   UNL     1      19.038  30.162  70.276  1.00  0.00    -0.000 C 
BRANCH  13  14
ATOM     14  C   UNL     1      19.495  30.898  69.010  1.00  0.00    -0.000 C 
BRANCH  14  15
ATOM     15  C   UNL     1      19.801  29.908  67.880  1.00  0.00    -0.003 C 
ATOM     16  C   UNL     1      19.262  30.413  66.544  1.00  0.00     0.004 C 
ENDBRANCH  14  15
ENDBRANCH  13  14
ENDBRANCH  12  13
ENDBRANCH  11  12
ENDBRANCH  10  11
ENDBRANCH   1  10
TORSDOF 12
ENDMDL
MODEL 9
REMARK VINA RESULT:    -3.995      2.707      5.520
REMARK INTER + INTRA:          -8.101
REMARK INTER:                  -6.902
REMARK INTRA:                  -1.198
REMARK UNBOUND:                -1.302
REMARK SMILES CCCCCCCCCCCCCC(=O)[O-]
REMARK SMILES IDX 8 1 9 2 10 3 11 4 12 5 13 6 14 7 15 8 16 9 7 10 6 11 5 12
REMARK SMILES IDX 4 13 3 14 2 15 1 16
REMARK H PARENT
REMARK Flexibility Score: inf
ROOT
ATOM      1  C   UNL     1      15.916  29.881  69.858  1.00  0.00     0.000 C 
ENDROOT
BRANCH   1   2
ATOM      2  C   UNL     1      16.845  29.775  71.079  1.00  0.00     0.000 C 
BRANCH   2   3
ATOM      3  C   UNL     1      17.886  30.905  71.128  1.00  0.00     0.000 C 
BRANCH   3   4
ATOM      4  C   UNL     1      19.141  30.591  70.299  1.00  0.00     0.000 C 
BRANCH   4   5
ATOM      5  C   UNL     1      19.076  31.275  68.926  1.00  0.00     0.006 C 
BRANCH   5   6
ATOM      6  C   UNL     1      19.085  30.264  67.771  1.00  0.00     0.053 C 
BRANCH   6   7
ATOM      7  C   UNL     1      18.782  30.917  66.456  1.00  0.00     0.041 C 
ATOM      8  O   UNL     1      19.576  31.767  65.975  1.00  0.00    -0.550 OA
ATOM      9  O   UNL     1      17.606  30.613  65.783  1.00  0.00    -0.550 OA
ENDBRANCH   6   7
ENDBRANCH   5   6
ENDBRANCH   4   5
ENDBRANCH   3   4
ENDBRANCH   2   3
ENDBRANCH   1   2
BRANCH   1  10
ATOM     10  C   UNL     1      14.756  30.870  70.074  1.00  0.00     0.000 C 
BRANCH  10  11
ATOM     11  C   UNL     1      14.431  31.777  68.869  1.00  0.00    -0.000 C 
BRANCH  11  12
ATOM     12  C   UNL     1      15.655  32.396  68.169  1.00  0.00    -0.000 C 
BRANCH  12  13
ATOM     13  C   UNL     1      15.296  33.615  67.307  1.00  0.00    -0.000 C 
BRANCH  13  14
ATOM     14  C   UNL     1      14.026  34.300  67.827  1.00  0.00    -0.000 C 
BRANCH  14  15
ATOM     15  C   UNL     1      14.050  35.802  67.525  1.00  0.00    -0.003 C 
ATOM     16  C   UNL     1      15.481  36.328  67.453  1.00  0.00     0.004 C 
ENDBRANCH  14  15
ENDBRANCH  13  14
ENDBRANCH  12  13
ENDBRANCH  11  12
ENDBRANCH  10  11
ENDBRANCH   1  10
TORSDOF 12
ENDMDL
