MODEL 1
REMARK VINA RESULT:    -4.004      0.000      0.000
REMARK INTER + INTRA:         -10.285
REMARK INTER:                  -7.749
REMARK INTRA:                  -2.536
REMARK UNBOUND:                -2.536
REMARK SMILES CCCCCCCCCCCCCCCCCC(=O)[O-]
REMARK SMILES IDX 10 1 11 2 12 3 13 4 14 5 15 6 16 7 17 8 18 9 19 10 20 11
REMARK SMILES IDX 9 12 8 13 7 14 6 15 5 16 4 17 3 18 2 19 1 20
REMARK H PARENT
REMARK Flexibility Score: inf
ROOT
ATOM      1  C   UNL     1      27.693   0.412   5.493  1.00  0.00     0.000 C 
ENDROOT
BRANCH   1   2
ATOM      2  C   UNL     1      27.251  -0.767   6.376  1.00  0.00     0.000 C 
BRANCH   2   3
ATOM      3  C   UNL     1      28.265  -1.084   7.487  1.00  0.00     0.000 C 
BRANCH   3   4
ATOM      4  C   UNL     1      28.437  -2.595   7.715  1.00  0.00     0.000 C 
BRANCH   4   5
ATOM      5  C   UNL     1      27.101  -3.357   7.693  1.00  0.00     0.000 C 
BRANCH   5   6
ATOM      6  C   UNL     1      27.266  -4.886   7.554  1.00  0.00     0.000 C 
BRANCH   6   7
ATOM      7  C   UNL     1      27.975  -5.278   6.248  1.00  0.00     0.006 C 
BRANCH   7   8
ATOM      8  C   UNL     1      26.993  -5.291   5.074  1.00  0.00     0.053 C 
BRANCH   8   9
ATOM      9  C   UNL     1      27.493  -4.424   3.961  1.00  0.00     0.041 C 
ATOM     10  O   UNL     1      27.247  -4.728   2.763  1.00  0.00    -0.550 OA
ATOM     11  O   UNL     1      28.189  -3.256   4.247  1.00  0.00    -0.550 OA
ENDBRANCH   8   9
ENDBRANCH   7   8
ENDBRANCH   6   7
ENDBRANCH   5   6
ENDBRANCH   4   5
ENDBRANCH   3   4
ENDBRANCH   2   3
ENDBRANCH   1   2
BRANCH   1  12
ATOM     12  C   UNL     1      27.933   1.697   6.301  1.00  0.00     0.000 C 
BRANCH  12  13
ATOM     13  C   UNL     1      26.623   2.417   6.666  1.00  0.00    -0.000 C 
BRANCH  13  14
ATOM     14  C   UNL     1      26.452   2.597   8.182  1.00  0.00    -0.000 C 
BRANCH  14  15
ATOM     15  C   UNL     1      25.074   2.129   8.683  1.00  0.00    -0.000 C 
BRANCH  15  16
ATOM     16  C   UNL     1      24.579   0.873   7.933  1.00  0.00    -0.000 C 
BRANCH  16  17
ATOM     17  C   UNL     1      24.436  -0.367   8.832  1.00  0.00    -0.000 C 
BRANCH  17  18
ATOM     18  C   UNL     1      24.927  -0.125  10.268  1.00  0.00    -0.000 C 
BRANCH  18  19
ATOM     19  C   UNL     1      26.156  -0.978  10.621  1.00  0.00    -0.003 C 
ATOM     20  C   UNL     1      27.411  -0.138  10.856  1.00  0.00     0.004 C 
ENDBRANCH  18  19
ENDBRANCH  17  18
ENDBRANCH  16  17
ENDBRANCH  15  16
ENDBRANCH  14  15
ENDBRANCH  13  14
ENDBRANCH  12  13
ENDBRANCH   1  12
TORSDOF 16
ENDMDL
MODEL 2
REMARK VINA RESULT:    -3.884     10.601     11.712
REMARK INTER + INTRA:         -10.053
REMARK INTER:                  -7.812
REMARK INTRA:                  -2.241
REMARK UNBOUND:                -2.536
REMARK SMILES CCCCCCCCCCCCCCCCCC(=O)[O-]
REMARK SMILES IDX 10 1 11 2 12 3 13 4 14 5 15 6 16 7 17 8 18 9 19 10 20 11
REMARK SMILES IDX 9 12 8 13 7 14 6 15 5 16 4 17 3 18 2 19 1 20
REMARK H PARENT
REMARK Flexibility Score: inf
ROOT
ATOM      1  C   UNL     1      25.778  -4.501  17.443  1.00  0.00     0.000 C 
ENDROOT
BRANCH   1   2
ATOM      2  C   UNL     1      25.346  -5.689  16.566  1.00  0.00     0.000 C 
BRANCH   2   3
ATOM      3  C   UNL     1      25.142  -6.977  17.379  1.00  0.00     0.000 C 
BRANCH   3   4
ATOM      4  C   UNL     1      24.619  -8.140  16.519  1.00  0.00     0.000 C 
BRANCH   4   5
ATOM      5  C   UNL     1      24.252  -7.708  15.089  1.00  0.00     0.000 C 
BRANCH   5   6
ATOM      6  C   UNL     1      24.093  -8.890  14.109  1.00  0.00     0.000 C 
BRANCH   6   7
ATOM      7  C   UNL     1      25.356  -9.763  14.041  1.00  0.00     0.006 C 
BRANCH   7   8
ATOM      8  C   UNL     1      25.045 -11.207  14.441  1.00  0.00     0.053 C 
BRANCH   8   9
ATOM      9  C   UNL     1      25.854 -11.608  15.635  1.00  0.00     0.041 C 
ATOM     10  O   UNL     1      25.352 -11.545  16.789  1.00  0.00    -0.550 OA
ATOM     11  O   UNL     1      27.144 -12.095  15.470  1.00  0.00    -0.550 OA
ENDBRANCH   8   9
ENDBRANCH   7   8
ENDBRANCH   6   7
ENDBRANCH   5   6
ENDBRANCH   4   5
ENDBRANCH   3   4
ENDBRANCH   2   3
ENDBRANCH   1   2
BRANCH   1  12
ATOM     12  C   UNL     1      24.942  -3.239  17.180  1.00  0.00     0.000 C 
BRANCH  12  13
ATOM     13  C   UNL     1      25.002  -2.237  18.345  1.00  0.00    -0.000 C 
BRANCH  13  14
ATOM     14  C   UNL     1      23.623  -1.661  18.701  1.00  0.00    -0.000 C 
BRANCH  14  15
ATOM     15  C   UNL     1      22.469  -2.420  18.022  1.00  0.00    -0.000 C 
BRANCH  15  16
ATOM     16  C   UNL     1      21.355  -2.798  19.021  1.00  0.00    -0.000 C 
BRANCH  16  17
ATOM     17  C   UNL     1      21.680  -4.042  19.866  1.00  0.00    -0.000 C 
BRANCH  17  18
ATOM     18  C   UNL     1      22.488  -5.096  19.094  1.00  0.00    -0.000 C 
BRANCH  18  19
ATOM     19  C   UNL     1      21.591  -6.053  18.293  1.00  0.00    -0.003 C 
ATOM     20  C   UNL     1      21.602  -5.757  16.793  1.00  0.00     0.004 C 
ENDBRANCH  18  19
ENDBRANCH  17  18
ENDBRANCH  16  17
ENDBRANCH  15  16
ENDBRANCH  14  15
ENDBRANCH  13  14
ENDBRANCH  12  13
ENDBRANCH   1  12
TORSDOF 16
ENDMDL
MODEL 3
REMARK VINA RESULT:    -3.881      1.565      3.816
REMARK INTER + INTRA:         -10.047
REMARK INTER:                  -7.050
REMARK INTRA:                  -2.997
REMARK UNBOUND:                -2.536
REMARK SMILES CCCCCCCCCCCCCCCCCC(=O)[O-]
REMARK SMILES IDX 10 1 11 2 12 3 13 4 14 5 15 6 16 7 17 8 18 9 19 10 20 11
REMARK SMILES IDX 9 12 8 13 7 14 6 15 5 16 4 17 3 18 2 19 1 20
REMARK H PARENT
REMARK Flexibility Score: inf
ROOT
ATOM      1  C   UNL     1      24.380   0.925  10.152  1.00  0.00     0.000 C 
ENDROOT
BRANCH   1   2
ATOM      2  C   UNL     1      25.690   0.378  10.747  1.00  0.00     0.000 C 
BRANCH   2   3
ATOM      3  C   UNL     1      25.769  -1.155  10.686  1.00  0.00     0.000 C 
BRANCH   3   4
ATOM      4  C   UNL     1      26.624  -1.655   9.509  1.00  0.00     0.000 C 
BRANCH   4   5
ATOM      5  C   UNL     1      27.863  -0.780   9.258  1.00  0.00     0.000 C 
BRANCH   5   6
ATOM      6  C   UNL     1      28.933  -1.463   8.378  1.00  0.00     0.000 C 
BRANCH   6   7
ATOM      7  C   UNL     1      28.545  -2.902   8.003  1.00  0.00     0.006 C 
BRANCH   7   8
ATOM      8  C   UNL     1      28.266  -3.021   6.503  1.00  0.00     0.053 C 
BRANCH   8   9
ATOM      9  C   UNL     1      26.999  -3.781   6.262  1.00  0.00     0.041 C 
ATOM     10  O   UNL     1      26.390  -4.316   7.225  1.00  0.00    -0.550 OA
ATOM     11  O   UNL     1      26.466  -3.857   4.981  1.00  0.00    -0.550 OA
ENDBRANCH   8   9
ENDBRANCH   7   8
ENDBRANCH   6   7
ENDBRANCH   5   6
ENDBRANCH   4   5
ENDBRANCH   3   4
ENDBRANCH   2   3
ENDBRANCH   1   2
BRANCH   1  12
ATOM     12  C   UNL     1      24.614   2.104   9.195  1.00  0.00     0.000 C 
BRANCH  12  13
ATOM     13  C   UNL     1      26.107   2.407   8.985  1.00  0.00    -0.000 C 
BRANCH  13  14
ATOM     14  C   UNL     1      26.393   3.053   7.622  1.00  0.00    -0.000 C 
BRANCH  14  15
ATOM     15  C   UNL     1      27.496   2.322   6.836  1.00  0.00    -0.000 C 
BRANCH  15  16
ATOM     16  C   UNL     1      27.069   2.013   5.386  1.00  0.00    -0.000 C 
BRANCH  16  17
ATOM     17  C   UNL     1      25.846   1.084   5.287  1.00  0.00    -0.000 C 
BRANCH  17  18
ATOM     18  C   UNL     1      25.952  -0.143   6.205  1.00  0.00    -0.000 C 
BRANCH  18  19
ATOM     19  C   UNL     1      24.575  -0.690   6.616  1.00  0.00    -0.003 C 
ATOM     20  C   UNL     1      23.441   0.299   6.342  1.00  0.00     0.004 C 
ENDBRANCH  18  19
ENDBRANCH  17  18
ENDBRANCH  16  17
ENDBRANCH  15  16
ENDBRANCH  14  15
ENDBRANCH  13  14
ENDBRANCH  12  13
ENDBRANCH   1  12
TORSDOF 16
ENDMDL
MODEL 4
REMARK VINA RESULT:    -3.837      2.907      5.641
REMARK INTER + INTRA:          -9.962
REMARK INTER:                  -7.197
REMARK INTRA:                  -2.765
REMARK UNBOUND:                -2.536
REMARK SMILES CCCCCCCCCCCCCCCCCC(=O)[O-]
REMARK SMILES IDX 10 1 11 2 12 3 13 4 14 5 15 6 16 7 17 8 18 9 19 10 20 11
REMARK SMILES IDX 9 12 8 13 7 14 6 15 5 16 4 17 3 18 2 19 1 20
REMARK H PARENT
REMARK Flexibility Score: inf
ROOT
ATOM      1  C   UNL     1      27.936   2.010   6.442  1.00  0.00     0.000 C 
ENDROOT
BRANCH   1   2
ATOM      2  C   UNL     1      26.545   2.630   6.659  1.00  0.00     0.000 C 
BRANCH   2   3
ATOM      3  C   UNL     1      26.084   2.546   8.123  1.00  0.00     0.000 C 
BRANCH   3   4
ATOM      4  C   UNL     1      24.748   1.800   8.279  1.00  0.00     0.000 C 
BRANCH   4   5
ATOM      5  C   UNL     1      24.903   0.439   8.977  1.00  0.00     0.000 C 
BRANCH   5   6
ATOM      6  C   UNL     1      24.474  -0.757   8.099  1.00  0.00     0.000 C 
BRANCH   6   7
ATOM      7  C   UNL     1      24.088  -0.325   6.676  1.00  0.00     0.006 C 
BRANCH   7   8
ATOM      8  C   UNL     1      22.672  -0.791   6.327  1.00  0.00     0.053 C 
BRANCH   8   9
ATOM      9  C   UNL     1      21.813   0.375   5.948  1.00  0.00     0.041 C 
ATOM     10  O   UNL     1      21.296   1.096   6.841  1.00  0.00    -0.550 OA
ATOM     11  O   UNL     1      21.623   0.692   4.609  1.00  0.00    -0.550 OA
ENDBRANCH   8   9
ENDBRANCH   7   8
ENDBRANCH   6   7
ENDBRANCH   5   6
ENDBRANCH   4   5
ENDBRANCH   3   4
ENDBRANCH   2   3
ENDBRANCH   1   2
BRANCH   1  12
ATOM     12  C   UNL     1      27.900   0.794   5.504  1.00  0.00     0.000 C 
BRANCH  12  13
ATOM     13  C   UNL     1      27.642  -0.524   6.256  1.00  0.00    -0.000 C 
BRANCH  13  14
ATOM     14  C   UNL     1      28.261  -0.532   7.661  1.00  0.00    -0.000 C 
BRANCH  14  15
ATOM     15  C   UNL     1      28.058  -1.872   8.392  1.00  0.00    -0.000 C 
BRANCH  15  16
ATOM     16  C   UNL     1      28.789  -3.034   7.686  1.00  0.00    -0.000 C 
BRANCH  16  17
ATOM     17  C   UNL     1      27.927  -4.298   7.524  1.00  0.00    -0.000 C 
BRANCH  17  18
ATOM     18  C   UNL     1      27.830  -4.773   6.066  1.00  0.00    -0.000 C 
BRANCH  18  19
ATOM     19  C   UNL     1      26.910  -3.881   5.217  1.00  0.00    -0.003 C 
ATOM     20  C   UNL     1      25.542  -3.659   5.862  1.00  0.00     0.004 C 
ENDBRANCH  18  19
ENDBRANCH  17  18
ENDBRANCH  16  17
ENDBRANCH  15  16
ENDBRANCH  14  15
ENDBRANCH  13  14
ENDBRANCH  12  13
ENDBRANCH   1  12
TORSDOF 16
ENDMDL
MODEL 5
REMARK VINA RESULT:    -3.815      2.012      6.002
REMARK INTER + INTRA:          -9.919
REMARK INTER:                  -7.632
REMARK INTRA:                  -2.286
REMARK UNBOUND:                -2.536
REMARK SMILES CCCCCCCCCCCCCCCCCC(=O)[O-]
REMARK SMILES IDX 10 1 11 2 12 3 13 4 14 5 15 6 16 7 17 8 18 9 19 10 20 11
REMARK SMILES IDX 9 12 8 13 7 14 6 15 5 16 4 17 3 18 2 19 1 20
REMARK H PARENT
REMARK Flexibility Score: inf
ROOT
ATOM      1  C   UNL     1      29.125  -2.082   8.628  1.00  0.00     0.000 C 
ENDROOT
BRANCH   1   2
ATOM      2  C   UNL     1      28.210  -0.853   8.768  1.00  0.00     0.000 C 
BRANCH   2   3
ATOM      3  C   UNL     1      27.912  -0.506  10.235  1.00  0.00     0.000 C 
BRANCH   3   4
ATOM      4  C   UNL     1      26.440  -0.125  10.464  1.00  0.00     0.000 C 
BRANCH   4   5
ATOM      5  C   UNL     1      25.982   1.047   9.579  1.00  0.00     0.000 C 
BRANCH   5   6
ATOM      6  C   UNL     1      24.869   0.667   8.578  1.00  0.00     0.000 C 
BRANCH   6   7
ATOM      7  C   UNL     1      25.391   0.572   7.136  1.00  0.00     0.006 C 
BRANCH   7   8
ATOM      8  C   UNL     1      26.197   1.818   6.763  1.00  0.00     0.053 C 
BRANCH   8   9
ATOM      9  C   UNL     1      26.957   1.593   5.492  1.00  0.00     0.041 C 
ATOM     10  O   UNL     1      26.690   2.274   4.467  1.00  0.00    -0.550 OA
ATOM     11  O   UNL     1      27.989   0.664   5.455  1.00  0.00    -0.550 OA
ENDBRANCH   8   9
ENDBRANCH   7   8
ENDBRANCH   6   7
ENDBRANCH   5   6
ENDBRANCH   4   5
ENDBRANCH   3   4
ENDBRANCH   2   3
ENDBRANCH   1   2
BRANCH   1  12
ATOM     12  C   UNL     1      28.612  -3.083   7.581  1.00  0.00     0.000 C 
BRANCH  12  13
ATOM     13  C   UNL     1      27.099  -2.952   7.331  1.00  0.00    -0.000 C 
BRANCH  13  14
ATOM     14  C   UNL     1      26.765  -2.701   5.853  1.00  0.00    -0.000 C 
BRANCH  14  15
ATOM     15  C   UNL     1      27.948  -3.003   4.916  1.00  0.00    -0.000 C 
BRANCH  15  16
ATOM     16  C   UNL     1      27.630  -4.146   3.929  1.00  0.00    -0.000 C 
BRANCH  16  17
ATOM     17  C   UNL     1      26.809  -5.289   4.552  1.00  0.00    -0.000 C 
BRANCH  17  18
ATOM     18  C   UNL     1      27.666  -6.261   5.377  1.00  0.00    -0.000 C 
BRANCH  18  19
ATOM     19  C   UNL     1      27.028  -6.603   6.732  1.00  0.00    -0.003 C 
ATOM     20  C   UNL     1      28.053  -6.699   7.862  1.00  0.00     0.004 C 
ENDBRANCH  18  19
ENDBRANCH  17  18
ENDBRANCH  16  17
ENDBRANCH  15  16
ENDBRANCH  14  15
ENDBRANCH  13  14
ENDBRANCH  12  13
ENDBRANCH   1  12
TORSDOF 16
ENDMDL
MODEL 6
REMARK VINA RESULT:    -3.762      2.651      5.703
REMARK INTER + INTRA:          -9.817
REMARK INTER:                  -7.037
REMARK INTRA:                  -2.780
REMARK UNBOUND:                -2.536
REMARK SMILES CCCCCCCCCCCCCCCCCC(=O)[O-]
REMARK SMILES IDX 10 1 11 2 12 3 13 4 14 5 15 6 16 7 17 8 18 9 19 10 20 11
REMARK SMILES IDX 9 12 8 13 7 14 6 15 5 16 4 17 3 18 2 19 1 20
REMARK H PARENT
REMARK Flexibility Score: inf
ROOT
ATOM      1  C   UNL     1      27.511   0.896   5.427  1.00  0.00     0.000 C 
ENDROOT
BRANCH   1   2
ATOM      2  C   UNL     1      26.676   2.068   5.970  1.00  0.00     0.000 C 
BRANCH   2   3
ATOM      3  C   UNL     1      27.232   2.625   7.290  1.00  0.00     0.000 C 
BRANCH   3   4
ATOM      4  C   UNL     1      26.193   2.605   8.423  1.00  0.00     0.000 C 
BRANCH   4   5
ATOM      5  C   UNL     1      25.045   1.615   8.163  1.00  0.00     0.000 C 
BRANCH   5   6
ATOM      6  C   UNL     1      25.103   0.355   9.054  1.00  0.00     0.000 C 
BRANCH   6   7
ATOM      7  C   UNL     1      26.278   0.394  10.042  1.00  0.00     0.006 C 
BRANCH   7   8
ATOM      8  C   UNL     1      26.786  -1.017  10.346  1.00  0.00     0.053 C 
BRANCH   8   9
ATOM      9  C   UNL     1      28.216  -0.978  10.788  1.00  0.00     0.041 C 
ATOM     10  O   UNL     1      28.971  -1.963  10.574  1.00  0.00    -0.550 OA
ATOM     11  O   UNL     1      28.726   0.163  11.393  1.00  0.00    -0.550 OA
ENDBRANCH   8   9
ENDBRANCH   7   8
ENDBRANCH   6   7
ENDBRANCH   5   6
ENDBRANCH   4   5
ENDBRANCH   3   4
ENDBRANCH   2   3
ENDBRANCH   1   2
BRANCH   1  12
ATOM     12  C   UNL     1      27.031  -0.465   5.955  1.00  0.00     0.000 C 
BRANCH  12  13
ATOM     13  C   UNL     1      27.992  -1.067   6.995  1.00  0.00    -0.000 C 
BRANCH  13  14
ATOM     14  C   UNL     1      28.222  -2.571   6.785  1.00  0.00    -0.000 C 
BRANCH  14  15
ATOM     15  C   UNL     1      27.944  -3.018   5.338  1.00  0.00    -0.000 C 
BRANCH  15  16
ATOM     16  C   UNL     1      26.875  -4.130   5.270  1.00  0.00    -0.000 C 
BRANCH  16  17
ATOM     17  C   UNL     1      26.473  -4.685   6.648  1.00  0.00    -0.000 C 
BRANCH  17  18
ATOM     18  C   UNL     1      24.983  -4.483   6.963  1.00  0.00    -0.000 C 
BRANCH  18  19
ATOM     19  C   UNL     1      24.706  -3.140   7.657  1.00  0.00    -0.003 C 
ATOM     20  C   UNL     1      23.786  -2.232   6.841  1.00  0.00     0.004 C 
ENDBRANCH  18  19
ENDBRANCH  17  18
ENDBRANCH  16  17
ENDBRANCH  15  16
ENDBRANCH  14  15
ENDBRANCH  13  14
ENDBRANCH  12  13
ENDBRANCH   1  12
TORSDOF 16
ENDMDL
MODEL 7
REMARK VINA RESULT:    -3.758      1.356      2.214
REMARK INTER + INTRA:          -9.809
REMARK INTER:                  -6.796
REMARK INTRA:                  -3.013
REMARK UNBOUND:                -2.536
REMARK SMILES CCCCCCCCCCCCCCCCCC(=O)[O-]
REMARK SMILES IDX 10 1 11 2 12 3 13 4 14 5 15 6 16 7 17 8 18 9 19 10 20 11
REMARK SMILES IDX 9 12 8 13 7 14 6 15 5 16 4 17 3 18 2 19 1 20
REMARK H PARENT
REMARK Flexibility Score: inf
ROOT
ATOM      1  C   UNL     1      26.981   1.138   5.657  1.00  0.00     0.000 C 
ENDROOT
BRANCH   1   2
ATOM      2  C   UNL     1      27.356  -0.277   6.130  1.00  0.00     0.000 C 
BRANCH   2   3
ATOM      3  C   UNL     1      28.220  -0.264   7.400  1.00  0.00     0.000 C 
BRANCH   3   4
ATOM      4  C   UNL     1      27.571  -1.032   8.563  1.00  0.00     0.000 C 
BRANCH   4   5
ATOM      5  C   UNL     1      27.355  -2.522   8.248  1.00  0.00     0.000 C 
BRANCH   5   6
ATOM      6  C   UNL     1      28.647  -3.257   7.828  1.00  0.00     0.000 C 
BRANCH   6   7
ATOM      7  C   UNL     1      28.373  -4.385   6.821  1.00  0.00     0.006 C 
BRANCH   7   8
ATOM      8  C   UNL     1      27.173  -4.048   5.933  1.00  0.00     0.053 C 
BRANCH   8   9
ATOM      9  C   UNL     1      27.610  -3.829   4.518  1.00  0.00     0.041 C 
ATOM     10  O   UNL     1      28.445  -2.926   4.247  1.00  0.00    -0.550 OA
ATOM     11  O   UNL     1      27.131  -4.652   3.507  1.00  0.00    -0.550 OA
ENDBRANCH   8   9
ENDBRANCH   7   8
ENDBRANCH   6   7
ENDBRANCH   5   6
ENDBRANCH   4   5
ENDBRANCH   3   4
ENDBRANCH   2   3
ENDBRANCH   1   2
BRANCH   1  12
ATOM     12  C   UNL     1      27.422   2.227   6.648  1.00  0.00     0.000 C 
BRANCH  12  13
ATOM     13  C   UNL     1      26.236   2.853   7.403  1.00  0.00    -0.000 C 
BRANCH  13  14
ATOM     14  C   UNL     1      26.170   2.409   8.871  1.00  0.00    -0.000 C 
BRANCH  14  15
ATOM     15  C   UNL     1      24.792   1.841   9.259  1.00  0.00    -0.000 C 
BRANCH  15  16
ATOM     16  C   UNL     1      24.056   1.228   8.048  1.00  0.00    -0.000 C 
BRANCH  16  17
ATOM     17  C   UNL     1      24.056  -0.310   8.040  1.00  0.00    -0.000 C 
BRANCH  17  18
ATOM     18  C   UNL     1      23.863  -0.901   6.635  1.00  0.00    -0.000 C 
BRANCH  18  19
ATOM     19  C   UNL     1      23.842  -2.438   6.641  1.00  0.00    -0.003 C 
ATOM     20  C   UNL     1      23.764  -3.022   8.052  1.00  0.00     0.004 C 
ENDBRANCH  18  19
ENDBRANCH  17  18
ENDBRANCH  16  17
ENDBRANCH  15  16
ENDBRANCH  14  15
ENDBRANCH  13  14
ENDBRANCH  12  13
ENDBRANCH   1  12
TORSDOF 16
ENDMDL
MODEL 8
REMARK VINA RESULT:    -3.755      1.393      4.148
REMARK INTER + INTRA:          -9.803
REMARK INTER:                  -6.848
REMARK INTRA:                  -2.954
REMARK UNBOUND:                -2.536
REMARK SMILES CCCCCCCCCCCCCCCCCC(=O)[O-]
REMARK SMILES IDX 10 1 11 2 12 3 13 4 14 5 15 6 16 7 17 8 18 9 19 10 20 11
REMARK SMILES IDX 9 12 8 13 7 14 6 15 5 16 4 17 3 18 2 19 1 20
REMARK H PARENT
REMARK Flexibility Score: inf
ROOT
ATOM      1  C   UNL     1      25.053   1.482   9.428  1.00  0.00     0.000 C 
ENDROOT
BRANCH   1   2
ATOM      2  C   UNL     1      24.330   1.491   8.070  1.00  0.00     0.000 C 
BRANCH   2   3
ATOM      3  C   UNL     1      23.636   0.154   7.764  1.00  0.00     0.000 C 
BRANCH   3   4
ATOM      4  C   UNL     1      24.371  -0.660   6.687  1.00  0.00     0.000 C 
BRANCH   4   5
ATOM      5  C   UNL     1      24.178  -2.177   6.849  1.00  0.00     0.000 C 
BRANCH   5   6
ATOM      6  C   UNL     1      25.291  -2.856   7.676  1.00  0.00     0.000 C 
BRANCH   6   7
ATOM      7  C   UNL     1      25.622  -4.265   7.160  1.00  0.00     0.006 C 
BRANCH   7   8
ATOM      8  C   UNL     1      27.032  -4.315   6.566  1.00  0.00     0.053 C 
BRANCH   8   9
ATOM      9  C   UNL     1      27.007  -3.930   5.120  1.00  0.00     0.041 C 
ATOM     10  O   UNL     1      27.889  -3.161   4.655  1.00  0.00    -0.550 OA
ATOM     11  O   UNL     1      26.039  -4.458   4.276  1.00  0.00    -0.550 OA
ENDBRANCH   8   9
ENDBRANCH   7   8
ENDBRANCH   6   7
ENDBRANCH   5   6
ENDBRANCH   4   5
ENDBRANCH   3   4
ENDBRANCH   2   3
ENDBRANCH   1   2
BRANCH   1  12
ATOM     12  C   UNL     1      25.069   0.090  10.079  1.00  0.00     0.000 C 
BRANCH  12  13
ATOM     13  C   UNL     1      26.307  -0.132  10.965  1.00  0.00    -0.000 C 
BRANCH  13  14
ATOM     14  C   UNL     1      27.308  -1.117  10.344  1.00  0.00    -0.000 C 
BRANCH  14  15
ATOM     15  C   UNL     1      28.289  -0.435   9.374  1.00  0.00    -0.000 C 
BRANCH  15  16
ATOM     16  C   UNL     1      28.416  -1.203   8.041  1.00  0.00    -0.000 C 
BRANCH  16  17
ATOM     17  C   UNL     1      27.942  -0.400   6.818  1.00  0.00    -0.000 C 
BRANCH  17  18
ATOM     18  C   UNL     1      27.885   1.113   7.081  1.00  0.00    -0.000 C 
BRANCH  18  19
ATOM     19  C   UNL     1      27.873   1.935   5.782  1.00  0.00    -0.003 C 
ATOM     20  C   UNL     1      26.546   1.835   5.031  1.00  0.00     0.004 C 
ENDBRANCH  18  19
ENDBRANCH  17  18
ENDBRANCH  16  17
ENDBRANCH  15  16
ENDBRANCH  14  15
ENDBRANCH  13  14
ENDBRANCH  12  13
ENDBRANCH   1  12
TORSDOF 16
ENDMDL
MODEL 9
REMARK VINA RESULT:    -3.742      2.024      5.848
REMARK INTER + INTRA:          -9.777
REMARK INTER:                  -7.187
REMARK INTRA:                  -2.590
REMARK UNBOUND:                -2.536
REMARK SMILES CCCCCCCCCCCCCCCCCC(=O)[O-]
REMARK SMILES IDX 10 1 11 2 12 3 13 4 14 5 15 6 16 7 17 8 18 9 19 10 20 11
REMARK SMILES IDX 9 12 8 13 7 14 6 15 5 16 4 17 3 18 2 19 1 20
REMARK H PARENT
REMARK Flexibility Score: inf
ROOT
ATOM      1  C   UNL     1      28.578  -1.072  10.230  1.00  0.00     0.000 C 
ENDROOT
BRANCH   1   2
ATOM      2  C   UNL     1      27.371  -0.264  10.739  1.00  0.00     0.000 C 
BRANCH   2   3
ATOM      3  C   UNL     1      26.075  -1.090  10.755  1.00  0.00     0.000 C 
BRANCH   3   4
ATOM      4  C   UNL     1      24.915  -0.380  10.036  1.00  0.00     0.000 C 
BRANCH   4   5
ATOM      5  C   UNL     1      25.189   1.113   9.791  1.00  0.00     0.000 C 
BRANCH   5   6
ATOM      6  C   UNL     1      25.040   1.533   8.312  1.00  0.00     0.000 C 
BRANCH   6   7
ATOM      7  C   UNL     1      26.102   2.559   7.889  1.00  0.00     0.006 C 
BRANCH   7   8
ATOM      8  C   UNL     1      27.097   1.942   6.903  1.00  0.00     0.053 C 
BRANCH   8   9
ATOM      9  C   UNL     1      26.489   1.835   5.539  1.00  0.00     0.041 C 
ATOM     10  O   UNL     1      25.579   0.994   5.317  1.00  0.00    -0.550 OA
ATOM     11  O   UNL     1      26.895   2.696   4.528  1.00  0.00    -0.550 OA
ENDBRANCH   8   9
ENDBRANCH   7   8
ENDBRANCH   6   7
ENDBRANCH   5   6
ENDBRANCH   4   5
ENDBRANCH   3   4
ENDBRANCH   2   3
ENDBRANCH   1   2
BRANCH   1  12
ATOM     12  C   UNL     1      28.935  -0.741   8.772  1.00  0.00     0.000 C 
BRANCH  12  13
ATOM     13  C   UNL     1      28.628  -1.902   7.811  1.00  0.00    -0.000 C 
BRANCH  13  14
ATOM     14  C   UNL     1      27.603  -1.521   6.733  1.00  0.00    -0.000 C 
BRANCH  14  15
ATOM     15  C   UNL     1      26.187  -2.037   7.050  1.00  0.00    -0.000 C 
BRANCH  15  16
ATOM     16  C   UNL     1      26.217  -3.354   7.856  1.00  0.00    -0.000 C 
BRANCH  16  17
ATOM     17  C   UNL     1      26.075  -4.614   6.984  1.00  0.00    -0.000 C 
BRANCH  17  18
ATOM     18  C   UNL     1      27.408  -5.349   6.773  1.00  0.00    -0.000 C 
BRANCH  18  19
ATOM     19  C   UNL     1      27.702  -5.617   5.288  1.00  0.00    -0.003 C 
ATOM     20  C   UNL     1      27.468  -4.389   4.409  1.00  0.00     0.004 C 
ENDBRANCH  18  19
ENDBRANCH  17  18
ENDBRANCH  16  17
ENDBRANCH  15  16
ENDBRANCH  14  15
ENDBRANCH  13  14
ENDBRANCH  12  13
ENDBRANCH   1  12
TORSDOF 16
ENDMDL
