MODEL 1
REMARK VINA RESULT:    -4.093      0.000      0.000
REMARK INTER + INTRA:          -5.300
REMARK INTER:                  -4.931
REMARK INTRA:                  -0.369
REMARK UNBOUND:                -0.369
REMARK SMILES NC(=O)C[C@@H]([NH3+])C(=O)[O-]
REMARK SMILES IDX 4 1 5 2 6 3 7 7 8 8 9 9 2 10 3 11 1 12
REMARK H PARENT 6 4 6 5 6 6 1 13 1 14
REMARK Flexibility Score: inf
ROOT
ATOM      1  C   UNL     1     -23.489  82.537 -20.211  1.00  0.00     0.171 C 
ENDROOT
BRANCH   1   2
ATOM      2  C   UNL     1     -23.428  82.478 -21.750  1.00  0.00     0.237 C 
BRANCH   2   3
ATOM      3  N   UNL     1     -23.624  83.814 -22.324  1.00  0.00    -0.350 N 
ATOM      4  H   UNL     1     -22.703  84.304 -22.404  1.00  0.00     0.345 HD
ATOM      5  H   UNL     1     -24.058  83.748 -23.274  1.00  0.00     0.345 HD
ATOM      6  H   UNL     1     -24.243  84.382 -21.701  1.00  0.00     0.345 HD
ENDBRANCH   2   3
BRANCH   2   7
ATOM      7  C   UNL     1     -22.114  81.904 -22.214  1.00  0.00     0.100 C 
ATOM      8  O   UNL     1     -21.338  82.593 -22.927  1.00  0.00    -0.544 OA
ATOM      9  O   UNL     1     -21.753  80.607 -21.864  1.00  0.00    -0.544 OA
ENDBRANCH   2   7
ENDBRANCH   1   2
BRANCH   1  10
ATOM     10  C   UNL     1     -22.311  83.270 -19.637  1.00  0.00     0.223 C 
ATOM     11  O   UNL     1     -22.104  84.471 -19.954  1.00  0.00    -0.275 OA
ATOM     12  N   UNL     1     -21.402  82.602 -18.762  1.00  0.00    -0.369 N 
ATOM     13  H   UNL     1     -21.552  81.601 -18.503  1.00  0.00     0.159 HD
ATOM     14  H   UNL     1     -20.575  83.108 -18.374  1.00  0.00     0.159 HD
ENDBRANCH   1  10
TORSDOF 4
ENDMDL
MODEL 2
REMARK VINA RESULT:    -4.082      1.256      1.306
REMARK INTER + INTRA:          -5.286
REMARK INTER:                  -4.829
REMARK INTRA:                  -0.456
REMARK UNBOUND:                -0.369
REMARK SMILES NC(=O)C[C@@H]([NH3+])C(=O)[O-]
REMARK SMILES IDX 4 1 5 2 6 3 7 7 8 8 9 9 2 10 3 11 1 12
REMARK H PARENT 6 4 6 5 6 6 1 13 1 14
REMARK Flexibility Score: inf
ROOT
ATOM      1  C   UNL     1     -22.796  83.087 -20.885  1.00  0.00     0.171 C 
ENDROOT
BRANCH   1   2
ATOM      2  C   UNL     1     -21.955  83.044 -22.176  1.00  0.00     0.237 C 
BRANCH   2   3
ATOM      3  N   UNL     1     -20.794  83.933 -22.062  1.00  0.00    -0.350 N 
ATOM      4  H   UNL     1     -20.631  84.421 -22.973  1.00  0.00     0.345 HD
ATOM      5  H   UNL     1     -20.947  84.649 -21.314  1.00  0.00     0.345 HD
ATOM      6  H   UNL     1     -19.939  83.374 -21.834  1.00  0.00     0.345 HD
ENDBRANCH   2   3
BRANCH   2   7
ATOM      7  C   UNL     1     -21.504  81.638 -22.476  1.00  0.00     0.100 C 
ATOM      8  O   UNL     1     -21.044  81.349 -23.613  1.00  0.00    -0.544 OA
ATOM      9  O   UNL     1     -21.597  80.648 -21.504  1.00  0.00    -0.544 OA
ENDBRANCH   2   7
ENDBRANCH   1   2
BRANCH   1  10
ATOM     10  C   UNL     1     -21.975  83.507 -19.701  1.00  0.00     0.223 C 
ATOM     11  O   UNL     1     -21.740  84.729 -19.501  1.00  0.00    -0.275 OA
ATOM     12  N   UNL     1     -21.424  82.528 -18.820  1.00  0.00    -0.369 N 
ATOM     13  H   UNL     1     -21.596  81.511 -18.982  1.00  0.00     0.159 HD
ATOM     14  H   UNL     1     -20.841  82.821 -18.004  1.00  0.00     0.159 HD
ENDBRANCH   1  10
TORSDOF 4
ENDMDL
MODEL 3
REMARK VINA RESULT:    -3.957      1.979      2.921
REMARK INTER + INTRA:          -5.135
REMARK INTER:                  -4.959
REMARK INTRA:                  -0.176
REMARK UNBOUND:                -0.369
REMARK SMILES NC(=O)C[C@@H]([NH3+])C(=O)[O-]
REMARK SMILES IDX 4 1 5 2 6 3 7 7 8 8 9 9 2 10 3 11 1 12
REMARK H PARENT 6 4 6 5 6 6 1 13 1 14
REMARK Flexibility Score: inf
ROOT
ATOM      1  C   UNL     1     -22.200  84.311 -20.596  1.00  0.00     0.171 C 
ENDROOT
BRANCH   1   2
ATOM      2  C   UNL     1     -21.532  82.961 -20.272  1.00  0.00     0.237 C 
BRANCH   2   3
ATOM      3  N   UNL     1     -21.540  82.717 -18.826  1.00  0.00    -0.350 N 
ATOM      4  H   UNL     1     -21.451  81.692 -18.638  1.00  0.00     0.345 HD
ATOM      5  H   UNL     1     -20.745  83.218 -18.362  1.00  0.00     0.345 HD
ATOM      6  H   UNL     1     -22.443  83.048 -18.414  1.00  0.00     0.345 HD
ENDBRANCH   2   3
BRANCH   2   7
ATOM      7  C   UNL     1     -22.226  81.832 -20.990  1.00  0.00     0.100 C 
ATOM      8  O   UNL     1     -21.552  80.953 -21.590  1.00  0.00    -0.544 OA
ATOM      9  O   UNL     1     -23.615  81.757 -21.002  1.00  0.00    -0.544 OA
ENDBRANCH   2   7
ENDBRANCH   1   2
BRANCH   1  10
ATOM     10  C   UNL     1     -22.017  84.689 -22.038  1.00  0.00     0.223 C 
ATOM     11  O   UNL     1     -23.021  84.976 -22.743  1.00  0.00    -0.275 OA
ATOM     12  N   UNL     1     -20.717  84.688 -22.625  1.00  0.00    -0.369 N 
ATOM     13  H   UNL     1     -19.877  84.437 -22.057  1.00  0.00     0.159 HD
ATOM     14  H   UNL     1     -20.592  84.938 -23.632  1.00  0.00     0.159 HD
ENDBRANCH   1  10
TORSDOF 4
ENDMDL
MODEL 4
REMARK VINA RESULT:    -3.950      2.327      2.861
REMARK INTER + INTRA:          -5.127
REMARK INTER:                  -4.909
REMARK INTRA:                  -0.218
REMARK UNBOUND:                -0.369
REMARK SMILES NC(=O)C[C@@H]([NH3+])C(=O)[O-]
REMARK SMILES IDX 4 1 5 2 6 3 7 7 8 8 9 9 2 10 3 11 1 12
REMARK H PARENT 6 4 6 5 6 6 1 13 1 14
REMARK Flexibility Score: inf
ROOT
ATOM      1  C   UNL     1     -22.358  84.397 -20.561  1.00  0.00     0.171 C 
ENDROOT
BRANCH   1   2
ATOM      2  C   UNL     1     -22.540  84.176 -22.075  1.00  0.00     0.237 C 
BRANCH   2   3
ATOM      3  N   UNL     1     -23.915  83.761 -22.372  1.00  0.00    -0.350 N 
ATOM      4  H   UNL     1     -24.456  84.572 -22.753  1.00  0.00     0.345 HD
ATOM      5  H   UNL     1     -23.924  82.985 -23.075  1.00  0.00     0.345 HD
ATOM      6  H   UNL     1     -24.387  83.437 -21.496  1.00  0.00     0.345 HD
ENDBRANCH   2   3
BRANCH   2   7
ATOM      7  C   UNL     1     -22.200  85.427 -22.845  1.00  0.00     0.100 C 
ATOM      8  O   UNL     1     -21.152  86.072 -22.574  1.00  0.00    -0.544 OA
ATOM      9  O   UNL     1     -23.043  85.882 -23.853  1.00  0.00    -0.544 OA
ENDBRANCH   2   7
ENDBRANCH   1   2
BRANCH   1  10
ATOM     10  C   UNL     1     -22.521  83.119 -19.790  1.00  0.00     0.223 C 
ATOM     11  O   UNL     1     -23.566  82.430 -19.930  1.00  0.00    -0.275 OA
ATOM     12  N   UNL     1     -21.515  82.699 -18.869  1.00  0.00    -0.369 N 
ATOM     13  H   UNL     1     -20.650  83.268 -18.730  1.00  0.00     0.159 HD
ATOM     14  H   UNL     1     -21.634  81.817 -18.323  1.00  0.00     0.159 HD
ENDBRANCH   1  10
TORSDOF 4
ENDMDL
MODEL 5
REMARK VINA RESULT:    -3.890      2.071      2.340
REMARK INTER + INTRA:          -5.055
REMARK INTER:                  -4.751
REMARK INTRA:                  -0.303
REMARK UNBOUND:                -0.369
REMARK SMILES NC(=O)C[C@@H]([NH3+])C(=O)[O-]
REMARK SMILES IDX 4 1 5 2 6 3 7 7 8 8 9 9 2 10 3 11 1 12
REMARK H PARENT 6 4 6 5 6 6 1 13 1 14
REMARK Flexibility Score: inf
ROOT
ATOM      1  C   UNL     1     -21.574  83.001 -21.211  1.00  0.00     0.171 C 
ENDROOT
BRANCH   1   2
ATOM      2  C   UNL     1     -22.975  82.880 -21.841  1.00  0.00     0.237 C 
BRANCH   2   3
ATOM      3  N   UNL     1     -23.997  82.740 -20.798  1.00  0.00    -0.350 N 
ATOM      4  H   UNL     1     -24.931  82.574 -21.237  1.00  0.00     0.345 HD
ATOM      5  H   UNL     1     -23.771  81.939 -20.163  1.00  0.00     0.345 HD
ATOM      6  H   UNL     1     -24.053  83.620 -20.234  1.00  0.00     0.345 HD
ENDBRANCH   2   3
BRANCH   2   7
ATOM      7  C   UNL     1     -23.280  84.075 -22.707  1.00  0.00     0.100 C 
ATOM      8  O   UNL     1     -24.311  84.086 -23.431  1.00  0.00    -0.544 OA
ATOM      9  O   UNL     1     -22.423  85.170 -22.719  1.00  0.00    -0.544 OA
ENDBRANCH   2   7
ENDBRANCH   1   2
BRANCH   1  10
ATOM     10  C   UNL     1     -21.646  83.420 -19.771  1.00  0.00     0.223 C 
ATOM     11  O   UNL     1     -21.915  84.615 -19.479  1.00  0.00    -0.275 OA
ATOM     12  N   UNL     1     -21.375  82.481 -18.732  1.00  0.00    -0.369 N 
ATOM     13  H   UNL     1     -21.135  81.490 -18.959  1.00  0.00     0.159 HD
ATOM     14  H   UNL     1     -21.412  82.776 -17.731  1.00  0.00     0.159 HD
ENDBRANCH   1  10
TORSDOF 4
ENDMDL
MODEL 6
REMARK VINA RESULT:    -3.810      2.357      2.760
REMARK INTER + INTRA:          -4.958
REMARK INTER:                  -4.628
REMARK INTRA:                  -0.330
REMARK UNBOUND:                -0.369
REMARK SMILES NC(=O)C[C@@H]([NH3+])C(=O)[O-]
REMARK SMILES IDX 4 1 5 2 6 3 7 7 8 8 9 9 2 10 3 11 1 12
REMARK H PARENT 6 4 6 5 6 6 1 13 1 14
REMARK Flexibility Score: inf
ROOT
ATOM      1  C   UNL     1     -22.503  84.321 -20.523  1.00  0.00     0.171 C 
ENDROOT
BRANCH   1   2
ATOM      2  C   UNL     1     -21.796  84.812 -21.802  1.00  0.00     0.237 C 
BRANCH   2   3
ATOM      3  N   UNL     1     -20.681  83.923 -22.146  1.00  0.00    -0.350 N 
ATOM      4  H   UNL     1     -19.903  84.048 -21.458  1.00  0.00     0.345 HD
ATOM      5  H   UNL     1     -20.989  82.923 -22.135  1.00  0.00     0.345 HD
ATOM      6  H   UNL     1     -20.317  84.161 -23.098  1.00  0.00     0.345 HD
ENDBRANCH   2   3
BRANCH   2   7
ATOM      7  C   UNL     1     -22.765  84.896 -22.953  1.00  0.00     0.100 C 
ATOM      8  O   UNL     1     -22.604  85.761 -23.855  1.00  0.00    -0.544 OA
ATOM      9  O   UNL     1     -23.847  84.026 -23.024  1.00  0.00    -0.544 OA
ENDBRANCH   2   7
ENDBRANCH   1   2
BRANCH   1  10
ATOM     10  C   UNL     1     -22.063  82.937 -20.142  1.00  0.00     0.223 C 
ATOM     11  O   UNL     1     -22.272  81.974 -20.927  1.00  0.00    -0.275 OA
ATOM     12  N   UNL     1     -21.444  82.699 -18.878  1.00  0.00    -0.369 N 
ATOM     13  H   UNL     1     -21.279  83.485 -18.210  1.00  0.00     0.159 HD
ATOM     14  H   UNL     1     -21.151  81.734 -18.608  1.00  0.00     0.159 HD
ENDBRANCH   1  10
TORSDOF 4
ENDMDL
MODEL 7
REMARK VINA RESULT:    -3.807     11.751     12.647
REMARK INTER + INTRA:          -4.955
REMARK INTER:                  -4.466
REMARK INTRA:                  -0.489
REMARK UNBOUND:                -0.369
REMARK SMILES NC(=O)C[C@@H]([NH3+])C(=O)[O-]
REMARK SMILES IDX 4 1 5 2 6 3 7 7 8 8 9 9 2 10 3 11 1 12
REMARK H PARENT 6 4 6 5 6 6 1 13 1 14
REMARK Flexibility Score: inf
ROOT
ATOM      1  C   UNL     1     -34.139  83.255 -19.979  1.00  0.00     0.171 C 
ENDROOT
BRANCH   1   2
ATOM      2  C   UNL     1     -35.253  82.771 -19.030  1.00  0.00     0.237 C 
BRANCH   2   3
ATOM      3  N   UNL     1     -34.724  81.797 -18.070  1.00  0.00    -0.350 N 
ATOM      4  H   UNL     1     -35.428  81.041 -17.908  1.00  0.00     0.345 HD
ATOM      5  H   UNL     1     -33.838  81.368 -18.429  1.00  0.00     0.345 HD
ATOM      6  H   UNL     1     -34.532  82.267 -17.155  1.00  0.00     0.345 HD
ENDBRANCH   2   3
BRANCH   2   7
ATOM      7  C   UNL     1     -35.877  83.932 -18.298  1.00  0.00     0.100 C 
ATOM      8  O   UNL     1     -37.098  83.903 -17.990  1.00  0.00    -0.544 OA
ATOM      9  O   UNL     1     -35.112  85.044 -17.965  1.00  0.00    -0.544 OA
ENDBRANCH   2   7
ENDBRANCH   1   2
BRANCH   1  10
ATOM     10  C   UNL     1     -32.778  83.092 -19.365  1.00  0.00     0.223 C 
ATOM     11  O   UNL     1     -32.169  81.994 -19.473  1.00  0.00    -0.275 OA
ATOM     12  N   UNL     1     -32.186  84.160 -18.627  1.00  0.00    -0.369 N 
ATOM     13  H   UNL     1     -32.686  85.071 -18.516  1.00  0.00     0.159 HD
ATOM     14  H   UNL     1     -31.245  84.041 -18.190  1.00  0.00     0.159 HD
ENDBRANCH   1  10
TORSDOF 4
ENDMDL
MODEL 8
REMARK VINA RESULT:    -3.710     11.301     11.943
REMARK INTER + INTRA:          -4.837
REMARK INTER:                  -4.379
REMARK INTRA:                  -0.458
REMARK UNBOUND:                -0.369
REMARK SMILES NC(=O)C[C@@H]([NH3+])C(=O)[O-]
REMARK SMILES IDX 4 1 5 2 6 3 7 7 8 8 9 9 2 10 3 11 1 12
REMARK H PARENT 6 4 6 5 6 6 1 13 1 14
REMARK Flexibility Score: inf
ROOT
ATOM      1  C   UNL     1     -34.516  83.878 -19.691  1.00  0.00     0.171 C 
ENDROOT
BRANCH   1   2
ATOM      2  C   UNL     1     -33.114  83.246 -19.585  1.00  0.00     0.237 C 
BRANCH   2   3
ATOM      3  N   UNL     1     -32.256  84.044 -18.703  1.00  0.00    -0.350 N 
ATOM      4  H   UNL     1     -31.445  84.422 -19.245  1.00  0.00     0.345 HD
ATOM      5  H   UNL     1     -32.792  84.843 -18.289  1.00  0.00     0.345 HD
ATOM      6  H   UNL     1     -31.882  83.444 -17.932  1.00  0.00     0.345 HD
ENDBRANCH   2   3
BRANCH   2   7
ATOM      7  C   UNL     1     -33.201  81.829 -19.078  1.00  0.00     0.100 C 
ATOM      8  O   UNL     1     -32.156  81.213 -18.739  1.00  0.00    -0.544 OA
ATOM      9  O   UNL     1     -34.432  81.190 -18.989  1.00  0.00    -0.544 OA
ENDBRANCH   2   7
ENDBRANCH   1   2
BRANCH   1  10
ATOM     10  C   UNL     1     -34.976  84.434 -18.374  1.00  0.00     0.223 C 
ATOM     11  O   UNL     1     -34.597  85.579 -18.010  1.00  0.00    -0.275 OA
ATOM     12  N   UNL     1     -35.807  83.657 -17.514  1.00  0.00    -0.369 N 
ATOM     13  H   UNL     1     -36.116  82.699 -17.795  1.00  0.00     0.159 HD
ATOM     14  H   UNL     1     -36.116  84.039 -16.592  1.00  0.00     0.159 HD
ENDBRANCH   1  10
TORSDOF 4
ENDMDL
MODEL 9
REMARK VINA RESULT:    -3.657     16.587     17.683
REMARK INTER + INTRA:          -4.774
REMARK INTER:                  -4.464
REMARK INTRA:                  -0.309
REMARK UNBOUND:                -0.369
REMARK SMILES NC(=O)C[C@@H]([NH3+])C(=O)[O-]
REMARK SMILES IDX 4 1 5 2 6 3 7 7 8 8 9 9 2 10 3 11 1 12
REMARK H PARENT 6 4 6 5 6 6 1 13 1 14
REMARK Flexibility Score: inf
ROOT
ATOM      1  C   UNL     1     -33.568  93.809 -27.540  1.00  0.00     0.171 C 
ENDROOT
BRANCH   1   2
ATOM      2  C   UNL     1     -34.100  93.760 -26.094  1.00  0.00     0.237 C 
BRANCH   2   3
ATOM      3  N   UNL     1     -33.223  94.523 -25.198  1.00  0.00    -0.350 N 
ATOM      4  H   UNL     1     -32.318  94.730 -25.680  1.00  0.00     0.345 HD
ATOM      5  H   UNL     1     -33.675  95.425 -24.919  1.00  0.00     0.345 HD
ATOM      6  H   UNL     1     -33.016  93.961 -24.340  1.00  0.00     0.345 HD
ENDBRANCH   2   3
BRANCH   2   7
ATOM      7  C   UNL     1     -35.506  94.297 -26.021  1.00  0.00     0.100 C 
ATOM      8  O   UNL     1     -35.898  95.160 -26.850  1.00  0.00    -0.544 OA
ATOM      9  O   UNL     1     -36.378  93.849 -25.035  1.00  0.00    -0.544 OA
ENDBRANCH   2   7
ENDBRANCH   1   2
BRANCH   1  10
ATOM     10  C   UNL     1     -32.382  94.721 -27.665  1.00  0.00     0.223 C 
ATOM     11  O   UNL     1     -31.241  94.319 -27.311  1.00  0.00    -0.275 OA
ATOM     12  N   UNL     1     -32.543  96.055 -28.146  1.00  0.00    -0.369 N 
ATOM     13  H   UNL     1     -33.486  96.407 -28.428  1.00  0.00     0.159 HD
ATOM     14  H   UNL     1     -31.720  96.693 -28.219  1.00  0.00     0.159 HD
ENDBRANCH   1  10
TORSDOF 4
ENDMDL
