MODEL 1
REMARK VINA RESULT:    -3.740      0.000      0.000
REMARK INTER + INTRA:          -4.869
REMARK INTER:                  -4.614
REMARK INTRA:                  -0.255
REMARK UNBOUND:                -0.255
REMARK SMILES CCCCCC(=O)[O-]
REMARK SMILES IDX 4 1 5 2 6 3 7 4 8 5 3 6 2 7 1 8
REMARK H PARENT
REMARK Flexibility Score: inf
ROOT
ATOM      1  C   UNL     1      10.105  13.722  21.798  1.00  0.00     0.006 C 
ENDROOT
BRANCH   1   2
ATOM      2  C   UNL     1      10.226  13.562  20.277  1.00  0.00     0.053 C 
BRANCH   2   3
ATOM      3  C   UNL     1      10.068  14.886  19.597  1.00  0.00     0.041 C 
ATOM      4  O   UNL     1       9.079  15.620  19.861  1.00  0.00    -0.550 OA
ATOM      5  O   UNL     1      10.987  15.286  18.635  1.00  0.00    -0.550 OA
ENDBRANCH   2   3
ENDBRANCH   1   2
BRANCH   1   6
ATOM      6  C   UNL     1      11.288  14.510  22.399  1.00  0.00     0.000 C 
BRANCH   6   7
ATOM      7  C   UNL     1      10.855  15.694  23.280  1.00  0.00    -0.003 C 
ATOM      8  C   UNL     1      11.058  17.049  22.605  1.00  0.00     0.004 C 
ENDBRANCH   6   7
ENDBRANCH   1   6
TORSDOF 4
ENDMDL
MODEL 2
REMARK VINA RESULT:    -3.567      1.364      2.317
REMARK INTER + INTRA:          -4.656
REMARK INTER:                  -4.393
REMARK INTRA:                  -0.263
REMARK UNBOUND:                -0.255
REMARK SMILES CCCCCC(=O)[O-]
REMARK SMILES IDX 4 1 5 2 6 3 7 4 8 5 3 6 2 7 1 8
REMARK H PARENT
REMARK Flexibility Score: inf
ROOT
ATOM      1  C   UNL     1      10.523  16.146  21.549  1.00  0.00     0.006 C 
ENDROOT
BRANCH   1   2
ATOM      2  C   UNL     1       9.674  15.486  20.455  1.00  0.00     0.053 C 
BRANCH   2   3
ATOM      3  C   UNL     1      10.547  14.759  19.482  1.00  0.00     0.041 C 
ATOM      4  O   UNL     1      11.249  15.401  18.657  1.00  0.00    -0.550 OA
ATOM      5  O   UNL     1      10.547  13.369  19.452  1.00  0.00    -0.550 OA
ENDBRANCH   2   3
ENDBRANCH   1   2
BRANCH   1   6
ATOM      6  C   UNL     1      11.240  15.108  22.438  1.00  0.00     0.000 C 
BRANCH   6   7
ATOM      7  C   UNL     1      10.280  14.246  23.276  1.00  0.00    -0.003 C 
ATOM      8  C   UNL     1      10.395  12.754  22.971  1.00  0.00     0.004 C 
ENDBRANCH   6   7
ENDBRANCH   1   6
TORSDOF 4
ENDMDL
MODEL 3
REMARK VINA RESULT:    -3.553      1.718      2.419
REMARK INTER + INTRA:          -4.639
REMARK INTER:                  -4.596
REMARK INTRA:                  -0.043
REMARK UNBOUND:                -0.255
REMARK SMILES CCCCCC(=O)[O-]
REMARK SMILES IDX 4 1 5 2 6 3 7 4 8 5 3 6 2 7 1 8
REMARK H PARENT
REMARK Flexibility Score: inf
ROOT
ATOM      1  C   UNL     1      10.737  15.834  21.483  1.00  0.00     0.006 C 
ENDROOT
BRANCH   1   2
ATOM      2  C   UNL     1       9.685  15.141  20.607  1.00  0.00     0.053 C 
BRANCH   2   3
ATOM      3  C   UNL     1      10.300  14.012  19.844  1.00  0.00     0.041 C 
ATOM      4  O   UNL     1      10.950  14.240  18.789  1.00  0.00    -0.550 OA
ATOM      5  O   UNL     1      10.114  12.702  20.269  1.00  0.00    -0.550 OA
ENDBRANCH   2   3
ENDBRANCH   1   2
BRANCH   1   6
ATOM      6  C   UNL     1      10.385  17.310  21.763  1.00  0.00     0.000 C 
BRANCH   6   7
ATOM      7  C   UNL     1      11.471  18.065  22.547  1.00  0.00    -0.003 C 
ATOM      8  C   UNL     1      10.995  19.414  23.083  1.00  0.00     0.004 C 
ENDBRANCH   6   7
ENDBRANCH   1   6
TORSDOF 4
ENDMDL
MODEL 4
REMARK VINA RESULT:    -3.539      1.036      1.590
REMARK INTER + INTRA:          -4.621
REMARK INTER:                  -4.403
REMARK INTRA:                  -0.218
REMARK UNBOUND:                -0.255
REMARK SMILES CCCCCC(=O)[O-]
REMARK SMILES IDX 4 1 5 2 6 3 7 4 8 5 3 6 2 7 1 8
REMARK H PARENT
REMARK Flexibility Score: inf
ROOT
ATOM      1  C   UNL     1      10.306  15.449  22.303  1.00  0.00     0.006 C 
ENDROOT
BRANCH   1   2
ATOM      2  C   UNL     1      10.981  14.793  21.091  1.00  0.00     0.053 C 
BRANCH   2   3
ATOM      3  C   UNL     1      10.303  15.210  19.825  1.00  0.00     0.041 C 
ATOM      4  O   UNL     1       9.083  15.526  19.834  1.00  0.00    -0.550 OA
ATOM      5  O   UNL     1      11.004  15.201  18.625  1.00  0.00    -0.550 OA
ENDBRANCH   2   3
ENDBRANCH   1   2
BRANCH   1   6
ATOM      6  C   UNL     1      11.209  16.505  22.975  1.00  0.00     0.000 C 
BRANCH   6   7
ATOM      7  C   UNL     1      11.241  17.851  22.233  1.00  0.00    -0.003 C 
ATOM      8  C   UNL     1       9.850  18.433  21.989  1.00  0.00     0.004 C 
ENDBRANCH   6   7
ENDBRANCH   1   6
TORSDOF 4
ENDMDL
MODEL 5
REMARK VINA RESULT:    -3.522      1.431      2.348
REMARK INTER + INTRA:          -4.600
REMARK INTER:                  -4.499
REMARK INTRA:                  -0.101
REMARK UNBOUND:                -0.255
REMARK SMILES CCCCCC(=O)[O-]
REMARK SMILES IDX 4 1 5 2 6 3 7 4 8 5 3 6 2 7 1 8
REMARK H PARENT
REMARK Flexibility Score: inf
ROOT
ATOM      1  C   UNL     1      11.129  14.595  21.971  1.00  0.00     0.006 C 
ENDROOT
BRANCH   1   2
ATOM      2  C   UNL     1      10.404  13.959  20.778  1.00  0.00     0.053 C 
BRANCH   2   3
ATOM      3  C   UNL     1      10.097  14.992  19.740  1.00  0.00     0.041 C 
ATOM      4  O   UNL     1       9.057  15.696  19.835  1.00  0.00    -0.550 OA
ATOM      5  O   UNL     1      10.935  15.143  18.642  1.00  0.00    -0.550 OA
ENDBRANCH   2   3
ENDBRANCH   1   2
BRANCH   1   6
ATOM      6  C   UNL     1      10.548  14.129  23.324  1.00  0.00     0.000 C 
BRANCH   6   7
ATOM      7  C   UNL     1       9.913  12.730  23.273  1.00  0.00    -0.003 C 
ATOM      8  C   UNL     1       9.809  12.069  24.646  1.00  0.00     0.004 C 
ENDBRANCH   6   7
ENDBRANCH   1   6
TORSDOF 4
ENDMDL
MODEL 6
REMARK VINA RESULT:    -3.365      2.560      3.521
REMARK INTER + INTRA:          -4.406
REMARK INTER:                  -4.191
REMARK INTRA:                  -0.215
REMARK UNBOUND:                -0.255
REMARK SMILES CCCCCC(=O)[O-]
REMARK SMILES IDX 4 1 5 2 6 3 7 4 8 5 3 6 2 7 1 8
REMARK H PARENT
REMARK Flexibility Score: inf
ROOT
ATOM      1  C   UNL     1      10.978  14.685  22.516  1.00  0.00     0.006 C 
ENDROOT
BRANCH   1   2
ATOM      2  C   UNL     1      10.088  13.799  23.396  1.00  0.00     0.053 C 
BRANCH   2   3
ATOM      3  C   UNL     1       9.776  12.513  22.698  1.00  0.00     0.041 C 
ATOM      4  O   UNL     1       8.871  11.755  23.140  1.00  0.00    -0.550 OA
ATOM      5  O   UNL     1      10.519  12.126  21.590  1.00  0.00    -0.550 OA
ENDBRANCH   2   3
ENDBRANCH   1   2
BRANCH   1   6
ATOM      6  C   UNL     1      10.174  15.785  21.790  1.00  0.00     0.000 C 
BRANCH   6   7
ATOM      7  C   UNL     1       9.728  15.388  20.373  1.00  0.00    -0.003 C 
ATOM      8  C   UNL     1      10.893  14.994  19.467  1.00  0.00     0.004 C 
ENDBRANCH   6   7
ENDBRANCH   1   6
TORSDOF 4
ENDMDL
MODEL 7
REMARK VINA RESULT:    -3.099     12.570     13.423
REMARK INTER + INTRA:          -4.078
REMARK INTER:                  -3.975
REMARK INTRA:                  -0.103
REMARK UNBOUND:                -0.255
REMARK SMILES CCCCCC(=O)[O-]
REMARK SMILES IDX 4 1 5 2 6 3 7 4 8 5 3 6 2 7 1 8
REMARK H PARENT
REMARK Flexibility Score: inf
ROOT
ATOM      1  C   UNL     1      22.040  19.541  25.397  1.00  0.00     0.006 C 
ENDROOT
BRANCH   1   2
ATOM      2  C   UNL     1      23.477  19.790  24.920  1.00  0.00     0.053 C 
BRANCH   2   3
ATOM      3  C   UNL     1      23.512  19.970  23.436  1.00  0.00     0.041 C 
ATOM      4  O   UNL     1      23.340  21.112  22.932  1.00  0.00    -0.550 OA
ATOM      5  O   UNL     1      23.685  18.869  22.606  1.00  0.00    -0.550 OA
ENDBRANCH   2   3
ENDBRANCH   1   2
BRANCH   1   6
ATOM      6  C   UNL     1      21.851  18.119  25.967  1.00  0.00     0.000 C 
BRANCH   6   7
ATOM      7  C   UNL     1      20.828  18.046  27.114  1.00  0.00    -0.003 C 
ATOM      8  C   UNL     1      19.938  19.284  27.202  1.00  0.00     0.004 C 
ENDBRANCH   6   7
ENDBRANCH   1   6
TORSDOF 4
ENDMDL
MODEL 8
REMARK VINA RESULT:    -3.068     12.988     13.858
REMARK INTER + INTRA:          -4.040
REMARK INTER:                  -3.881
REMARK INTRA:                  -0.159
REMARK UNBOUND:                -0.255
REMARK SMILES CCCCCC(=O)[O-]
REMARK SMILES IDX 4 1 5 2 6 3 7 4 8 5 3 6 2 7 1 8
REMARK H PARENT
REMARK Flexibility Score: inf
ROOT
ATOM      1  C   UNL     1      22.946  19.454  25.811  1.00  0.00     0.006 C 
ENDROOT
BRANCH   1   2
ATOM      2  C   UNL     1      24.085  19.392  24.785  1.00  0.00     0.053 C 
BRANCH   2   3
ATOM      3  C   UNL     1      23.572  19.704  23.415  1.00  0.00     0.041 C 
ATOM      4  O   UNL     1      23.622  18.833  22.506  1.00  0.00    -0.550 OA
ATOM      5  O   UNL     1      23.085  20.973  23.128  1.00  0.00    -0.550 OA
ENDBRANCH   2   3
ENDBRANCH   1   2
BRANCH   1   6
ATOM      6  C   UNL     1      21.881  18.362  25.570  1.00  0.00     0.000 C 
BRANCH   6   7
ATOM      7  C   UNL     1      21.492  17.590  26.842  1.00  0.00    -0.003 C 
ATOM      8  C   UNL     1      22.675  17.339  27.776  1.00  0.00     0.004 C 
ENDBRANCH   6   7
ENDBRANCH   1   6
TORSDOF 4
ENDMDL
MODEL 9
REMARK VINA RESULT:    -3.056      2.045      3.460
REMARK INTER + INTRA:          -4.025
REMARK INTER:                  -3.796
REMARK INTRA:                  -0.229
REMARK UNBOUND:                -0.255
REMARK SMILES CCCCCC(=O)[O-]
REMARK SMILES IDX 4 1 5 2 6 3 7 4 8 5 3 6 2 7 1 8
REMARK H PARENT
REMARK Flexibility Score: inf
ROOT
ATOM      1  C   UNL     1       9.706  14.445  22.462  1.00  0.00     0.006 C 
ENDROOT
BRANCH   1   2
ATOM      2  C   UNL     1      10.768  15.378  23.059  1.00  0.00     0.053 C 
BRANCH   2   3
ATOM      3  C   UNL     1      10.370  16.808  22.877  1.00  0.00     0.041 C 
ATOM      4  O   UNL     1       9.446  17.113  22.076  1.00  0.00    -0.550 OA
ATOM      5  O   UNL     1      11.054  17.811  23.553  1.00  0.00    -0.550 OA
ENDBRANCH   2   3
ENDBRANCH   1   2
BRANCH   1   6
ATOM      6  C   UNL     1      10.257  13.607  21.288  1.00  0.00     0.000 C 
BRANCH   6   7
ATOM      7  C   UNL     1       9.979  14.225  19.907  1.00  0.00    -0.003 C 
ATOM      8  C   UNL     1      11.082  15.172  19.441  1.00  0.00     0.004 C 
ENDBRANCH   6   7
ENDBRANCH   1   6
TORSDOF 4
ENDMDL
