MODEL 1
REMARK VINA RESULT:     8.119      0.000      0.000
REMARK INTER + INTRA:          14.521
REMARK INTER:                  14.763
REMARK INTRA:                  -0.243
REMARK UNBOUND:                -0.243
REMARK SMILES CCCCCCCCCCCCCC[C@H](C)C(=O)[O-]
REMARK SMILES IDX 9 1 10 2 11 3 12 4 13 5 14 6 15 7 16 8 17 9 18 10 19 11 8 12
REMARK SMILES IDX 7 13 6 14 5 15 4 16 3 17 2 18 1 19
REMARK H PARENT
REMARK Flexibility Score: inf
ROOT
ATOM      1  C   UNL     1      -6.631  20.251 -12.332  1.00  0.00     0.000 C 
ENDROOT
BRANCH   1   2
ATOM      2  C   UNL     1      -6.242  21.734 -12.486  1.00  0.00     0.000 C 
BRANCH   2   3
ATOM      3  C   UNL     1      -5.314  22.279 -11.383  1.00  0.00     0.000 C 
BRANCH   3   4
ATOM      4  C   UNL     1      -4.475  23.498 -11.825  1.00  0.00     0.000 C 
BRANCH   4   5
ATOM      5  C   UNL     1      -4.915  24.795 -11.124  1.00  0.00     0.001 C 
BRANCH   5   6
ATOM      6  C   UNL     1      -4.081  26.020 -11.545  1.00  0.00     0.009 C 
BRANCH   6   7
ATOM      7  C   UNL     1      -4.458  27.343 -10.838  1.00  0.00     0.032 C 
ATOM      8  C   UNL     1      -4.796  27.140  -9.355  1.00  0.00     0.014 C 
BRANCH   7   9
ATOM      9  C   UNL     1      -5.625  27.979 -11.545  1.00  0.00     0.044 C 
ATOM     10  O   UNL     1      -6.712  27.355 -11.677  1.00  0.00    -0.550 OA
ATOM     11  O   UNL     1      -5.502  29.259 -12.072  1.00  0.00    -0.550 OA
ENDBRANCH   7   9
ENDBRANCH   6   7
ENDBRANCH   5   6
ENDBRANCH   4   5
ENDBRANCH   3   4
ENDBRANCH   2   3
ENDBRANCH   1   2
BRANCH   1  12
ATOM     12  C   UNL     1      -6.461  19.680 -10.912  1.00  0.00     0.000 C 
BRANCH  12  13
ATOM     13  C   UNL     1      -5.495  18.487 -10.859  1.00  0.00    -0.000 C 
BRANCH  13  14
ATOM     14  C   UNL     1      -4.039  18.963 -10.786  1.00  0.00    -0.000 C 
BRANCH  14  15
ATOM     15  C   UNL     1      -3.090  17.790 -10.497  1.00  0.00    -0.000 C 
BRANCH  15  16
ATOM     16  C   UNL     1      -3.536  16.480 -11.172  1.00  0.00    -0.000 C 
BRANCH  16  17
ATOM     17  C   UNL     1      -4.477  15.597 -10.327  1.00  0.00    -0.000 C 
BRANCH  17  18
ATOM     18  C   UNL     1      -4.098  14.107 -10.278  1.00  0.00    -0.003 C 
ATOM     19  C   UNL     1      -2.588  13.875 -10.286  1.00  0.00     0.004 C 
ENDBRANCH  17  18
ENDBRANCH  16  17
ENDBRANCH  15  16
ENDBRANCH  14  15
ENDBRANCH  13  14
ENDBRANCH  12  13
ENDBRANCH   1  12
TORSDOF 14
ENDMDL
MODEL 2
REMARK VINA RESULT:     8.220      5.770      8.698
REMARK INTER + INTRA:          14.704
REMARK INTER:                  15.411
REMARK INTRA:                  -0.707
REMARK UNBOUND:                -0.243
REMARK SMILES CCCCCCCCCCCCCC[C@H](C)C(=O)[O-]
REMARK SMILES IDX 9 1 10 2 11 3 12 4 13 5 14 6 15 7 16 8 17 9 18 10 19 11 8 12
REMARK SMILES IDX 7 13 6 14 5 15 4 16 3 17 2 18 1 19
REMARK H PARENT
REMARK Flexibility Score: inf
ROOT
ATOM      1  C   UNL     1      -6.313  19.580 -11.533  1.00  0.00     0.000 C 
ENDROOT
BRANCH   1   2
ATOM      2  C   UNL     1      -5.561  20.739 -10.851  1.00  0.00     0.000 C 
BRANCH   2   3
ATOM      3  C   UNL     1      -4.051  20.801 -11.156  1.00  0.00     0.000 C 
BRANCH   3   4
ATOM      4  C   UNL     1      -3.245  19.641 -10.532  1.00  0.00     0.000 C 
BRANCH   4   5
ATOM      5  C   UNL     1      -3.450  18.316 -11.286  1.00  0.00     0.001 C 
BRANCH   5   6
ATOM      6  C   UNL     1      -3.317  17.079 -10.377  1.00  0.00     0.009 C 
BRANCH   6   7
ATOM      7  C   UNL     1      -3.850  15.760 -10.984  1.00  0.00     0.032 C 
ATOM      8  C   UNL     1      -5.383  15.691 -10.984  1.00  0.00     0.014 C 
BRANCH   7   9
ATOM      9  C   UNL     1      -3.286  14.590 -10.225  1.00  0.00     0.044 C 
ATOM     10  O   UNL     1      -2.086  14.241 -10.383  1.00  0.00    -0.550 OA
ATOM     11  O   UNL     1      -4.097  13.875  -9.350  1.00  0.00    -0.550 OA
ENDBRANCH   7   9
ENDBRANCH   6   7
ENDBRANCH   5   6
ENDBRANCH   4   5
ENDBRANCH   3   4
ENDBRANCH   2   3
ENDBRANCH   1   2
BRANCH   1  12
ATOM     12  C   UNL     1      -6.871  19.902 -12.932  1.00  0.00     0.000 C 
BRANCH  12  13
ATOM     13  C   UNL     1      -6.774  21.394 -13.285  1.00  0.00    -0.000 C 
BRANCH  13  14
ATOM     14  C   UNL     1      -6.587  21.589 -14.795  1.00  0.00    -0.000 C 
BRANCH  14  15
ATOM     15  C   UNL     1      -6.441  20.237 -15.510  1.00  0.00    -0.000 C 
BRANCH  15  16
ATOM     16  C   UNL     1      -5.667  20.343 -16.836  1.00  0.00    -0.000 C 
BRANCH  16  17
ATOM     17  C   UNL     1      -6.201  19.454 -17.978  1.00  0.00    -0.000 C 
BRANCH  17  18
ATOM     18  C   UNL     1      -5.875  17.957 -17.842  1.00  0.00    -0.003 C 
ATOM     19  C   UNL     1      -7.059  17.056 -18.193  1.00  0.00     0.004 C 
ENDBRANCH  17  18
ENDBRANCH  16  17
ENDBRANCH  15  16
ENDBRANCH  14  15
ENDBRANCH  13  14
ENDBRANCH  12  13
ENDBRANCH   1  12
TORSDOF 14
ENDMDL
MODEL 3
REMARK VINA RESULT:     9.684      4.827      9.916
REMARK INTER + INTRA:          17.366
REMARK INTER:                  15.960
REMARK INTRA:                   1.406
REMARK UNBOUND:                -0.243
REMARK SMILES CCCCCCCCCCCCCC[C@H](C)C(=O)[O-]
REMARK SMILES IDX 9 1 10 2 11 3 12 4 13 5 14 6 15 7 16 8 17 9 18 10 19 11 8 12
REMARK SMILES IDX 7 13 6 14 5 15 4 16 3 17 2 18 1 19
REMARK H PARENT
REMARK Flexibility Score: inf
ROOT
ATOM      1  C   UNL     1      -6.569  20.062 -11.907  1.00  0.00     0.000 C 
ENDROOT
BRANCH   1   2
ATOM      2  C   UNL     1      -5.499  19.379 -11.034  1.00  0.00     0.000 C 
BRANCH   2   3
ATOM      3  C   UNL     1      -4.126  20.079 -11.022  1.00  0.00     0.000 C 
BRANCH   3   4
ATOM      4  C   UNL     1      -2.990  19.207 -10.443  1.00  0.00     0.000 C 
BRANCH   4   5
ATOM      5  C   UNL     1      -2.952  17.804 -11.073  1.00  0.00     0.001 C 
BRANCH   5   6
ATOM      6  C   UNL     1      -3.953  16.827 -10.428  1.00  0.00     0.009 C 
BRANCH   6   7
ATOM      7  C   UNL     1      -4.008  15.423 -11.076  1.00  0.00     0.032 C 
ATOM      8  C   UNL     1      -5.442  14.986 -11.407  1.00  0.00     0.014 C 
BRANCH   7   9
ATOM      9  C   UNL     1      -3.366  14.418 -10.159  1.00  0.00     0.044 C 
ATOM     10  O   UNL     1      -3.936  14.069  -9.090  1.00  0.00    -0.550 OA
ATOM     11  O   UNL     1      -2.128  13.876 -10.482  1.00  0.00    -0.550 OA
ENDBRANCH   7   9
ENDBRANCH   6   7
ENDBRANCH   5   6
ENDBRANCH   4   5
ENDBRANCH   3   4
ENDBRANCH   2   3
ENDBRANCH   1   2
BRANCH   1  12
ATOM     12  C   UNL     1      -6.343  21.565 -12.152  1.00  0.00     0.000 C 
BRANCH  12  13
ATOM     13  C   UNL     1      -5.216  22.150 -11.287  1.00  0.00    -0.000 C 
BRANCH  13  14
ATOM     14  C   UNL     1      -4.710  23.475 -11.869  1.00  0.00    -0.000 C 
BRANCH  14  15
ATOM     15  C   UNL     1      -5.233  24.669 -11.055  1.00  0.00    -0.000 C 
BRANCH  15  16
ATOM     16  C   UNL     1      -4.355  25.925 -11.202  1.00  0.00    -0.000 C 
BRANCH  16  17
ATOM     17  C   UNL     1      -4.982  27.227 -10.662  1.00  0.00    -0.000 C 
BRANCH  17  18
ATOM     18  C   UNL     1      -5.924  27.949 -11.640  1.00  0.00    -0.003 C 
ATOM     19  C   UNL     1      -5.414  29.330 -12.049  1.00  0.00     0.004 C 
ENDBRANCH  17  18
ENDBRANCH  16  17
ENDBRANCH  15  16
ENDBRANCH  14  15
ENDBRANCH  13  14
ENDBRANCH  12  13
ENDBRANCH   1  12
TORSDOF 14
ENDMDL
MODEL 4
REMARK VINA RESULT:    10.296      4.871      7.216
REMARK INTER + INTRA:          18.480
REMARK INTER:                  17.602
REMARK INTRA:                   0.878
REMARK UNBOUND:                -0.243
REMARK SMILES CCCCCCCCCCCCCC[C@H](C)C(=O)[O-]
REMARK SMILES IDX 9 1 10 2 11 3 12 4 13 5 14 6 15 7 16 8 17 9 18 10 19 11 8 12
REMARK SMILES IDX 7 13 6 14 5 15 4 16 3 17 2 18 1 19
REMARK H PARENT
REMARK Flexibility Score: inf
ROOT
ATOM      1  C   UNL     1      -6.011  16.577 -10.718  1.00  0.00     0.000 C 
ENDROOT
BRANCH   1   2
ATOM      2  C   UNL     1      -4.914  15.496 -10.744  1.00  0.00     0.000 C 
BRANCH   2   3
ATOM      3  C   UNL     1      -3.471  16.033 -10.686  1.00  0.00     0.000 C 
BRANCH   3   4
ATOM      4  C   UNL     1      -3.373  17.498 -10.207  1.00  0.00     0.000 C 
BRANCH   4   5
ATOM      5  C   UNL     1      -3.426  18.499 -11.373  1.00  0.00     0.001 C 
BRANCH   5   6
ATOM      6  C   UNL     1      -3.747  19.936 -10.920  1.00  0.00     0.009 C 
BRANCH   6   7
ATOM      7  C   UNL     1      -5.254  20.262 -10.796  1.00  0.00     0.032 C 
ATOM      8  C   UNL     1      -6.145  19.059 -11.138  1.00  0.00     0.014 C 
BRANCH   7   9
ATOM      9  C   UNL     1      -5.596  21.421 -11.692  1.00  0.00     0.044 C 
ATOM     10  O   UNL     1      -5.070  22.551 -11.507  1.00  0.00    -0.550 OA
ATOM     11  O   UNL     1      -6.511  21.253 -12.725  1.00  0.00    -0.550 OA
ENDBRANCH   7   9
ENDBRANCH   6   7
ENDBRANCH   5   6
ENDBRANCH   4   5
ENDBRANCH   3   4
ENDBRANCH   2   3
ENDBRANCH   1   2
BRANCH   1  12
ATOM     12  C   UNL     1      -7.401  16.081 -10.279  1.00  0.00     0.000 C 
BRANCH  12  13
ATOM     13  C   UNL     1      -7.714  16.401  -8.810  1.00  0.00    -0.000 C 
BRANCH  13  14
ATOM     14  C   UNL     1      -9.089  15.852  -8.410  1.00  0.00    -0.000 C 
BRANCH  14  15
ATOM     15  C   UNL     1      -9.886  16.895  -7.611  1.00  0.00    -0.000 C 
BRANCH  15  16
ATOM     16  C   UNL     1     -11.357  16.491  -7.400  1.00  0.00    -0.000 C 
BRANCH  16  17
ATOM     17  C   UNL     1     -11.794  16.364  -5.927  1.00  0.00    -0.000 C 
BRANCH  17  18
ATOM     18  C   UNL     1     -13.126  15.627  -5.706  1.00  0.00    -0.003 C 
ATOM     19  C   UNL     1     -12.943  14.224  -5.127  1.00  0.00     0.004 C 
ENDBRANCH  17  18
ENDBRANCH  16  17
ENDBRANCH  15  16
ENDBRANCH  14  15
ENDBRANCH  13  14
ENDBRANCH  12  13
ENDBRANCH   1  12
TORSDOF 14
ENDMDL
MODEL 5
REMARK VINA RESULT:    10.425      4.198      9.624
REMARK INTER + INTRA:          18.715
REMARK INTER:                  19.083
REMARK INTRA:                  -0.369
REMARK UNBOUND:                -0.243
REMARK SMILES CCCCCCCCCCCCCC[C@H](C)C(=O)[O-]
REMARK SMILES IDX 9 1 10 2 11 3 12 4 13 5 14 6 15 7 16 8 17 9 18 10 19 11 8 12
REMARK SMILES IDX 7 13 6 14 5 15 4 16 3 17 2 18 1 19
REMARK H PARENT
REMARK Flexibility Score: inf
ROOT
ATOM      1  C   UNL     1      -6.404  21.735 -11.486  1.00  0.00     0.000 C 
ENDROOT
BRANCH   1   2
ATOM      2  C   UNL     1      -6.532  20.265 -11.927  1.00  0.00     0.000 C 
BRANCH   2   3
ATOM      3  C   UNL     1      -5.713  19.262 -11.092  1.00  0.00     0.000 C 
BRANCH   3   4
ATOM      4  C   UNL     1      -4.186  19.431 -11.244  1.00  0.00     0.000 C 
BRANCH   4   5
ATOM      5  C   UNL     1      -3.399  18.461 -10.347  1.00  0.00     0.001 C 
BRANCH   5   6
ATOM      6  C   UNL     1      -3.127  17.103 -11.021  1.00  0.00     0.009 C 
BRANCH   6   7
ATOM      7  C   UNL     1      -3.469  15.864 -10.160  1.00  0.00     0.032 C 
ATOM      8  C   UNL     1      -2.321  14.846 -10.114  1.00  0.00     0.014 C 
BRANCH   7   9
ATOM      9  C   UNL     1      -4.713  15.206 -10.694  1.00  0.00     0.044 C 
ATOM     10  O   UNL     1      -5.797  15.846 -10.764  1.00  0.00    -0.550 OA
ATOM     11  O   UNL     1      -4.675  13.878 -11.102  1.00  0.00    -0.550 OA
ENDBRANCH   7   9
ENDBRANCH   6   7
ENDBRANCH   5   6
ENDBRANCH   4   5
ENDBRANCH   3   4
ENDBRANCH   2   3
ENDBRANCH   1   2
BRANCH   1  12
ATOM     12  C   UNL     1      -4.963  22.276 -11.444  1.00  0.00     0.000 C 
BRANCH  12  13
ATOM     13  C   UNL     1      -4.864  23.750 -11.865  1.00  0.00    -0.000 C 
BRANCH  13  14
ATOM     14  C   UNL     1      -3.656  24.429 -11.209  1.00  0.00    -0.000 C 
BRANCH  14  15
ATOM     15  C   UNL     1      -3.514  25.882 -11.687  1.00  0.00    -0.000 C 
BRANCH  15  16
ATOM     16  C   UNL     1      -4.212  26.889 -10.755  1.00  0.00    -0.000 C 
BRANCH  16  17
ATOM     17  C   UNL     1      -5.024  27.988 -11.470  1.00  0.00    -0.000 C 
BRANCH  17  18
ATOM     18  C   UNL     1      -6.546  27.765 -11.484  1.00  0.00    -0.003 C 
ATOM     19  C   UNL     1      -6.992  26.640 -10.551  1.00  0.00     0.004 C 
ENDBRANCH  17  18
ENDBRANCH  16  17
ENDBRANCH  15  16
ENDBRANCH  14  15
ENDBRANCH  13  14
ENDBRANCH  12  13
ENDBRANCH   1  12
TORSDOF 14
ENDMDL
MODEL 6
REMARK VINA RESULT:    10.452      3.650      5.670
REMARK INTER + INTRA:          18.763
REMARK INTER:                  16.491
REMARK INTRA:                   2.273
REMARK UNBOUND:                -0.243
REMARK SMILES CCCCCCCCCCCCCC[C@H](C)C(=O)[O-]
REMARK SMILES IDX 9 1 10 2 11 3 12 4 13 5 14 6 15 7 16 8 17 9 18 10 19 11 8 12
REMARK SMILES IDX 7 13 6 14 5 15 4 16 3 17 2 18 1 19
REMARK H PARENT
REMARK Flexibility Score: inf
ROOT
ATOM      1  C   UNL     1      -3.019  16.393 -10.765  1.00  0.00     0.000 C 
ENDROOT
BRANCH   1   2
ATOM      2  C   UNL     1      -3.579  17.776 -10.381  1.00  0.00     0.000 C 
BRANCH   2   3
ATOM      3  C   UNL     1      -3.371  18.877 -11.439  1.00  0.00     0.000 C 
BRANCH   3   4
ATOM      4  C   UNL     1      -2.872  20.215 -10.851  1.00  0.00     0.000 C 
BRANCH   4   5
ATOM      5  C   UNL     1      -4.029  21.119 -10.391  1.00  0.00     0.001 C 
BRANCH   5   6
ATOM      6  C   UNL     1      -4.925  21.588 -11.553  1.00  0.00     0.009 C 
BRANCH   6   7
ATOM      7  C   UNL     1      -6.339  20.962 -11.583  1.00  0.00     0.032 C 
ATOM      8  C   UNL     1      -6.423  19.660 -10.774  1.00  0.00     0.014 C 
BRANCH   7   9
ATOM      9  C   UNL     1      -6.747  20.704 -13.009  1.00  0.00     0.044 C 
ATOM     10  O   UNL     1      -7.173  19.571 -13.359  1.00  0.00    -0.550 OA
ATOM     11  O   UNL     1      -6.641  21.718 -13.954  1.00  0.00    -0.550 OA
ENDBRANCH   7   9
ENDBRANCH   6   7
ENDBRANCH   5   6
ENDBRANCH   4   5
ENDBRANCH   3   4
ENDBRANCH   2   3
ENDBRANCH   1   2
BRANCH   1  12
ATOM     12  C   UNL     1      -2.776  15.440  -9.580  1.00  0.00     0.000 C 
BRANCH  12  13
ATOM     13  C   UNL     1      -3.101  13.976  -9.913  1.00  0.00    -0.000 C 
BRANCH  13  14
ATOM     14  C   UNL     1      -4.381  13.875 -10.752  1.00  0.00    -0.000 C 
BRANCH  14  15
ATOM     15  C   UNL     1      -4.671  15.200 -11.475  1.00  0.00    -0.000 C 
BRANCH  15  16
ATOM     16  C   UNL     1      -6.143  15.635 -11.358  1.00  0.00    -0.000 C 
BRANCH  16  17
ATOM     17  C   UNL     1      -7.010  15.346 -12.601  1.00  0.00    -0.000 C 
BRANCH  17  18
ATOM     18  C   UNL     1      -8.374  16.056 -12.621  1.00  0.00    -0.003 C 
ATOM     19  C   UNL     1      -8.597  16.882 -13.888  1.00  0.00     0.004 C 
ENDBRANCH  17  18
ENDBRANCH  16  17
ENDBRANCH  15  16
ENDBRANCH  14  15
ENDBRANCH  13  14
ENDBRANCH  12  13
ENDBRANCH   1  12
TORSDOF 14
ENDMDL
MODEL 7
REMARK VINA RESULT:    10.526      4.584      6.752
REMARK INTER + INTRA:          18.898
REMARK INTER:                  18.721
REMARK INTRA:                   0.177
REMARK UNBOUND:                -0.243
REMARK SMILES CCCCCCCCCCCCCC[C@H](C)C(=O)[O-]
REMARK SMILES IDX 9 1 10 2 11 3 12 4 13 5 14 6 15 7 16 8 17 9 18 10 19 11 8 12
REMARK SMILES IDX 7 13 6 14 5 15 4 16 3 17 2 18 1 19
REMARK H PARENT
REMARK Flexibility Score: inf
ROOT
ATOM      1  C   UNL     1      -5.005  16.169 -11.120  1.00  0.00     0.000 C 
ENDROOT
BRANCH   1   2
ATOM      2  C   UNL     1      -3.516  16.421 -10.815  1.00  0.00     0.000 C 
BRANCH   2   3
ATOM      3  C   UNL     1      -3.135  17.901 -10.614  1.00  0.00     0.000 C 
BRANCH   3   4
ATOM      4  C   UNL     1      -4.212  18.890 -11.110  1.00  0.00     0.000 C 
BRANCH   4   5
ATOM      5  C   UNL     1      -3.881  20.347 -10.743  1.00  0.00     0.001 C 
BRANCH   5   6
ATOM      6  C   UNL     1      -4.789  21.369 -11.452  1.00  0.00     0.009 C 
BRANCH   6   7
ATOM      7  C   UNL     1      -6.292  21.005 -11.472  1.00  0.00     0.032 C 
ATOM      8  C   UNL     1      -6.620  19.813 -10.562  1.00  0.00     0.014 C 
BRANCH   7   9
ATOM      9  C   UNL     1      -6.721  20.704 -12.883  1.00  0.00     0.044 C 
ATOM     10  O   UNL     1      -7.118  19.551 -13.200  1.00  0.00    -0.550 OA
ATOM     11  O   UNL     1      -6.666  21.699 -13.851  1.00  0.00    -0.550 OA
ENDBRANCH   7   9
ENDBRANCH   6   7
ENDBRANCH   5   6
ENDBRANCH   4   5
ENDBRANCH   3   4
ENDBRANCH   2   3
ENDBRANCH   1   2
BRANCH   1  12
ATOM     12  C   UNL     1      -5.854  15.754  -9.904  1.00  0.00     0.000 C 
BRANCH  12  13
ATOM     13  C   UNL     1      -7.224  16.448  -9.867  1.00  0.00    -0.000 C 
BRANCH  13  14
ATOM     14  C   UNL     1      -7.846  16.359  -8.467  1.00  0.00    -0.000 C 
BRANCH  14  15
ATOM     15  C   UNL     1      -9.356  16.089  -8.553  1.00  0.00    -0.000 C 
BRANCH  15  16
ATOM     16  C   UNL     1     -10.178  16.982  -7.606  1.00  0.00    -0.000 C 
BRANCH  16  17
ATOM     17  C   UNL     1     -11.603  16.476  -7.303  1.00  0.00    -0.000 C 
BRANCH  17  18
ATOM     18  C   UNL     1     -11.891  16.196  -5.818  1.00  0.00    -0.003 C 
ATOM     19  C   UNL     1     -13.082  15.262  -5.608  1.00  0.00     0.004 C 
ENDBRANCH  17  18
ENDBRANCH  16  17
ENDBRANCH  15  16
ENDBRANCH  14  15
ENDBRANCH  13  14
ENDBRANCH  12  13
ENDBRANCH   1  12
TORSDOF 14
ENDMDL
MODEL 8
REMARK VINA RESULT:    10.658     13.012     16.124
REMARK INTER + INTRA:          19.138
REMARK INTER:                  19.731
REMARK INTRA:                  -0.593
REMARK UNBOUND:                -0.243
REMARK SMILES CCCCCCCCCCCCCC[C@H](C)C(=O)[O-]
REMARK SMILES IDX 9 1 10 2 11 3 12 4 13 5 14 6 15 7 16 8 17 9 18 10 19 11 8 12
REMARK SMILES IDX 7 13 6 14 5 15 4 16 3 17 2 18 1 19
REMARK H PARENT
REMARK Flexibility Score: inf
ROOT
ATOM      1  C   UNL     1     -14.545  23.265 -19.489  1.00  0.00     0.000 C 
ENDROOT
BRANCH   1   2
ATOM      2  C   UNL     1     -14.971  21.920 -20.108  1.00  0.00     0.000 C 
BRANCH   2   3
ATOM      3  C   UNL     1     -15.377  20.836 -19.091  1.00  0.00     0.000 C 
BRANCH   3   4
ATOM      4  C   UNL     1     -15.833  19.513 -19.745  1.00  0.00     0.000 C 
BRANCH   4   5
ATOM      5  C   UNL     1     -17.276  19.139 -19.362  1.00  0.00     0.001 C 
BRANCH   5   6
ATOM      6  C   UNL     1     -17.614  17.665 -19.655  1.00  0.00     0.009 C 
BRANCH   6   7
ATOM      7  C   UNL     1     -18.476  16.965 -18.578  1.00  0.00     0.032 C 
ATOM      8  C   UNL     1     -18.442  17.700 -17.230  1.00  0.00     0.014 C 
BRANCH   7   9
ATOM      9  C   UNL     1     -18.006  15.547 -18.398  1.00  0.00     0.044 C 
ATOM     10  O   UNL     1     -17.833  15.070 -17.244  1.00  0.00    -0.550 OA
ATOM     11  O   UNL     1     -17.743  14.757 -19.511  1.00  0.00    -0.550 OA
ENDBRANCH   7   9
ENDBRANCH   6   7
ENDBRANCH   5   6
ENDBRANCH   4   5
ENDBRANCH   3   4
ENDBRANCH   2   3
ENDBRANCH   1   2
BRANCH   1  12
ATOM     12  C   UNL     1     -13.128  23.734 -19.867  1.00  0.00     0.000 C 
BRANCH  12  13
ATOM     13  C   UNL     1     -13.039  25.251 -20.089  1.00  0.00    -0.000 C 
BRANCH  13  14
ATOM     14  C   UNL     1     -12.426  25.949 -18.869  1.00  0.00    -0.000 C 
BRANCH  14  15
ATOM     15  C   UNL     1     -12.461  27.476 -19.034  1.00  0.00    -0.000 C 
BRANCH  15  16
ATOM     16  C   UNL     1     -12.228  28.226 -17.710  1.00  0.00    -0.000 C 
BRANCH  16  17
ATOM     17  C   UNL     1     -12.546  27.417 -16.436  1.00  0.00    -0.000 C 
BRANCH  17  18
ATOM     18  C   UNL     1     -13.580  28.063 -15.498  1.00  0.00    -0.003 C 
ATOM     19  C   UNL     1     -15.013  27.944 -16.017  1.00  0.00     0.004 C 
ENDBRANCH  17  18
ENDBRANCH  16  17
ENDBRANCH  15  16
ENDBRANCH  14  15
ENDBRANCH  13  14
ENDBRANCH  12  13
ENDBRANCH   1  12
TORSDOF 14
ENDMDL
MODEL 9
REMARK VINA RESULT:    10.924      4.643      8.573
REMARK INTER + INTRA:          19.622
REMARK INTER:                  18.859
REMARK INTRA:                   0.762
REMARK UNBOUND:                -0.243
REMARK SMILES CCCCCCCCCCCCCC[C@H](C)C(=O)[O-]
REMARK SMILES IDX 9 1 10 2 11 3 12 4 13 5 14 6 15 7 16 8 17 9 18 10 19 11 8 12
REMARK SMILES IDX 7 13 6 14 5 15 4 16 3 17 2 18 1 19
REMARK H PARENT
REMARK Flexibility Score: inf
ROOT
ATOM      1  C   UNL     1      -3.392  17.049 -10.843  1.00  0.00     0.000 C 
ENDROOT
BRANCH   1   2
ATOM      2  C   UNL     1      -2.631  16.078  -9.920  1.00  0.00     0.000 C 
BRANCH   2   3
ATOM      3  C   UNL     1      -2.652  14.604 -10.370  1.00  0.00     0.000 C 
BRANCH   3   4
ATOM      4  C   UNL     1      -4.072  14.005 -10.467  1.00  0.00     0.000 C 
BRANCH   4   5
ATOM      5  C   UNL     1      -5.164  15.088 -10.456  1.00  0.00     0.001 C 
BRANCH   5   6
ATOM      6  C   UNL     1      -5.828  15.289 -11.831  1.00  0.00     0.009 C 
BRANCH   6   7
ATOM      7  C   UNL     1      -6.616  16.610 -11.992  1.00  0.00     0.032 C 
ATOM      8  C   UNL     1      -6.915  17.283 -10.644  1.00  0.00     0.014 C 
BRANCH   7   9
ATOM      9  C   UNL     1      -7.903  16.345 -12.726  1.00  0.00     0.044 C 
ATOM     10  O   UNL     1      -8.273  17.102 -13.664  1.00  0.00    -0.550 OA
ATOM     11  O   UNL     1      -8.700  15.267 -12.361  1.00  0.00    -0.550 OA
ENDBRANCH   7   9
ENDBRANCH   6   7
ENDBRANCH   5   6
ENDBRANCH   4   5
ENDBRANCH   3   4
ENDBRANCH   2   3
ENDBRANCH   1   2
BRANCH   1  12
ATOM     12  C   UNL     1      -3.112  18.541 -10.586  1.00  0.00     0.000 C 
BRANCH  12  13
ATOM     13  C   UNL     1      -4.221  19.459 -11.121  1.00  0.00    -0.000 C 
BRANCH  13  14
ATOM     14  C   UNL     1      -3.951  20.921 -10.747  1.00  0.00    -0.000 C 
BRANCH  14  15
ATOM     15  C   UNL     1      -4.909  21.865 -11.491  1.00  0.00    -0.000 C 
BRANCH  15  16
ATOM     16  C   UNL     1      -6.374  21.399 -11.432  1.00  0.00    -0.000 C 
BRANCH  16  17
ATOM     17  C   UNL     1      -6.726  20.229 -12.374  1.00  0.00    -0.000 C 
BRANCH  17  18
ATOM     18  C   UNL     1      -6.819  20.599 -13.864  1.00  0.00    -0.003 C 
ATOM     19  C   UNL     1      -6.819  22.109 -14.103  1.00  0.00     0.004 C 
ENDBRANCH  17  18
ENDBRANCH  16  17
ENDBRANCH  15  16
ENDBRANCH  14  15
ENDBRANCH  13  14
ENDBRANCH  12  13
ENDBRANCH   1  12
TORSDOF 14
ENDMDL
