MODEL 1
REMARK VINA RESULT:    -3.401      0.000      0.000
REMARK INTER + INTRA:          -3.945
REMARK INTER:                  -3.899
REMARK INTRA:                  -0.047
REMARK UNBOUND:                -0.047
REMARK SMILES CC(C)[C@H]([NH3+])C(=O)[O-]
REMARK SMILES IDX 4 1 5 2 6 6 7 7 8 8 2 9 1 10 3 11
REMARK H PARENT 5 3 5 4 5 5
REMARK Flexibility Score: inf
ROOT
ATOM      1  C   UNL     1     170.634 170.521 164.487  1.00  0.00     0.230 C 
ENDROOT
BRANCH   1   2
ATOM      2  N   UNL     1     169.910 170.918 165.704  1.00  0.00    -0.350 N 
ATOM      3  H   UNL     1     168.907 170.626 165.625  1.00  0.00     0.345 HD
ATOM      4  H   UNL     1     170.318 170.473 166.556  1.00  0.00     0.345 HD
ATOM      5  H   UNL     1     169.936 171.958 165.814  1.00  0.00     0.345 HD
ENDBRANCH   1   2
BRANCH   1   6
ATOM      6  C   UNL     1     171.435 171.678 163.937  1.00  0.00     0.099 C 
ATOM      7  O   UNL     1     172.620 171.511 163.543  1.00  0.00    -0.544 OA
ATOM      8  O   UNL     1     170.872 172.947 163.891  1.00  0.00    -0.544 OA
ENDBRANCH   1   6
BRANCH   1   9
ATOM      9  C   UNL     1     169.681 169.889 163.429  1.00  0.00     0.047 C 
ATOM     10  C   UNL     1     169.608 168.354 163.501  1.00  0.00     0.014 C 
ATOM     11  C   UNL     1     168.268 170.488 163.522  1.00  0.00     0.014 C 
ENDBRANCH   1   9
TORSDOF 3
ENDMDL
MODEL 2
REMARK VINA RESULT:    -3.299      1.075      1.193
REMARK INTER + INTRA:          -3.828
REMARK INTER:                  -3.754
REMARK INTRA:                  -0.074
REMARK UNBOUND:                -0.047
REMARK SMILES CC(C)[C@H]([NH3+])C(=O)[O-]
REMARK SMILES IDX 4 1 5 2 6 6 7 7 8 8 2 9 1 10 3 11
REMARK H PARENT 5 3 5 4 5 5
REMARK Flexibility Score: inf
ROOT
ATOM      1  C   UNL     1     170.353 171.063 164.370  1.00  0.00     0.230 C 
ENDROOT
BRANCH   1   2
ATOM      2  N   UNL     1     169.859 170.949 165.751  1.00  0.00    -0.350 N 
ATOM      3  H   UNL     1     170.197 170.051 166.170  1.00  0.00     0.345 HD
ATOM      4  H   UNL     1     170.196 171.740 166.345  1.00  0.00     0.345 HD
ATOM      5  H   UNL     1     168.814 170.936 165.758  1.00  0.00     0.345 HD
ENDBRANCH   1   2
BRANCH   1   6
ATOM      6  C   UNL     1     170.195 172.474 163.857  1.00  0.00     0.099 C 
ATOM      7  O   UNL     1     170.821 172.863 162.836  1.00  0.00    -0.544 OA
ATOM      8  O   UNL     1     169.373 173.367 164.534  1.00  0.00    -0.544 OA
ENDBRANCH   1   6
BRANCH   1   9
ATOM      9  C   UNL     1     169.696 170.003 163.434  1.00  0.00     0.047 C 
ATOM     10  C   UNL     1     169.916 168.552 163.893  1.00  0.00     0.014 C 
ATOM     11  C   UNL     1     168.195 170.275 163.250  1.00  0.00     0.014 C 
ENDBRANCH   1   9
TORSDOF 3
ENDMDL
MODEL 3
REMARK VINA RESULT:    -3.241      2.881      3.633
REMARK INTER + INTRA:          -3.762
REMARK INTER:                  -3.722
REMARK INTRA:                  -0.040
REMARK UNBOUND:                -0.047
REMARK SMILES CC(C)[C@H]([NH3+])C(=O)[O-]
REMARK SMILES IDX 4 1 5 2 6 6 7 7 8 8 2 9 1 10 3 11
REMARK H PARENT 5 3 5 4 5 5
REMARK Flexibility Score: inf
ROOT
ATOM      1  C   UNL     1     169.550 168.617 163.465  1.00  0.00     0.230 C 
ENDROOT
BRANCH   1   2
ATOM      2  N   UNL     1     170.659 168.142 164.305  1.00  0.00    -0.350 N 
ATOM      3  H   UNL     1     171.483 167.914 163.700  1.00  0.00     0.345 HD
ATOM      4  H   UNL     1     170.950 168.865 165.001  1.00  0.00     0.345 HD
ATOM      5  H   UNL     1     170.378 167.271 164.811  1.00  0.00     0.345 HD
ENDBRANCH   1   2
BRANCH   1   6
ATOM      6  C   UNL     1     169.699 168.120 162.046  1.00  0.00     0.099 C 
ATOM      7  O   UNL     1     169.910 166.901 161.809  1.00  0.00    -0.544 OA
ATOM      8  O   UNL     1     169.632 169.020 160.989  1.00  0.00    -0.544 OA
ENDBRANCH   1   6
BRANCH   1   9
ATOM      9  C   UNL     1     169.385 170.165 163.548  1.00  0.00     0.047 C 
ATOM     10  C   UNL     1     167.919 170.631 163.569  1.00  0.00     0.014 C 
ATOM     11  C   UNL     1     170.137 170.742 164.757  1.00  0.00     0.014 C 
ENDBRANCH   1   9
TORSDOF 3
ENDMDL
MODEL 4
REMARK VINA RESULT:    -3.130      2.447      3.624
REMARK INTER + INTRA:          -3.634
REMARK INTER:                  -3.600
REMARK INTRA:                  -0.034
REMARK UNBOUND:                -0.047
REMARK SMILES CC(C)[C@H]([NH3+])C(=O)[O-]
REMARK SMILES IDX 4 1 5 2 6 6 7 7 8 8 2 9 1 10 3 11
REMARK H PARENT 5 3 5 4 5 5
REMARK Flexibility Score: inf
ROOT
ATOM      1  C   UNL     1     170.035 170.789 164.441  1.00  0.00     0.230 C 
ENDROOT
BRANCH   1   2
ATOM      2  N   UNL     1     171.285 170.057 164.696  1.00  0.00    -0.350 N 
ATOM      3  H   UNL     1     172.092 170.723 164.660  1.00  0.00     0.345 HD
ATOM      4  H   UNL     1     171.275 169.598 165.635  1.00  0.00     0.345 HD
ATOM      5  H   UNL     1     171.432 169.330 163.960  1.00  0.00     0.345 HD
ENDBRANCH   1   2
BRANCH   1   6
ATOM      6  C   UNL     1     169.057 169.930 163.674  1.00  0.00     0.099 C 
ATOM      7  O   UNL     1     167.864 170.300 163.511  1.00  0.00    -0.544 OA
ATOM      8  O   UNL     1     169.466 168.703 163.166  1.00  0.00    -0.544 OA
ENDBRANCH   1   6
BRANCH   1   9
ATOM      9  C   UNL     1     170.300 172.162 163.754  1.00  0.00     0.047 C 
ATOM     10  C   UNL     1     169.447 173.311 164.319  1.00  0.00     0.014 C 
ATOM     11  C   UNL     1     171.789 172.536 163.811  1.00  0.00     0.014 C 
ENDBRANCH   1   9
TORSDOF 3
ENDMDL
MODEL 5
REMARK VINA RESULT:    -3.112      1.074      1.709
REMARK INTER + INTRA:          -3.613
REMARK INTER:                  -3.542
REMARK INTRA:                  -0.072
REMARK UNBOUND:                -0.047
REMARK SMILES CC(C)[C@H]([NH3+])C(=O)[O-]
REMARK SMILES IDX 4 1 5 2 6 6 7 7 8 8 2 9 1 10 3 11
REMARK H PARENT 5 3 5 4 5 5
REMARK Flexibility Score: inf
ROOT
ATOM      1  C   UNL     1     170.298 170.971 164.360  1.00  0.00     0.230 C 
ENDROOT
BRANCH   1   2
ATOM      2  N   UNL     1     169.863 170.837 165.759  1.00  0.00    -0.350 N 
ATOM      3  H   UNL     1     170.616 171.190 166.394  1.00  0.00     0.345 HD
ATOM      4  H   UNL     1     168.991 171.383 165.943  1.00  0.00     0.345 HD
ATOM      5  H   UNL     1     169.692 169.831 165.987  1.00  0.00     0.345 HD
ENDBRANCH   1   2
BRANCH   1   6
ATOM      6  C   UNL     1     170.164 172.400 163.890  1.00  0.00     0.099 C 
ATOM      7  O   UNL     1     171.178 173.062 163.544  1.00  0.00    -0.544 OA
ATOM      8  O   UNL     1     168.913 173.004 163.865  1.00  0.00    -0.544 OA
ENDBRANCH   1   6
BRANCH   1   9
ATOM      9  C   UNL     1     169.566 169.958 163.429  1.00  0.00     0.047 C 
ATOM     10  C   UNL     1     169.837 170.187 161.932  1.00  0.00     0.014 C 
ATOM     11  C   UNL     1     169.903 168.507 163.808  1.00  0.00     0.014 C 
ENDBRANCH   1   9
TORSDOF 3
ENDMDL
MODEL 6
REMARK VINA RESULT:    -3.107      1.765      2.081
REMARK INTER + INTRA:          -3.608
REMARK INTER:                  -3.555
REMARK INTRA:                  -0.052
REMARK UNBOUND:                -0.047
REMARK SMILES CC(C)[C@H]([NH3+])C(=O)[O-]
REMARK SMILES IDX 4 1 5 2 6 6 7 7 8 8 2 9 1 10 3 11
REMARK H PARENT 5 3 5 4 5 5
REMARK Flexibility Score: inf
ROOT
ATOM      1  C   UNL     1     169.713 171.970 164.283  1.00  0.00     0.230 C 
ENDROOT
BRANCH   1   2
ATOM      2  N   UNL     1     169.816 173.402 164.604  1.00  0.00    -0.350 N 
ATOM      3  H   UNL     1     169.531 173.968 163.770  1.00  0.00     0.345 HD
ATOM      4  H   UNL     1     169.200 173.660 165.407  1.00  0.00     0.345 HD
ATOM      5  H   UNL     1     170.806 173.647 164.838  1.00  0.00     0.345 HD
ENDBRANCH   1   2
BRANCH   1   6
ATOM      6  C   UNL     1     171.068 171.398 163.937  1.00  0.00     0.099 C 
ATOM      7  O   UNL     1     171.766 170.820 164.811  1.00  0.00    -0.544 OA
ATOM      8  O   UNL     1     171.566 171.536 162.647  1.00  0.00    -0.544 OA
ENDBRANCH   1   6
BRANCH   1   9
ATOM      9  C   UNL     1     168.645 171.701 163.181  1.00  0.00     0.047 C 
ATOM     10  C   UNL     1     167.945 170.338 163.318  1.00  0.00     0.014 C 
ATOM     11  C   UNL     1     167.600 172.826 163.131  1.00  0.00     0.014 C 
ENDBRANCH   1   9
TORSDOF 3
ENDMDL
MODEL 7
REMARK VINA RESULT:    -3.090      2.378      3.053
REMARK INTER + INTRA:          -3.589
REMARK INTER:                  -3.610
REMARK INTRA:                   0.021
REMARK UNBOUND:                -0.047
REMARK SMILES CC(C)[C@H]([NH3+])C(=O)[O-]
REMARK SMILES IDX 4 1 5 2 6 6 7 7 8 8 2 9 1 10 3 11
REMARK H PARENT 5 3 5 4 5 5
REMARK Flexibility Score: inf
ROOT
ATOM      1  C   UNL     1     169.797 169.777 164.216  1.00  0.00     0.230 C 
ENDROOT
BRANCH   1   2
ATOM      2  N   UNL     1     170.634 168.568 164.244  1.00  0.00    -0.350 N 
ATOM      3  H   UNL     1     170.577 168.126 165.192  1.00  0.00     0.345 HD
ATOM      4  H   UNL     1     170.323 167.870 163.533  1.00  0.00     0.345 HD
ATOM      5  H   UNL     1     171.633 168.819 164.065  1.00  0.00     0.345 HD
ENDBRANCH   1   2
BRANCH   1   6
ATOM      6  C   UNL     1     169.135 169.942 162.868  1.00  0.00     0.099 C 
ATOM      7  O   UNL     1     169.799 169.817 161.805  1.00  0.00    -0.544 OA
ATOM      8  O   UNL     1     167.786 170.264 162.797  1.00  0.00    -0.544 OA
ENDBRANCH   1   6
BRANCH   1   9
ATOM      9  C   UNL     1     170.595 171.042 164.656  1.00  0.00     0.047 C 
ATOM     10  C   UNL     1     172.059 171.043 164.186  1.00  0.00     0.014 C 
ATOM     11  C   UNL     1     169.894 172.330 164.196  1.00  0.00     0.014 C 
ENDBRANCH   1   9
TORSDOF 3
ENDMDL
MODEL 8
REMARK VINA RESULT:    -3.078      1.909      2.494
REMARK INTER + INTRA:          -3.575
REMARK INTER:                  -3.504
REMARK INTRA:                  -0.071
REMARK UNBOUND:                -0.047
REMARK SMILES CC(C)[C@H]([NH3+])C(=O)[O-]
REMARK SMILES IDX 4 1 5 2 6 6 7 7 8 8 2 9 1 10 3 11
REMARK H PARENT 5 3 5 4 5 5
REMARK Flexibility Score: inf
ROOT
ATOM      1  C   UNL     1     170.725 169.447 163.612  1.00  0.00     0.230 C 
ENDROOT
BRANCH   1   2
ATOM      2  N   UNL     1     170.492 168.162 164.288  1.00  0.00    -0.350 N 
ATOM      3  H   UNL     1     170.676 168.269 165.313  1.00  0.00     0.345 HD
ATOM      4  H   UNL     1     169.509 167.835 164.160  1.00  0.00     0.345 HD
ATOM      5  H   UNL     1     171.147 167.437 163.916  1.00  0.00     0.345 HD
ENDBRANCH   1   2
BRANCH   1   6
ATOM      6  C   UNL     1     170.913 170.559 164.618  1.00  0.00     0.099 C 
ATOM      7  O   UNL     1     169.990 170.866 165.419  1.00  0.00    -0.544 OA
ATOM      8  O   UNL     1     172.104 171.273 164.643  1.00  0.00    -0.544 OA
ENDBRANCH   1   6
BRANCH   1   9
ATOM      9  C   UNL     1     169.610 169.761 162.568  1.00  0.00     0.047 C 
ATOM     10  C   UNL     1     169.738 171.152 161.926  1.00  0.00     0.014 C 
ATOM     11  C   UNL     1     169.550 168.681 161.476  1.00  0.00     0.014 C 
ENDBRANCH   1   9
TORSDOF 3
ENDMDL
MODEL 9
REMARK VINA RESULT:    -3.050      2.467      3.299
REMARK INTER + INTRA:          -3.543
REMARK INTER:                  -3.504
REMARK INTRA:                  -0.038
REMARK UNBOUND:                -0.047
REMARK SMILES CC(C)[C@H]([NH3+])C(=O)[O-]
REMARK SMILES IDX 4 1 5 2 6 6 7 7 8 8 2 9 1 10 3 11
REMARK H PARENT 5 3 5 4 5 5
REMARK Flexibility Score: inf
ROOT
ATOM      1  C   UNL     1     170.395 172.800 163.500  1.00  0.00     0.230 C 
ENDROOT
BRANCH   1   2
ATOM      2  N   UNL     1     169.738 173.518 164.603  1.00  0.00    -0.350 N 
ATOM      3  H   UNL     1     168.722 173.643 164.382  1.00  0.00     0.345 HD
ATOM      4  H   UNL     1     169.820 172.996 165.503  1.00  0.00     0.345 HD
ATOM      5  H   UNL     1     170.162 174.467 164.716  1.00  0.00     0.345 HD
ENDBRANCH   1   2
BRANCH   1   6
ATOM      6  C   UNL     1     169.515 171.685 162.985  1.00  0.00     0.099 C 
ATOM      7  O   UNL     1     169.669 171.228 161.822  1.00  0.00    -0.544 OA
ATOM      8  O   UNL     1     168.504 171.176 163.791  1.00  0.00    -0.544 OA
ENDBRANCH   1   6
BRANCH   1   9
ATOM      9  C   UNL     1     171.820 172.310 163.898  1.00  0.00     0.047 C 
ATOM     10  C   UNL     1     171.837 170.909 164.531  1.00  0.00     0.014 C 
ATOM     11  C   UNL     1     172.781 172.359 162.700  1.00  0.00     0.014 C 
ENDBRANCH   1   9
TORSDOF 3
ENDMDL
