MODEL 1
REMARK VINA RESULT:    -6.633      0.000      0.000
REMARK INTER + INTRA:         -12.388
REMARK INTER:                 -10.123
REMARK INTRA:                  -2.265
REMARK UNBOUND:                -2.265
REMARK SMILES CC(=O)CCC=C(C)CCC=C(C)CCC=C(C)C
REMARK SMILES IDX 10 1 11 2 12 3 13 4 14 5 15 6 16 7 18 8 17 9 19 10 9 11 7 12
REMARK SMILES IDX 6 13 8 14 5 15 4 16 2 17 3 18 1 19
REMARK H PARENT
REMARK Flexibility Score: inf
ROOT
ATOM      1  C   UNL     1      -8.114  35.055  23.148  1.00  0.00     0.032 C 
ENDROOT
BRANCH   1   2
ATOM      2  C   UNL     1      -7.507  34.673  21.819  1.00  0.00    -0.028 C 
ATOM      3  C   UNL     1      -7.923  33.653  21.034  1.00  0.00    -0.077 C 
ATOM      4  C   UNL     1      -7.145  33.361  19.777  1.00  0.00     0.039 C 
BRANCH   3   5
ATOM      5  C   UNL     1      -9.153  32.814  21.333  1.00  0.00     0.034 C 
BRANCH   5   6
ATOM      6  C   UNL     1      -8.817  31.318  21.426  1.00  0.00     0.032 C 
BRANCH   6   7
ATOM      7  C   UNL     1      -7.651  31.072  22.354  1.00  0.00    -0.028 C 
ATOM      8  C   UNL     1      -8.131  28.629  22.623  1.00  0.00     0.039 C 
ATOM      9  C   UNL     1      -7.348  29.883  22.920  1.00  0.00    -0.080 C 
ATOM     10  C   UNL     1      -6.186  29.823  23.878  1.00  0.00     0.039 C 
ENDBRANCH   6   7
ENDBRANCH   5   6
ENDBRANCH   3   5
ENDBRANCH   1   2
BRANCH   1  11
ATOM     11  C   UNL     1      -7.205  34.662  24.321  1.00  0.00     0.034 C 
BRANCH  11  12
ATOM     12  C   UNL     1      -7.979  33.959  25.419  1.00  0.00    -0.077 C 
ATOM     13  C   UNL     1      -8.471  32.721  25.189  1.00  0.00    -0.028 C 
ATOM     14  C   UNL     1      -8.173  34.660  26.744  1.00  0.00     0.039 C 
BRANCH  13  15
ATOM     15  C   UNL     1      -9.316  31.944  26.166  1.00  0.00     0.035 C 
BRANCH  15  16
ATOM     16  C   UNL     1      -9.862  30.670  25.514  1.00  0.00     0.079 C 
BRANCH  16  17
ATOM     17  C   UNL     1      -9.215  29.447  26.110  1.00  0.00     0.130 C 
ATOM     18  O   UNL     1      -9.607  28.339  25.779  1.00  0.00    -0.300 OA
ATOM     19  C   UNL     1      -8.089  29.560  27.095  1.00  0.00     0.087 C 
ENDBRANCH  16  17
ENDBRANCH  15  16
ENDBRANCH  13  15
ENDBRANCH  11  12
ENDBRANCH   1  11
TORSDOF 9
ENDMDL
MODEL 2
REMARK VINA RESULT:    -6.307      2.112      4.870
REMARK INTER + INTRA:         -11.890
REMARK INTER:                  -9.653
REMARK INTRA:                  -2.237
REMARK UNBOUND:                -2.265
REMARK SMILES CC(=O)CCC=C(C)CCC=C(C)CCC=C(C)C
REMARK SMILES IDX 10 1 11 2 12 3 13 4 14 5 15 6 16 7 18 8 17 9 19 10 9 11 7 12
REMARK SMILES IDX 6 13 8 14 5 15 4 16 2 17 3 18 1 19
REMARK H PARENT
REMARK Flexibility Score: inf
ROOT
ATOM      1  C   UNL     1      -9.365  31.111  20.797  1.00  0.00     0.032 C 
ENDROOT
BRANCH   1   2
ATOM      2  C   UNL     1      -9.396  29.778  21.508  1.00  0.00    -0.028 C 
ATOM      3  C   UNL     1      -8.403  29.280  22.280  1.00  0.00    -0.077 C 
ATOM      4  C   UNL     1      -8.571  27.892  22.843  1.00  0.00     0.039 C 
BRANCH   3   5
ATOM      5  C   UNL     1      -7.150  30.058  22.638  1.00  0.00     0.034 C 
BRANCH   5   6
ATOM      6  C   UNL     1      -6.859  30.014  24.145  1.00  0.00     0.032 C 
BRANCH   6   7
ATOM      7  C   UNL     1      -7.635  31.076  24.886  1.00  0.00    -0.028 C 
ATOM      8  C   UNL     1      -9.117  29.440  26.070  1.00  0.00     0.039 C 
ATOM      9  C   UNL     1      -8.665  30.838  25.728  1.00  0.00    -0.080 C 
ATOM     10  C   UNL     1      -9.378  32.017  26.338  1.00  0.00     0.039 C 
ENDBRANCH   6   7
ENDBRANCH   5   6
ENDBRANCH   3   5
ENDBRANCH   1   2
BRANCH   1  11
ATOM     11  C   UNL     1      -9.805  32.257  21.719  1.00  0.00     0.034 C 
BRANCH  11  12
ATOM     12  C   UNL     1      -8.688  33.255  21.947  1.00  0.00    -0.077 C 
ATOM     13  C   UNL     1      -8.515  33.780  23.181  1.00  0.00    -0.028 C 
ATOM     14  C   UNL     1      -7.795  33.634  20.788  1.00  0.00     0.039 C 
BRANCH  13  15
ATOM     15  C   UNL     1      -7.492  34.832  23.524  1.00  0.00     0.035 C 
BRANCH  15  16
ATOM     16  C   UNL     1      -7.284  34.909  25.040  1.00  0.00     0.079 C 
BRANCH  16  17
ATOM     17  C   UNL     1      -8.393  35.693  25.691  1.00  0.00     0.130 C 
ATOM     18  O   UNL     1      -9.111  36.402  25.003  1.00  0.00    -0.300 OA
ATOM     19  C   UNL     1      -8.645  35.612  27.168  1.00  0.00     0.087 C 
ENDBRANCH  16  17
ENDBRANCH  15  16
ENDBRANCH  13  15
ENDBRANCH  11  12
ENDBRANCH   1  11
TORSDOF 9
ENDMDL
MODEL 3
REMARK VINA RESULT:    -6.241      2.032      4.676
REMARK INTER + INTRA:         -11.790
REMARK INTER:                  -9.772
REMARK INTRA:                  -2.018
REMARK UNBOUND:                -2.265
REMARK SMILES CC(=O)CCC=C(C)CCC=C(C)CCC=C(C)C
REMARK SMILES IDX 10 1 11 2 12 3 13 4 14 5 15 6 16 7 18 8 17 9 19 10 9 11 7 12
REMARK SMILES IDX 6 13 8 14 5 15 4 16 2 17 3 18 1 19
REMARK H PARENT
REMARK Flexibility Score: inf
ROOT
ATOM      1  C   UNL     1      -6.541  30.322  23.876  1.00  0.00     0.032 C 
ENDROOT
BRANCH   1   2
ATOM      2  C   UNL     1      -7.183  29.181  23.122  1.00  0.00    -0.028 C 
ATOM      3  C   UNL     1      -8.452  29.171  22.652  1.00  0.00    -0.077 C 
ATOM      4  C   UNL     1      -8.955  27.912  21.995  1.00  0.00     0.039 C 
BRANCH   3   5
ATOM      5  C   UNL     1      -9.378  30.372  22.717  1.00  0.00     0.034 C 
BRANCH   5   6
ATOM      6  C   UNL     1      -9.188  31.308  21.515  1.00  0.00     0.032 C 
BRANCH   6   7
ATOM      7  C   UNL     1      -8.820  32.704  21.957  1.00  0.00    -0.028 C 
ATOM      8  C   UNL     1      -7.228  33.093  20.063  1.00  0.00     0.039 C 
ATOM      9  C   UNL     1      -7.925  33.504  21.337  1.00  0.00    -0.080 C 
ATOM     10  C   UNL     1      -7.621  34.848  21.947  1.00  0.00     0.039 C 
ENDBRANCH   6   7
ENDBRANCH   5   6
ENDBRANCH   3   5
ENDBRANCH   1   2
BRANCH   1  11
ATOM     11  C   UNL     1      -6.574  30.090  25.393  1.00  0.00     0.034 C 
BRANCH  11  12
ATOM     12  C   UNL     1      -7.708  30.848  26.053  1.00  0.00    -0.077 C 
ATOM     13  C   UNL     1      -7.995  32.101  25.633  1.00  0.00    -0.028 C 
ATOM     14  C   UNL     1      -8.492  30.179  27.159  1.00  0.00     0.039 C 
BRANCH  13  15
ATOM     15  C   UNL     1      -9.046  32.987  26.250  1.00  0.00     0.035 C 
BRANCH  15  16
ATOM     16  C   UNL     1      -8.408  34.245  26.847  1.00  0.00     0.079 C 
BRANCH  16  17
ATOM     17  C   UNL     1      -8.069  35.235  25.764  1.00  0.00     0.130 C 
ATOM     18  O   UNL     1      -6.909  35.354  25.401  1.00  0.00    -0.300 OA
ATOM     19  C   UNL     1      -9.128  36.073  25.110  1.00  0.00     0.087 C 
ENDBRANCH  16  17
ENDBRANCH  15  16
ENDBRANCH  13  15
ENDBRANCH  11  12
ENDBRANCH   1  11
TORSDOF 9
ENDMDL
MODEL 4
REMARK VINA RESULT:    -6.241      2.039      6.034
REMARK INTER + INTRA:         -11.789
REMARK INTER:                  -9.516
REMARK INTRA:                  -2.274
REMARK UNBOUND:                -2.265
REMARK SMILES CC(=O)CCC=C(C)CCC=C(C)CCC=C(C)C
REMARK SMILES IDX 10 1 11 2 12 3 13 4 14 5 15 6 16 7 18 8 17 9 19 10 9 11 7 12
REMARK SMILES IDX 6 13 8 14 5 15 4 16 2 17 3 18 1 19
REMARK H PARENT
REMARK Flexibility Score: inf
ROOT
ATOM      1  C   UNL     1      -6.616  30.339  24.651  1.00  0.00     0.032 C 
ENDROOT
BRANCH   1   2
ATOM      2  C   UNL     1      -7.198  29.745  25.911  1.00  0.00    -0.028 C 
ATOM      3  C   UNL     1      -8.509  29.755  26.247  1.00  0.00    -0.077 C 
ATOM      4  C   UNL     1      -8.902  29.190  27.588  1.00  0.00     0.039 C 
BRANCH   3   5
ATOM      5  C   UNL     1      -9.604  30.269  25.331  1.00  0.00     0.034 C 
BRANCH   5   6
ATOM      6  C   UNL     1     -10.106  31.656  25.759  1.00  0.00     0.032 C 
BRANCH   6   7
ATOM      7  C   UNL     1      -9.265  32.755  25.156  1.00  0.00    -0.028 C 
ATOM      8  C   UNL     1      -7.957  33.169  27.252  1.00  0.00     0.039 C 
ATOM      9  C   UNL     1      -8.321  33.461  25.817  1.00  0.00    -0.080 C 
ATOM     10  C   UNL     1      -7.616  34.574  25.086  1.00  0.00     0.039 C 
ENDBRANCH   6   7
ENDBRANCH   5   6
ENDBRANCH   3   5
ENDBRANCH   1   2
BRANCH   1  11
ATOM     11  C   UNL     1      -6.749  29.383  23.457  1.00  0.00     0.034 C 
BRANCH  11  12
ATOM     12  C   UNL     1      -7.845  29.821  22.506  1.00  0.00    -0.077 C 
ATOM     13  C   UNL     1      -7.903  31.116  22.121  1.00  0.00    -0.028 C 
ATOM     14  C   UNL     1      -8.839  28.796  22.010  1.00  0.00     0.039 C 
BRANCH  13  15
ATOM     15  C   UNL     1      -8.980  31.695  21.240  1.00  0.00     0.035 C 
BRANCH  15  16
ATOM     16  C   UNL     1      -9.124  33.201  21.482  1.00  0.00     0.079 C 
BRANCH  16  17
ATOM     17  C   UNL     1      -7.884  33.932  21.039  1.00  0.00     0.130 C 
ATOM     18  O   UNL     1      -7.477  34.877  21.696  1.00  0.00    -0.300 OA
ATOM     19  C   UNL     1      -7.127  33.516  19.811  1.00  0.00     0.087 C 
ENDBRANCH  16  17
ENDBRANCH  15  16
ENDBRANCH  13  15
ENDBRANCH  11  12
ENDBRANCH   1  11
TORSDOF 9
ENDMDL
MODEL 5
REMARK VINA RESULT:    -5.977      1.156      4.324
REMARK INTER + INTRA:         -11.386
REMARK INTER:                  -9.410
REMARK INTRA:                  -1.976
REMARK UNBOUND:                -2.265
REMARK SMILES CC(=O)CCC=C(C)CCC=C(C)CCC=C(C)C
REMARK SMILES IDX 10 1 11 2 12 3 13 4 14 5 15 6 16 7 18 8 17 9 19 10 9 11 7 12
REMARK SMILES IDX 6 13 8 14 5 15 4 16 2 17 3 18 1 19
REMARK H PARENT
REMARK Flexibility Score: inf
ROOT
ATOM      1  C   UNL     1      -6.873  34.807  23.126  1.00  0.00     0.032 C 
ENDROOT
BRANCH   1   2
ATOM      2  C   UNL     1      -7.466  35.358  24.401  1.00  0.00    -0.028 C 
ATOM      3  C   UNL     1      -8.037  34.619  25.380  1.00  0.00    -0.077 C 
ATOM      4  C   UNL     1      -8.655  35.344  26.548  1.00  0.00     0.039 C 
BRANCH   3   5
ATOM      5  C   UNL     1      -8.054  33.101  25.382  1.00  0.00     0.034 C 
BRANCH   5   6
ATOM      6  C   UNL     1      -8.818  32.538  26.590  1.00  0.00     0.032 C 
BRANCH   6   7
ATOM      7  C   UNL     1      -9.529  31.253  26.241  1.00  0.00    -0.028 C 
ATOM      8  C   UNL     1      -7.589  29.789  26.846  1.00  0.00     0.039 C 
ATOM      9  C   UNL     1      -8.985  30.019  26.322  1.00  0.00    -0.080 C 
ATOM     10  C   UNL     1      -9.810  28.841  25.872  1.00  0.00     0.039 C 
ENDBRANCH   6   7
ENDBRANCH   5   6
ENDBRANCH   3   5
ENDBRANCH   1   2
BRANCH   1  11
ATOM     11  C   UNL     1      -7.889  34.822  21.974  1.00  0.00     0.034 C 
BRANCH  11  12
ATOM     12  C   UNL     1      -8.035  33.455  21.337  1.00  0.00    -0.077 C 
ATOM     13  C   UNL     1      -8.890  32.562  21.883  1.00  0.00    -0.028 C 
ATOM     14  C   UNL     1      -7.224  33.130  20.103  1.00  0.00     0.039 C 
BRANCH  13  15
ATOM     15  C   UNL     1      -9.076  31.148  21.393  1.00  0.00     0.035 C 
BRANCH  15  16
ATOM     16  C   UNL     1      -9.239  30.185  22.572  1.00  0.00     0.079 C 
BRANCH  16  17
ATOM     17  C   UNL     1      -8.044  29.276  22.687  1.00  0.00     0.130 C 
ATOM     18  O   UNL     1      -8.146  28.104  22.362  1.00  0.00    -0.300 OA
ATOM     19  C   UNL     1      -6.721  29.783  23.182  1.00  0.00     0.087 C 
ENDBRANCH  16  17
ENDBRANCH  15  16
ENDBRANCH  13  15
ENDBRANCH  11  12
ENDBRANCH   1  11
TORSDOF 9
ENDMDL
MODEL 6
REMARK VINA RESULT:    -5.976      1.802      4.736
REMARK INTER + INTRA:         -11.385
REMARK INTER:                  -9.087
REMARK INTRA:                  -2.297
REMARK UNBOUND:                -2.265
REMARK SMILES CC(=O)CCC=C(C)CCC=C(C)CCC=C(C)C
REMARK SMILES IDX 10 1 11 2 12 3 13 4 14 5 15 6 16 7 18 8 17 9 19 10 9 11 7 12
REMARK SMILES IDX 6 13 8 14 5 15 4 16 2 17 3 18 1 19
REMARK H PARENT
REMARK Flexibility Score: inf
ROOT
ATOM      1  C   UNL     1      -8.381  33.929  27.292  1.00  0.00     0.032 C 
ENDROOT
BRANCH   1   2
ATOM      2  C   UNL     1      -8.259  32.490  27.733  1.00  0.00    -0.028 C 
ATOM      3  C   UNL     1      -9.028  31.469  27.290  1.00  0.00    -0.077 C 
ATOM      4  C   UNL     1      -8.823  30.108  27.905  1.00  0.00     0.039 C 
BRANCH   3   5
ATOM      5  C   UNL     1     -10.057  31.613  26.183  1.00  0.00     0.034 C 
BRANCH   5   6
ATOM      6  C   UNL     1      -9.890  30.536  25.102  1.00  0.00     0.032 C 
BRANCH   6   7
ATOM      7  C   UNL     1      -8.558  30.659  24.402  1.00  0.00    -0.028 C 
ATOM      8  C   UNL     1      -8.996  28.767  22.820  1.00  0.00     0.039 C 
ATOM      9  C   UNL     1      -8.131  29.858  23.401  1.00  0.00    -0.080 C 
ATOM     10  C   UNL     1      -6.743  30.074  22.855  1.00  0.00     0.039 C 
ENDBRANCH   6   7
ENDBRANCH   5   6
ENDBRANCH   3   5
ENDBRANCH   1   2
BRANCH   1  11
ATOM     11  C   UNL     1      -7.303  34.302  26.264  1.00  0.00     0.034 C 
BRANCH  11  12
ATOM     12  C   UNL     1      -7.907  34.681  24.928  1.00  0.00    -0.077 C 
ATOM     13  C   UNL     1      -7.462  34.070  23.806  1.00  0.00    -0.028 C 
ATOM     14  C   UNL     1      -8.997  35.728  24.885  1.00  0.00     0.039 C 
BRANCH  13  15
ATOM     15  C   UNL     1      -7.926  34.405  22.412  1.00  0.00     0.035 C 
BRANCH  15  16
ATOM     16  C   UNL     1      -9.075  33.484  21.990  1.00  0.00     0.079 C 
BRANCH  16  17
ATOM     17  C   UNL     1      -8.648  32.580  20.865  1.00  0.00     0.130 C 
ATOM     18  O   UNL     1      -9.375  31.660  20.524  1.00  0.00    -0.300 OA
ATOM     19  C   UNL     1      -7.350  32.791  20.141  1.00  0.00     0.087 C 
ENDBRANCH  16  17
ENDBRANCH  15  16
ENDBRANCH  13  15
ENDBRANCH  11  12
ENDBRANCH   1  11
TORSDOF 9
ENDMDL
MODEL 7
REMARK VINA RESULT:    -5.788      1.523      4.325
REMARK INTER + INTRA:         -11.098
REMARK INTER:                  -8.986
REMARK INTRA:                  -2.112
REMARK UNBOUND:                -2.265
REMARK SMILES CC(=O)CCC=C(C)CCC=C(C)CCC=C(C)C
REMARK SMILES IDX 10 1 11 2 12 3 13 4 14 5 15 6 16 7 18 8 17 9 19 10 9 11 7 12
REMARK SMILES IDX 6 13 8 14 5 15 4 16 2 17 3 18 1 19
REMARK H PARENT
REMARK Flexibility Score: inf
ROOT
ATOM      1  C   UNL     1      -7.569  34.418  21.748  1.00  0.00     0.032 C 
ENDROOT
BRANCH   1   2
ATOM      2  C   UNL     1      -8.158  35.337  22.792  1.00  0.00    -0.028 C 
ATOM      3  C   UNL     1      -8.188  35.092  24.122  1.00  0.00    -0.077 C 
ATOM      4  C   UNL     1      -8.893  36.083  25.012  1.00  0.00     0.039 C 
BRANCH   3   5
ATOM      5  C   UNL     1      -7.516  33.893  24.768  1.00  0.00     0.034 C 
BRANCH   5   6
ATOM      6  C   UNL     1      -7.835  33.796  26.267  1.00  0.00     0.032 C 
BRANCH   6   7
ATOM      7  C   UNL     1      -8.884  32.745  26.540  1.00  0.00    -0.028 C 
ATOM      8  C   UNL     1      -8.277  32.492  28.957  1.00  0.00     0.039 C 
ATOM      9  C   UNL     1      -9.076  32.131  27.729  1.00  0.00    -0.080 C 
ATOM     10  C   UNL     1     -10.125  31.054  27.817  1.00  0.00     0.039 C 
ENDBRANCH   6   7
ENDBRANCH   5   6
ENDBRANCH   3   5
ENDBRANCH   1   2
BRANCH   1  11
ATOM     11  C   UNL     1      -8.610  33.423  21.215  1.00  0.00     0.034 C 
BRANCH  11  12
ATOM     12  C   UNL     1      -8.658  32.159  22.049  1.00  0.00    -0.077 C 
ATOM     13  C   UNL     1      -7.606  31.309  22.018  1.00  0.00    -0.028 C 
ATOM     14  C   UNL     1      -9.878  31.886  22.898  1.00  0.00     0.039 C 
BRANCH  13  15
ATOM     15  C   UNL     1      -7.556  29.988  22.742  1.00  0.00     0.035 C 
BRANCH  15  16
ATOM     16  C   UNL     1      -6.750  30.112  24.038  1.00  0.00     0.079 C 
BRANCH  16  17
ATOM     17  C   UNL     1      -7.571  29.671  25.221  1.00  0.00     0.130 C 
ATOM     18  O   UNL     1      -7.104  29.765  26.345  1.00  0.00    -0.300 OA
ATOM     19  C   UNL     1      -8.960  29.128  25.050  1.00  0.00     0.087 C 
ENDBRANCH  16  17
ENDBRANCH  15  16
ENDBRANCH  13  15
ENDBRANCH  11  12
ENDBRANCH   1  11
TORSDOF 9
ENDMDL
MODEL 8
REMARK VINA RESULT:    -5.369      1.367      4.182
REMARK INTER + INTRA:         -10.458
REMARK INTER:                  -9.659
REMARK INTRA:                  -0.799
REMARK UNBOUND:                -2.265
REMARK SMILES CC(=O)CCC=C(C)CCC=C(C)CCC=C(C)C
REMARK SMILES IDX 10 1 11 2 12 3 13 4 14 5 15 6 16 7 18 8 17 9 19 10 9 11 7 12
REMARK SMILES IDX 6 13 8 14 5 15 4 16 2 17 3 18 1 19
REMARK H PARENT
REMARK Flexibility Score: inf
ROOT
ATOM      1  C   UNL     1      -8.792  30.996  21.581  1.00  0.00     0.032 C 
ENDROOT
BRANCH   1   2
ATOM      2  C   UNL     1      -7.993  31.951  20.726  1.00  0.00    -0.028 C 
ATOM      3  C   UNL     1      -7.914  33.288  20.912  1.00  0.00    -0.077 C 
ATOM      4  C   UNL     1      -7.137  34.100  19.908  1.00  0.00     0.039 C 
BRANCH   3   5
ATOM      5  C   UNL     1      -8.534  34.007  22.097  1.00  0.00     0.034 C 
BRANCH   5   6
ATOM      6  C   UNL     1      -7.468  34.621  23.016  1.00  0.00     0.032 C 
BRANCH   6   7
ATOM      7  C   UNL     1      -7.498  33.995  24.389  1.00  0.00    -0.028 C 
ATOM      8  C   UNL     1      -8.873  35.826  25.405  1.00  0.00     0.039 C 
ATOM      9  C   UNL     1      -8.097  34.535  25.475  1.00  0.00    -0.080 C 
ATOM     10  C   UNL     1      -7.977  33.812  26.791  1.00  0.00     0.039 C 
ENDBRANCH   6   7
ENDBRANCH   5   6
ENDBRANCH   3   5
ENDBRANCH   1   2
BRANCH   1  11
ATOM     11  C   UNL     1      -7.940  30.392  22.707  1.00  0.00     0.034 C 
BRANCH  11  12
ATOM     12  C   UNL     1      -8.619  29.197  23.345  1.00  0.00    -0.077 C 
ATOM     13  C   UNL     1      -9.201  29.339  24.557  1.00  0.00    -0.028 C 
ATOM     14  C   UNL     1      -8.630  27.879  22.606  1.00  0.00     0.039 C 
BRANCH  13  15
ATOM     15  C   UNL     1      -9.844  28.217  25.332  1.00  0.00     0.035 C 
BRANCH  15  16
ATOM     16  C   UNL     1      -9.583  28.378  26.832  1.00  0.00     0.079 C 
BRANCH  16  17
ATOM     17  C   UNL     1      -8.999  29.735  27.129  1.00  0.00     0.130 C 
ATOM     18  O   UNL     1      -9.720  30.616  27.569  1.00  0.00    -0.300 OA
ATOM     19  C   UNL     1      -7.543  30.025  26.906  1.00  0.00     0.087 C 
ENDBRANCH  16  17
ENDBRANCH  15  16
ENDBRANCH  13  15
ENDBRANCH  11  12
ENDBRANCH   1  11
TORSDOF 9
ENDMDL
MODEL 9
REMARK VINA RESULT:    -4.983      1.618      4.126
REMARK INTER + INTRA:          -9.870
REMARK INTER:                  -8.137
REMARK INTRA:                  -1.733
REMARK UNBOUND:                -2.265
REMARK SMILES CC(=O)CCC=C(C)CCC=C(C)CCC=C(C)C
REMARK SMILES IDX 10 1 11 2 12 3 13 4 14 5 15 6 16 7 18 8 17 9 19 10 9 11 7 12
REMARK SMILES IDX 6 13 8 14 5 15 4 16 2 17 3 18 1 19
REMARK H PARENT
REMARK Flexibility Score: inf
ROOT
ATOM      1  C   UNL     1     -10.125  32.803  23.815  1.00  0.00     0.032 C 
ENDROOT
BRANCH   1   2
ATOM      2  C   UNL     1      -9.122  32.158  22.888  1.00  0.00    -0.028 C 
ATOM      3  C   UNL     1      -8.387  32.809  21.957  1.00  0.00    -0.077 C 
ATOM      4  C   UNL     1      -7.495  31.992  21.058  1.00  0.00     0.039 C 
BRANCH   3   5
ATOM      5  C   UNL     1      -8.386  34.319  21.797  1.00  0.00     0.034 C 
BRANCH   5   6
ATOM      6  C   UNL     1      -7.475  35.004  22.826  1.00  0.00     0.032 C 
BRANCH   6   7
ATOM      7  C   UNL     1      -8.279  35.647  23.931  1.00  0.00    -0.028 C 
ATOM      8  C   UNL     1      -6.954  34.588  25.774  1.00  0.00     0.039 C 
ATOM      9  C   UNL     1      -8.078  35.449  25.253  1.00  0.00    -0.080 C 
ATOM     10  C   UNL     1      -9.014  36.117  26.227  1.00  0.00     0.039 C 
ENDBRANCH   6   7
ENDBRANCH   5   6
ENDBRANCH   3   5
ENDBRANCH   1   2
BRANCH   1  11
ATOM     11  C   UNL     1      -9.841  32.462  25.285  1.00  0.00     0.034 C 
BRANCH  11  12
ATOM     12  C   UNL     1      -9.216  31.090  25.433  1.00  0.00    -0.077 C 
ATOM     13  C   UNL     1      -9.872  30.011  24.949  1.00  0.00    -0.028 C 
ATOM     14  C   UNL     1      -7.871  30.965  26.113  1.00  0.00     0.039 C 
BRANCH  13  15
ATOM     15  C   UNL     1      -9.396  28.588  25.094  1.00  0.00     0.035 C 
BRANCH  15  16
ATOM     16  C   UNL     1      -9.407  27.875  23.738  1.00  0.00     0.079 C 
BRANCH  16  17
ATOM     17  C   UNL     1      -8.550  28.611  22.742  1.00  0.00     0.130 C 
ATOM     18  O   UNL     1      -9.016  28.910  21.654  1.00  0.00    -0.300 OA
ATOM     19  C   UNL     1      -7.136  28.999  23.063  1.00  0.00     0.087 C 
ENDBRANCH  16  17
ENDBRANCH  15  16
ENDBRANCH  13  15
ENDBRANCH  11  12
ENDBRANCH   1  11
TORSDOF 9
ENDMDL
