MODEL 1
REMARK VINA RESULT:    -5.783      0.000      0.000
REMARK INTER + INTRA:         -10.564
REMARK INTER:                  -9.839
REMARK INTRA:                  -0.725
REMARK UNBOUND:                -0.725
REMARK SMILES CCCCCCCCCCCCCC(=O)[O-]
REMARK SMILES IDX 8 1 9 2 10 3 11 4 12 5 13 6 14 7 15 8 16 9 7 10 6 11 5 12
REMARK SMILES IDX 4 13 3 14 2 15 1 16
REMARK H PARENT
REMARK Flexibility Score: inf
ROOT
ATOM      1  C   UNL     1     -11.381  -0.269 -10.389  1.00  0.00     0.000 C 
ENDROOT
BRANCH   1   2
ATOM      2  C   UNL     1     -12.763  -0.929 -10.505  1.00  0.00     0.000 C 
BRANCH   2   3
ATOM      3  C   UNL     1     -13.900   0.098 -10.626  1.00  0.00     0.000 C 
BRANCH   3   4
ATOM      4  C   UNL     1     -14.190   0.820  -9.299  1.00  0.00     0.000 C 
BRANCH   4   5
ATOM      5  C   UNL     1     -14.054   2.346  -9.414  1.00  0.00     0.006 C 
BRANCH   5   6
ATOM      6  C   UNL     1     -12.594   2.800  -9.546  1.00  0.00     0.053 C 
BRANCH   6   7
ATOM      7  C   UNL     1     -12.266   3.812  -8.495  1.00  0.00     0.041 C 
ATOM      8  O   UNL     1     -13.161   4.580  -8.054  1.00  0.00    -0.550 OA
ATOM      9  O   UNL     1     -10.982   3.876  -7.968  1.00  0.00    -0.550 OA
ENDBRANCH   6   7
ENDBRANCH   5   6
ENDBRANCH   4   5
ENDBRANCH   3   4
ENDBRANCH   2   3
ENDBRANCH   1   2
BRANCH   1  10
ATOM     10  C   UNL     1     -10.399  -1.182  -9.641  1.00  0.00     0.000 C 
BRANCH  10  11
ATOM     11  C   UNL     1     -10.920  -2.619  -9.489  1.00  0.00    -0.000 C 
BRANCH  11  12
ATOM     12  C   UNL     1      -9.802  -3.669  -9.587  1.00  0.00    -0.000 C 
BRANCH  12  13
ATOM     13  C   UNL     1      -8.989  -3.727  -8.284  1.00  0.00    -0.000 C 
BRANCH  13  14
ATOM     14  C   UNL     1      -9.876  -3.897  -7.041  1.00  0.00    -0.000 C 
BRANCH  14  15
ATOM     15  C   UNL     1     -10.373  -5.339  -6.861  1.00  0.00    -0.003 C 
ATOM     16  C   UNL     1     -11.138  -5.498  -5.551  1.00  0.00     0.004 C 
ENDBRANCH  14  15
ENDBRANCH  13  14
ENDBRANCH  12  13
ENDBRANCH  11  12
ENDBRANCH  10  11
ENDBRANCH   1  10
TORSDOF 12
ENDMDL
MODEL 2
REMARK VINA RESULT:    -5.671      3.599      7.507
REMARK INTER + INTRA:         -10.375
REMARK INTER:                  -9.733
REMARK INTRA:                  -0.642
REMARK UNBOUND:                -0.725
REMARK SMILES CCCCCCCCCCCCCC(=O)[O-]
REMARK SMILES IDX 8 1 9 2 10 3 11 4 12 5 13 6 14 7 15 8 16 9 7 10 6 11 5 12
REMARK SMILES IDX 4 13 3 14 2 15 1 16
REMARK H PARENT
REMARK Flexibility Score: inf
ROOT
ATOM      1  C   UNL     1     -11.401  -0.500 -10.358  1.00  0.00     0.000 C 
ENDROOT
BRANCH   1   2
ATOM      2  C   UNL     1     -10.601  -1.209  -9.256  1.00  0.00     0.000 C 
BRANCH   2   3
ATOM      3  C   UNL     1     -10.627  -2.740  -9.398  1.00  0.00     0.000 C 
BRANCH   3   4
ATOM      4  C   UNL     1      -9.224  -3.365  -9.318  1.00  0.00     0.000 C 
BRANCH   4   5
ATOM      5  C   UNL     1      -9.130  -4.474  -8.258  1.00  0.00     0.006 C 
BRANCH   5   6
ATOM      6  C   UNL     1      -9.875  -4.118  -6.965  1.00  0.00     0.053 C 
BRANCH   6   7
ATOM      7  C   UNL     1     -10.357  -5.359  -6.283  1.00  0.00     0.041 C 
ATOM      8  O   UNL     1     -11.409  -5.333  -5.590  1.00  0.00    -0.550 OA
ATOM      9  O   UNL     1      -9.672  -6.555  -6.450  1.00  0.00    -0.550 OA
ENDBRANCH   6   7
ENDBRANCH   5   6
ENDBRANCH   4   5
ENDBRANCH   3   4
ENDBRANCH   2   3
ENDBRANCH   1   2
BRANCH   1  10
ATOM     10  C   UNL     1     -12.855  -0.994 -10.384  1.00  0.00     0.000 C 
BRANCH  10  11
ATOM     11  C   UNL     1     -13.862   0.133 -10.663  1.00  0.00    -0.000 C 
BRANCH  11  12
ATOM     12  C   UNL     1     -14.404   0.775  -9.376  1.00  0.00    -0.000 C 
BRANCH  12  13
ATOM     13  C   UNL     1     -14.084   2.277  -9.336  1.00  0.00    -0.000 C 
BRANCH  13  14
ATOM     14  C   UNL     1     -12.580   2.565  -9.458  1.00  0.00    -0.000 C 
BRANCH  14  15
ATOM     15  C   UNL     1     -12.215   3.995  -9.033  1.00  0.00    -0.003 C 
ATOM     16  C   UNL     1     -13.042   4.439  -7.830  1.00  0.00     0.004 C 
ENDBRANCH  14  15
ENDBRANCH  13  14
ENDBRANCH  12  13
ENDBRANCH  11  12
ENDBRANCH  10  11
ENDBRANCH   1  10
TORSDOF 12
ENDMDL
MODEL 3
REMARK VINA RESULT:    -5.559      4.285      7.902
REMARK INTER + INTRA:         -10.183
REMARK INTER:                  -9.466
REMARK INTRA:                  -0.718
REMARK UNBOUND:                -0.725
REMARK SMILES CCCCCCCCCCCCCC(=O)[O-]
REMARK SMILES IDX 8 1 9 2 10 3 11 4 12 5 13 6 14 7 15 8 16 9 7 10 6 11 5 12
REMARK SMILES IDX 4 13 3 14 2 15 1 16
REMARK H PARENT
REMARK Flexibility Score: inf
ROOT
ATOM      1  C   UNL     1     -10.566  -0.705  -9.621  1.00  0.00     0.000 C 
ENDROOT
BRANCH   1   2
ATOM      2  C   UNL     1     -10.589  -2.216  -9.348  1.00  0.00     0.000 C 
BRANCH   2   3
ATOM      3  C   UNL     1      -9.815  -2.599  -8.077  1.00  0.00     0.000 C 
BRANCH   3   4
ATOM      4  C   UNL     1      -9.703  -4.121  -7.888  1.00  0.00     0.000 C 
BRANCH   4   5
ATOM      5  C   UNL     1     -10.331  -4.602  -6.571  1.00  0.00     0.006 C 
BRANCH   5   6
ATOM      6  C   UNL     1     -11.257  -5.809  -6.765  1.00  0.00     0.053 C 
BRANCH   6   7
ATOM      7  C   UNL     1     -10.454  -7.058  -6.950  1.00  0.00     0.041 C 
ATOM      8  O   UNL     1     -10.287  -7.539  -8.101  1.00  0.00    -0.550 OA
ATOM      9  O   UNL     1      -9.850  -7.664  -5.856  1.00  0.00    -0.550 OA
ENDBRANCH   6   7
ENDBRANCH   5   6
ENDBRANCH   4   5
ENDBRANCH   3   4
ENDBRANCH   2   3
ENDBRANCH   1   2
BRANCH   1  10
ATOM     10  C   UNL     1     -11.601  -0.325 -10.690  1.00  0.00     0.000 C 
BRANCH  10  11
ATOM     11  C   UNL     1     -12.970  -0.981 -10.454  1.00  0.00    -0.000 C 
BRANCH  11  12
ATOM     12  C   UNL     1     -14.133   0.018 -10.564  1.00  0.00    -0.000 C 
BRANCH  12  13
ATOM     13  C   UNL     1     -14.176   0.945  -9.340  1.00  0.00    -0.000 C 
BRANCH  13  14
ATOM     14  C   UNL     1     -13.914   2.416  -9.702  1.00  0.00    -0.000 C 
BRANCH  14  15
ATOM     15  C   UNL     1     -12.506   2.881  -9.303  1.00  0.00    -0.003 C 
ATOM     16  C   UNL     1     -12.557   4.218  -8.569  1.00  0.00     0.004 C 
ENDBRANCH  14  15
ENDBRANCH  13  14
ENDBRANCH  12  13
ENDBRANCH  11  12
ENDBRANCH  10  11
ENDBRANCH   1  10
TORSDOF 12
ENDMDL
MODEL 4
REMARK VINA RESULT:    -5.056     15.402     17.726
REMARK INTER + INTRA:          -9.328
REMARK INTER:                  -8.297
REMARK INTRA:                  -1.032
REMARK UNBOUND:                -0.725
REMARK SMILES CCCCCCCCCCCCCC(=O)[O-]
REMARK SMILES IDX 8 1 9 2 10 3 11 4 12 5 13 6 14 7 15 8 16 9 7 10 6 11 5 12
REMARK SMILES IDX 4 13 3 14 2 15 1 16
REMARK H PARENT
REMARK Flexibility Score: inf
ROOT
ATOM      1  C   UNL     1      -9.481   6.495   7.985  1.00  0.00     0.000 C 
ENDROOT
BRANCH   1   2
ATOM      2  C   UNL     1     -10.352   5.418   8.647  1.00  0.00     0.000 C 
BRANCH   2   3
ATOM      3  C   UNL     1     -10.645   4.236   7.709  1.00  0.00     0.000 C 
BRANCH   3   4
ATOM      4  C   UNL     1     -12.127   4.155   7.304  1.00  0.00     0.000 C 
BRANCH   4   5
ATOM      5  C   UNL     1     -12.366   4.583   5.848  1.00  0.00     0.006 C 
BRANCH   5   6
ATOM      6  C   UNL     1     -13.010   5.971   5.739  1.00  0.00     0.053 C 
BRANCH   6   7
ATOM      7  C   UNL     1     -13.921   6.032   4.554  1.00  0.00     0.041 C 
ATOM      8  O   UNL     1     -14.933   6.782   4.571  1.00  0.00    -0.550 OA
ATOM      9  O   UNL     1     -13.629   5.296   3.413  1.00  0.00    -0.550 OA
ENDBRANCH   6   7
ENDBRANCH   5   6
ENDBRANCH   4   5
ENDBRANCH   3   4
ENDBRANCH   2   3
ENDBRANCH   1   2
BRANCH   1  10
ATOM     10  C   UNL     1      -9.112   6.096   6.549  1.00  0.00     0.000 C 
BRANCH  10  11
ATOM     11  C   UNL     1      -9.554   7.138   5.509  1.00  0.00    -0.000 C 
BRANCH  11  12
ATOM     12  C   UNL     1      -9.109   8.563   5.872  1.00  0.00    -0.000 C 
BRANCH  12  13
ATOM     13  C   UNL     1      -8.000   9.049   4.926  1.00  0.00    -0.000 C 
BRANCH  13  14
ATOM     14  C   UNL     1      -7.268  10.290   5.461  1.00  0.00    -0.000 C 
BRANCH  14  15
ATOM     15  C   UNL     1      -6.172   9.938   6.478  1.00  0.00    -0.003 C 
ATOM     16  C   UNL     1      -4.933  10.803   6.272  1.00  0.00     0.004 C 
ENDBRANCH  14  15
ENDBRANCH  13  14
ENDBRANCH  12  13
ENDBRANCH  11  12
ENDBRANCH  10  11
ENDBRANCH   1  10
TORSDOF 12
ENDMDL
MODEL 5
REMARK VINA RESULT:    -5.033      2.184      4.739
REMARK INTER + INTRA:          -9.290
REMARK INTER:                  -7.867
REMARK INTRA:                  -1.423
REMARK UNBOUND:                -0.725
REMARK SMILES CCCCCCCCCCCCCC(=O)[O-]
REMARK SMILES IDX 8 1 9 2 10 3 11 4 12 5 13 6 14 7 15 8 16 9 7 10 6 11 5 12
REMARK SMILES IDX 4 13 3 14 2 15 1 16
REMARK H PARENT
REMARK Flexibility Score: inf
ROOT
ATOM      1  C   UNL     1      -9.941  -4.066  -7.063  1.00  0.00     0.000 C 
ENDROOT
BRANCH   1   2
ATOM      2  C   UNL     1      -8.917  -4.119  -8.206  1.00  0.00     0.000 C 
BRANCH   2   3
ATOM      3  C   UNL     1      -9.402  -3.391  -9.470  1.00  0.00     0.000 C 
BRANCH   3   4
ATOM      4  C   UNL     1     -10.725  -2.638  -9.248  1.00  0.00     0.000 C 
BRANCH   4   5
ATOM      5  C   UNL     1     -10.573  -1.117  -9.408  1.00  0.00     0.006 C 
BRANCH   5   6
ATOM      6  C   UNL     1     -11.500  -0.541 -10.487  1.00  0.00     0.053 C 
BRANCH   6   7
ATOM      7  C   UNL     1     -12.449   0.446  -9.886  1.00  0.00     0.041 C 
ATOM      8  O   UNL     1     -12.014   1.511  -9.373  1.00  0.00    -0.550 OA
ATOM      9  O   UNL     1     -13.817   0.214  -9.934  1.00  0.00    -0.550 OA
ENDBRANCH   6   7
ENDBRANCH   5   6
ENDBRANCH   4   5
ENDBRANCH   3   4
ENDBRANCH   2   3
ENDBRANCH   1   2
BRANCH   1  10
ATOM     10  C   UNL     1     -10.189  -5.465  -6.483  1.00  0.00     0.000 C 
BRANCH  10  11
ATOM     11  C   UNL     1     -11.243  -5.468  -5.365  1.00  0.00    -0.000 C 
BRANCH  11  12
ATOM     12  C   UNL     1     -12.333  -6.530  -5.581  1.00  0.00    -0.000 C 
BRANCH  12  13
ATOM     13  C   UNL     1     -12.428  -6.924  -7.063  1.00  0.00    -0.000 C 
BRANCH  13  14
ATOM     14  C   UNL     1     -13.417  -6.046  -7.846  1.00  0.00    -0.000 C 
BRANCH  14  15
ATOM     15  C   UNL     1     -12.862  -5.598  -9.206  1.00  0.00    -0.003 C 
ATOM     16  C   UNL     1     -11.697  -6.482  -9.642  1.00  0.00     0.004 C 
ENDBRANCH  14  15
ENDBRANCH  13  14
ENDBRANCH  12  13
ENDBRANCH  11  12
ENDBRANCH  10  11
ENDBRANCH   1  10
TORSDOF 12
ENDMDL
MODEL 6
REMARK VINA RESULT:    -5.030      4.255      7.712
REMARK INTER + INTRA:          -9.284
REMARK INTER:                  -8.176
REMARK INTRA:                  -1.108
REMARK UNBOUND:                -0.725
REMARK SMILES CCCCCCCCCCCCCC(=O)[O-]
REMARK SMILES IDX 8 1 9 2 10 3 11 4 12 5 13 6 14 7 15 8 16 9 7 10 6 11 5 12
REMARK SMILES IDX 4 13 3 14 2 15 1 16
REMARK H PARENT
REMARK Flexibility Score: inf
ROOT
ATOM      1  C   UNL     1     -10.182  -3.822  -8.058  1.00  0.00     0.000 C 
ENDROOT
BRANCH   1   2
ATOM      2  C   UNL     1     -11.069  -4.275  -9.227  1.00  0.00     0.000 C 
BRANCH   2   3
ATOM      3  C   UNL     1     -11.648  -5.683  -9.019  1.00  0.00     0.000 C 
BRANCH   3   4
ATOM      4  C   UNL     1     -10.556  -6.756  -8.867  1.00  0.00     0.000 C 
BRANCH   4   5
ATOM      5  C   UNL     1     -10.907  -7.811  -7.806  1.00  0.00     0.006 C 
BRANCH   5   6
ATOM      6  C   UNL     1     -10.200  -7.560  -6.468  1.00  0.00     0.053 C 
BRANCH   6   7
ATOM      7  C   UNL     1     -11.178  -7.073  -5.446  1.00  0.00     0.041 C 
ATOM      8  O   UNL     1     -11.715  -7.885  -4.646  1.00  0.00    -0.550 OA
ATOM      9  O   UNL     1     -11.461  -5.718  -5.343  1.00  0.00    -0.550 OA
ENDBRANCH   6   7
ENDBRANCH   5   6
ENDBRANCH   4   5
ENDBRANCH   3   4
ENDBRANCH   2   3
ENDBRANCH   1   2
BRANCH   1  10
ATOM     10  C   UNL     1      -9.852  -2.327  -8.167  1.00  0.00     0.000 C 
BRANCH  10  11
ATOM     11  C   UNL     1     -10.093  -1.765  -9.577  1.00  0.00    -0.000 C 
BRANCH  11  12
ATOM     12  C   UNL     1     -10.816  -0.408  -9.558  1.00  0.00    -0.000 C 
BRANCH  12  13
ATOM     13  C   UNL     1     -11.978  -0.392 -10.562  1.00  0.00    -0.000 C 
BRANCH  13  14
ATOM     14  C   UNL     1     -13.270   0.186  -9.963  1.00  0.00    -0.000 C 
BRANCH  14  15
ATOM     15  C   UNL     1     -14.492  -0.708 -10.216  1.00  0.00    -0.003 C 
ATOM     16  C   UNL     1     -14.128  -2.185 -10.090  1.00  0.00     0.004 C 
ENDBRANCH  14  15
ENDBRANCH  13  14
ENDBRANCH  12  13
ENDBRANCH  11  12
ENDBRANCH  10  11
ENDBRANCH   1  10
TORSDOF 12
ENDMDL
MODEL 7
REMARK VINA RESULT:    -5.008      4.159      7.615
REMARK INTER + INTRA:          -9.247
REMARK INTER:                  -8.419
REMARK INTRA:                  -0.828
REMARK UNBOUND:                -0.725
REMARK SMILES CCCCCCCCCCCCCC(=O)[O-]
REMARK SMILES IDX 8 1 9 2 10 3 11 4 12 5 13 6 14 7 15 8 16 9 7 10 6 11 5 12
REMARK SMILES IDX 4 13 3 14 2 15 1 16
REMARK H PARENT
REMARK Flexibility Score: inf
ROOT
ATOM      1  C   UNL     1     -14.681  -2.709 -10.492  1.00  0.00     0.000 C 
ENDROOT
BRANCH   1   2
ATOM      2  C   UNL     1     -13.459  -3.473  -9.961  1.00  0.00     0.000 C 
BRANCH   2   3
ATOM      3  C   UNL     1     -13.842  -4.781  -9.251  1.00  0.00     0.000 C 
BRANCH   3   4
ATOM      4  C   UNL     1     -12.623  -5.523  -8.678  1.00  0.00     0.000 C 
BRANCH   4   5
ATOM      5  C   UNL     1     -11.348  -4.664  -8.692  1.00  0.00     0.006 C 
BRANCH   5   6
ATOM      6  C   UNL     1     -10.070  -5.503  -8.569  1.00  0.00     0.053 C 
BRANCH   6   7
ATOM      7  C   UNL     1     -10.056  -6.245  -7.270  1.00  0.00     0.041 C 
ATOM      8  O   UNL     1     -10.103  -5.615  -6.181  1.00  0.00    -0.550 OA
ATOM      9  O   UNL     1     -10.038  -7.633  -7.262  1.00  0.00    -0.550 OA
ENDBRANCH   6   7
ENDBRANCH   5   6
ENDBRANCH   4   5
ENDBRANCH   3   4
ENDBRANCH   2   3
ENDBRANCH   1   2
BRANCH   1  10
ATOM     10  C   UNL     1     -14.275  -1.326 -11.022  1.00  0.00     0.000 C 
BRANCH  10  11
ATOM     11  C   UNL     1     -12.798  -0.997 -10.757  1.00  0.00    -0.000 C 
BRANCH  11  12
ATOM     12  C   UNL     1     -12.614   0.321  -9.987  1.00  0.00    -0.000 C 
BRANCH  12  13
ATOM     13  C   UNL     1     -13.973   0.927  -9.606  1.00  0.00    -0.000 C 
BRANCH  13  14
ATOM     14  C   UNL     1     -13.902   2.446  -9.387  1.00  0.00    -0.000 C 
BRANCH  14  15
ATOM     15  C   UNL     1     -12.460   2.962  -9.280  1.00  0.00    -0.003 C 
ATOM     16  C   UNL     1     -12.398   4.261  -8.481  1.00  0.00     0.004 C 
ENDBRANCH  14  15
ENDBRANCH  13  14
ENDBRANCH  12  13
ENDBRANCH  11  12
ENDBRANCH  10  11
ENDBRANCH   1  10
TORSDOF 12
ENDMDL
MODEL 8
REMARK VINA RESULT:    -4.983     15.766     17.778
REMARK INTER + INTRA:          -9.203
REMARK INTER:                  -8.048
REMARK INTRA:                  -1.156
REMARK UNBOUND:                -0.725
REMARK SMILES CCCCCCCCCCCCCC(=O)[O-]
REMARK SMILES IDX 8 1 9 2 10 3 11 4 12 5 13 6 14 7 15 8 16 9 7 10 6 11 5 12
REMARK SMILES IDX 4 13 3 14 2 15 1 16
REMARK H PARENT
REMARK Flexibility Score: inf
ROOT
ATOM      1  C   UNL     1      -9.586   6.468   7.844  1.00  0.00     0.000 C 
ENDROOT
BRANCH   1   2
ATOM      2  C   UNL     1      -9.062   6.039   6.466  1.00  0.00     0.000 C 
BRANCH   2   3
ATOM      3  C   UNL     1      -9.081   7.186   5.443  1.00  0.00     0.000 C 
BRANCH   3   4
ATOM      4  C   UNL     1      -8.592   8.518   6.038  1.00  0.00     0.000 C 
BRANCH   4   5
ATOM      5  C   UNL     1      -7.948   9.434   4.985  1.00  0.00     0.006 C 
BRANCH   5   6
ATOM      6  C   UNL     1      -6.791  10.264   5.554  1.00  0.00     0.053 C 
BRANCH   6   7
ATOM      7  C   UNL     1      -7.279  11.157   6.650  1.00  0.00     0.041 C 
ATOM      8  O   UNL     1      -8.170  12.017   6.418  1.00  0.00    -0.550 OA
ATOM      9  O   UNL     1      -6.786  11.009   7.940  1.00  0.00    -0.550 OA
ENDBRANCH   6   7
ENDBRANCH   5   6
ENDBRANCH   4   5
ENDBRANCH   3   4
ENDBRANCH   2   3
ENDBRANCH   1   2
BRANCH   1  10
ATOM     10  C   UNL     1     -10.133   5.262   8.622  1.00  0.00     0.000 C 
BRANCH  10  11
ATOM     11  C   UNL     1     -10.616   4.130   7.702  1.00  0.00    -0.000 C 
BRANCH  11  12
ATOM     12  C   UNL     1     -12.136   4.159   7.474  1.00  0.00    -0.000 C 
BRANCH  12  13
ATOM     13  C   UNL     1     -12.468   4.657   6.060  1.00  0.00    -0.000 C 
BRANCH  13  14
ATOM     14  C   UNL     1     -12.760   6.165   6.017  1.00  0.00    -0.000 C 
BRANCH  14  15
ATOM     15  C   UNL     1     -13.311   6.623   4.658  1.00  0.00    -0.003 C 
ATOM     16  C   UNL     1     -13.326   5.473   3.655  1.00  0.00     0.004 C 
ENDBRANCH  14  15
ENDBRANCH  13  14
ENDBRANCH  12  13
ENDBRANCH  11  12
ENDBRANCH  10  11
ENDBRANCH   1  10
TORSDOF 12
ENDMDL
MODEL 9
REMARK VINA RESULT:    -4.251      4.458      8.087
REMARK INTER + INTRA:          -7.958
REMARK INTER:                  -7.140
REMARK INTRA:                  -0.818
REMARK UNBOUND:                -0.725
REMARK SMILES CCCCCCCCCCCCCC(=O)[O-]
REMARK SMILES IDX 8 1 9 2 10 3 11 4 12 5 13 6 14 7 15 8 16 9 7 10 6 11 5 12
REMARK SMILES IDX 4 13 3 14 2 15 1 16
REMARK H PARENT
REMARK Flexibility Score: inf
ROOT
ATOM      1  C   UNL     1      -8.878  -3.424  -8.501  1.00  0.00     0.000 C 
ENDROOT
BRANCH   1   2
ATOM      2  C   UNL     1      -9.659  -3.640  -7.197  1.00  0.00     0.000 C 
BRANCH   2   3
ATOM      3  C   UNL     1     -10.632  -4.826  -7.280  1.00  0.00     0.000 C 
BRANCH   3   4
ATOM      4  C   UNL     1     -10.144  -6.049  -6.485  1.00  0.00     0.000 C 
BRANCH   4   5
ATOM      5  C   UNL     1     -10.242  -7.355  -7.290  1.00  0.00     0.006 C 
BRANCH   5   6
ATOM      6  C   UNL     1     -10.592  -7.114  -8.764  1.00  0.00     0.053 C 
BRANCH   6   7
ATOM      7  C   UNL     1     -11.935  -7.691  -9.082  1.00  0.00     0.041 C 
ATOM      8  O   UNL     1     -12.673  -8.125  -8.157  1.00  0.00    -0.550 OA
ATOM      9  O   UNL     1     -12.394  -7.705 -10.392  1.00  0.00    -0.550 OA
ENDBRANCH   6   7
ENDBRANCH   5   6
ENDBRANCH   4   5
ENDBRANCH   3   4
ENDBRANCH   2   3
ENDBRANCH   1   2
BRANCH   1  10
ATOM     10  C   UNL     1      -9.831  -3.141  -9.671  1.00  0.00     0.000 C 
BRANCH  10  11
ATOM     11  C   UNL     1     -10.435  -1.728  -9.619  1.00  0.00    -0.000 C 
BRANCH  11  12
ATOM     12  C   UNL     1     -11.871  -1.677 -10.164  1.00  0.00    -0.000 C 
BRANCH  12  13
ATOM     13  C   UNL     1     -12.357  -0.226 -10.293  1.00  0.00    -0.000 C 
BRANCH  13  14
ATOM     14  C   UNL     1     -13.890  -0.113 -10.299  1.00  0.00    -0.000 C 
BRANCH  14  15
ATOM     15  C   UNL     1     -14.395   1.130  -9.553  1.00  0.00    -0.003 C 
ATOM     16  C   UNL     1     -13.345   2.238  -9.556  1.00  0.00     0.004 C 
ENDBRANCH  14  15
ENDBRANCH  13  14
ENDBRANCH  12  13
ENDBRANCH  11  12
ENDBRANCH  10  11
ENDBRANCH   1  10
TORSDOF 12
ENDMDL
