MODEL 1
REMARK VINA RESULT:    -5.986      0.000      0.000
REMARK INTER + INTRA:          -8.775
REMARK INTER:                  -8.085
REMARK INTRA:                  -0.690
REMARK UNBOUND:                -0.690
REMARK SMILES CC(=O)CCC=C(C)CCC=C(C)C
REMARK SMILES IDX 7 1 6 2 8 3 9 4 10 5 11 6 13 7 12 8 14 9 5 10 4 11 2 12 3 13
REMARK SMILES IDX 1 14
REMARK H PARENT
REMARK Flexibility Score: inf
ROOT
ATOM      1  C   UNL     1      33.770  21.091  16.514  1.00  0.00    -0.077 C 
ATOM      2  C   UNL     1      34.502  20.025  16.119  1.00  0.00    -0.028 C 
ATOM      3  C   UNL     1      32.390  21.362  15.959  1.00  0.00     0.039 C 
ENDROOT
BRANCH   1   4
ATOM      4  C   UNL     1      34.363  22.055  17.520  1.00  0.00     0.034 C 
BRANCH   4   5
ATOM      5  C   UNL     1      34.276  21.481  18.938  1.00  0.00     0.032 C 
BRANCH   5   6
ATOM      6  C   UNL     1      32.916  20.885  19.206  1.00  0.00    -0.028 C 
ATOM      7  C   UNL     1      33.343  20.793  21.665  1.00  0.00     0.039 C 
ATOM      8  C   UNL     1      32.482  20.568  20.444  1.00  0.00    -0.080 C 
ATOM      9  C   UNL     1      31.104  19.977  20.600  1.00  0.00     0.039 C 
ENDBRANCH   5   6
ENDBRANCH   4   5
ENDBRANCH   1   4
BRANCH   2  10
ATOM     10  C   UNL     1      34.012  18.956  15.171  1.00  0.00     0.035 C 
BRANCH  10  11
ATOM     11  C   UNL     1      33.676  17.648  15.901  1.00  0.00     0.079 C 
BRANCH  11  12
ATOM     12  C   UNL     1      32.302  17.684  16.515  1.00  0.00     0.130 C 
ATOM     13  O   UNL     1      32.167  17.993  17.690  1.00  0.00    -0.300 OA
ATOM     14  C   UNL     1      31.091  17.383  15.685  1.00  0.00     0.087 C 
ENDBRANCH  11  12
ENDBRANCH  10  11
ENDBRANCH   2  10
TORSDOF 6
ENDMDL
MODEL 2
REMARK VINA RESULT:    -5.832      1.562      4.691
REMARK INTER + INTRA:          -8.567
REMARK INTER:                  -7.809
REMARK INTRA:                  -0.758
REMARK UNBOUND:                -0.690
REMARK SMILES CC(=O)CCC=C(C)CCC=C(C)C
REMARK SMILES IDX 7 1 6 2 8 3 9 4 10 5 11 6 13 7 12 8 14 9 5 10 4 11 2 12 3 13
REMARK SMILES IDX 1 14
REMARK H PARENT
REMARK Flexibility Score: inf
ROOT
ATOM      1  C   UNL     1      32.653  17.853  16.637  1.00  0.00    -0.077 C 
ATOM      2  C   UNL     1      32.778  18.387  17.873  1.00  0.00    -0.028 C 
ATOM      3  C   UNL     1      31.334  17.314  16.132  1.00  0.00     0.039 C 
ENDROOT
BRANCH   1   4
ATOM      4  C   UNL     1      33.874  17.768  15.747  1.00  0.00     0.034 C 
BRANCH   4   5
ATOM      5  C   UNL     1      34.063  19.068  14.959  1.00  0.00     0.032 C 
BRANCH   5   6
ATOM      6  C   UNL     1      34.667  20.150  15.821  1.00  0.00    -0.028 C 
ATOM      7  C   UNL     1      32.498  21.382  15.948  1.00  0.00     0.039 C 
ATOM      8  C   UNL     1      33.962  21.208  16.276  1.00  0.00    -0.080 C 
ATOM      9  C   UNL     1      34.663  22.232  17.131  1.00  0.00     0.039 C 
ENDBRANCH   5   6
ENDBRANCH   4   5
ENDBRANCH   1   4
BRANCH   2  10
ATOM     10  C   UNL     1      31.635  18.587  18.839  1.00  0.00     0.035 C 
BRANCH  10  11
ATOM     11  C   UNL     1      31.520  20.047  19.302  1.00  0.00     0.079 C 
BRANCH  11  12
ATOM     12  C   UNL     1      31.425  20.155  20.801  1.00  0.00     0.130 C 
ATOM     13  O   UNL     1      32.427  20.388  21.460  1.00  0.00    -0.300 OA
ATOM     14  C   UNL     1      30.100  20.018  21.489  1.00  0.00     0.087 C 
ENDBRANCH  11  12
ENDBRANCH  10  11
ENDBRANCH   2  10
TORSDOF 6
ENDMDL
MODEL 3
REMARK VINA RESULT:    -5.771      1.864      4.778
REMARK INTER + INTRA:          -8.485
REMARK INTER:                  -7.552
REMARK INTRA:                  -0.934
REMARK UNBOUND:                -0.690
REMARK SMILES CC(=O)CCC=C(C)CCC=C(C)C
REMARK SMILES IDX 7 1 6 2 8 3 9 4 10 5 11 6 13 7 12 8 14 9 5 10 4 11 2 12 3 13
REMARK SMILES IDX 1 14
REMARK H PARENT
REMARK Flexibility Score: inf
ROOT
ATOM      1  C   UNL     1      33.205  21.356  17.504  1.00  0.00    -0.077 C 
ATOM      2  C   UNL     1      32.388  20.917  18.489  1.00  0.00    -0.028 C 
ATOM      3  C   UNL     1      34.634  21.768  17.778  1.00  0.00     0.039 C 
ENDROOT
BRANCH   1   4
ATOM      4  C   UNL     1      32.662  21.463  16.096  1.00  0.00     0.034 C 
BRANCH   4   5
ATOM      5  C   UNL     1      33.035  20.224  15.274  1.00  0.00     0.032 C 
BRANCH   5   6
ATOM      6  C   UNL     1      31.948  19.179  15.333  1.00  0.00    -0.028 C 
ATOM      7  C   UNL     1      33.322  17.706  16.809  1.00  0.00     0.039 C 
ATOM      8  C   UNL     1      32.069  18.029  16.029  1.00  0.00    -0.080 C 
ATOM      9  C   UNL     1      30.922  17.052  16.022  1.00  0.00     0.039 C 
ENDBRANCH   5   6
ENDBRANCH   4   5
ENDBRANCH   1   4
BRANCH   2  10
ATOM     10  C   UNL     1      32.814  20.705  19.923  1.00  0.00     0.035 C 
BRANCH  10  11
ATOM     11  C   UNL     1      32.009  19.590  20.605  1.00  0.00     0.079 C 
BRANCH  11  12
ATOM     12  C   UNL     1      31.237  20.100  21.794  1.00  0.00     0.130 C 
ATOM     13  O   UNL     1      31.825  20.660  22.707  1.00  0.00    -0.300 OA
ATOM     14  C   UNL     1      29.746  19.960  21.847  1.00  0.00     0.087 C 
ENDBRANCH  11  12
ENDBRANCH  10  11
ENDBRANCH   2  10
TORSDOF 6
ENDMDL
MODEL 4
REMARK VINA RESULT:    -5.699      1.607      2.905
REMARK INTER + INTRA:          -8.388
REMARK INTER:                  -7.706
REMARK INTRA:                  -0.682
REMARK UNBOUND:                -0.690
REMARK SMILES CC(=O)CCC=C(C)CCC=C(C)C
REMARK SMILES IDX 7 1 6 2 8 3 9 4 10 5 11 6 13 7 12 8 14 9 5 10 4 11 2 12 3 13
REMARK SMILES IDX 1 14
REMARK H PARENT
REMARK Flexibility Score: inf
ROOT
ATOM      1  C   UNL     1      33.319  21.292  18.436  1.00  0.00    -0.077 C 
ATOM      2  C   UNL     1      32.531  20.939  17.394  1.00  0.00    -0.028 C 
ATOM      3  C   UNL     1      34.689  21.897  18.230  1.00  0.00     0.039 C 
ENDROOT
BRANCH   1   4
ATOM      4  C   UNL     1      32.824  21.045  19.845  1.00  0.00     0.034 C 
BRANCH   4   5
ATOM      5  C   UNL     1      32.178  19.661  19.959  1.00  0.00     0.032 C 
BRANCH   5   6
ATOM      6  C   UNL     1      30.886  19.720  20.737  1.00  0.00    -0.028 C 
ATOM      7  C   UNL     1      32.055  19.226  22.887  1.00  0.00     0.039 C 
ATOM      8  C   UNL     1      30.820  19.524  22.070  1.00  0.00    -0.080 C 
ATOM      9  C   UNL     1      29.477  19.607  22.749  1.00  0.00     0.039 C 
ENDBRANCH   5   6
ENDBRANCH   4   5
ENDBRANCH   1   4
BRANCH   2  10
ATOM     10  C   UNL     1      32.873  21.181  15.943  1.00  0.00     0.035 C 
BRANCH  10  11
ATOM     11  C   UNL     1      32.862  19.882  15.124  1.00  0.00     0.079 C 
BRANCH  11  12
ATOM     12  C   UNL     1      34.094  19.051  15.373  1.00  0.00     0.130 C 
ATOM     13  O   UNL     1      34.002  17.835  15.451  1.00  0.00    -0.300 OA
ATOM     14  C   UNL     1      35.438  19.703  15.487  1.00  0.00     0.087 C 
ENDBRANCH  11  12
ENDBRANCH  10  11
ENDBRANCH   2  10
TORSDOF 6
ENDMDL
MODEL 5
REMARK VINA RESULT:    -5.689      1.532      2.509
REMARK INTER + INTRA:          -8.374
REMARK INTER:                  -7.660
REMARK INTRA:                  -0.714
REMARK UNBOUND:                -0.690
REMARK SMILES CC(=O)CCC=C(C)CCC=C(C)C
REMARK SMILES IDX 7 1 6 2 8 3 9 4 10 5 11 6 13 7 12 8 14 9 5 10 4 11 2 12 3 13
REMARK SMILES IDX 1 14
REMARK H PARENT
REMARK Flexibility Score: inf
ROOT
ATOM      1  C   UNL     1      33.568  21.481  17.894  1.00  0.00    -0.077 C 
ATOM      2  C   UNL     1      32.431  21.101  17.266  1.00  0.00    -0.028 C 
ATOM      3  C   UNL     1      34.810  21.871  17.126  1.00  0.00     0.039 C 
ENDROOT
BRANCH   1   4
ATOM      4  C   UNL     1      33.602  21.486  19.407  1.00  0.00     0.034 C 
BRANCH   4   5
ATOM      5  C   UNL     1      32.575  20.501  19.976  1.00  0.00     0.032 C 
BRANCH   5   6
ATOM      6  C   UNL     1      32.591  20.504  21.486  1.00  0.00    -0.028 C 
ATOM      7  C   UNL     1      30.145  20.013  21.601  1.00  0.00     0.039 C 
ATOM      8  C   UNL     1      31.490  20.283  22.234  1.00  0.00    -0.080 C 
ATOM      9  C   UNL     1      31.617  20.308  23.735  1.00  0.00     0.039 C 
ENDBRANCH   5   6
ENDBRANCH   4   5
ENDBRANCH   1   4
BRANCH   2  10
ATOM     10  C   UNL     1      32.238  21.106  15.768  1.00  0.00     0.035 C 
BRANCH  10  11
ATOM     11  C   UNL     1      31.903  19.710  15.225  1.00  0.00     0.079 C 
BRANCH  11  12
ATOM     12  C   UNL     1      32.952  18.695  15.599  1.00  0.00     0.130 C 
ATOM     13  O   UNL     1      34.109  18.854  15.238  1.00  0.00    -0.300 OA
ATOM     14  C   UNL     1      32.594  17.510  16.444  1.00  0.00     0.087 C 
ENDBRANCH  11  12
ENDBRANCH  10  11
ENDBRANCH   2  10
TORSDOF 6
ENDMDL
MODEL 6
REMARK VINA RESULT:    -5.655      1.821      3.141
REMARK INTER + INTRA:          -8.328
REMARK INTER:                  -7.750
REMARK INTRA:                  -0.578
REMARK UNBOUND:                -0.690
REMARK SMILES CC(=O)CCC=C(C)CCC=C(C)C
REMARK SMILES IDX 7 1 6 2 8 3 9 4 10 5 11 6 13 7 12 8 14 9 5 10 4 11 2 12 3 13
REMARK SMILES IDX 1 14
REMARK H PARENT
REMARK Flexibility Score: inf
ROOT
ATOM      1  C   UNL     1      33.471  21.366  18.887  1.00  0.00    -0.077 C 
ATOM      2  C   UNL     1      34.471  21.814  18.093  1.00  0.00    -0.028 C 
ATOM      3  C   UNL     1      32.204  20.771  18.315  1.00  0.00     0.039 C 
ENDROOT
BRANCH   1   4
ATOM      4  C   UNL     1      33.615  21.493  20.388  1.00  0.00     0.034 C 
BRANCH   4   5
ATOM      5  C   UNL     1      32.820  20.397  21.105  1.00  0.00     0.032 C 
BRANCH   5   6
ATOM      6  C   UNL     1      32.371  20.849  22.473  1.00  0.00    -0.028 C 
ATOM      7  C   UNL     1      34.409  19.894  23.555  1.00  0.00     0.039 C 
ATOM      8  C   UNL     1      33.088  20.625  23.594  1.00  0.00    -0.080 C 
ATOM      9  C   UNL     1      32.548  21.121  24.911  1.00  0.00     0.039 C 
ENDBRANCH   5   6
ENDBRANCH   4   5
ENDBRANCH   1   4
BRANCH   2  10
ATOM     10  C   UNL     1      34.485  21.696  16.587  1.00  0.00     0.035 C 
BRANCH  10  11
ATOM     11  C   UNL     1      35.131  20.385  16.118  1.00  0.00     0.079 C 
BRANCH  11  12
ATOM     12  C   UNL     1      34.166  19.532  15.336  1.00  0.00     0.130 C 
ATOM     13  O   UNL     1      33.581  20.002  14.372  1.00  0.00    -0.300 OA
ATOM     14  C   UNL     1      33.948  18.098  15.710  1.00  0.00     0.087 C 
ENDBRANCH  11  12
ENDBRANCH  10  11
ENDBRANCH   2  10
TORSDOF 6
ENDMDL
MODEL 7
REMARK VINA RESULT:    -5.650      2.441      5.972
REMARK INTER + INTRA:          -8.322
REMARK INTER:                  -7.490
REMARK INTRA:                  -0.832
REMARK UNBOUND:                -0.690
REMARK SMILES CC(=O)CCC=C(C)CCC=C(C)C
REMARK SMILES IDX 7 1 6 2 8 3 9 4 10 5 11 6 13 7 12 8 14 9 5 10 4 11 2 12 3 13
REMARK SMILES IDX 1 14
REMARK H PARENT
REMARK Flexibility Score: inf
ROOT
ATOM      1  C   UNL     1      31.615  20.061  20.701  1.00  0.00    -0.077 C 
ATOM      2  C   UNL     1      32.765  20.597  21.168  1.00  0.00    -0.028 C 
ATOM      3  C   UNL     1      30.428  19.811  21.603  1.00  0.00     0.039 C 
ENDROOT
BRANCH   1   4
ATOM      4  C   UNL     1      31.527  19.675  19.240  1.00  0.00     0.034 C 
BRANCH   4   5
ATOM      5  C   UNL     1      31.845  20.874  18.341  1.00  0.00     0.032 C 
BRANCH   5   6
ATOM      6  C   UNL     1      32.883  20.523  17.304  1.00  0.00    -0.028 C 
ATOM      7  C   UNL     1      34.579  22.016  18.368  1.00  0.00     0.039 C 
ATOM      8  C   UNL     1      34.131  21.037  17.307  1.00  0.00    -0.080 C 
ATOM      9  C   UNL     1      35.091  20.619  16.224  1.00  0.00     0.039 C 
ENDBRANCH   5   6
ENDBRANCH   4   5
ENDBRANCH   1   4
BRANCH   2  10
ATOM     10  C   UNL     1      32.971  21.082  22.584  1.00  0.00     0.035 C 
BRANCH  10  11
ATOM     11  C   UNL     1      34.050  20.274  23.318  1.00  0.00     0.079 C 
BRANCH  11  12
ATOM     12  C   UNL     1      33.472  19.076  24.025  1.00  0.00     0.130 C 
ATOM     13  O   UNL     1      33.236  18.054  23.397  1.00  0.00    -0.300 OA
ATOM     14  C   UNL     1      33.219  19.114  25.501  1.00  0.00     0.087 C 
ENDBRANCH  11  12
ENDBRANCH  10  11
ENDBRANCH   2  10
TORSDOF 6
ENDMDL
MODEL 8
REMARK VINA RESULT:    -5.599      8.036     11.699
REMARK INTER + INTRA:          -8.252
REMARK INTER:                  -7.510
REMARK INTRA:                  -0.742
REMARK UNBOUND:                -0.690
REMARK SMILES CC(=O)CCC=C(C)CCC=C(C)C
REMARK SMILES IDX 7 1 6 2 8 3 9 4 10 5 11 6 13 7 12 8 14 9 5 10 4 11 2 12 3 13
REMARK SMILES IDX 1 14
REMARK H PARENT
REMARK Flexibility Score: inf
ROOT
ATOM      1  C   UNL     1      29.018  17.978  27.877  1.00  0.00    -0.077 C 
ATOM      2  C   UNL     1      27.734  18.309  27.611  1.00  0.00    -0.028 C 
ATOM      3  C   UNL     1      29.432  17.398  29.211  1.00  0.00     0.039 C 
ENDROOT
BRANCH   1   4
ATOM      4  C   UNL     1      30.073  18.223  26.820  1.00  0.00     0.034 C 
BRANCH   4   5
ATOM      5  C   UNL     1      29.623  19.320  25.848  1.00  0.00     0.032 C 
BRANCH   5   6
ATOM      6  C   UNL     1      30.759  19.768  24.962  1.00  0.00    -0.028 C 
ATOM      7  C   UNL     1      29.421  19.365  22.892  1.00  0.00     0.039 C 
ATOM      8  C   UNL     1      30.677  19.791  23.615  1.00  0.00    -0.080 C 
ATOM      9  C   UNL     1      31.872  20.257  22.824  1.00  0.00     0.039 C 
ENDBRANCH   5   6
ENDBRANCH   4   5
ENDBRANCH   1   4
BRANCH   2  10
ATOM     10  C   UNL     1      26.575  18.066  28.548  1.00  0.00     0.035 C 
BRANCH  10  11
ATOM     11  C   UNL     1      25.876  19.371  28.952  1.00  0.00     0.079 C 
BRANCH  11  12
ATOM     12  C   UNL     1      26.770  20.254  29.783  1.00  0.00     0.130 C 
ATOM     13  O   UNL     1      27.274  19.818  30.808  1.00  0.00    -0.300 OA
ATOM     14  C   UNL     1      27.078  21.652  29.342  1.00  0.00     0.087 C 
ENDBRANCH  11  12
ENDBRANCH  10  11
ENDBRANCH   2  10
TORSDOF 6
ENDMDL
MODEL 9
REMARK VINA RESULT:    -5.583      8.426     11.418
REMARK INTER + INTRA:          -8.231
REMARK INTER:                  -7.538
REMARK INTRA:                  -0.694
REMARK UNBOUND:                -0.690
REMARK SMILES CC(=O)CCC=C(C)CCC=C(C)C
REMARK SMILES IDX 7 1 6 2 8 3 9 4 10 5 11 6 13 7 12 8 14 9 5 10 4 11 2 12 3 13
REMARK SMILES IDX 1 14
REMARK H PARENT
REMARK Flexibility Score: inf
ROOT
ATOM      1  C   UNL     1      28.741  18.745  26.837  1.00  0.00    -0.077 C 
ATOM      2  C   UNL     1      27.820  18.128  27.611  1.00  0.00    -0.028 C 
ATOM      3  C   UNL     1      28.400  19.963  26.009  1.00  0.00     0.039 C 
ENDROOT
BRANCH   1   4
ATOM      4  C   UNL     1      30.145  18.182  26.778  1.00  0.00     0.034 C 
BRANCH   4   5
ATOM      5  C   UNL     1      30.952  18.851  25.660  1.00  0.00     0.032 C 
BRANCH   5   6
ATOM      6  C   UNL     1      32.426  18.555  25.795  1.00  0.00    -0.028 C 
ATOM      7  C   UNL     1      33.048  20.831  24.977  1.00  0.00     0.039 C 
ATOM      8  C   UNL     1      33.388  19.450  25.486  1.00  0.00    -0.080 C 
ATOM      9  C   UNL     1      34.831  19.051  25.658  1.00  0.00     0.039 C 
ENDBRANCH   5   6
ENDBRANCH   4   5
ENDBRANCH   1   4
BRANCH   2  10
ATOM     10  C   UNL     1      26.404  18.614  27.810  1.00  0.00     0.035 C 
BRANCH  10  11
ATOM     11  C   UNL     1      26.092  18.893  29.287  1.00  0.00     0.079 C 
BRANCH  11  12
ATOM     12  C   UNL     1      26.921  20.027  29.832  1.00  0.00     0.130 C 
ATOM     13  O   UNL     1      27.664  19.836  30.783  1.00  0.00    -0.300 OA
ATOM     14  C   UNL     1      26.870  21.380  29.190  1.00  0.00     0.087 C 
ENDBRANCH  11  12
ENDBRANCH  10  11
ENDBRANCH   2  10
TORSDOF 6
ENDMDL
