MODEL 1
REMARK VINA RESULT:    11.171      0.000      0.000
REMARK INTER + INTRA:          15.390
REMARK INTER:                  15.416
REMARK INTRA:                  -0.026
REMARK UNBOUND:                -0.026
REMARK SMILES CCCCc1cccc(O)c1CCCC
REMARK SMILES IDX 5 1 11 2 9 3 8 4 7 5 6 6 4 7 3 8 2 9 1 10 12 11 13 12 14 13
REMARK SMILES IDX 15 14 10 15
REMARK H PARENT 10 16
REMARK Flexibility Score: inf
ROOT
ATOM      1  C   UNL     1       6.916  42.370  24.154  1.00  0.00    -0.041 A 
ATOM      2  C   UNL     1       5.710  43.092  23.898  1.00  0.00    -0.003 A 
ATOM      3  C   UNL     1       4.533  42.729  24.611  1.00  0.00     0.119 A 
ATOM      4  C   UNL     1       4.539  41.615  25.452  1.00  0.00     0.046 A 
ATOM      5  C   UNL     1       5.700  40.875  25.642  1.00  0.00     0.004 A 
ATOM      6  C   UNL     1       6.881  41.257  25.014  1.00  0.00     0.004 A 
ENDROOT
BRANCH   1   7
ATOM      7  C   UNL     1       8.275  42.774  23.608  1.00  0.00     0.036 C 
BRANCH   7   8
ATOM      8  C   UNL     1       8.975  41.571  22.952  1.00  0.00     0.004 C 
BRANCH   8   9
ATOM      9  C   UNL     1      10.165  41.058  23.778  1.00  0.00    -0.003 C 
ATOM     10  C   UNL     1      11.507  41.273  23.078  1.00  0.00     0.004 C 
ENDBRANCH   8   9
ENDBRANCH   7   8
ENDBRANCH   1   7
BRANCH   2  11
ATOM     11  C   UNL     1       5.655  44.216  22.876  1.00  0.00     0.040 C 
BRANCH  11  12
ATOM     12  C   UNL     1       6.777  45.239  23.111  1.00  0.00     0.005 C 
BRANCH  12  13
ATOM     13  C   UNL     1       6.407  46.288  24.169  1.00  0.00    -0.003 C 
ATOM     14  C   UNL     1       6.128  47.663  23.562  1.00  0.00     0.004 C 
ENDBRANCH  12  13
ENDBRANCH  11  12
ENDBRANCH   2  11
BRANCH   3  15
ATOM     15  O   UNL     1       3.342  43.456  24.522  1.00  0.00    -0.508 OA
ATOM     16  H   UNL     1       3.115  44.244  25.114  1.00  0.00     0.293 HD
ENDBRANCH   3  15
TORSDOF 7
ENDMDL
MODEL 2
REMARK VINA RESULT:    12.555      1.393      4.690
REMARK INTER + INTRA:          17.300
REMARK INTER:                  17.769
REMARK INTRA:                  -0.469
REMARK UNBOUND:                -0.026
REMARK SMILES CCCCc1cccc(O)c1CCCC
REMARK SMILES IDX 5 1 11 2 9 3 8 4 7 5 6 6 4 7 3 8 2 9 1 10 12 11 13 12 14 13
REMARK SMILES IDX 15 14 10 15
REMARK H PARENT 10 16
REMARK Flexibility Score: inf
ROOT
ATOM      1  C   UNL     1       5.798  43.515  23.622  1.00  0.00    -0.041 A 
ATOM      2  C   UNL     1       6.576  42.698  24.499  1.00  0.00    -0.003 A 
ATOM      3  C   UNL     1       5.901  41.802  25.374  1.00  0.00     0.119 A 
ATOM      4  C   UNL     1       4.507  41.814  25.452  1.00  0.00     0.046 A 
ATOM      5  C   UNL     1       3.759  42.663  24.644  1.00  0.00     0.004 A 
ATOM      6  C   UNL     1       4.395  43.493  23.727  1.00  0.00     0.004 A 
ENDROOT
BRANCH   1   7
ATOM      7  C   UNL     1       6.390  44.368  22.514  1.00  0.00     0.036 C 
BRANCH   7   8
ATOM      8  C   UNL     1       6.051  45.853  22.732  1.00  0.00     0.004 C 
BRANCH   8   9
ATOM      9  C   UNL     1       6.564  46.384  24.079  1.00  0.00    -0.003 C 
ATOM     10  C   UNL     1       5.962  47.741  24.447  1.00  0.00     0.004 C 
ENDBRANCH   8   9
ENDBRANCH   7   8
ENDBRANCH   1   7
BRANCH   2  11
ATOM     11  C   UNL     1       8.093  42.778  24.527  1.00  0.00     0.040 C 
BRANCH  11  12
ATOM     12  C   UNL     1       8.731  41.427  24.172  1.00  0.00     0.005 C 
BRANCH  12  13
ATOM     13  C   UNL     1       9.528  41.477  22.860  1.00  0.00    -0.003 C 
ATOM     14  C   UNL     1      11.000  41.113  23.052  1.00  0.00     0.004 C 
ENDBRANCH  12  13
ENDBRANCH  11  12
ENDBRANCH   2  11
BRANCH   3  15
ATOM     15  O   UNL     1       6.576  40.875  26.174  1.00  0.00    -0.508 OA
ATOM     16  H   UNL     1       6.282  40.611  27.105  1.00  0.00     0.293 HD
ENDBRANCH   3  15
TORSDOF 7
ENDMDL
MODEL 3
REMARK VINA RESULT:    13.800      1.945      4.251
REMARK INTER + INTRA:          19.018
REMARK INTER:                  18.889
REMARK INTRA:                   0.130
REMARK UNBOUND:                -0.026
REMARK SMILES CCCCc1cccc(O)c1CCCC
REMARK SMILES IDX 5 1 11 2 9 3 8 4 7 5 6 6 4 7 3 8 2 9 1 10 12 11 13 12 14 13
REMARK SMILES IDX 15 14 10 15
REMARK H PARENT 10 16
REMARK Flexibility Score: inf
ROOT
ATOM      1  C   UNL     1       7.930  41.596  24.899  1.00  0.00    -0.041 A 
ATOM      2  C   UNL     1       7.964  42.300  23.656  1.00  0.00    -0.003 A 
ATOM      3  C   UNL     1       9.124  42.189  22.840  1.00  0.00     0.119 A 
ATOM      4  C   UNL     1      10.246  41.500  23.307  1.00  0.00     0.046 A 
ATOM      5  C   UNL     1      10.230  40.877  24.549  1.00  0.00     0.004 A 
ATOM      6  C   UNL     1       9.080  40.909  25.331  1.00  0.00     0.004 A 
ENDROOT
BRANCH   1   7
ATOM      7  C   UNL     1       6.692  41.477  25.770  1.00  0.00     0.036 C 
BRANCH   7   8
ATOM      8  C   UNL     1       5.497  40.965  24.947  1.00  0.00     0.004 C 
BRANCH   8   9
ATOM      9  C   UNL     1       4.223  41.793  25.177  1.00  0.00    -0.003 C 
ATOM     10  C   UNL     1       3.810  42.596  23.944  1.00  0.00     0.004 C 
ENDBRANCH   8   9
ENDBRANCH   7   8
ENDBRANCH   1   7
BRANCH   2  11
ATOM     11  C   UNL     1       6.804  43.171  23.202  1.00  0.00     0.040 C 
BRANCH  11  12
ATOM     12  C   UNL     1       6.670  44.425  24.079  1.00  0.00     0.005 C 
BRANCH  12  13
ATOM     13  C   UNL     1       6.247  45.664  23.277  1.00  0.00    -0.003 C 
ATOM     14  C   UNL     1       6.410  46.961  24.069  1.00  0.00     0.004 C 
ENDBRANCH  12  13
ENDBRANCH  11  12
ENDBRANCH   2  11
BRANCH   3  15
ATOM     15  O   UNL     1       9.199  42.734  21.555  1.00  0.00    -0.508 OA
ATOM     16  H   UNL     1       8.658  42.404  20.768  1.00  0.00     0.293 HD
ENDBRANCH   3  15
TORSDOF 7
ENDMDL
