MODEL 1
REMARK VINA RESULT:    -6.062      0.000      0.000
REMARK INTER + INTRA:          -6.782
REMARK INTER:                  -6.594
REMARK INTRA:                  -0.188
REMARK UNBOUND:                -0.188
REMARK SMILES O=C([O-])c1ccccc1O
REMARK SMILES IDX 4 1 9 2 5 3 8 4 6 5 7 6 2 7 1 8 3 9 10 10
REMARK H PARENT 10 11
REMARK Flexibility Score: inf
ROOT
ATOM      1  C   UNL     1      12.525 -11.664  28.604  1.00  0.00     0.039 A 
ATOM      2  C   UNL     1      12.172 -12.861  27.934  1.00  0.00     0.124 A 
ATOM      3  C   UNL     1      13.888 -11.339  28.741  1.00  0.00     0.014 A 
ATOM      4  C   UNL     1      13.177 -13.698  27.423  1.00  0.00     0.047 A 
ATOM      5  C   UNL     1      14.877 -12.181  28.227  1.00  0.00     0.001 A 
ATOM      6  C   UNL     1      14.523 -13.358  27.569  1.00  0.00     0.004 A 
ENDROOT
BRANCH   1   7
ATOM      7  C   UNL     1      11.500 -10.746  29.163  1.00  0.00     0.075 C 
ATOM      8  O   UNL     1      10.307 -10.781  28.761  1.00  0.00    -0.545 OA
ATOM      9  O   UNL     1      11.845  -9.825  30.146  1.00  0.00    -0.545 OA
ENDBRANCH   1   7
BRANCH   2  10
ATOM     10  O   UNL     1      10.835 -13.222  27.775  1.00  0.00    -0.507 OA
ATOM     11  H   UNL     1      10.116 -12.532  27.587  1.00  0.00     0.293 HD
ENDBRANCH   2  10
TORSDOF 2
ENDMDL
MODEL 2
REMARK VINA RESULT:    -6.010      1.349      2.189
REMARK INTER + INTRA:          -6.726
REMARK INTER:                  -6.493
REMARK INTRA:                  -0.232
REMARK UNBOUND:                -0.188
REMARK SMILES O=C([O-])c1ccccc1O
REMARK SMILES IDX 4 1 9 2 5 3 8 4 6 5 7 6 2 7 1 8 3 9 10 10
REMARK H PARENT 10 11
REMARK Flexibility Score: inf
ROOT
ATOM      1  C   UNL     1      12.080 -11.617  28.829  1.00  0.00     0.039 A 
ATOM      2  C   UNL     1      13.399 -12.050  29.110  1.00  0.00     0.124 A 
ATOM      3  C   UNL     1      11.368 -12.241  27.787  1.00  0.00     0.014 A 
ATOM      4  C   UNL     1      13.971 -13.084  28.353  1.00  0.00     0.047 A 
ATOM      5  C   UNL     1      11.951 -13.270  27.041  1.00  0.00     0.001 A 
ATOM      6  C   UNL     1      13.249 -13.690  27.323  1.00  0.00     0.004 A 
ENDROOT
BRANCH   1   7
ATOM      7  C   UNL     1      11.430 -10.527  29.600  1.00  0.00     0.075 C 
ATOM      8  O   UNL     1      10.183 -10.516  29.787  1.00  0.00    -0.545 OA
ATOM      9  O   UNL     1      12.192  -9.494  30.132  1.00  0.00    -0.545 OA
ENDBRANCH   1   7
BRANCH   2  10
ATOM     10  O   UNL     1      14.140 -11.460  30.133  1.00  0.00    -0.507 OA
ATOM     11  H   UNL     1      15.124 -11.667  30.265  1.00  0.00     0.293 HD
ENDBRANCH   2  10
TORSDOF 2
ENDMDL
MODEL 3
REMARK VINA RESULT:    -5.811      1.168      2.039
REMARK INTER + INTRA:          -6.509
REMARK INTER:                  -6.257
REMARK INTRA:                  -0.252
REMARK UNBOUND:                -0.188
REMARK SMILES O=C([O-])c1ccccc1O
REMARK SMILES IDX 4 1 9 2 5 3 8 4 6 5 7 6 2 7 1 8 3 9 10 10
REMARK H PARENT 10 11
REMARK Flexibility Score: inf
ROOT
ATOM      1  C   UNL     1      12.611 -11.613  29.168  1.00  0.00     0.039 A 
ATOM      2  C   UNL     1      11.376 -11.800  28.500  1.00  0.00     0.124 A 
ATOM      3  C   UNL     1      13.720 -12.385  28.775  1.00  0.00     0.014 A 
ATOM      4  C   UNL     1      11.278 -12.744  27.465  1.00  0.00     0.047 A 
ATOM      5  C   UNL     1      13.608 -13.321  27.743  1.00  0.00     0.001 A 
ATOM      6  C   UNL     1      12.390 -13.500  27.090  1.00  0.00     0.004 A 
ENDROOT
BRANCH   1   7
ATOM      7  C   UNL     1      12.766 -10.628  30.269  1.00  0.00     0.075 C 
ATOM      8  O   UNL     1      13.420 -10.912  31.309  1.00  0.00    -0.545 OA
ATOM      9  O   UNL     1      12.189  -9.367  30.169  1.00  0.00    -0.545 OA
ENDBRANCH   1   7
BRANCH   2  10
ATOM     10  O   UNL     1      10.251 -11.057  28.857  1.00  0.00    -0.507 OA
ATOM     11  H   UNL     1       9.982 -10.222  28.349  1.00  0.00     0.293 HD
ENDBRANCH   2  10
TORSDOF 2
ENDMDL
MODEL 4
REMARK VINA RESULT:    -5.748     10.957     11.972
REMARK INTER + INTRA:          -6.441
REMARK INTER:                  -6.228
REMARK INTRA:                  -0.212
REMARK UNBOUND:                -0.188
REMARK SMILES O=C([O-])c1ccccc1O
REMARK SMILES IDX 4 1 9 2 5 3 8 4 6 5 7 6 2 7 1 8 3 9 10 10
REMARK H PARENT 10 11
REMARK Flexibility Score: inf
ROOT
ATOM      1  C   UNL     1      16.770  -0.799  26.178  1.00  0.00     0.039 A 
ATOM      2  C   UNL     1      16.569  -1.834  27.125  1.00  0.00     0.124 A 
ATOM      3  C   UNL     1      18.029  -0.677  25.562  1.00  0.00     0.014 A 
ATOM      4  C   UNL     1      17.620  -2.713  27.431  1.00  0.00     0.047 A 
ATOM      5  C   UNL     1      19.066  -1.560  25.877  1.00  0.00     0.001 A 
ATOM      6  C   UNL     1      18.862  -2.576  26.810  1.00  0.00     0.004 A 
ENDROOT
BRANCH   1   7
ATOM      7  C   UNL     1      15.691   0.157  25.820  1.00  0.00     0.075 C 
ATOM      8  O   UNL     1      14.651  -0.230  25.221  1.00  0.00    -0.545 OA
ATOM      9  O   UNL     1      15.812   1.504  26.141  1.00  0.00    -0.545 OA
ENDBRANCH   1   7
BRANCH   2  10
ATOM     10  O   UNL     1      15.338  -1.992  27.759  1.00  0.00    -0.507 OA
ATOM     11  H   UNL     1      15.247  -1.933  28.767  1.00  0.00     0.293 HD
ENDBRANCH   2  10
TORSDOF 2
ENDMDL
MODEL 5
REMARK VINA RESULT:    -5.710      2.540      4.186
REMARK INTER + INTRA:          -6.399
REMARK INTER:                  -6.184
REMARK INTRA:                  -0.215
REMARK UNBOUND:                -0.188
REMARK SMILES O=C([O-])c1ccccc1O
REMARK SMILES IDX 4 1 9 2 5 3 8 4 6 5 7 6 2 7 1 8 3 9 10 10
REMARK H PARENT 10 11
REMARK Flexibility Score: inf
ROOT
ATOM      1  C   UNL     1      13.575 -13.234  27.964  1.00  0.00     0.039 A 
ATOM      2  C   UNL     1      13.447 -12.194  28.917  1.00  0.00     0.124 A 
ATOM      3  C   UNL     1      12.494 -13.502  27.103  1.00  0.00     0.014 A 
ATOM      4  C   UNL     1      12.256 -11.455  28.989  1.00  0.00     0.047 A 
ATOM      5  C   UNL     1      11.315 -12.758  27.185  1.00  0.00     0.001 A 
ATOM      6  C   UNL     1      11.195 -11.737  28.126  1.00  0.00     0.004 A 
ENDROOT
BRANCH   1   7
ATOM      7  C   UNL     1      14.814 -14.045  27.849  1.00  0.00     0.075 C 
ATOM      8  O   UNL     1      15.511 -14.022  26.799  1.00  0.00    -0.545 OA
ATOM      9  O   UNL     1      15.227 -14.849  28.905  1.00  0.00    -0.545 OA
ENDBRANCH   1   7
BRANCH   2  10
ATOM     10  O   UNL     1      14.492 -11.894  29.790  1.00  0.00    -0.507 OA
ATOM     11  H   UNL     1      14.362 -11.274  30.582  1.00  0.00     0.293 HD
ENDBRANCH   2  10
TORSDOF 2
ENDMDL
MODEL 6
REMARK VINA RESULT:    -5.667      1.431      2.446
REMARK INTER + INTRA:          -6.352
REMARK INTER:                  -6.128
REMARK INTRA:                  -0.224
REMARK UNBOUND:                -0.188
REMARK SMILES O=C([O-])c1ccccc1O
REMARK SMILES IDX 4 1 9 2 5 3 8 4 6 5 7 6 2 7 1 8 3 9 10 10
REMARK H PARENT 10 11
REMARK Flexibility Score: inf
ROOT
ATOM      1  C   UNL     1      12.694 -12.543  28.538  1.00  0.00     0.039 A 
ATOM      2  C   UNL     1      12.895 -12.259  29.911  1.00  0.00     0.124 A 
ATOM      3  C   UNL     1      13.658 -13.308  27.855  1.00  0.00     0.014 A 
ATOM      4  C   UNL     1      14.040 -12.741  30.564  1.00  0.00     0.047 A 
ATOM      5  C   UNL     1      14.794 -13.781  28.517  1.00  0.00     0.001 A 
ATOM      6  C   UNL     1      14.985 -13.498  29.869  1.00  0.00     0.004 A 
ENDROOT
BRANCH   1   7
ATOM      7  C   UNL     1      11.500 -12.056  27.802  1.00  0.00     0.075 C 
ATOM      8  O   UNL     1      11.041 -12.690  26.814  1.00  0.00    -0.545 OA
ATOM      9  O   UNL     1      10.864 -10.883  28.194  1.00  0.00    -0.545 OA
ENDBRANCH   1   7
BRANCH   2  10
ATOM     10  O   UNL     1      11.966 -11.505  30.627  1.00  0.00    -0.507 OA
ATOM     11  H   UNL     1      11.848 -10.511  30.463  1.00  0.00     0.293 HD
ENDBRANCH   2  10
TORSDOF 2
ENDMDL
MODEL 7
REMARK VINA RESULT:    -5.649     10.770     12.102
REMARK INTER + INTRA:          -6.333
REMARK INTER:                  -6.092
REMARK INTRA:                  -0.241
REMARK UNBOUND:                -0.188
REMARK SMILES O=C([O-])c1ccccc1O
REMARK SMILES IDX 4 1 9 2 5 3 8 4 6 5 7 6 2 7 1 8 3 9 10 10
REMARK H PARENT 10 11
REMARK Flexibility Score: inf
ROOT
ATOM      1  C   UNL     1      17.713  -2.037  27.019  1.00  0.00     0.039 A 
ATOM      2  C   UNL     1      18.046  -0.979  26.140  1.00  0.00     0.124 A 
ATOM      3  C   UNL     1      16.357  -2.361  27.210  1.00  0.00     0.014 A 
ATOM      4  C   UNL     1      17.028  -0.275  25.477  1.00  0.00     0.047 A 
ATOM      5  C   UNL     1      15.354  -1.652  26.543  1.00  0.00     0.001 A 
ATOM      6  C   UNL     1      15.688  -0.611  25.679  1.00  0.00     0.004 A 
ENDROOT
BRANCH   1   7
ATOM      7  C   UNL     1      18.753  -2.812  27.744  1.00  0.00     0.075 C 
ATOM      8  O   UNL     1      19.852  -3.097  27.197  1.00  0.00    -0.545 OA
ATOM      9  O   UNL     1      18.527  -3.239  29.048  1.00  0.00    -0.545 OA
ENDBRANCH   1   7
BRANCH   2  10
ATOM     10  O   UNL     1      19.377  -0.623  25.921  1.00  0.00    -0.507 OA
ATOM     11  H   UNL     1      19.640   0.035  25.197  1.00  0.00     0.293 HD
ENDBRANCH   2  10
TORSDOF 2
ENDMDL
MODEL 8
REMARK VINA RESULT:    -5.632     11.048     12.114
REMARK INTER + INTRA:          -6.315
REMARK INTER:                  -6.120
REMARK INTRA:                  -0.195
REMARK UNBOUND:                -0.188
REMARK SMILES O=C([O-])c1ccccc1O
REMARK SMILES IDX 4 1 9 2 5 3 8 4 6 5 7 6 2 7 1 8 3 9 10 10
REMARK H PARENT 10 11
REMARK Flexibility Score: inf
ROOT
ATOM      1  C   UNL     1      16.642  -0.999  26.388  1.00  0.00     0.039 A 
ATOM      2  C   UNL     1      17.950  -1.122  25.859  1.00  0.00     0.124 A 
ATOM      3  C   UNL     1      16.244  -1.865  27.424  1.00  0.00     0.014 A 
ATOM      4  C   UNL     1      18.822  -2.096  26.371  1.00  0.00     0.047 A 
ATOM      5  C   UNL     1      17.123  -2.831  27.923  1.00  0.00     0.001 A 
ATOM      6  C   UNL     1      18.409  -2.946  27.398  1.00  0.00     0.004 A 
ENDROOT
BRANCH   1   7
ATOM      7  C   UNL     1      15.682   0.015  25.882  1.00  0.00     0.075 C 
ATOM      8  O   UNL     1      14.637  -0.328  25.266  1.00  0.00    -0.545 OA
ATOM      9  O   UNL     1      15.923   1.370  26.080  1.00  0.00    -0.545 OA
ENDBRANCH   1   7
BRANCH   2  10
ATOM     10  O   UNL     1      18.386  -0.285  24.833  1.00  0.00    -0.507 OA
ATOM     11  H   UNL     1      19.371  -0.097  24.682  1.00  0.00     0.293 HD
ENDBRANCH   2  10
TORSDOF 2
ENDMDL
MODEL 9
REMARK VINA RESULT:    -5.631      2.398      3.793
REMARK INTER + INTRA:          -6.314
REMARK INTER:                  -6.129
REMARK INTRA:                  -0.185
REMARK UNBOUND:                -0.188
REMARK SMILES O=C([O-])c1ccccc1O
REMARK SMILES IDX 4 1 9 2 5 3 8 4 6 5 7 6 2 7 1 8 3 9 10 10
REMARK H PARENT 10 11
REMARK Flexibility Score: inf
ROOT
ATOM      1  C   UNL     1      13.865 -13.189  28.408  1.00  0.00     0.039 A 
ATOM      2  C   UNL     1      12.587 -13.021  27.822  1.00  0.00     0.124 A 
ATOM      3  C   UNL     1      14.207 -12.405  29.527  1.00  0.00     0.014 A 
ATOM      4  C   UNL     1      11.689 -12.085  28.359  1.00  0.00     0.047 A 
ATOM      5  C   UNL     1      13.303 -11.477  30.051  1.00  0.00     0.001 A 
ATOM      6  C   UNL     1      12.047 -11.317  29.468  1.00  0.00     0.004 A 
ENDROOT
BRANCH   1   7
ATOM      7  C   UNL     1      14.851 -14.165  27.878  1.00  0.00     0.075 C 
ATOM      8  O   UNL     1      15.433 -13.969  26.777  1.00  0.00    -0.545 OA
ATOM      9  O   UNL     1      15.150 -15.319  28.593  1.00  0.00    -0.545 OA
ENDBRANCH   1   7
BRANCH   2  10
ATOM     10  O   UNL     1      12.206 -13.776  26.713  1.00  0.00    -0.507 OA
ATOM     11  H   UNL     1      12.543 -14.721  26.571  1.00  0.00     0.293 HD
ENDBRANCH   2  10
TORSDOF 2
ENDMDL
