MODEL 1
REMARK VINA RESULT:    -2.772      0.000      0.000
REMARK INTER + INTRA:          -2.772
REMARK INTER:                  -2.772
REMARK INTRA:                   0.000
REMARK UNBOUND:                 0.000
REMARK SMILES CC1(C)[C@@H]2CC[C@@]1(C)C(=O)C2
REMARK SMILES IDX 1 1 2 2 4 3 5 4 6 5 7 6 9 7 10 8 11 9 8 10 3 11
REMARK H PARENT
REMARK Flexibility Score: inf
ROOT
ATOM      1  C   UNL     1     142.644 144.603 138.690  1.00  0.00     0.012 C 
ATOM      2  C   UNL     1     143.715 145.644 139.137  1.00  0.00    -0.020 C 
ATOM      3  C   UNL     1     145.066 145.012 139.555  1.00  0.00     0.003 C 
ATOM      4  C   UNL     1     144.679 144.181 140.811  1.00  0.00     0.005 C 
ATOM      5  C   UNL     1     143.597 145.059 141.487  1.00  0.00     0.015 C 
ATOM      6  C   UNL     1     143.494 146.271 140.530  1.00  0.00     0.032 C 
ATOM      7  C   UNL     1     144.794 147.016 140.710  1.00  0.00     0.139 C 
ATOM      8  O   UNL     1     144.947 148.046 141.346  1.00  0.00    -0.299 OA
ATOM      9  C   UNL     1     145.891 146.224 140.068  1.00  0.00     0.080 C 
ATOM     10  C   UNL     1     142.230 147.122 140.703  1.00  0.00     0.020 C 
ATOM     11  C   UNL     1     143.843 146.673 137.971  1.00  0.00     0.012 C 
ENDROOT
TORSDOF 0
ENDMDL
MODEL 2
REMARK VINA RESULT:    -2.690     11.085     12.447
REMARK INTER + INTRA:          -2.690
REMARK INTER:                  -2.690
REMARK INTRA:                   0.000
REMARK UNBOUND:                 0.000
REMARK SMILES CC1(C)[C@@H]2CC[C@@]1(C)C(=O)C2
REMARK SMILES IDX 1 1 2 2 4 3 5 4 6 5 7 6 9 7 10 8 11 9 8 10 3 11
REMARK H PARENT
REMARK Flexibility Score: inf
ROOT
ATOM      1  C   UNL     1     132.852 144.544 138.895  1.00  0.00     0.012 C 
ATOM      2  C   UNL     1     132.100 145.860 139.258  1.00  0.00    -0.020 C 
ATOM      3  C   UNL     1     133.030 146.999 139.744  1.00  0.00     0.003 C 
ATOM      4  C   UNL     1     133.613 146.422 141.065  1.00  0.00     0.005 C 
ATOM      5  C   UNL     1     132.422 145.623 141.650  1.00  0.00     0.015 C 
ATOM      6  C   UNL     1     131.316 145.834 140.588  1.00  0.00     0.032 C 
ATOM      7  C   UNL     1     130.932 147.287 140.715  1.00  0.00     0.139 C 
ATOM      8  O   UNL     1     129.929 147.719 141.259  1.00  0.00    -0.299 OA
ATOM      9  C   UNL     1     132.042 148.125 140.156  1.00  0.00     0.080 C 
ATOM     10  C   UNL     1     130.147 144.845 140.672  1.00  0.00     0.020 C 
ATOM     11  C   UNL     1     131.249 146.242 138.007  1.00  0.00     0.012 C 
ENDROOT
TORSDOF 0
ENDMDL
MODEL 3
REMARK VINA RESULT:    -2.676      1.506      2.632
REMARK INTER + INTRA:          -2.676
REMARK INTER:                  -2.676
REMARK INTRA:                   0.000
REMARK UNBOUND:                 0.000
REMARK SMILES CC1(C)[C@@H]2CC[C@@]1(C)C(=O)C2
REMARK SMILES IDX 1 1 2 2 4 3 5 4 6 5 7 6 9 7 10 8 11 9 8 10 3 11
REMARK H PARENT
REMARK Flexibility Score: inf
ROOT
ATOM      1  C   UNL     1     143.876 146.780 137.863  1.00  0.00     0.012 C 
ATOM      2  C   UNL     1     143.495 146.479 139.344  1.00  0.00    -0.020 C 
ATOM      3  C   UNL     1     144.503 147.040 140.377  1.00  0.00     0.003 C 
ATOM      4  C   UNL     1     145.796 146.236 140.062  1.00  0.00     0.005 C 
ATOM      5  C   UNL     1     145.250 144.839 139.676  1.00  0.00     0.015 C 
ATOM      6  C   UNL     1     143.719 145.024 139.807  1.00  0.00     0.032 C 
ATOM      7  C   UNL     1     143.473 145.161 141.289  1.00  0.00     0.139 C 
ATOM      8  O   UNL     1     143.024 144.297 142.025  1.00  0.00    -0.299 OA
ATOM      9  C   UNL     1     143.971 146.502 141.734  1.00  0.00     0.080 C 
ATOM     10  C   UNL     1     142.880 143.947 139.108  1.00  0.00     0.020 C 
ATOM     11  C   UNL     1     142.040 147.009 139.541  1.00  0.00     0.012 C 
ENDROOT
TORSDOF 0
ENDMDL
MODEL 4
REMARK VINA RESULT:    -2.670     10.874     12.408
REMARK INTER + INTRA:          -2.670
REMARK INTER:                  -2.670
REMARK INTRA:                   0.000
REMARK UNBOUND:                 0.000
REMARK SMILES CC1(C)[C@@H]2CC[C@@]1(C)C(=O)C2
REMARK SMILES IDX 1 1 2 2 4 3 5 4 6 5 7 6 9 7 10 8 11 9 8 10 3 11
REMARK H PARENT
REMARK Flexibility Score: inf
ROOT
ATOM      1  C   UNL     1     131.049 146.288 137.870  1.00  0.00     0.012 C 
ATOM      2  C   UNL     1     131.231 145.851 139.355  1.00  0.00    -0.020 C 
ATOM      3  C   UNL     1     130.985 146.988 140.377  1.00  0.00     0.003 C 
ATOM      4  C   UNL     1     132.126 147.993 140.050  1.00  0.00     0.005 C 
ATOM      5  C   UNL     1     133.307 147.065 139.670  1.00  0.00     0.015 C 
ATOM      6  C   UNL     1     132.691 145.653 139.817  1.00  0.00     0.032 C 
ATOM      7  C   UNL     1     132.492 145.471 141.301  1.00  0.00     0.139 C 
ATOM      8  O   UNL     1     133.192 144.801 142.042  1.00  0.00    -0.299 OA
ATOM      9  C   UNL     1     131.351 146.338 141.740  1.00  0.00     0.080 C 
ATOM     10  C   UNL     1     133.479 144.533 139.128  1.00  0.00     0.020 C 
ATOM     11  C   UNL     1     130.306 144.612 139.566  1.00  0.00     0.012 C 
ENDROOT
TORSDOF 0
ENDMDL
MODEL 5
REMARK VINA RESULT:    -2.610      1.550      3.125
REMARK INTER + INTRA:          -2.610
REMARK INTER:                  -2.610
REMARK INTRA:                   0.000
REMARK UNBOUND:                 0.000
REMARK SMILES CC1(C)[C@@H]2CC[C@@]1(C)C(=O)C2
REMARK SMILES IDX 1 1 2 2 4 3 5 4 6 5 7 6 9 7 10 8 11 9 8 10 3 11
REMARK H PARENT
REMARK Flexibility Score: inf
ROOT
ATOM      1  C   UNL     1     140.951 146.559 139.643  1.00  0.00     0.012 C 
ATOM      2  C   UNL     1     142.427 146.263 140.045  1.00  0.00    -0.020 C 
ATOM      3  C   UNL     1     143.379 147.471 139.866  1.00  0.00     0.003 C 
ATOM      4  C   UNL     1     143.358 147.696 138.328  1.00  0.00     0.005 C 
ATOM      5  C   UNL     1     143.260 146.256 137.768  1.00  0.00     0.015 C 
ATOM      6  C   UNL     1     143.227 145.393 139.052  1.00  0.00     0.032 C 
ATOM      7  C   UNL     1     144.615 145.511 139.632  1.00  0.00     0.139 C 
ATOM      8  O   UNL     1     145.492 144.664 139.571  1.00  0.00    -0.299 OA
ATOM      9  C   UNL     1     144.778 146.885 140.204  1.00  0.00     0.080 C 
ATOM     10  C   UNL     1     142.730 143.957 138.849  1.00  0.00     0.020 C 
ATOM     11  C   UNL     1     142.384 145.714 141.506  1.00  0.00     0.012 C 
ENDROOT
TORSDOF 0
ENDMDL
MODEL 6
REMARK VINA RESULT:    -2.609      1.651      3.119
REMARK INTER + INTRA:          -2.609
REMARK INTER:                  -2.609
REMARK INTRA:                   0.000
REMARK UNBOUND:                 0.000
REMARK SMILES CC1(C)[C@@H]2CC[C@@]1(C)C(=O)C2
REMARK SMILES IDX 1 1 2 2 4 3 5 4 6 5 7 6 9 7 10 8 11 9 8 10 3 11
REMARK H PARENT
REMARK Flexibility Score: inf
ROOT
ATOM      1  C   UNL     1     145.178 145.098 139.602  1.00  0.00     0.012 C 
ATOM      2  C   UNL     1     143.957 146.036 139.845  1.00  0.00    -0.020 C 
ATOM      3  C   UNL     1     142.784 145.355 140.593  1.00  0.00     0.003 C 
ATOM      4  C   UNL     1     142.329 144.260 139.588  1.00  0.00     0.005 C 
ATOM      5  C   UNL     1     142.534 144.943 138.213  1.00  0.00     0.015 C 
ATOM      6  C   UNL     1     143.089 146.334 138.604  1.00  0.00     0.032 C 
ATOM      7  C   UNL     1     141.923 147.048 139.244  1.00  0.00     0.139 C 
ATOM      8  O   UNL     1     141.240 147.915 138.723  1.00  0.00    -0.299 OA
ATOM      9  C   UNL     1     141.672 146.441 140.590  1.00  0.00     0.080 C 
ATOM     10  C   UNL     1     143.769 147.099 137.462  1.00  0.00     0.020 C 
ATOM     11  C   UNL     1     144.511 147.300 140.573  1.00  0.00     0.012 C 
ENDROOT
TORSDOF 0
ENDMDL
MODEL 7
REMARK VINA RESULT:    -2.598     11.334     12.973
REMARK INTER + INTRA:          -2.598
REMARK INTER:                  -2.598
REMARK INTRA:                   0.000
REMARK UNBOUND:                 0.000
REMARK SMILES CC1(C)[C@@H]2CC[C@@]1(C)C(=O)C2
REMARK SMILES IDX 1 1 2 2 4 3 5 4 6 5 7 6 9 7 10 8 11 9 8 10 3 11
REMARK H PARENT
REMARK Flexibility Score: inf
ROOT
ATOM      1  C   UNL     1     130.103 143.540 139.080  1.00  0.00     0.012 C 
ATOM      2  C   UNL     1     130.876 144.751 139.683  1.00  0.00    -0.020 C 
ATOM      3  C   UNL     1     130.115 146.096 139.578  1.00  0.00     0.003 C 
ATOM      4  C   UNL     1     130.034 146.321 138.042  1.00  0.00     0.005 C 
ATOM      5  C   UNL     1     131.385 145.757 137.536  1.00  0.00     0.015 C 
ATOM      6  C   UNL     1     132.060 145.271 138.841  1.00  0.00     0.032 C 
ATOM      7  C   UNL     1     132.403 146.535 139.591  1.00  0.00     0.139 C 
ATOM      8  O   UNL     1     133.511 147.038 139.682  1.00  0.00    -0.299 OA
ATOM      9  C   UNL     1     131.136 147.134 140.120  1.00  0.00     0.080 C 
ATOM     10  C   UNL     1     133.231 144.303 138.637  1.00  0.00     0.020 C 
ATOM     11  C   UNL     1     131.242 144.354 141.148  1.00  0.00     0.012 C 
ENDROOT
TORSDOF 0
ENDMDL
MODEL 8
REMARK VINA RESULT:    -2.595     11.955     13.451
REMARK INTER + INTRA:          -2.595
REMARK INTER:                  -2.595
REMARK INTRA:                   0.000
REMARK UNBOUND:                 0.000
REMARK SMILES CC1(C)[C@@H]2CC[C@@]1(C)C(=O)C2
REMARK SMILES IDX 1 1 2 2 4 3 5 4 6 5 7 6 9 7 10 8 11 9 8 10 3 11
REMARK H PARENT
REMARK Flexibility Score: inf
ROOT
ATOM      1  C   UNL     1     133.376 144.701 139.501  1.00  0.00     0.012 C 
ATOM      2  C   UNL     1     132.004 144.873 138.782  1.00  0.00    -0.020 C 
ATOM      3  C   UNL     1     131.650 146.344 138.453  1.00  0.00     0.003 C 
ATOM      4  C   UNL     1     131.513 146.985 139.863  1.00  0.00     0.005 C 
ATOM      5  C   UNL     1     130.889 145.844 140.704  1.00  0.00     0.015 C 
ATOM      6  C   UNL     1     130.757 144.696 139.675  1.00  0.00     0.032 C 
ATOM      7  C   UNL     1     129.671 145.147 138.730  1.00  0.00     0.139 C 
ATOM      8  O   UNL     1     128.518 144.746 138.719  1.00  0.00    -0.299 OA
ATOM      9  C   UNL     1     130.211 146.251 137.873  1.00  0.00     0.080 C 
ATOM     10  C   UNL     1     130.547 143.306 140.287  1.00  0.00     0.020 C 
ATOM     11  C   UNL     1     132.045 143.946 137.527  1.00  0.00     0.012 C 
ENDROOT
TORSDOF 0
ENDMDL
MODEL 9
REMARK VINA RESULT:    -2.594     11.649     13.068
REMARK INTER + INTRA:          -2.594
REMARK INTER:                  -2.594
REMARK INTRA:                   0.000
REMARK UNBOUND:                 0.000
REMARK SMILES CC1(C)[C@@H]2CC[C@@]1(C)C(=O)C2
REMARK SMILES IDX 1 1 2 2 4 3 5 4 6 5 7 6 9 7 10 8 11 9 8 10 3 11
REMARK H PARENT
REMARK Flexibility Score: inf
ROOT
ATOM      1  C   UNL     1     133.098 147.048 139.639  1.00  0.00     0.012 C 
ATOM      2  C   UNL     1     131.826 146.178 139.873  1.00  0.00    -0.020 C 
ATOM      3  C   UNL     1     132.102 144.858 140.634  1.00  0.00     0.003 C 
ATOM      4  C   UNL     1     133.017 144.080 139.646  1.00  0.00     0.005 C 
ATOM      5  C   UNL     1     132.448 144.476 138.261  1.00  0.00     0.015 C 
ATOM      6  C   UNL     1     131.291 145.435 138.631  1.00  0.00     0.032 C 
ATOM      7  C   UNL     1     130.245 144.550 139.263  1.00  0.00     0.139 C 
ATOM      8  O   UNL     1     129.216 144.163 138.732  1.00  0.00    -0.299 OA
ATOM      9  C   UNL     1     130.727 144.134 140.619  1.00  0.00     0.080 C 
ATOM     10  C   UNL     1     130.787 146.309 137.476  1.00  0.00     0.020 C 
ATOM     11  C   UNL     1     130.785 147.099 140.581  1.00  0.00     0.012 C 
ENDROOT
TORSDOF 0
ENDMDL
