MODEL 1
REMARK VINA RESULT:    -3.765      0.000      0.000
REMARK INTER + INTRA:         -13.004
REMARK INTER:                  -8.606
REMARK INTRA:                  -4.397
REMARK UNBOUND:                -4.397
REMARK SMILES CCCCCCCCCCCCCCCCCCCCCCCC(=O)[O-]
REMARK SMILES IDX 13 1 14 2 15 3 16 4 17 5 18 6 19 7 20 8 21 9 22 10 23 11
REMARK SMILES IDX 24 12 25 13 26 14 12 15 11 16 10 17 9 18 8 19 7 20 6 21 5 22
REMARK SMILES IDX 4 23 3 24 2 25 1 26
REMARK H PARENT
REMARK Flexibility Score: inf
ROOT
ATOM      1  C   UNL     1       3.619  -3.241 402.332  1.00  0.00     0.000 C 
ENDROOT
BRANCH   1   2
ATOM      2  C   UNL     1       3.100  -3.338 400.885  1.00  0.00     0.000 C 
BRANCH   2   3
ATOM      3  C   UNL     1       3.700  -2.257 399.968  1.00  0.00     0.000 C 
BRANCH   3   4
ATOM      4  C   UNL     1       3.984  -0.936 400.717  1.00  0.00     0.000 C 
BRANCH   4   5
ATOM      5  C   UNL     1       3.493   0.325 399.979  1.00  0.00     0.000 C 
BRANCH   5   6
ATOM      6  C   UNL     1       3.676   1.649 400.745  1.00  0.00     0.000 C 
BRANCH   6   7
ATOM      7  C   UNL     1       3.699   1.514 402.279  1.00  0.00     0.000 C 
BRANCH   7   8
ATOM      8  C   UNL     1       4.849   2.298 402.928  1.00  0.00     0.000 C 
BRANCH   8   9
ATOM      9  C   UNL     1       5.478   1.498 404.079  1.00  0.00     0.000 C 
BRANCH   9  10
ATOM     10  C   UNL     1       4.903   0.079 404.202  1.00  0.00     0.006 C 
BRANCH  10  11
ATOM     11  C   UNL     1       5.966  -1.015 404.036  1.00  0.00     0.053 C 
BRANCH  11  12
ATOM     12  C   UNL     1       6.037  -1.871 405.261  1.00  0.00     0.041 C 
ATOM     13  O   UNL     1       7.146  -2.312 405.663  1.00  0.00    -0.550 OA
ATOM     14  O   UNL     1       4.878  -2.169 405.971  1.00  0.00    -0.550 OA
ENDBRANCH  11  12
ENDBRANCH  10  11
ENDBRANCH   9  10
ENDBRANCH   8   9
ENDBRANCH   7   8
ENDBRANCH   6   7
ENDBRANCH   5   6
ENDBRANCH   4   5
ENDBRANCH   3   4
ENDBRANCH   2   3
ENDBRANCH   1   2
BRANCH   1  15
ATOM     15  C   UNL     1       4.442  -4.453 402.805  1.00  0.00     0.000 C 
BRANCH  15  16
ATOM     16  C   UNL     1       5.324  -5.043 401.690  1.00  0.00     0.000 C 
BRANCH  16  17
ATOM     17  C   UNL     1       6.624  -4.252 401.472  1.00  0.00     0.000 C 
BRANCH  17  18
ATOM     18  C   UNL     1       6.889  -3.963 399.983  1.00  0.00    -0.000 C 
BRANCH  18  19
ATOM     19  C   UNL     1       7.639  -2.639 399.756  1.00  0.00    -0.000 C 
BRANCH  19  20
ATOM     20  C   UNL     1       7.874  -1.861 401.065  1.00  0.00    -0.000 C 
BRANCH  20  21
ATOM     21  C   UNL     1       8.397  -0.431 400.827  1.00  0.00    -0.000 C 
BRANCH  21  22
ATOM     22  C   UNL     1       7.304   0.649 400.672  1.00  0.00    -0.000 C 
BRANCH  22  23
ATOM     23  C   UNL     1       6.945   1.003 399.216  1.00  0.00    -0.000 C 
BRANCH  23  24
ATOM     24  C   UNL     1       8.183   1.122 398.310  1.00  0.00    -0.000 C 
BRANCH  24  25
ATOM     25  C   UNL     1       7.953   0.483 396.929  1.00  0.00    -0.003 C 
ATOM     26  C   UNL     1       8.893  -0.699 396.676  1.00  0.00     0.004 C 
ENDBRANCH  24  25
ENDBRANCH  23  24
ENDBRANCH  22  23
ENDBRANCH  21  22
ENDBRANCH  20  21
ENDBRANCH  19  20
ENDBRANCH  18  19
ENDBRANCH  17  18
ENDBRANCH  16  17
ENDBRANCH  15  16
ENDBRANCH   1  15
TORSDOF 22
ENDMDL
MODEL 2
REMARK VINA RESULT:    -3.634      2.962      5.591
REMARK INTER + INTRA:         -12.706
REMARK INTER:                  -8.030
REMARK INTRA:                  -4.675
REMARK UNBOUND:                -4.397
REMARK SMILES CCCCCCCCCCCCCCCCCCCCCCCC(=O)[O-]
REMARK SMILES IDX 13 1 14 2 15 3 16 4 17 5 18 6 19 7 20 8 21 9 22 10 23 11
REMARK SMILES IDX 24 12 25 13 26 14 12 15 11 16 10 17 9 18 8 19 7 20 6 21 5 22
REMARK SMILES IDX 4 23 3 24 2 25 1 26
REMARK H PARENT
REMARK Flexibility Score: inf
ROOT
ATOM      1  C   UNL     1       7.050   0.032 403.697  1.00  0.00     0.000 C 
ENDROOT
BRANCH   1   2
ATOM      2  C   UNL     1       7.256   1.459 403.158  1.00  0.00     0.000 C 
BRANCH   2   3
ATOM      3  C   UNL     1       5.966   2.298 403.194  1.00  0.00     0.000 C 
BRANCH   3   4
ATOM      4  C   UNL     1       4.783   1.536 403.832  1.00  0.00     0.000 C 
BRANCH   4   5
ATOM      5  C   UNL     1       3.647   1.197 402.846  1.00  0.00     0.000 C 
BRANCH   5   6
ATOM      6  C   UNL     1       3.642   2.018 401.542  1.00  0.00     0.000 C 
BRANCH   6   7
ATOM      7  C   UNL     1       3.607   1.182 400.248  1.00  0.00     0.000 C 
BRANCH   7   8
ATOM      8  C   UNL     1       4.141  -0.244 400.446  1.00  0.00     0.000 C 
BRANCH   8   9
ATOM      9  C   UNL     1       5.530  -0.403 399.811  1.00  0.00     0.000 C 
BRANCH   9  10
ATOM     10  C   UNL     1       6.253   0.938 399.616  1.00  0.00     0.006 C 
BRANCH  10  11
ATOM     11  C   UNL     1       7.738   0.773 399.268  1.00  0.00     0.053 C 
BRANCH  11  12
ATOM     12  C   UNL     1       8.001   1.204 397.859  1.00  0.00     0.041 C 
ATOM     13  O   UNL     1       7.739   0.431 396.901  1.00  0.00    -0.550 OA
ATOM     14  O   UNL     1       8.520   2.469 397.603  1.00  0.00    -0.550 OA
ENDBRANCH  11  12
ENDBRANCH  10  11
ENDBRANCH   9  10
ENDBRANCH   8   9
ENDBRANCH   7   8
ENDBRANCH   6   7
ENDBRANCH   5   6
ENDBRANCH   4   5
ENDBRANCH   3   4
ENDBRANCH   2   3
ENDBRANCH   1   2
BRANCH   1  15
ATOM     15  C   UNL     1       7.559  -1.087 402.771  1.00  0.00     0.000 C 
BRANCH  15  16
ATOM     16  C   UNL     1       6.583  -2.275 402.684  1.00  0.00     0.000 C 
BRANCH  16  17
ATOM     17  C   UNL     1       5.317  -2.075 403.534  1.00  0.00     0.000 C 
BRANCH  17  18
ATOM     18  C   UNL     1       4.121  -2.883 403.000  1.00  0.00    -0.000 C 
BRANCH  18  19
ATOM     19  C   UNL     1       4.494  -3.790 401.814  1.00  0.00    -0.000 C 
BRANCH  19  20
ATOM     20  C   UNL     1       3.936  -5.217 401.964  1.00  0.00    -0.000 C 
BRANCH  20  21
ATOM     21  C   UNL     1       4.982  -6.305 401.656  1.00  0.00    -0.000 C 
BRANCH  21  22
ATOM     22  C   UNL     1       6.416  -5.988 402.134  1.00  0.00    -0.000 C 
BRANCH  22  23
ATOM     23  C   UNL     1       7.506  -6.141 401.056  1.00  0.00    -0.000 C 
BRANCH  23  24
ATOM     24  C   UNL     1       8.195  -4.809 400.711  1.00  0.00    -0.000 C 
BRANCH  24  25
ATOM     25  C   UNL     1       7.495  -4.080 399.550  1.00  0.00    -0.003 C 
ATOM     26  C   UNL     1       8.289  -2.861 399.073  1.00  0.00     0.004 C 
ENDBRANCH  24  25
ENDBRANCH  23  24
ENDBRANCH  22  23
ENDBRANCH  21  22
ENDBRANCH  20  21
ENDBRANCH  19  20
ENDBRANCH  18  19
ENDBRANCH  17  18
ENDBRANCH  16  17
ENDBRANCH  15  16
ENDBRANCH   1  15
TORSDOF 22
ENDMDL
MODEL 3
REMARK VINA RESULT:    -3.618      3.070      6.268
REMARK INTER + INTRA:         -12.668
REMARK INTER:                  -8.758
REMARK INTRA:                  -3.909
REMARK UNBOUND:                -4.397
REMARK SMILES CCCCCCCCCCCCCCCCCCCCCCCC(=O)[O-]
REMARK SMILES IDX 13 1 14 2 15 3 16 4 17 5 18 6 19 7 20 8 21 9 22 10 23 11
REMARK SMILES IDX 24 12 25 13 26 14 12 15 11 16 10 17 9 18 8 19 7 20 6 21 5 22
REMARK SMILES IDX 4 23 3 24 2 25 1 26
REMARK H PARENT
REMARK Flexibility Score: inf
ROOT
ATOM      1  C   UNL     1       7.486   0.624 403.487  1.00  0.00     0.000 C 
ENDROOT
BRANCH   1   2
ATOM      2  C   UNL     1       6.837   1.864 402.845  1.00  0.00     0.000 C 
BRANCH   2   3
ATOM      3  C   UNL     1       5.659   2.410 403.673  1.00  0.00     0.000 C 
BRANCH   3   4
ATOM      4  C   UNL     1       4.288   2.043 403.065  1.00  0.00     0.000 C 
BRANCH   4   5
ATOM      5  C   UNL     1       3.883   2.910 401.855  1.00  0.00     0.000 C 
BRANCH   5   6
ATOM      6  C   UNL     1       3.733   2.151 400.523  1.00  0.00     0.000 C 
BRANCH   6   7
ATOM      7  C   UNL     1       3.507   0.634 400.661  1.00  0.00     0.000 C 
BRANCH   7   8
ATOM      8  C   UNL     1       4.643  -0.196 400.045  1.00  0.00     0.000 C 
BRANCH   8   9
ATOM      9  C   UNL     1       5.875   0.680 399.768  1.00  0.00     0.000 C 
BRANCH   9  10
ATOM     10  C   UNL     1       7.135  -0.145 399.465  1.00  0.00     0.006 C 
BRANCH  10  11
ATOM     11  C   UNL     1       8.344   0.723 399.095  1.00  0.00     0.053 C 
BRANCH  11  12
ATOM     12  C   UNL     1       8.181   1.297 397.722  1.00  0.00     0.041 C 
ATOM     13  O   UNL     1       7.787   0.569 396.774  1.00  0.00    -0.550 OA
ATOM     14  O   UNL     1       8.450   2.643 397.493  1.00  0.00    -0.550 OA
ENDBRANCH  11  12
ENDBRANCH  10  11
ENDBRANCH   9  10
ENDBRANCH   8   9
ENDBRANCH   7   8
ENDBRANCH   6   7
ENDBRANCH   5   6
ENDBRANCH   4   5
ENDBRANCH   3   4
ENDBRANCH   2   3
ENDBRANCH   1   2
BRANCH   1  15
ATOM     15  C   UNL     1       6.899   0.222 404.852  1.00  0.00     0.000 C 
BRANCH  15  16
ATOM     16  C   UNL     1       6.195  -1.147 404.815  1.00  0.00     0.000 C 
BRANCH  16  17
ATOM     17  C   UNL     1       5.487  -1.421 403.478  1.00  0.00     0.000 C 
BRANCH  17  18
ATOM     18  C   UNL     1       3.958  -1.513 403.636  1.00  0.00    -0.000 C 
BRANCH  18  19
ATOM     19  C   UNL     1       3.526  -1.917 405.056  1.00  0.00    -0.000 C 
BRANCH  19  20
ATOM     20  C   UNL     1       3.123  -3.401 405.151  1.00  0.00    -0.000 C 
BRANCH  20  21
ATOM     21  C   UNL     1       4.314  -4.326 405.469  1.00  0.00    -0.000 C 
BRANCH  21  22
ATOM     22  C   UNL     1       4.921  -5.054 404.250  1.00  0.00    -0.000 C 
BRANCH  22  23
ATOM     23  C   UNL     1       3.988  -5.159 403.028  1.00  0.00    -0.000 C 
BRANCH  23  24
ATOM     24  C   UNL     1       4.671  -5.801 401.809  1.00  0.00    -0.000 C 
BRANCH  24  25
ATOM     25  C   UNL     1       6.013  -5.124 401.475  1.00  0.00    -0.003 C 
ATOM     26  C   UNL     1       5.821  -3.776 400.776  1.00  0.00     0.004 C 
ENDBRANCH  24  25
ENDBRANCH  23  24
ENDBRANCH  22  23
ENDBRANCH  21  22
ENDBRANCH  20  21
ENDBRANCH  19  20
ENDBRANCH  18  19
ENDBRANCH  17  18
ENDBRANCH  16  17
ENDBRANCH  15  16
ENDBRANCH   1  15
TORSDOF 22
ENDMDL
MODEL 4
REMARK VINA RESULT:    -3.597      1.645      3.882
REMARK INTER + INTRA:         -12.621
REMARK INTER:                  -8.069
REMARK INTRA:                  -4.552
REMARK UNBOUND:                -4.397
REMARK SMILES CCCCCCCCCCCCCCCCCCCCCCCC(=O)[O-]
REMARK SMILES IDX 13 1 14 2 15 3 16 4 17 5 18 6 19 7 20 8 21 9 22 10 23 11
REMARK SMILES IDX 24 12 25 13 26 14 12 15 11 16 10 17 9 18 8 19 7 20 6 21 5 22
REMARK SMILES IDX 4 23 3 24 2 25 1 26
REMARK H PARENT
REMARK Flexibility Score: inf
ROOT
ATOM      1  C   UNL     1       3.875   0.088 400.942  1.00  0.00     0.000 C 
ENDROOT
BRANCH   1   2
ATOM      2  C   UNL     1       4.669   1.395 400.765  1.00  0.00     0.000 C 
BRANCH   2   3
ATOM      3  C   UNL     1       3.953   2.610 401.383  1.00  0.00     0.000 C 
BRANCH   3   4
ATOM      4  C   UNL     1       4.565   3.032 402.736  1.00  0.00     0.000 C 
BRANCH   4   5
ATOM      5  C   UNL     1       6.024   2.575 402.938  1.00  0.00     0.000 C 
BRANCH   5   6
ATOM      6  C   UNL     1       6.459   2.391 404.404  1.00  0.00     0.000 C 
BRANCH   6   7
ATOM      7  C   UNL     1       6.885   0.960 404.781  1.00  0.00     0.000 C 
BRANCH   7   8
ATOM      8  C   UNL     1       6.420  -0.088 403.760  1.00  0.00     0.000 C 
BRANCH   8   9
ATOM      9  C   UNL     1       5.052  -0.668 404.152  1.00  0.00     0.000 C 
BRANCH   9  10
ATOM     10  C   UNL     1       5.138  -1.650 405.331  1.00  0.00     0.006 C 
BRANCH  10  11
ATOM     11  C   UNL     1       3.791  -1.858 406.036  1.00  0.00     0.053 C 
BRANCH  11  12
ATOM     12  C   UNL     1       3.163  -3.146 405.605  1.00  0.00     0.041 C 
ATOM     13  O   UNL     1       2.214  -3.143 404.779  1.00  0.00    -0.550 OA
ATOM     14  O   UNL     1       3.640  -4.354 406.105  1.00  0.00    -0.550 OA
ENDBRANCH  11  12
ENDBRANCH  10  11
ENDBRANCH   9  10
ENDBRANCH   8   9
ENDBRANCH   7   8
ENDBRANCH   6   7
ENDBRANCH   5   6
ENDBRANCH   4   5
ENDBRANCH   3   4
ENDBRANCH   2   3
ENDBRANCH   1   2
BRANCH   1  15
ATOM     15  C   UNL     1       3.678  -0.727 399.650  1.00  0.00     0.000 C 
BRANCH  15  16
ATOM     16  C   UNL     1       3.725  -2.246 399.894  1.00  0.00     0.000 C 
BRANCH  16  17
ATOM     17  C   UNL     1       3.690  -2.616 401.386  1.00  0.00     0.000 C 
BRANCH  17  18
ATOM     18  C   UNL     1       3.636  -4.138 401.609  1.00  0.00    -0.000 C 
BRANCH  18  19
ATOM     19  C   UNL     1       4.682  -4.631 402.623  1.00  0.00    -0.000 C 
BRANCH  19  20
ATOM     20  C   UNL     1       6.056  -3.962 402.426  1.00  0.00    -0.000 C 
BRANCH  20  21
ATOM     21  C   UNL     1       6.798  -4.473 401.176  1.00  0.00    -0.000 C 
BRANCH  21  22
ATOM     22  C   UNL     1       7.321  -3.370 400.229  1.00  0.00    -0.000 C 
BRANCH  22  23
ATOM     23  C   UNL     1       7.320  -1.950 400.827  1.00  0.00    -0.000 C 
BRANCH  23  24
ATOM     24  C   UNL     1       7.416  -0.852 399.754  1.00  0.00    -0.000 C 
BRANCH  24  25
ATOM     25  C   UNL     1       8.162   0.394 400.266  1.00  0.00    -0.003 C 
ATOM     26  C   UNL     1       9.236   0.039 401.299  1.00  0.00     0.004 C 
ENDBRANCH  24  25
ENDBRANCH  23  24
ENDBRANCH  22  23
ENDBRANCH  21  22
ENDBRANCH  20  21
ENDBRANCH  19  20
ENDBRANCH  18  19
ENDBRANCH  17  18
ENDBRANCH  16  17
ENDBRANCH  15  16
ENDBRANCH   1  15
TORSDOF 22
ENDMDL
MODEL 5
REMARK VINA RESULT:    -3.574      2.315      5.359
REMARK INTER + INTRA:         -12.569
REMARK INTER:                  -9.049
REMARK INTRA:                  -3.521
REMARK UNBOUND:                -4.397
REMARK SMILES CCCCCCCCCCCCCCCCCCCCCCCC(=O)[O-]
REMARK SMILES IDX 13 1 14 2 15 3 16 4 17 5 18 6 19 7 20 8 21 9 22 10 23 11
REMARK SMILES IDX 24 12 25 13 26 14 12 15 11 16 10 17 9 18 8 19 7 20 6 21 5 22
REMARK SMILES IDX 4 23 3 24 2 25 1 26
REMARK H PARENT
REMARK Flexibility Score: inf
ROOT
ATOM      1  C   UNL     1       6.352  -0.774 405.375  1.00  0.00     0.000 C 
ENDROOT
BRANCH   1   2
ATOM      2  C   UNL     1       5.641  -2.106 405.676  1.00  0.00     0.000 C 
BRANCH   2   3
ATOM      3  C   UNL     1       4.137  -1.926 405.947  1.00  0.00     0.000 C 
BRANCH   3   4
ATOM      4  C   UNL     1       3.292  -1.976 404.655  1.00  0.00     0.000 C 
BRANCH   4   5
ATOM      5  C   UNL     1       3.184  -3.381 404.027  1.00  0.00     0.000 C 
BRANCH   5   6
ATOM      6  C   UNL     1       3.163  -3.413 402.488  1.00  0.00     0.000 C 
BRANCH   6   7
ATOM      7  C   UNL     1       4.450  -2.906 401.809  1.00  0.00     0.000 C 
BRANCH   7   8
ATOM      8  C   UNL     1       5.702  -3.675 402.257  1.00  0.00     0.000 C 
BRANCH   8   9
ATOM      9  C   UNL     1       6.300  -4.478 401.092  1.00  0.00     0.000 C 
BRANCH   9  10
ATOM     10  C   UNL     1       6.374  -5.985 401.384  1.00  0.00     0.006 C 
BRANCH  10  11
ATOM     11  C   UNL     1       5.805  -6.357 402.759  1.00  0.00     0.053 C 
BRANCH  11  12
ATOM     12  C   UNL     1       4.576  -7.198 402.611  1.00  0.00     0.041 C 
ATOM     13  O   UNL     1       3.663  -6.852 401.817  1.00  0.00    -0.550 OA
ATOM     14  O   UNL     1       4.446  -8.376 403.341  1.00  0.00    -0.550 OA
ENDBRANCH  11  12
ENDBRANCH  10  11
ENDBRANCH   9  10
ENDBRANCH   8   9
ENDBRANCH   7   8
ENDBRANCH   6   7
ENDBRANCH   5   6
ENDBRANCH   4   5
ENDBRANCH   3   4
ENDBRANCH   2   3
ENDBRANCH   1   2
BRANCH   1  15
ATOM     15  C   UNL     1       6.657  -0.528 403.886  1.00  0.00     0.000 C 
BRANCH  15  16
ATOM     16  C   UNL     1       6.268   0.889 403.428  1.00  0.00     0.000 C 
BRANCH  16  17
ATOM     17  C   UNL     1       4.942   1.374 404.037  1.00  0.00     0.000 C 
BRANCH  17  18
ATOM     18  C   UNL     1       3.789   1.354 403.017  1.00  0.00    -0.000 C 
BRANCH  18  19
ATOM     19  C   UNL     1       3.888   2.485 401.979  1.00  0.00    -0.000 C 
BRANCH  19  20
ATOM     20  C   UNL     1       3.597   1.999 400.547  1.00  0.00    -0.000 C 
BRANCH  20  21
ATOM     21  C   UNL     1       3.630   0.464 400.417  1.00  0.00    -0.000 C 
BRANCH  21  22
ATOM     22  C   UNL     1       4.917  -0.113 399.786  1.00  0.00    -0.000 C 
BRANCH  22  23
ATOM     23  C   UNL     1       6.139   0.823 399.843  1.00  0.00    -0.000 C 
BRANCH  23  24
ATOM     24  C   UNL     1       7.374   0.234 399.139  1.00  0.00    -0.000 C 
BRANCH  24  25
ATOM     25  C   UNL     1       7.642   0.907 397.781  1.00  0.00    -0.003 C 
ATOM     26  C   UNL     1       8.822   1.881 397.842  1.00  0.00     0.004 C 
ENDBRANCH  24  25
ENDBRANCH  23  24
ENDBRANCH  22  23
ENDBRANCH  21  22
ENDBRANCH  20  21
ENDBRANCH  19  20
ENDBRANCH  18  19
ENDBRANCH  17  18
ENDBRANCH  16  17
ENDBRANCH  15  16
ENDBRANCH   1  15
TORSDOF 22
ENDMDL
MODEL 6
REMARK VINA RESULT:    -3.562      2.667      5.747
REMARK INTER + INTRA:         -12.540
REMARK INTER:                  -8.192
REMARK INTRA:                  -4.348
REMARK UNBOUND:                -4.397
REMARK SMILES CCCCCCCCCCCCCCCCCCCCCCCC(=O)[O-]
REMARK SMILES IDX 13 1 14 2 15 3 16 4 17 5 18 6 19 7 20 8 21 9 22 10 23 11
REMARK SMILES IDX 24 12 25 13 26 14 12 15 11 16 10 17 9 18 8 19 7 20 6 21 5 22
REMARK SMILES IDX 4 23 3 24 2 25 1 26
REMARK H PARENT
REMARK Flexibility Score: inf
ROOT
ATOM      1  C   UNL     1       6.840  -0.850 403.189  1.00  0.00     0.000 C 
ENDROOT
BRANCH   1   2
ATOM      2  C   UNL     1       7.094  -1.209 404.664  1.00  0.00     0.000 C 
BRANCH   2   3
ATOM      3  C   UNL     1       6.467  -2.557 405.062  1.00  0.00     0.000 C 
BRANCH   3   4
ATOM      4  C   UNL     1       5.246  -2.390 405.993  1.00  0.00     0.000 C 
BRANCH   4   5
ATOM      5  C   UNL     1       4.066  -1.631 405.353  1.00  0.00     0.000 C 
BRANCH   5   6
ATOM      6  C   UNL     1       2.855  -2.501 404.967  1.00  0.00     0.000 C 
BRANCH   6   7
ATOM      7  C   UNL     1       3.116  -3.512 403.834  1.00  0.00     0.000 C 
BRANCH   7   8
ATOM      8  C   UNL     1       3.595  -2.842 402.538  1.00  0.00     0.000 C 
BRANCH   8   9
ATOM      9  C   UNL     1       4.839  -3.551 401.981  1.00  0.00     0.000 C 
BRANCH   9  10
ATOM     10  C   UNL     1       4.559  -5.001 401.559  1.00  0.00     0.006 C 
BRANCH  10  11
ATOM     11  C   UNL     1       5.744  -5.939 401.817  1.00  0.00     0.053 C 
BRANCH  11  12
ATOM     12  C   UNL     1       5.371  -7.357 401.517  1.00  0.00     0.041 C 
ATOM     13  O   UNL     1       6.237  -8.268 401.581  1.00  0.00    -0.550 OA
ATOM     14  O   UNL     1       4.059  -7.675 401.182  1.00  0.00    -0.550 OA
ENDBRANCH  11  12
ENDBRANCH  10  11
ENDBRANCH   9  10
ENDBRANCH   8   9
ENDBRANCH   7   8
ENDBRANCH   6   7
ENDBRANCH   5   6
ENDBRANCH   4   5
ENDBRANCH   3   4
ENDBRANCH   2   3
ENDBRANCH   1   2
BRANCH   1  15
ATOM     15  C   UNL     1       7.873  -1.420 402.199  1.00  0.00     0.000 C 
BRANCH  15  16
ATOM     16  C   UNL     1       7.677  -0.891 400.767  1.00  0.00     0.000 C 
BRANCH  16  17
ATOM     17  C   UNL     1       7.369   0.615 400.720  1.00  0.00     0.000 C 
BRANCH  17  18
ATOM     18  C   UNL     1       6.087   0.925 399.926  1.00  0.00    -0.000 C 
BRANCH  18  19
ATOM     19  C   UNL     1       5.091  -0.247 399.918  1.00  0.00    -0.000 C 
BRANCH  19  20
ATOM     20  C   UNL     1       3.687   0.169 400.394  1.00  0.00    -0.000 C 
BRANCH  20  21
ATOM     21  C   UNL     1       3.713   1.363 401.367  1.00  0.00    -0.000 C 
BRANCH  21  22
ATOM     22  C   UNL     1       3.583   0.994 402.861  1.00  0.00    -0.000 C 
BRANCH  22  23
ATOM     23  C   UNL     1       4.554   1.737 403.798  1.00  0.00    -0.000 C 
BRANCH  23  24
ATOM     24  C   UNL     1       5.451   2.741 403.053  1.00  0.00    -0.000 C 
BRANCH  24  25
ATOM     25  C   UNL     1       6.782   2.984 403.787  1.00  0.00    -0.003 C 
ATOM     26  C   UNL     1       6.800   2.342 405.177  1.00  0.00     0.004 C 
ENDBRANCH  24  25
ENDBRANCH  23  24
ENDBRANCH  22  23
ENDBRANCH  21  22
ENDBRANCH  20  21
ENDBRANCH  19  20
ENDBRANCH  18  19
ENDBRANCH  17  18
ENDBRANCH  16  17
ENDBRANCH  15  16
ENDBRANCH   1  15
TORSDOF 22
ENDMDL
MODEL 7
REMARK VINA RESULT:    -3.552      2.530      5.381
REMARK INTER + INTRA:         -12.519
REMARK INTER:                  -9.098
REMARK INTRA:                  -3.421
REMARK UNBOUND:                -4.397
REMARK SMILES CCCCCCCCCCCCCCCCCCCCCCCC(=O)[O-]
REMARK SMILES IDX 13 1 14 2 15 3 16 4 17 5 18 6 19 7 20 8 21 9 22 10 23 11
REMARK SMILES IDX 24 12 25 13 26 14 12 15 11 16 10 17 9 18 8 19 7 20 6 21 5 22
REMARK SMILES IDX 4 23 3 24 2 25 1 26
REMARK H PARENT
REMARK Flexibility Score: inf
ROOT
ATOM      1  C   UNL     1       5.228   1.820 402.596  1.00  0.00     0.000 C 
ENDROOT
BRANCH   1   2
ATOM      2  C   UNL     1       4.777   1.500 404.033  1.00  0.00     0.000 C 
BRANCH   2   3
ATOM      3  C   UNL     1       5.111   0.056 404.450  1.00  0.00     0.000 C 
BRANCH   3   4
ATOM      4  C   UNL     1       4.044  -0.957 403.981  1.00  0.00     0.000 C 
BRANCH   4   5
ATOM      5  C   UNL     1       3.397  -1.765 405.123  1.00  0.00     0.000 C 
BRANCH   5   6
ATOM      6  C   UNL     1       2.695  -3.067 404.693  1.00  0.00     0.000 C 
BRANCH   6   7
ATOM      7  C   UNL     1       3.638  -4.256 404.428  1.00  0.00     0.000 C 
BRANCH   7   8
ATOM      8  C   UNL     1       4.122  -4.319 402.972  1.00  0.00     0.000 C 
BRANCH   8   9
ATOM      9  C   UNL     1       5.617  -4.665 402.904  1.00  0.00     0.000 C 
BRANCH   9  10
ATOM     10  C   UNL     1       5.914  -5.840 401.960  1.00  0.00     0.006 C 
BRANCH  10  11
ATOM     11  C   UNL     1       5.638  -7.206 402.600  1.00  0.00     0.053 C 
BRANCH  11  12
ATOM     12  C   UNL     1       4.492  -7.886 401.919  1.00  0.00     0.041 C 
ATOM     13  O   UNL     1       3.337  -7.390 401.975  1.00  0.00    -0.550 OA
ATOM     14  O   UNL     1       4.704  -9.062 401.205  1.00  0.00    -0.550 OA
ENDBRANCH  11  12
ENDBRANCH  10  11
ENDBRANCH   9  10
ENDBRANCH   8   9
ENDBRANCH   7   8
ENDBRANCH   6   7
ENDBRANCH   5   6
ENDBRANCH   4   5
ENDBRANCH   3   4
ENDBRANCH   2   3
ENDBRANCH   1   2
BRANCH   1  15
ATOM     15  C   UNL     1       4.283   2.752 401.816  1.00  0.00     0.000 C 
BRANCH  15  16
ATOM     16  C   UNL     1       3.733   2.101 400.534  1.00  0.00     0.000 C 
BRANCH  16  17
ATOM     17  C   UNL     1       3.286   0.645 400.744  1.00  0.00     0.000 C 
BRANCH  17  18
ATOM     18  C   UNL     1       3.975  -0.324 399.766  1.00  0.00    -0.000 C 
BRANCH  18  19
ATOM     19  C   UNL     1       4.188  -1.726 400.364  1.00  0.00    -0.000 C 
BRANCH  19  20
ATOM     20  C   UNL     1       5.665  -2.161 400.336  1.00  0.00    -0.000 C 
BRANCH  20  21
ATOM     21  C   UNL     1       6.561  -1.299 401.246  1.00  0.00    -0.000 C 
BRANCH  21  22
ATOM     22  C   UNL     1       7.849  -0.764 400.580  1.00  0.00    -0.000 C 
BRANCH  22  23
ATOM     23  C   UNL     1       7.767   0.695 400.092  1.00  0.00    -0.000 C 
BRANCH  23  24
ATOM     24  C   UNL     1       7.176   0.818 398.677  1.00  0.00    -0.000 C 
BRANCH  24  25
ATOM     25  C   UNL     1       8.132   1.543 397.712  1.00  0.00    -0.003 C 
ATOM     26  C   UNL     1       9.546   1.667 398.285  1.00  0.00     0.004 C 
ENDBRANCH  24  25
ENDBRANCH  23  24
ENDBRANCH  22  23
ENDBRANCH  21  22
ENDBRANCH  20  21
ENDBRANCH  19  20
ENDBRANCH  18  19
ENDBRANCH  17  18
ENDBRANCH  16  17
ENDBRANCH  15  16
ENDBRANCH   1  15
TORSDOF 22
ENDMDL
MODEL 8
REMARK VINA RESULT:    -3.549      4.750      7.569
REMARK INTER + INTRA:         -12.512
REMARK INTER:                  -9.351
REMARK INTRA:                  -3.161
REMARK UNBOUND:                -4.397
REMARK SMILES CCCCCCCCCCCCCCCCCCCCCCCC(=O)[O-]
REMARK SMILES IDX 13 1 14 2 15 3 16 4 17 5 18 6 19 7 20 8 21 9 22 10 23 11
REMARK SMILES IDX 24 12 25 13 26 14 12 15 11 16 10 17 9 18 8 19 7 20 6 21 5 22
REMARK SMILES IDX 4 23 3 24 2 25 1 26
REMARK H PARENT
REMARK Flexibility Score: inf
ROOT
ATOM      1  C   UNL     1       5.662   1.768 404.202  1.00  0.00     0.000 C 
ENDROOT
BRANCH   1   2
ATOM      2  C   UNL     1       6.779   2.712 403.721  1.00  0.00     0.000 C 
BRANCH   2   3
ATOM      3  C   UNL     1       7.196   3.731 404.797  1.00  0.00     0.000 C 
BRANCH   3   4
ATOM      4  C   UNL     1       7.441   5.140 404.214  1.00  0.00     0.000 C 
BRANCH   4   5
ATOM      5  C   UNL     1       6.155   5.962 403.992  1.00  0.00     0.000 C 
BRANCH   5   6
ATOM      6  C   UNL     1       6.357   7.324 403.302  1.00  0.00     0.000 C 
BRANCH   6   7
ATOM      7  C   UNL     1       5.087   7.928 402.671  1.00  0.00     0.000 C 
BRANCH   7   8
ATOM      8  C   UNL     1       3.841   7.058 402.894  1.00  0.00     0.000 C 
BRANCH   8   9
ATOM      9  C   UNL     1       2.702   7.880 403.515  1.00  0.00     0.000 C 
BRANCH   9  10
ATOM     10  C   UNL     1       3.201   8.907 404.543  1.00  0.00     0.006 C 
BRANCH  10  11
ATOM     11  C   UNL     1       3.087   8.410 405.990  1.00  0.00     0.053 C 
BRANCH  11  12
ATOM     12  C   UNL     1       4.371   8.629 406.726  1.00  0.00     0.041 C 
ATOM     13  O   UNL     1       5.390   9.043 406.115  1.00  0.00    -0.550 OA
ATOM     14  O   UNL     1       4.438   8.390 408.096  1.00  0.00    -0.550 OA
ENDBRANCH  11  12
ENDBRANCH  10  11
ENDBRANCH   9  10
ENDBRANCH   8   9
ENDBRANCH   7   8
ENDBRANCH   6   7
ENDBRANCH   5   6
ENDBRANCH   4   5
ENDBRANCH   3   4
ENDBRANCH   2   3
ENDBRANCH   1   2
BRANCH   1  15
ATOM     15  C   UNL     1       4.374   1.810 403.359  1.00  0.00     0.000 C 
BRANCH  15  16
ATOM     16  C   UNL     1       4.385   2.942 402.316  1.00  0.00     0.000 C 
BRANCH  16  17
ATOM     17  C   UNL     1       3.678   2.557 401.006  1.00  0.00     0.000 C 
BRANCH  17  18
ATOM     18  C   UNL     1       4.151   1.196 400.464  1.00  0.00    -0.000 C 
BRANCH  18  19
ATOM     19  C   UNL     1       5.651   1.177 400.124  1.00  0.00    -0.000 C 
BRANCH  19  20
ATOM     20  C   UNL     1       6.193  -0.251 399.924  1.00  0.00    -0.000 C 
BRANCH  20  21
ATOM     21  C   UNL     1       5.640  -1.251 400.957  1.00  0.00    -0.000 C 
BRANCH  21  22
ATOM     22  C   UNL     1       6.358  -1.245 402.325  1.00  0.00    -0.000 C 
BRANCH  22  23
ATOM     23  C   UNL     1       5.668  -2.077 403.422  1.00  0.00    -0.000 C 
BRANCH  23  24
ATOM     24  C   UNL     1       4.138  -2.121 403.263  1.00  0.00    -0.000 C 
BRANCH  24  25
ATOM     25  C   UNL     1       3.410  -1.593 404.512  1.00  0.00    -0.003 C 
ATOM     26  C   UNL     1       4.204  -1.853 405.795  1.00  0.00     0.004 C 
ENDBRANCH  24  25
ENDBRANCH  23  24
ENDBRANCH  22  23
ENDBRANCH  21  22
ENDBRANCH  20  21
ENDBRANCH  19  20
ENDBRANCH  18  19
ENDBRANCH  17  18
ENDBRANCH  16  17
ENDBRANCH  15  16
ENDBRANCH   1  15
TORSDOF 22
ENDMDL
MODEL 9
REMARK VINA RESULT:    -3.486      2.549      6.004
REMARK INTER + INTRA:         -12.367
REMARK INTER:                  -7.867
REMARK INTRA:                  -4.500
REMARK UNBOUND:                -4.397
REMARK SMILES CCCCCCCCCCCCCCCCCCCCCCCC(=O)[O-]
REMARK SMILES IDX 13 1 14 2 15 3 16 4 17 5 18 6 19 7 20 8 21 9 22 10 23 11
REMARK SMILES IDX 24 12 25 13 26 14 12 15 11 16 10 17 9 18 8 19 7 20 6 21 5 22
REMARK SMILES IDX 4 23 3 24 2 25 1 26
REMARK H PARENT
REMARK Flexibility Score: inf
ROOT
ATOM      1  C   UNL     1       3.120  -3.325 400.945  1.00  0.00     0.000 C 
ENDROOT
BRANCH   1   2
ATOM      2  C   UNL     1       3.631  -3.157 402.388  1.00  0.00     0.000 C 
BRANCH   2   3
ATOM      3  C   UNL     1       4.180  -4.469 402.977  1.00  0.00     0.000 C 
BRANCH   3   4
ATOM      4  C   UNL     1       4.043  -5.659 402.002  1.00  0.00     0.000 C 
BRANCH   4   5
ATOM      5  C   UNL     1       5.387  -6.294 401.591  1.00  0.00     0.000 C 
BRANCH   5   6
ATOM      6  C   UNL     1       6.641  -5.613 402.171  1.00  0.00     0.000 C 
BRANCH   6   7
ATOM      7  C   UNL     1       7.604  -5.023 401.123  1.00  0.00     0.000 C 
BRANCH   7   8
ATOM      8  C   UNL     1       6.896  -4.113 400.110  1.00  0.00     0.000 C 
BRANCH   8   9
ATOM      9  C   UNL     1       7.812  -2.960 399.673  1.00  0.00     0.000 C 
BRANCH   9  10
ATOM     10  C   UNL     1       8.343  -2.139 400.858  1.00  0.00     0.006 C 
BRANCH  10  11
ATOM     11  C   UNL     1       8.289  -0.627 400.611  1.00  0.00     0.053 C 
BRANCH  11  12
ATOM     12  C   UNL     1       9.358  -0.210 399.651  1.00  0.00     0.041 C 
ATOM     13  O   UNL     1       9.116   0.656 398.770  1.00  0.00    -0.550 OA
ATOM     14  O   UNL     1      10.630  -0.766 399.741  1.00  0.00    -0.550 OA
ENDBRANCH  11  12
ENDBRANCH  10  11
ENDBRANCH   9  10
ENDBRANCH   8   9
ENDBRANCH   7   8
ENDBRANCH   6   7
ENDBRANCH   5   6
ENDBRANCH   4   5
ENDBRANCH   3   4
ENDBRANCH   2   3
ENDBRANCH   1   2
BRANCH   1  15
ATOM     15  C   UNL     1       3.687  -2.309 399.937  1.00  0.00     0.000 C 
BRANCH  15  16
ATOM     16  C   UNL     1       4.670  -1.317 400.584  1.00  0.00     0.000 C 
BRANCH  16  17
ATOM     17  C   UNL     1       4.675   0.059 399.898  1.00  0.00     0.000 C 
BRANCH  17  18
ATOM     18  C   UNL     1       3.390   0.858 400.183  1.00  0.00    -0.000 C 
BRANCH  18  19
ATOM     19  C   UNL     1       3.669   2.238 400.802  1.00  0.00    -0.000 C 
BRANCH  19  20
ATOM     20  C   UNL     1       4.331   2.139 402.190  1.00  0.00    -0.000 C 
BRANCH  20  21
ATOM     21  C   UNL     1       3.627   1.130 403.118  1.00  0.00    -0.000 C 
BRANCH  21  22
ATOM     22  C   UNL     1       4.569   0.313 404.031  1.00  0.00    -0.000 C 
BRANCH  22  23
ATOM     23  C   UNL     1       6.047   0.309 403.596  1.00  0.00    -0.000 C 
BRANCH  23  24
ATOM     24  C   UNL     1       6.913  -0.644 404.438  1.00  0.00    -0.000 C 
BRANCH  24  25
ATOM     25  C   UNL     1       6.718  -2.115 404.030  1.00  0.00    -0.003 C 
ATOM     26  C   UNL     1       7.843  -3.013 404.551  1.00  0.00     0.004 C 
ENDBRANCH  24  25
ENDBRANCH  23  24
ENDBRANCH  22  23
ENDBRANCH  21  22
ENDBRANCH  20  21
ENDBRANCH  19  20
ENDBRANCH  18  19
ENDBRANCH  17  18
ENDBRANCH  16  17
ENDBRANCH  15  16
ENDBRANCH   1  15
TORSDOF 22
ENDMDL
