MODEL 1
REMARK VINA RESULT:    -2.988      0.000      0.000
REMARK INTER + INTRA:          -3.342
REMARK INTER:                  -3.337
REMARK INTRA:                  -0.005
REMARK UNBOUND:                -0.005
REMARK SMILES CCCC(=O)[O-]
REMARK SMILES IDX 3 1 4 2 5 3 6 4 2 5 1 6
REMARK H PARENT
REMARK Flexibility Score: inf
ROOT
ATOM      1  C   UNL     1     159.157 157.729 148.133  1.00  0.00     0.052 C 
ENDROOT
BRANCH   1   2
ATOM      2  C   UNL     1     160.043 158.841 147.661  1.00  0.00     0.041 C 
ATOM      3  O   UNL     1     161.147 159.056 148.227  1.00  0.00    -0.550 OA
ATOM      4  O   UNL     1     159.665 159.618 146.573  1.00  0.00    -0.550 OA
ENDBRANCH   1   2
BRANCH   1   5
ATOM      5  C   UNL     1     158.165 158.208 149.201  1.00  0.00     0.003 C 
ATOM      6  C   UNL     1     157.308 157.068 149.749  1.00  0.00     0.004 C 
ENDBRANCH   1   5
TORSDOF 2
ENDMDL
MODEL 2
REMARK VINA RESULT:    -2.977      2.743      4.020
REMARK INTER + INTRA:          -3.330
REMARK INTER:                  -3.324
REMARK INTRA:                  -0.006
REMARK UNBOUND:                -0.005
REMARK SMILES CCCC(=O)[O-]
REMARK SMILES IDX 3 1 4 2 5 3 6 4 2 5 1 6
REMARK H PARENT
REMARK Flexibility Score: inf
ROOT
ATOM      1  C   UNL     1     160.400 161.488 147.902  1.00  0.00     0.052 C 
ENDROOT
BRANCH   1   2
ATOM      2  C   UNL     1     159.431 160.399 147.554  1.00  0.00     0.041 C 
ATOM      3  O   UNL     1     159.659 159.635 146.579  1.00  0.00    -0.550 OA
ATOM      4  O   UNL     1     158.294 160.207 148.327  1.00  0.00    -0.550 OA
ENDBRANCH   1   2
BRANCH   1   5
ATOM      5  C   UNL     1     161.221 161.140 149.150  1.00  0.00     0.003 C 
ATOM      6  C   UNL     1     162.019 162.335 149.672  1.00  0.00     0.004 C 
ENDBRANCH   1   5
TORSDOF 2
ENDMDL
MODEL 3
REMARK VINA RESULT:    -2.895      3.534      4.823
REMARK INTER + INTRA:          -3.238
REMARK INTER:                  -3.225
REMARK INTRA:                  -0.014
REMARK UNBOUND:                -0.005
REMARK SMILES CCCC(=O)[O-]
REMARK SMILES IDX 3 1 4 2 5 3 6 4 2 5 1 6
REMARK H PARENT
REMARK Flexibility Score: inf
ROOT
ATOM      1  C   UNL     1     161.451 161.190 149.784  1.00  0.00     0.052 C 
ENDROOT
BRANCH   1   2
ATOM      2  C   UNL     1     160.921 160.557 148.534  1.00  0.00     0.041 C 
ATOM      3  O   UNL     1     160.349 161.261 147.660  1.00  0.00    -0.550 OA
ATOM      4  O   UNL     1     161.087 159.195 148.319  1.00  0.00    -0.550 OA
ENDBRANCH   1   2
BRANCH   1   5
ATOM      5  C   UNL     1     161.957 162.615 149.528  1.00  0.00     0.003 C 
ATOM      6  C   UNL     1     163.385 162.824 150.033  1.00  0.00     0.004 C 
ENDBRANCH   1   5
TORSDOF 2
ENDMDL
MODEL 4
REMARK VINA RESULT:    -2.881      3.553      4.506
REMARK INTER + INTRA:          -3.223
REMARK INTER:                  -3.168
REMARK INTRA:                  -0.055
REMARK UNBOUND:                -0.005
REMARK SMILES CCCC(=O)[O-]
REMARK SMILES IDX 3 1 4 2 5 3 6 4 2 5 1 6
REMARK H PARENT
REMARK Flexibility Score: inf
ROOT
ATOM      1  C   UNL     1     159.305 162.354 149.704  1.00  0.00     0.052 C 
ENDROOT
BRANCH   1   2
ATOM      2  C   UNL     1     158.883 160.940 149.447  1.00  0.00     0.041 C 
ATOM      3  O   UNL     1     158.868 160.102 150.387  1.00  0.00    -0.550 OA
ATOM      4  O   UNL     1     158.473 160.556 148.177  1.00  0.00    -0.550 OA
ENDBRANCH   1   2
BRANCH   1   5
ATOM      5  C   UNL     1     160.549 162.732 148.888  1.00  0.00     0.003 C 
ATOM      6  C   UNL     1     161.837 162.199 149.514  1.00  0.00     0.004 C 
ENDBRANCH   1   5
TORSDOF 2
ENDMDL
MODEL 5
REMARK VINA RESULT:    -2.877      4.968      5.912
REMARK INTER + INTRA:          -3.219
REMARK INTER:                  -3.203
REMARK INTRA:                  -0.015
REMARK UNBOUND:                -0.005
REMARK SMILES CCCC(=O)[O-]
REMARK SMILES IDX 3 1 4 2 5 3 6 4 2 5 1 6
REMARK H PARENT
REMARK Flexibility Score: inf
ROOT
ATOM      1  C   UNL     1     155.868 155.467 150.030  1.00  0.00     0.052 C 
ENDROOT
BRANCH   1   2
ATOM      2  C   UNL     1     154.378 155.371 149.903  1.00  0.00     0.041 C 
ATOM      3  O   UNL     1     153.772 154.345 150.311  1.00  0.00    -0.550 OA
ATOM      4  O   UNL     1     153.657 156.428 149.364  1.00  0.00    -0.550 OA
ENDBRANCH   1   2
BRANCH   1   5
ATOM      5  C   UNL     1     156.341 156.926 150.081  1.00  0.00     0.003 C 
ATOM      6  C   UNL     1     157.727 157.108 149.462  1.00  0.00     0.004 C 
ENDBRANCH   1   5
TORSDOF 2
ENDMDL
MODEL 6
REMARK VINA RESULT:    -2.866      5.611      6.965
REMARK INTER + INTRA:          -3.207
REMARK INTER:                  -3.189
REMARK INTRA:                  -0.018
REMARK UNBOUND:                -0.005
REMARK SMILES CCCC(=O)[O-]
REMARK SMILES IDX 3 1 4 2 5 3 6 4 2 5 1 6
REMARK H PARENT
REMARK Flexibility Score: inf
ROOT
ATOM      1  C   UNL     1     163.654 162.535 150.111  1.00  0.00     0.052 C 
ENDROOT
BRANCH   1   2
ATOM      2  C   UNL     1     162.213 162.246 149.818  1.00  0.00     0.041 C 
ATOM      3  O   UNL     1     161.573 162.971 149.010  1.00  0.00    -0.550 OA
ATOM      4  O   UNL     1     161.587 161.158 150.411  1.00  0.00    -0.550 OA
ENDBRANCH   1   2
BRANCH   1   5
ATOM      5  C   UNL     1     163.969 164.032 149.992  1.00  0.00     0.003 C 
ATOM      6  C   UNL     1     165.406 164.288 149.539  1.00  0.00     0.004 C 
ENDBRANCH   1   5
TORSDOF 2
ENDMDL
MODEL 7
REMARK VINA RESULT:    -2.829      1.582      2.086
REMARK INTER + INTRA:          -3.164
REMARK INTER:                  -3.105
REMARK INTRA:                  -0.059
REMARK UNBOUND:                -0.005
REMARK SMILES CCCC(=O)[O-]
REMARK SMILES IDX 3 1 4 2 5 3 6 4 2 5 1 6
REMARK H PARENT
REMARK Flexibility Score: inf
ROOT
ATOM      1  C   UNL     1     160.243 157.273 149.795  1.00  0.00     0.052 C 
ENDROOT
BRANCH   1   2
ATOM      2  C   UNL     1     160.629 158.675 149.433  1.00  0.00     0.041 C 
ATOM      3  O   UNL     1     160.989 158.950 148.258  1.00  0.00    -0.550 OA
ATOM      4  O   UNL     1     160.560 159.684 150.385  1.00  0.00    -0.550 OA
ENDBRANCH   1   2
BRANCH   1   5
ATOM      5  C   UNL     1     159.026 156.794 148.994  1.00  0.00     0.003 C 
ATOM      6  C   UNL     1     157.713 157.345 149.549  1.00  0.00     0.004 C 
ENDBRANCH   1   5
TORSDOF 2
ENDMDL
MODEL 8
REMARK VINA RESULT:    -2.792      3.881      4.457
REMARK INTER + INTRA:          -3.123
REMARK INTER:                  -3.093
REMARK INTRA:                  -0.030
REMARK UNBOUND:                -0.005
REMARK SMILES CCCC(=O)[O-]
REMARK SMILES IDX 3 1 4 2 5 3 6 4 2 5 1 6
REMARK H PARENT
REMARK Flexibility Score: inf
ROOT
ATOM      1  C   UNL     1     160.292 162.663 149.340  1.00  0.00     0.052 C 
ENDROOT
BRANCH   1   2
ATOM      2  C   UNL     1     161.452 161.715 149.350  1.00  0.00     0.041 C 
ATOM      3  O   UNL     1     161.328 160.556 148.873  1.00  0.00    -0.550 OA
ATOM      4  O   UNL     1     162.680 162.123 149.855  1.00  0.00    -0.550 OA
ENDBRANCH   1   2
BRANCH   1   5
ATOM      5  C   UNL     1     159.040 162.035 149.966  1.00  0.00     0.003 C 
ATOM      6  C   UNL     1     158.850 162.452 151.424  1.00  0.00     0.004 C 
ENDBRANCH   1   5
TORSDOF 2
ENDMDL
MODEL 9
REMARK VINA RESULT:    -2.787      4.557      5.007
REMARK INTER + INTRA:          -3.118
REMARK INTER:                  -3.109
REMARK INTRA:                  -0.008
REMARK UNBOUND:                -0.005
REMARK SMILES CCCC(=O)[O-]
REMARK SMILES IDX 3 1 4 2 5 3 6 4 2 5 1 6
REMARK H PARENT
REMARK Flexibility Score: inf
ROOT
ATOM      1  C   UNL     1     158.918 161.383 152.457  1.00  0.00     0.052 C 
ENDROOT
BRANCH   1   2
ATOM      2  C   UNL     1     159.529 160.375 151.532  1.00  0.00     0.041 C 
ATOM      3  O   UNL     1     160.768 160.387 151.310  1.00  0.00    -0.550 OA
ATOM      4  O   UNL     1     158.733 159.402 150.941  1.00  0.00    -0.550 OA
ENDBRANCH   1   2
BRANCH   1   5
ATOM      5  C   UNL     1     158.486 160.747 153.785  1.00  0.00     0.003 C 
ATOM      6  C   UNL     1     157.336 161.506 154.445  1.00  0.00     0.004 C 
ENDBRANCH   1   5
TORSDOF 2
ENDMDL
