MODEL 1
REMARK VINA RESULT:    -6.040      0.000      0.000
REMARK INTER + INTRA:          -7.127
REMARK INTER:                  -6.570
REMARK INTRA:                  -0.557
REMARK UNBOUND:                -0.557
REMARK SMILES C=C(C)[C@@H]1CC[C@@]2(C)CC[C@@]3(C)[C@H](CC[C@H]4[C@]5(C)CC[C@@H](O)C(C)(C)[C@H]5CC[C@]43C)[C@H]12
REMARK SMILES IDX 4 1 5 2 6 3 7 4 31 5 13 6 14 7 15 8 16 9 17 10 19 11 20 12
REMARK SMILES IDX 21 13 23 14 26 15 27 16 28 17 29 18 11 19 10 20 9 21 12 22
REMARK SMILES IDX 30 23 24 24 25 25 18 26 8 27 2 28 3 29 1 30 22 31
REMARK H PARENT 22 32
REMARK Flexibility Score: inf
ROOT
ATOM      1  C   UNL     1      21.192  47.328  25.597  1.00  0.00     0.018 C 
ATOM      2  C   UNL     1      22.454  46.677  24.971  1.00  0.00     0.009 C 
ATOM      3  C   UNL     1      22.726  45.390  25.770  1.00  0.00     0.008 C 
ATOM      4  C   UNL     1      21.337  44.920  26.235  1.00  0.00    -0.029 C 
ATOM      5  C   UNL     1      20.695  46.264  26.613  1.00  0.00     0.006 C 
ATOM      6  C   UNL     1      19.242  46.184  27.182  1.00  0.00    -0.000 C 
ATOM      7  C   UNL     1      18.161  45.920  26.099  1.00  0.00     0.005 C 
ATOM      8  C   UNL     1      17.284  44.697  26.337  1.00  0.00     0.005 C 
ATOM      9  C   UNL     1      16.612  44.725  27.719  1.00  0.00     0.002 C 
ATOM     10  C   UNL     1      15.554  43.539  27.908  1.00  0.00    -0.026 C 
ATOM     11  C   UNL     1      14.326  43.808  26.972  1.00  0.00     0.010 C 
ATOM     12  C   UNL     1      13.131  42.888  27.238  1.00  0.00     0.033 C 
ATOM     13  C   UNL     1      12.628  43.028  28.683  1.00  0.00     0.120 C 
ATOM     14  C   UNL     1      13.739  42.710  29.731  1.00  0.00    -0.006 C 
ATOM     15  C   UNL     1      15.031  43.570  29.392  1.00  0.00     0.003 C 
ATOM     16  C   UNL     1      16.149  43.480  30.465  1.00  0.00     0.005 C 
ATOM     17  C   UNL     1      17.558  43.828  29.971  1.00  0.00     0.008 C 
ATOM     18  C   UNL     1      17.635  44.992  28.926  1.00  0.00    -0.024 C 
ATOM     19  C   UNL     1      19.180  45.229  28.454  1.00  0.00    -0.024 C 
ATOM     20  C   UNL     1      19.954  43.878  28.158  1.00  0.00     0.008 C 
ATOM     21  C   UNL     1      21.357  44.014  27.488  1.00  0.00     0.007 C 
ATOM     22  C   UNL     1      19.976  45.917  29.628  1.00  0.00     0.012 C 
ATOM     23  C   UNL     1      17.131  46.283  29.665  1.00  0.00     0.012 C 
ATOM     24  C   UNL     1      13.984  41.168  29.804  1.00  0.00     0.014 C 
ATOM     25  C   UNL     1      13.204  43.155  31.121  1.00  0.00     0.014 C 
ATOM     26  C   UNL     1      16.177  42.170  27.494  1.00  0.00     0.012 C 
ATOM     27  C   UNL     1      20.689  44.155  25.053  1.00  0.00     0.011 C 
ENDROOT
BRANCH   1  28
ATOM     28  C   UNL     1      20.157  47.900  24.624  1.00  0.00    -0.077 C 
ATOM     29  C   UNL     1      19.894  47.299  23.262  1.00  0.00     0.039 C 
ATOM     30  C   UNL     1      19.598  49.090  24.910  1.00  0.00     0.008 C 
ENDBRANCH   1  28
BRANCH  13  31
ATOM     31  O   UNL     1      11.517  42.187  28.878  1.00  0.00    -0.393 OA
ATOM     32  H   UNL     1      11.346  42.155  29.855  1.00  0.00     0.210 HD
ENDBRANCH  13  31
TORSDOF 2
ENDMDL
MODEL 2
REMARK VINA RESULT:    -5.851     14.171     16.168
REMARK INTER + INTRA:          -6.921
REMARK INTER:                  -6.382
REMARK INTRA:                  -0.540
REMARK UNBOUND:                -0.557
REMARK SMILES C=C(C)[C@@H]1CC[C@@]2(C)CC[C@@]3(C)[C@H](CC[C@H]4[C@]5(C)CC[C@@H](O)C(C)(C)[C@H]5CC[C@]43C)[C@H]12
REMARK SMILES IDX 4 1 5 2 6 3 7 4 31 5 13 6 14 7 15 8 16 9 17 10 19 11 20 12
REMARK SMILES IDX 21 13 23 14 26 15 27 16 28 17 29 18 11 19 10 20 9 21 12 22
REMARK SMILES IDX 30 23 24 24 25 25 18 26 8 27 2 28 3 29 1 30 22 31
REMARK H PARENT 22 32
REMARK Flexibility Score: inf
ROOT
ATOM      1  C   UNL     1      24.338  38.546  13.859  1.00  0.00     0.018 C 
ATOM      2  C   UNL     1      25.314  38.676  12.659  1.00  0.00     0.009 C 
ATOM      3  C   UNL     1      24.685  37.891  11.495  1.00  0.00     0.008 C 
ATOM      4  C   UNL     1      23.168  38.007  11.722  1.00  0.00    -0.029 C 
ATOM      5  C   UNL     1      23.097  37.841  13.249  1.00  0.00     0.006 C 
ATOM      6  C   UNL     1      21.662  37.869  13.867  1.00  0.00    -0.000 C 
ATOM      7  C   UNL     1      21.043  39.290  13.945  1.00  0.00     0.005 C 
ATOM      8  C   UNL     1      19.697  39.455  13.252  1.00  0.00     0.005 C 
ATOM      9  C   UNL     1      18.662  38.431  13.742  1.00  0.00     0.002 C 
ATOM     10  C   UNL     1      17.200  38.708  13.152  1.00  0.00    -0.026 C 
ATOM     11  C   UNL     1      16.642  40.026  13.790  1.00  0.00     0.010 C 
ATOM     12  C   UNL     1      15.158  40.271  13.507  1.00  0.00     0.033 C 
ATOM     13  C   UNL     1      14.289  39.120  14.034  1.00  0.00     0.120 C 
ATOM     14  C   UNL     1      14.688  37.744  13.415  1.00  0.00    -0.006 C 
ATOM     15  C   UNL     1      16.252  37.532  13.595  1.00  0.00     0.003 C 
ATOM     16  C   UNL     1      16.749  36.120  13.182  1.00  0.00     0.005 C 
ATOM     17  C   UNL     1      18.239  36.029  12.833  1.00  0.00     0.008 C 
ATOM     18  C   UNL     1      19.190  36.916  13.707  1.00  0.00    -0.024 C 
ATOM     19  C   UNL     1      20.735  36.757  13.204  1.00  0.00    -0.024 C 
ATOM     20  C   UNL     1      20.882  36.797  11.626  1.00  0.00     0.008 C 
ATOM     21  C   UNL     1      22.337  36.881  11.066  1.00  0.00     0.007 C 
ATOM     22  C   UNL     1      21.274  35.341  13.637  1.00  0.00     0.012 C 
ATOM     23  C   UNL     1      19.080  36.367  15.174  1.00  0.00     0.012 C 
ATOM     24  C   UNL     1      14.184  37.652  11.939  1.00  0.00     0.014 C 
ATOM     25  C   UNL     1      13.947  36.642  14.223  1.00  0.00     0.014 C 
ATOM     26  C   UNL     1      17.257  38.915  11.606  1.00  0.00     0.012 C 
ATOM     27  C   UNL     1      22.719  39.378  11.157  1.00  0.00     0.011 C 
ENDROOT
BRANCH   1  28
ATOM     28  C   UNL     1      24.086  39.813  14.683  1.00  0.00    -0.077 C 
ATOM     29  C   UNL     1      24.203  41.204  14.102  1.00  0.00     0.039 C 
ATOM     30  C   UNL     1      23.944  39.692  16.015  1.00  0.00     0.008 C 
ENDBRANCH   1  28
BRANCH  13  31
ATOM     31  O   UNL     1      12.934  39.397  13.776  1.00  0.00    -0.393 OA
ATOM     32  H   UNL     1      12.854  39.573  12.802  1.00  0.00     0.210 HD
ENDBRANCH  13  31
TORSDOF 2
ENDMDL
MODEL 3
REMARK VINA RESULT:    -5.829      3.855      8.057
REMARK INTER + INTRA:          -6.897
REMARK INTER:                  -6.339
REMARK INTRA:                  -0.558
REMARK UNBOUND:                -0.557
REMARK SMILES C=C(C)[C@@H]1CC[C@@]2(C)CC[C@@]3(C)[C@H](CC[C@H]4[C@]5(C)CC[C@@H](O)C(C)(C)[C@H]5CC[C@]43C)[C@H]12
REMARK SMILES IDX 4 1 5 2 6 3 7 4 31 5 13 6 14 7 15 8 16 9 17 10 19 11 20 12
REMARK SMILES IDX 21 13 23 14 26 15 27 16 28 17 29 18 11 19 10 20 9 21 12 22
REMARK SMILES IDX 30 23 24 24 25 25 18 26 8 27 2 28 3 29 1 30 22 31
REMARK H PARENT 22 32
REMARK Flexibility Score: inf
ROOT
ATOM      1  C   UNL     1      14.841  41.691  30.130  1.00  0.00     0.018 C 
ATOM      2  C   UNL     1      13.670  41.941  31.117  1.00  0.00     0.009 C 
ATOM      3  C   UNL     1      12.995  43.251  30.674  1.00  0.00     0.008 C 
ATOM      4  C   UNL     1      13.206  43.303  29.151  1.00  0.00    -0.029 C 
ATOM      5  C   UNL     1      14.651  42.790  29.049  1.00  0.00     0.006 C 
ATOM      6  C   UNL     1      15.249  42.735  27.606  1.00  0.00    -0.000 C 
ATOM      7  C   UNL     1      14.718  41.550  26.755  1.00  0.00     0.005 C 
ATOM      8  C   UNL     1      14.076  41.934  25.429  1.00  0.00     0.005 C 
ATOM      9  C   UNL     1      15.006  42.797  24.561  1.00  0.00     0.002 C 
ATOM     10  C   UNL     1      14.411  43.057  23.099  1.00  0.00    -0.026 C 
ATOM     11  C   UNL     1      14.425  41.706  22.303  1.00  0.00     0.010 C 
ATOM     12  C   UNL     1      14.120  41.863  20.811  1.00  0.00     0.033 C 
ATOM     13  C   UNL     1      15.133  42.793  20.127  1.00  0.00     0.120 C 
ATOM     14  C   UNL     1      15.168  44.212  20.775  1.00  0.00    -0.006 C 
ATOM     15  C   UNL     1      15.362  44.059  22.344  1.00  0.00     0.003 C 
ATOM     16  C   UNL     1      15.593  45.402  23.086  1.00  0.00     0.005 C 
ATOM     17  C   UNL     1      15.262  45.386  24.584  1.00  0.00     0.008 C 
ATOM     18  C   UNL     1      15.620  44.060  25.337  1.00  0.00    -0.024 C 
ATOM     19  C   UNL     1      15.178  44.162  26.906  1.00  0.00    -0.024 C 
ATOM     20  C   UNL     1      13.740  44.796  27.107  1.00  0.00     0.008 C 
ATOM     21  C   UNL     1      13.145  44.725  28.548  1.00  0.00     0.007 C 
ATOM     22  C   UNL     1      16.169  45.132  27.656  1.00  0.00     0.012 C 
ATOM     23  C   UNL     1      17.182  43.918  25.262  1.00  0.00     0.012 C 
ATOM     24  C   UNL     1      13.903  45.028  20.353  1.00  0.00     0.014 C 
ATOM     25  C   UNL     1      16.406  44.954  20.198  1.00  0.00     0.014 C 
ATOM     26  C   UNL     1      12.931  43.544  23.181  1.00  0.00     0.012 C 
ATOM     27  C   UNL     1      12.113  42.417  28.503  1.00  0.00     0.011 C 
ENDROOT
BRANCH   1  28
ATOM     28  C   UNL     1      15.033  40.254  29.636  1.00  0.00    -0.077 C 
ATOM     29  C   UNL     1      13.884  39.287  29.466  1.00  0.00     0.039 C 
ATOM     30  C   UNL     1      16.286  39.774  29.534  1.00  0.00     0.008 C 
ENDBRANCH   1  28
BRANCH  13  31
ATOM     31  O   UNL     1      14.832  42.890  18.756  1.00  0.00    -0.393 OA
ATOM     32  H   UNL     1      14.796  41.963  18.401  1.00  0.00     0.210 HD
ENDBRANCH  13  31
TORSDOF 2
ENDMDL
MODEL 4
REMARK VINA RESULT:    -5.785      4.850      8.308
REMARK INTER + INTRA:          -6.850
REMARK INTER:                  -6.292
REMARK INTRA:                  -0.558
REMARK UNBOUND:                -0.557
REMARK SMILES C=C(C)[C@@H]1CC[C@@]2(C)CC[C@@]3(C)[C@H](CC[C@H]4[C@]5(C)CC[C@@H](O)C(C)(C)[C@H]5CC[C@]43C)[C@H]12
REMARK SMILES IDX 4 1 5 2 6 3 7 4 31 5 13 6 14 7 15 8 16 9 17 10 19 11 20 12
REMARK SMILES IDX 21 13 23 14 26 15 27 16 28 17 29 18 11 19 10 20 9 21 12 22
REMARK SMILES IDX 30 23 24 24 25 25 18 26 8 27 2 28 3 29 1 30 22 31
REMARK H PARENT 22 32
REMARK Flexibility Score: inf
ROOT
ATOM      1  C   UNL     1      12.914  42.819  28.253  1.00  0.00     0.018 C 
ATOM      2  C   UNL     1      11.999  43.362  29.383  1.00  0.00     0.009 C 
ATOM      3  C   UNL     1      12.130  42.382  30.562  1.00  0.00     0.008 C 
ATOM      4  C   UNL     1      13.559  41.825  30.449  1.00  0.00    -0.029 C 
ATOM      5  C   UNL     1      13.673  41.644  28.927  1.00  0.00     0.006 C 
ATOM      6  C   UNL     1      15.022  41.044  28.416  1.00  0.00    -0.000 C 
ATOM      7  C   UNL     1      16.201  42.054  28.431  1.00  0.00     0.005 C 
ATOM      8  C   UNL     1      17.425  41.617  29.225  1.00  0.00     0.005 C 
ATOM      9  C   UNL     1      17.949  40.244  28.776  1.00  0.00     0.002 C 
ATOM     10  C   UNL     1      19.333  39.857  29.480  1.00  0.00    -0.026 C 
ATOM     11  C   UNL     1      20.457  40.801  28.929  1.00  0.00     0.010 C 
ATOM     12  C   UNL     1      21.872  40.376  29.328  1.00  0.00     0.033 C 
ATOM     13  C   UNL     1      22.195  38.960  28.826  1.00  0.00     0.120 C 
ATOM     14  C   UNL     1      21.190  37.896  29.366  1.00  0.00    -0.006 C 
ATOM     15  C   UNL     1      19.709  38.386  29.067  1.00  0.00     0.003 C 
ATOM     16  C   UNL     1      18.617  37.332  29.394  1.00  0.00     0.005 C 
ATOM     17  C   UNL     1      17.212  37.899  29.631  1.00  0.00     0.008 C 
ATOM     18  C   UNL     1      16.814  39.110  28.721  1.00  0.00    -0.024 C 
ATOM     19  C   UNL     1      15.318  39.640  29.106  1.00  0.00    -0.024 C 
ATOM     20  C   UNL     1      15.077  39.741  30.669  1.00  0.00     0.008 C 
ATOM     21  C   UNL     1      13.763  40.450  31.125  1.00  0.00     0.007 C 
ATOM     22  C   UNL     1      14.255  38.599  28.587  1.00  0.00     0.012 C 
ATOM     23  C   UNL     1      16.792  38.567  27.248  1.00  0.00     0.012 C 
ATOM     24  C   UNL     1      21.484  37.594  30.871  1.00  0.00     0.014 C 
ATOM     25  C   UNL     1      21.441  36.581  28.577  1.00  0.00     0.014 C 
ATOM     26  C   UNL     1      19.248  40.069  31.024  1.00  0.00     0.012 C 
ATOM     27  C   UNL     1      14.512  42.865  31.093  1.00  0.00     0.011 C 
ENDROOT
BRANCH   1  28
ATOM     28  C   UNL     1      13.756  43.849  27.494  1.00  0.00    -0.077 C 
ATOM     29  C   UNL     1      14.301  45.100  28.144  1.00  0.00     0.039 C 
ATOM     30  C   UNL     1      13.853  43.736  26.157  1.00  0.00     0.008 C 
ENDBRANCH   1  28
BRANCH  13  31
ATOM     31  O   UNL     1      23.511  38.620  29.190  1.00  0.00    -0.393 OA
ATOM     32  H   UNL     1      24.032  38.538  28.350  1.00  0.00     0.210 HD
ENDBRANCH  13  31
TORSDOF 2
ENDMDL
MODEL 5
REMARK VINA RESULT:    -5.728     11.134     14.591
REMARK INTER + INTRA:          -6.788
REMARK INTER:                  -6.230
REMARK INTRA:                  -0.557
REMARK UNBOUND:                -0.557
REMARK SMILES C=C(C)[C@@H]1CC[C@@]2(C)CC[C@@]3(C)[C@H](CC[C@H]4[C@]5(C)CC[C@@H](O)C(C)(C)[C@H]5CC[C@]43C)[C@H]12
REMARK SMILES IDX 4 1 5 2 6 3 7 4 31 5 13 6 14 7 15 8 16 9 17 10 19 11 20 12
REMARK SMILES IDX 21 13 23 14 26 15 27 16 28 17 29 18 11 19 10 20 9 21 12 22
REMARK SMILES IDX 30 23 24 24 25 25 18 26 8 27 2 28 3 29 1 30 22 31
REMARK H PARENT 22 32
REMARK Flexibility Score: inf
ROOT
ATOM      1  C   UNL     1      22.338  38.178  11.527  1.00  0.00     0.018 C 
ATOM      2  C   UNL     1      23.616  37.581  10.880  1.00  0.00     0.009 C 
ATOM      3  C   UNL     1      24.750  38.589  11.139  1.00  0.00     0.008 C 
ATOM      4  C   UNL     1      24.379  39.259  12.473  1.00  0.00    -0.029 C 
ATOM      5  C   UNL     1      22.861  39.422  12.295  1.00  0.00     0.006 C 
ATOM      6  C   UNL     1      22.113  40.123  13.474  1.00  0.00    -0.000 C 
ATOM      7  C   UNL     1      21.916  39.213  14.717  1.00  0.00     0.005 C 
ATOM      8  C   UNL     1      22.474  39.762  16.023  1.00  0.00     0.005 C 
ATOM      9  C   UNL     1      21.935  41.166  16.340  1.00  0.00     0.002 C 
ATOM     10  C   UNL     1      22.376  41.676  17.792  1.00  0.00    -0.026 C 
ATOM     11  C   UNL     1      21.632  40.819  18.873  1.00  0.00     0.010 C 
ATOM     12  C   UNL     1      21.766  41.365  20.296  1.00  0.00     0.033 C 
ATOM     13  C   UNL     1      21.212  42.793  20.404  1.00  0.00     0.120 C 
ATOM     14  C   UNL     1      21.924  43.781  19.427  1.00  0.00    -0.006 C 
ATOM     15  C   UNL     1      21.898  43.166  17.962  1.00  0.00     0.003 C 
ATOM     16  C   UNL     1      22.417  44.133  16.864  1.00  0.00     0.005 C 
ATOM     17  C   UNL     1      22.906  43.457  15.577  1.00  0.00     0.008 C 
ATOM     18  C   UNL     1      22.085  42.202  15.124  1.00  0.00    -0.024 C 
ATOM     19  C   UNL     1      22.735  41.557  13.772  1.00  0.00    -0.024 C 
ATOM     20  C   UNL     1      24.317  41.463  13.826  1.00  0.00     0.008 C 
ATOM     21  C   UNL     1      25.004  40.657  12.680  1.00  0.00     0.007 C 
ATOM     22  C   UNL     1      22.416  42.499  12.549  1.00  0.00     0.012 C 
ATOM     23  C   UNL     1      20.639  42.717  14.791  1.00  0.00     0.012 C 
ATOM     24  C   UNL     1      23.350  44.131  19.962  1.00  0.00     0.014 C 
ATOM     25  C   UNL     1      21.100  45.099  19.421  1.00  0.00     0.014 C 
ATOM     26  C   UNL     1      23.909  41.484  18.005  1.00  0.00     0.012 C 
ATOM     27  C   UNL     1      24.841  38.311  13.610  1.00  0.00     0.011 C 
ENDROOT
BRANCH   1  28
ATOM     28  C   UNL     1      21.440  37.208  12.301  1.00  0.00    -0.077 C 
ATOM     29  C   UNL     1      21.982  36.009  13.046  1.00  0.00     0.039 C 
ATOM     30  C   UNL     1      20.107  37.315  12.155  1.00  0.00     0.008 C 
ENDBRANCH   1  28
BRANCH  13  31
ATOM     31  O   UNL     1      21.331  43.247  21.730  1.00  0.00    -0.393 OA
ATOM     32  H   UNL     1      20.946  42.541  22.313  1.00  0.00     0.210 HD
ENDBRANCH  13  31
TORSDOF 2
ENDMDL
MODEL 6
REMARK VINA RESULT:    -5.612      3.307      6.956
REMARK INTER + INTRA:          -6.662
REMARK INTER:                  -6.115
REMARK INTRA:                  -0.547
REMARK UNBOUND:                -0.557
REMARK SMILES C=C(C)[C@@H]1CC[C@@]2(C)CC[C@@]3(C)[C@H](CC[C@H]4[C@]5(C)CC[C@@H](O)C(C)(C)[C@H]5CC[C@]43C)[C@H]12
REMARK SMILES IDX 4 1 5 2 6 3 7 4 31 5 13 6 14 7 15 8 16 9 17 10 19 11 20 12
REMARK SMILES IDX 21 13 23 14 26 15 27 16 28 17 29 18 11 19 10 20 9 21 12 22
REMARK SMILES IDX 30 23 24 24 25 25 18 26 8 27 2 28 3 29 1 30 22 31
REMARK H PARENT 22 32
REMARK Flexibility Score: inf
ROOT
ATOM      1  C   UNL     1      13.188  42.348  23.889  1.00  0.00     0.018 C 
ATOM      2  C   UNL     1      13.002  42.836  22.427  1.00  0.00     0.009 C 
ATOM      3  C   UNL     1      13.710  44.198  22.326  1.00  0.00     0.008 C 
ATOM      4  C   UNL     1      14.865  44.113  23.340  1.00  0.00    -0.029 C 
ATOM      5  C   UNL     1      14.169  43.385  24.501  1.00  0.00     0.006 C 
ATOM      6  C   UNL     1      15.046  43.142  25.770  1.00  0.00    -0.000 C 
ATOM      7  C   UNL     1      16.077  41.993  25.607  1.00  0.00     0.005 C 
ATOM      8  C   UNL     1      17.528  42.376  25.864  1.00  0.00     0.005 C 
ATOM      9  C   UNL     1      17.721  43.028  27.242  1.00  0.00     0.002 C 
ATOM     10  C   UNL     1      19.263  43.272  27.593  1.00  0.00    -0.026 C 
ATOM     11  C   UNL     1      19.952  41.883  27.821  1.00  0.00     0.010 C 
ATOM     12  C   UNL     1      21.362  41.979  28.409  1.00  0.00     0.033 C 
ATOM     13  C   UNL     1      21.355  42.699  29.766  1.00  0.00     0.120 C 
ATOM     14  C   UNL     1      20.760  44.139  29.671  1.00  0.00    -0.006 C 
ATOM     15  C   UNL     1      19.346  44.067  28.949  1.00  0.00     0.003 C 
ATOM     16  C   UNL     1      18.568  45.410  28.952  1.00  0.00     0.005 C 
ATOM     17  C   UNL     1      17.499  45.547  27.860  1.00  0.00     0.008 C 
ATOM     18  C   UNL     1      16.705  44.238  27.529  1.00  0.00    -0.024 C 
ATOM     19  C   UNL     1      15.636  44.513  26.326  1.00  0.00    -0.024 C 
ATOM     20  C   UNL     1      16.243  45.365  25.136  1.00  0.00     0.008 C 
ATOM     21  C   UNL     1      15.369  45.483  23.849  1.00  0.00     0.007 C 
ATOM     22  C   UNL     1      14.441  45.374  26.888  1.00  0.00     0.012 C 
ATOM     23  C   UNL     1      15.913  43.861  28.831  1.00  0.00     0.012 C 
ATOM     24  C   UNL     1      21.788  45.102  28.993  1.00  0.00     0.014 C 
ATOM     25  C   UNL     1      20.544  44.647  31.124  1.00  0.00     0.014 C 
ATOM     26  C   UNL     1      19.996  43.978  26.410  1.00  0.00     0.012 C 
ATOM     27  C   UNL     1      16.029  43.356  22.651  1.00  0.00     0.011 C 
ENDROOT
BRANCH   1  28
ATOM     28  C   UNL     1      13.529  40.868  24.083  1.00  0.00    -0.077 C 
ATOM     29  C   UNL     1      14.274  40.057  23.047  1.00  0.00     0.039 C 
ATOM     30  C   UNL     1      12.980  40.216  25.124  1.00  0.00     0.008 C 
ENDBRANCH   1  28
BRANCH  13  31
ATOM     31  O   UNL     1      22.663  42.744  30.283  1.00  0.00    -0.393 OA
ATOM     32  H   UNL     1      22.625  42.364  31.199  1.00  0.00     0.210 HD
ENDBRANCH  13  31
TORSDOF 2
ENDMDL
MODEL 7
REMARK VINA RESULT:    -5.567      2.662      7.731
REMARK INTER + INTRA:          -6.613
REMARK INTER:                  -6.060
REMARK INTRA:                  -0.553
REMARK UNBOUND:                -0.557
REMARK SMILES C=C(C)[C@@H]1CC[C@@]2(C)CC[C@@]3(C)[C@H](CC[C@H]4[C@]5(C)CC[C@@H](O)C(C)(C)[C@H]5CC[C@]43C)[C@H]12
REMARK SMILES IDX 4 1 5 2 6 3 7 4 31 5 13 6 14 7 15 8 16 9 17 10 19 11 20 12
REMARK SMILES IDX 21 13 23 14 26 15 27 16 28 17 29 18 11 19 10 20 9 21 12 22
REMARK SMILES IDX 30 23 24 24 25 25 18 26 8 27 2 28 3 29 1 30 22 31
REMARK H PARENT 22 32
REMARK Flexibility Score: inf
ROOT
ATOM      1  C   UNL     1      13.416  42.051  29.152  1.00  0.00     0.018 C 
ATOM      2  C   UNL     1      12.034  42.748  29.272  1.00  0.00     0.009 C 
ATOM      3  C   UNL     1      12.316  44.248  29.474  1.00  0.00     0.008 C 
ATOM      4  C   UNL     1      13.637  44.500  28.725  1.00  0.00    -0.029 C 
ATOM      5  C   UNL     1      14.422  43.234  29.102  1.00  0.00     0.006 C 
ATOM      6  C   UNL     1      15.875  43.145  28.536  1.00  0.00    -0.000 C 
ATOM      7  C   UNL     1      15.937  42.790  27.026  1.00  0.00     0.005 C 
ATOM      8  C   UNL     1      16.694  43.782  26.153  1.00  0.00     0.005 C 
ATOM      9  C   UNL     1      18.121  44.036  26.666  1.00  0.00     0.002 C 
ATOM     10  C   UNL     1      18.981  44.937  25.660  1.00  0.00    -0.026 C 
ATOM     11  C   UNL     1      19.272  44.104  24.365  1.00  0.00     0.010 C 
ATOM     12  C   UNL     1      20.297  44.752  23.430  1.00  0.00     0.033 C 
ATOM     13  C   UNL     1      21.645  44.963  24.135  1.00  0.00     0.120 C 
ATOM     14  C   UNL     1      21.513  45.849  25.413  1.00  0.00    -0.006 C 
ATOM     15  C   UNL     1      20.366  45.256  26.337  1.00  0.00     0.003 C 
ATOM     16  C   UNL     1      20.255  45.941  27.726  1.00  0.00     0.005 C 
ATOM     17  C   UNL     1      18.895  45.797  28.419  1.00  0.00     0.008 C 
ATOM     18  C   UNL     1      18.186  44.414  28.224  1.00  0.00    -0.024 C 
ATOM     19  C   UNL     1      16.735  44.411  28.975  1.00  0.00    -0.024 C 
ATOM     20  C   UNL     1      15.907  45.741  28.734  1.00  0.00     0.008 C 
ATOM     21  C   UNL     1      14.425  45.733  29.222  1.00  0.00     0.007 C 
ATOM     22  C   UNL     1      16.963  44.338  30.533  1.00  0.00     0.012 C 
ATOM     23  C   UNL     1      19.109  43.344  28.908  1.00  0.00     0.012 C 
ATOM     24  C   UNL     1      21.316  47.346  25.011  1.00  0.00     0.014 C 
ATOM     25  C   UNL     1      22.861  45.754  26.182  1.00  0.00     0.014 C 
ATOM     26  C   UNL     1      18.185  46.210  25.238  1.00  0.00     0.012 C 
ATOM     27  C   UNL     1      13.291  44.676  27.225  1.00  0.00     0.011 C 
ENDROOT
BRANCH   1  28
ATOM     28  C   UNL     1      13.553  40.974  28.072  1.00  0.00    -0.077 C 
ATOM     29  C   UNL     1      12.831  41.047  26.746  1.00  0.00     0.039 C 
ATOM     30  C   UNL     1      14.184  39.828  28.388  1.00  0.00     0.008 C 
ENDBRANCH   1  28
BRANCH  13  31
ATOM     31  O   UNL     1      22.563  45.535  23.236  1.00  0.00    -0.393 OA
ATOM     32  H   UNL     1      22.168  45.455  22.329  1.00  0.00     0.210 HD
ENDBRANCH  13  31
TORSDOF 2
ENDMDL
MODEL 8
REMARK VINA RESULT:    -5.552      4.322      8.315
REMARK INTER + INTRA:          -6.596
REMARK INTER:                  -6.038
REMARK INTRA:                  -0.559
REMARK UNBOUND:                -0.557
REMARK SMILES C=C(C)[C@@H]1CC[C@@]2(C)CC[C@@]3(C)[C@H](CC[C@H]4[C@]5(C)CC[C@@H](O)C(C)(C)[C@H]5CC[C@]43C)[C@H]12
REMARK SMILES IDX 4 1 5 2 6 3 7 4 31 5 13 6 14 7 15 8 16 9 17 10 19 11 20 12
REMARK SMILES IDX 21 13 23 14 26 15 27 16 28 17 29 18 11 19 10 20 9 21 12 22
REMARK SMILES IDX 30 23 24 24 25 25 18 26 8 27 2 28 3 29 1 30 22 31
REMARK H PARENT 22 32
REMARK Flexibility Score: inf
ROOT
ATOM      1  C   UNL     1      14.677  42.387  30.321  1.00  0.00     0.018 C 
ATOM      2  C   UNL     1      13.518  43.117  31.052  1.00  0.00     0.009 C 
ATOM      3  C   UNL     1      12.900  44.089  30.033  1.00  0.00     0.008 C 
ATOM      4  C   UNL     1      13.112  43.410  28.668  1.00  0.00    -0.029 C 
ATOM      5  C   UNL     1      14.533  42.854  28.847  1.00  0.00     0.006 C 
ATOM      6  C   UNL     1      15.126  42.102  27.612  1.00  0.00    -0.000 C 
ATOM      7  C   UNL     1      14.544  40.678  27.409  1.00  0.00     0.005 C 
ATOM      8  C   UNL     1      13.916  40.417  26.046  1.00  0.00     0.005 C 
ATOM      9  C   UNL     1      14.882  40.732  24.892  1.00  0.00     0.002 C 
ATOM     10  C   UNL     1      14.297  40.296  23.468  1.00  0.00    -0.026 C 
ATOM     11  C   UNL     1      14.252  38.731  23.402  1.00  0.00     0.010 C 
ATOM     12  C   UNL     1      13.952  38.178  22.006  1.00  0.00     0.033 C 
ATOM     13  C   UNL     1      15.003  38.636  20.984  1.00  0.00     0.120 C 
ATOM     14  C   UNL     1      15.100  40.191  20.889  1.00  0.00    -0.006 C 
ATOM     15  C   UNL     1      15.289  40.787  22.350  1.00  0.00     0.003 C 
ATOM     16  C   UNL     1      15.579  42.311  22.376  1.00  0.00     0.005 C 
ATOM     17  C   UNL     1      15.250  43.015  23.698  1.00  0.00     0.008 C 
ATOM     18  C   UNL     1      15.551  42.188  24.994  1.00  0.00    -0.024 C 
ATOM     19  C   UNL     1      15.116  43.033  26.321  1.00  0.00    -0.024 C 
ATOM     20  C   UNL     1      13.706  43.742  26.173  1.00  0.00     0.008 C 
ATOM     21  C   UNL     1      13.111  44.381  27.466  1.00  0.00     0.007 C 
ATOM     22  C   UNL     1      16.149  44.203  26.546  1.00  0.00     0.012 C 
ATOM     23  C   UNL     1      17.106  41.967  25.024  1.00  0.00     0.012 C 
ATOM     24  C   UNL     1      13.871  40.759  20.109  1.00  0.00     0.014 C 
ATOM     25  C   UNL     1      16.368  40.525  20.055  1.00  0.00     0.014 C 
ATOM     26  C   UNL     1      12.839  40.822  23.283  1.00  0.00     0.012 C 
ATOM     27  C   UNL     1      11.980  42.366  28.492  1.00  0.00     0.011 C 
ENDROOT
BRANCH   1  28
ATOM     28  C   UNL     1      14.805  40.881  30.566  1.00  0.00    -0.077 C 
ATOM     29  C   UNL     1      13.614  39.991  30.841  1.00  0.00     0.039 C 
ATOM     30  C   UNL     1      16.036  40.362  30.734  1.00  0.00     0.008 C 
ENDBRANCH   1  28
BRANCH  13  31
ATOM     31  O   UNL     1      14.705  38.087  19.724  1.00  0.00    -0.393 OA
ATOM     32  H   UNL     1      15.265  38.567  19.059  1.00  0.00     0.210 HD
ENDBRANCH  13  31
TORSDOF 2
ENDMDL
MODEL 9
REMARK VINA RESULT:    -5.539     10.853     13.701
REMARK INTER + INTRA:          -6.582
REMARK INTER:                  -6.042
REMARK INTRA:                  -0.540
REMARK UNBOUND:                -0.557
REMARK SMILES C=C(C)[C@@H]1CC[C@@]2(C)CC[C@@]3(C)[C@H](CC[C@H]4[C@]5(C)CC[C@@H](O)C(C)(C)[C@H]5CC[C@]43C)[C@H]12
REMARK SMILES IDX 4 1 5 2 6 3 7 4 31 5 13 6 14 7 15 8 16 9 17 10 19 11 20 12
REMARK SMILES IDX 21 13 23 14 26 15 27 16 28 17 29 18 11 19 10 20 9 21 12 22
REMARK SMILES IDX 30 23 24 24 25 25 18 26 8 27 2 28 3 29 1 30 22 31
REMARK H PARENT 22 32
REMARK Flexibility Score: inf
ROOT
ATOM      1  C   UNL     1      23.113  39.481  11.359  1.00  0.00     0.018 C 
ATOM      2  C   UNL     1      24.551  39.049  10.964  1.00  0.00     0.009 C 
ATOM      3  C   UNL     1      25.500  39.697  11.987  1.00  0.00     0.008 C 
ATOM      4  C   UNL     1      24.674  39.787  13.282  1.00  0.00    -0.029 C 
ATOM      5  C   UNL     1      23.308  40.208  12.717  1.00  0.00     0.006 C 
ATOM      6  C   UNL     1      22.181  40.441  13.774  1.00  0.00    -0.000 C 
ATOM      7  C   UNL     1      21.589  39.128  14.355  1.00  0.00     0.005 C 
ATOM      8  C   UNL     1      21.647  39.000  15.871  1.00  0.00     0.005 C 
ATOM      9  C   UNL     1      20.998  40.199  16.581  1.00  0.00     0.002 C 
ATOM     10  C   UNL     1      20.897  39.991  18.164  1.00  0.00    -0.026 C 
ATOM     11  C   UNL     1      19.846  38.865  18.456  1.00  0.00     0.010 C 
ATOM     12  C   UNL     1      19.467  38.741  19.934  1.00  0.00     0.033 C 
ATOM     13  C   UNL     1      18.874  40.052  20.473  1.00  0.00     0.120 C 
ATOM     14  C   UNL     1      19.855  41.254  20.315  1.00  0.00    -0.006 C 
ATOM     15  C   UNL     1      20.354  41.321  18.808  1.00  0.00     0.003 C 
ATOM     16  C   UNL     1      21.196  42.582  18.476  1.00  0.00     0.005 C 
ATOM     17  C   UNL     1      22.116  42.450  17.257  1.00  0.00     0.008 C 
ATOM     18  C   UNL     1      21.534  41.620  16.062  1.00  0.00    -0.024 C 
ATOM     19  C   UNL     1      22.627  41.523  14.853  1.00  0.00    -0.024 C 
ATOM     20  C   UNL     1      24.094  41.208  15.365  1.00  0.00     0.008 C 
ATOM     21  C   UNL     1      25.155  40.874  14.270  1.00  0.00     0.007 C 
ATOM     22  C   UNL     1      22.727  42.924  14.137  1.00  0.00     0.012 C 
ATOM     23  C   UNL     1      20.280  42.412  15.545  1.00  0.00     0.012 C 
ATOM     24  C   UNL     1      21.000  41.158  21.375  1.00  0.00     0.014 C 
ATOM     25  C   UNL     1      19.053  42.549  20.624  1.00  0.00     0.014 C 
ATOM     26  C   UNL     1      22.266  39.527  18.751  1.00  0.00     0.012 C 
ATOM     27  C   UNL     1      24.738  38.399  13.968  1.00  0.00     0.011 C 
ENDROOT
BRANCH   1  28
ATOM     28  C   UNL     1      22.028  38.403  11.295  1.00  0.00    -0.077 C 
ATOM     29  C   UNL     1      22.324  36.931  11.474  1.00  0.00     0.039 C 
ATOM     30  C   UNL     1      20.799  38.756  10.875  1.00  0.00     0.008 C 
ENDBRANCH   1  28
BRANCH  13  31
ATOM     31  O   UNL     1      18.516  39.887  21.824  1.00  0.00    -0.393 OA
ATOM     32  H   UNL     1      17.687  39.342  21.839  1.00  0.00     0.210 HD
ENDBRANCH  13  31
TORSDOF 2
ENDMDL
