MODEL 1
REMARK VINA RESULT:     5.850      0.000      0.000
REMARK INTER + INTRA:          10.644
REMARK INTER:                  11.321
REMARK INTRA:                  -0.677
REMARK UNBOUND:                -0.677
REMARK SMILES CCCCCCCCCCCCCCCCCC(=O)[O-]
REMARK SMILES IDX 10 1 11 2 12 3 13 4 14 5 15 6 16 7 17 8 18 9 19 10 20 11
REMARK SMILES IDX 9 12 8 13 7 14 6 15 5 16 4 17 3 18 2 19 1 20
REMARK H PARENT
REMARK Flexibility Score: inf
ROOT
ATOM      1  C   UNL     1      -0.611 -19.100 -26.366  1.00  0.00     0.000 C 
ENDROOT
BRANCH   1   2
ATOM      2  C   UNL     1      -0.608 -20.638 -26.278  1.00  0.00     0.000 C 
BRANCH   2   3
ATOM      3  C   UNL     1       0.364 -21.238 -25.245  1.00  0.00     0.000 C 
BRANCH   3   4
ATOM      4  C   UNL     1       0.023 -22.691 -24.872  1.00  0.00     0.000 C 
BRANCH   4   5
ATOM      5  C   UNL     1       1.195 -23.662 -25.104  1.00  0.00     0.000 C 
BRANCH   5   6
ATOM      6  C   UNL     1       0.790 -25.107 -25.453  1.00  0.00     0.000 C 
BRANCH   6   7
ATOM      7  C   UNL     1       1.976 -25.968 -25.920  1.00  0.00     0.006 C 
BRANCH   7   8
ATOM      8  C   UNL     1       2.018 -27.328 -25.211  1.00  0.00     0.053 C 
BRANCH   8   9
ATOM      9  C   UNL     1       3.108 -27.380 -24.185  1.00  0.00     0.041 C 
ATOM     10  O   UNL     1       4.195 -27.959 -24.443  1.00  0.00    -0.550 OA
ATOM     11  O   UNL     1       2.909 -26.819 -22.929  1.00  0.00    -0.550 OA
ENDBRANCH   8   9
ENDBRANCH   7   8
ENDBRANCH   6   7
ENDBRANCH   5   6
ENDBRANCH   4   5
ENDBRANCH   3   4
ENDBRANCH   2   3
ENDBRANCH   1   2
BRANCH   1  12
ATOM     12  C   UNL     1      -1.537 -18.441 -25.329  1.00  0.00     0.000 C 
BRANCH  12  13
ATOM     13  C   UNL     1      -1.729 -16.937 -25.585  1.00  0.00    -0.000 C 
BRANCH  13  14
ATOM     14  C   UNL     1      -1.010 -16.462 -26.860  1.00  0.00    -0.000 C 
BRANCH  14  15
ATOM     15  C   UNL     1      -0.559 -14.992 -26.779  1.00  0.00    -0.000 C 
BRANCH  15  16
ATOM     16  C   UNL     1      -1.623 -13.959 -27.201  1.00  0.00    -0.000 C 
BRANCH  16  17
ATOM     17  C   UNL     1      -1.734 -12.724 -26.287  1.00  0.00    -0.000 C 
BRANCH  17  18
ATOM     18  C   UNL     1      -1.019 -11.461 -26.809  1.00  0.00    -0.000 C 
BRANCH  18  19
ATOM     19  C   UNL     1      -0.245 -11.654 -28.124  1.00  0.00    -0.003 C 
ATOM     20  C   UNL     1       1.185 -11.117 -28.059  1.00  0.00     0.004 C 
ENDBRANCH  18  19
ENDBRANCH  17  18
ENDBRANCH  16  17
ENDBRANCH  15  16
ENDBRANCH  14  15
ENDBRANCH  13  14
ENDBRANCH  12  13
ENDBRANCH   1  12
TORSDOF 16
ENDMDL
MODEL 2
REMARK VINA RESULT:     6.645      0.848      1.792
REMARK INTER + INTRA:          12.183
REMARK INTER:                  12.775
REMARK INTRA:                  -0.592
REMARK UNBOUND:                -0.677
REMARK SMILES CCCCCCCCCCCCCCCCCC(=O)[O-]
REMARK SMILES IDX 10 1 11 2 12 3 13 4 14 5 15 6 16 7 17 8 18 9 19 10 20 11
REMARK SMILES IDX 9 12 8 13 7 14 6 15 5 16 4 17 3 18 2 19 1 20
REMARK H PARENT
REMARK Flexibility Score: inf
ROOT
ATOM      1  C   UNL     1       0.551 -20.415 -26.036  1.00  0.00     0.000 C 
ENDROOT
BRANCH   1   2
ATOM      2  C   UNL     1       0.674 -21.210 -24.722  1.00  0.00     0.000 C 
BRANCH   2   3
ATOM      3  C   UNL     1       0.144 -22.656 -24.772  1.00  0.00     0.000 C 
BRANCH   3   4
ATOM      4  C   UNL     1       1.237 -23.684 -25.111  1.00  0.00     0.000 C 
BRANCH   4   5
ATOM      5  C   UNL     1       0.667 -25.021 -25.621  1.00  0.00     0.000 C 
BRANCH   5   6
ATOM      6  C   UNL     1       1.679 -26.178 -25.698  1.00  0.00     0.000 C 
BRANCH   6   7
ATOM      7  C   UNL     1       2.184 -26.629 -24.317  1.00  0.00     0.006 C 
BRANCH   7   8
ATOM      8  C   UNL     1       3.048 -27.895 -24.400  1.00  0.00     0.053 C 
BRANCH   8   9
ATOM      9  C   UNL     1       4.447 -27.639 -23.932  1.00  0.00     0.041 C 
ATOM     10  O   UNL     1       4.653 -26.981 -22.879  1.00  0.00    -0.550 OA
ATOM     11  O   UNL     1       5.525 -28.099 -24.678  1.00  0.00    -0.550 OA
ENDBRANCH   8   9
ENDBRANCH   7   8
ENDBRANCH   6   7
ENDBRANCH   5   6
ENDBRANCH   4   5
ENDBRANCH   3   4
ENDBRANCH   2   3
ENDBRANCH   1   2
BRANCH   1  12
ATOM     12  C   UNL     1      -0.836 -19.778 -26.225  1.00  0.00     0.000 C 
BRANCH  12  13
ATOM     13  C   UNL     1      -1.164 -18.750 -25.130  1.00  0.00    -0.000 C 
BRANCH  13  14
ATOM     14  C   UNL     1      -1.862 -17.499 -25.690  1.00  0.00    -0.000 C 
BRANCH  14  15
ATOM     15  C   UNL     1      -0.961 -16.686 -26.638  1.00  0.00    -0.000 C 
BRANCH  15  16
ATOM     16  C   UNL     1      -1.642 -15.476 -27.309  1.00  0.00    -0.000 C 
BRANCH  16  17
ATOM     17  C   UNL     1      -0.842 -14.161 -27.252  1.00  0.00    -0.000 C 
BRANCH  17  18
ATOM     18  C   UNL     1      -1.653 -12.922 -26.824  1.00  0.00    -0.000 C 
BRANCH  18  19
ATOM     19  C   UNL     1      -0.879 -11.593 -26.875  1.00  0.00    -0.003 C 
ATOM     20  C   UNL     1      -0.008 -11.459 -28.125  1.00  0.00     0.004 C 
ENDBRANCH  18  19
ENDBRANCH  17  18
ENDBRANCH  16  17
ENDBRANCH  15  16
ENDBRANCH  14  15
ENDBRANCH  13  14
ENDBRANCH  12  13
ENDBRANCH   1  12
TORSDOF 16
ENDMDL
