MODEL 1
REMARK VINA RESULT:    -3.906      0.000      0.000
REMARK INTER + INTRA:          -4.708
REMARK INTER:                  -4.705
REMARK INTRA:                  -0.003
REMARK UNBOUND:                -0.003
REMARK SMILES OCC(O)CO
REMARK SMILES IDX 3 1 5 2 6 3 2 5 1 6 4 8
REMARK H PARENT 6 4 1 7 4 9
REMARK Flexibility Score: inf
ROOT
ATOM      1  C   UNL     1      -8.444  -1.214  63.239  1.00  0.00     0.165 C 
ENDROOT
BRANCH   1   2
ATOM      2  C   UNL     1      -8.290  -2.682  63.657  1.00  0.00     0.190 C 
BRANCH   2   3
ATOM      3  O   UNL     1      -7.461  -2.781  64.782  1.00  0.00    -0.394 OA
ATOM      4  H   UNL     1      -7.438  -1.875  65.187  1.00  0.00     0.210 HD
ENDBRANCH   2   3
ENDBRANCH   1   2
BRANCH   1   5
ATOM      5  C   UNL     1      -9.899  -0.871  62.874  1.00  0.00     0.190 C 
BRANCH   5   6
ATOM      6  O   UNL     1      -9.959   0.223  61.997  1.00  0.00    -0.394 OA
ATOM      7  H   UNL     1      -9.351   0.916  62.365  1.00  0.00     0.210 HD
ENDBRANCH   5   6
ENDBRANCH   1   5
BRANCH   1   8
ATOM      8  O   UNL     1      -8.003  -0.392  64.288  1.00  0.00    -0.388 OA
ATOM      9  H   UNL     1      -8.678   0.330  64.390  1.00  0.00     0.211 HD
ENDBRANCH   1   8
TORSDOF 5
ENDMDL
MODEL 2
REMARK VINA RESULT:    -3.891      0.642      3.137
REMARK INTER + INTRA:          -4.690
REMARK INTER:                  -4.687
REMARK INTRA:                  -0.003
REMARK UNBOUND:                -0.003
REMARK SMILES OCC(O)CO
REMARK SMILES IDX 3 1 5 2 6 3 2 5 1 6 4 8
REMARK H PARENT 6 4 1 7 4 9
REMARK Flexibility Score: inf
ROOT
ATOM      1  C   UNL     1      -8.743  -0.922  63.615  1.00  0.00     0.165 C 
ENDROOT
BRANCH   1   2
ATOM      2  C   UNL     1      -8.722  -0.305  62.211  1.00  0.00     0.190 C 
BRANCH   2   3
ATOM      3  O   UNL     1      -9.970   0.258  61.911  1.00  0.00    -0.394 OA
ATOM      4  H   UNL     1     -10.127   0.081  60.947  1.00  0.00     0.210 HD
ENDBRANCH   2   3
ENDBRANCH   1   2
BRANCH   1   5
ATOM      5  C   UNL     1      -8.405  -2.424  63.586  1.00  0.00     0.190 C 
BRANCH   5   6
ATOM      6  O   UNL     1      -7.595  -2.783  64.674  1.00  0.00    -0.394 OA
ATOM      7  H   UNL     1      -6.758  -2.257  64.593  1.00  0.00     0.210 HD
ENDBRANCH   5   6
ENDBRANCH   1   5
BRANCH   1   8
ATOM      8  O   UNL     1      -7.829  -0.237  64.430  1.00  0.00    -0.388 OA
ATOM      9  H   UNL     1      -8.131   0.709  64.469  1.00  0.00     0.211 HD
ENDBRANCH   1   8
TORSDOF 5
ENDMDL
MODEL 3
REMARK VINA RESULT:    -3.885      1.914      2.386
REMARK INTER + INTRA:          -4.683
REMARK INTER:                  -4.460
REMARK INTRA:                  -0.223
REMARK UNBOUND:                -0.003
REMARK SMILES OCC(O)CO
REMARK SMILES IDX 3 1 5 2 6 3 2 5 1 6 4 8
REMARK H PARENT 6 4 1 7 4 9
REMARK Flexibility Score: inf
ROOT
ATOM      1  C   UNL     1      -9.066  -0.862  62.633  1.00  0.00     0.165 C 
ENDROOT
BRANCH   1   2
ATOM      2  C   UNL     1      -8.303  -0.372  63.869  1.00  0.00     0.190 C 
BRANCH   2   3
ATOM      3  O   UNL     1      -9.134   0.426  64.667  1.00  0.00    -0.394 OA
ATOM      4  H   UNL     1      -9.331   1.239  64.131  1.00  0.00     0.210 HD
ENDBRANCH   2   3
ENDBRANCH   1   2
BRANCH   1   5
ATOM      5  C   UNL     1     -10.245  -1.777  63.012  1.00  0.00     0.190 C 
BRANCH   5   6
ATOM      6  O   UNL     1     -11.375  -1.027  63.370  1.00  0.00    -0.394 OA
ATOM      7  H   UNL     1     -11.182  -0.625  64.256  1.00  0.00     0.210 HD
ENDBRANCH   5   6
ENDBRANCH   1   5
BRANCH   1   8
ATOM      8  O   UNL     1      -9.530   0.249  61.911  1.00  0.00    -0.388 OA
ATOM      9  H   UNL     1      -9.351   0.063  60.952  1.00  0.00     0.211 HD
ENDBRANCH   1   8
TORSDOF 5
ENDMDL
MODEL 4
REMARK VINA RESULT:    -3.832      1.323      2.375
REMARK INTER + INTRA:          -4.619
REMARK INTER:                  -4.415
REMARK INTRA:                  -0.204
REMARK UNBOUND:                -0.003
REMARK SMILES OCC(O)CO
REMARK SMILES IDX 3 1 5 2 6 3 2 5 1 6 4 8
REMARK H PARENT 6 4 1 7 4 9
REMARK Flexibility Score: inf
ROOT
ATOM      1  C   UNL     1      -8.599  -1.836  63.283  1.00  0.00     0.165 C 
ENDROOT
BRANCH   1   2
ATOM      2  C   UNL     1     -10.037  -2.361  63.201  1.00  0.00     0.190 C 
BRANCH   2   3
ATOM      3  O   UNL     1     -10.945  -1.294  63.238  1.00  0.00    -0.394 OA
ATOM      4  H   UNL     1     -10.399  -0.472  63.349  1.00  0.00     0.210 HD
ENDBRANCH   2   3
ENDBRANCH   1   2
BRANCH   1   5
ATOM      5  C   UNL     1      -8.548  -0.298  63.282  1.00  0.00     0.190 C 
BRANCH   5   6
ATOM      6  O   UNL     1      -8.999   0.226  64.504  1.00  0.00    -0.394 OA
ATOM      7  H   UNL     1      -9.291  -0.546  65.055  1.00  0.00     0.210 HD
ENDBRANCH   5   6
ENDBRANCH   1   5
BRANCH   1   8
ATOM      8  O   UNL     1      -7.993  -2.339  64.445  1.00  0.00    -0.388 OA
ATOM      9  H   UNL     1      -7.314  -1.670  64.727  1.00  0.00     0.211 HD
ENDBRANCH   1   8
TORSDOF 5
ENDMDL
MODEL 5
REMARK VINA RESULT:    -3.739      1.451      2.296
REMARK INTER + INTRA:          -4.507
REMARK INTER:                  -4.286
REMARK INTRA:                  -0.221
REMARK UNBOUND:                -0.003
REMARK SMILES OCC(O)CO
REMARK SMILES IDX 3 1 5 2 6 3 2 5 1 6 4 8
REMARK H PARENT 6 4 1 7 4 9
REMARK Flexibility Score: inf
ROOT
ATOM      1  C   UNL     1      -8.799  -1.902  63.715  1.00  0.00     0.165 C 
ENDROOT
BRANCH   1   2
ATOM      2  C   UNL     1      -8.394  -0.431  63.571  1.00  0.00     0.190 C 
BRANCH   2   3
ATOM      3  O   UNL     1      -9.044   0.348  64.538  1.00  0.00    -0.394 OA
ATOM      4  H   UNL     1      -8.468   1.144  64.682  1.00  0.00     0.210 HD
ENDBRANCH   2   3
ENDBRANCH   1   2
BRANCH   1   5
ATOM      5  C   UNL     1     -10.122  -2.207  62.990  1.00  0.00     0.190 C 
BRANCH   5   6
ATOM      6  O   UNL     1     -11.084  -1.220  63.251  1.00  0.00    -0.394 OA
ATOM      7  H   UNL     1     -11.773  -1.639  63.828  1.00  0.00     0.210 HD
ENDBRANCH   5   6
ENDBRANCH   1   5
BRANCH   1   8
ATOM      8  O   UNL     1      -7.771  -2.712  63.206  1.00  0.00    -0.388 OA
ATOM      9  H   UNL     1      -6.920  -2.221  63.351  1.00  0.00     0.211 HD
ENDBRANCH   1   8
TORSDOF 5
ENDMDL
MODEL 6
REMARK VINA RESULT:    -3.725      1.245      2.934
REMARK INTER + INTRA:          -4.489
REMARK INTER:                  -4.276
REMARK INTRA:                  -0.213
REMARK UNBOUND:                -0.003
REMARK SMILES OCC(O)CO
REMARK SMILES IDX 3 1 5 2 6 3 2 5 1 6 4 8
REMARK H PARENT 6 4 1 7 4 9
REMARK Flexibility Score: inf
ROOT
ATOM      1  C   UNL     1      -9.598  -1.447  62.956  1.00  0.00     0.165 C 
ENDROOT
BRANCH   1   2
ATOM      2  C   UNL     1      -8.722  -0.242  63.319  1.00  0.00     0.190 C 
BRANCH   2   3
ATOM      3  O   UNL     1      -9.111   0.284  64.558  1.00  0.00    -0.394 OA
ATOM      4  H   UNL     1     -10.078   0.082  64.651  1.00  0.00     0.210 HD
ENDBRANCH   2   3
ENDBRANCH   1   2
BRANCH   1   5
ATOM      5  C   UNL     1      -9.037  -2.758  63.535  1.00  0.00     0.190 C 
BRANCH   5   6
ATOM      6  O   UNL     1      -7.924  -2.517  64.355  1.00  0.00    -0.394 OA
ATOM      7  H   UNL     1      -7.195  -3.103  64.025  1.00  0.00     0.210 HD
ENDBRANCH   5   6
ENDBRANCH   1   5
BRANCH   1   8
ATOM      8  O   UNL     1     -10.900  -1.226  63.432  1.00  0.00    -0.388 OA
ATOM      9  H   UNL     1     -11.215  -2.087  63.815  1.00  0.00     0.211 HD
ENDBRANCH   1   8
TORSDOF 5
ENDMDL
MODEL 7
REMARK VINA RESULT:    -3.695      1.800      3.100
REMARK INTER + INTRA:          -4.454
REMARK INTER:                  -4.250
REMARK INTRA:                  -0.204
REMARK UNBOUND:                -0.003
REMARK SMILES OCC(O)CO
REMARK SMILES IDX 3 1 5 2 6 3 2 5 1 6 4 8
REMARK H PARENT 6 4 1 7 4 9
REMARK Flexibility Score: inf
ROOT
ATOM      1  C   UNL     1      -9.863  -1.124  62.759  1.00  0.00     0.165 C 
ENDROOT
BRANCH   1   2
ATOM      2  C   UNL     1      -9.784  -0.036  61.681  1.00  0.00     0.190 C 
BRANCH   2   3
ATOM      3  O   UNL     1      -8.446   0.242  61.371  1.00  0.00    -0.394 OA
ATOM      4  H   UNL     1      -8.102   0.804  62.114  1.00  0.00     0.210 HD
ENDBRANCH   2   3
ENDBRANCH   1   2
BRANCH   1   5
ATOM      5  C   UNL     1      -8.773  -0.950  63.832  1.00  0.00     0.190 C 
BRANCH   5   6
ATOM      6  O   UNL     1      -8.850   0.315  64.434  1.00  0.00    -0.394 OA
ATOM      7  H   UNL     1      -8.323   0.264  65.273  1.00  0.00     0.210 HD
ENDBRANCH   5   6
ENDBRANCH   1   5
BRANCH   1   8
ATOM      8  O   UNL     1     -11.135  -1.088  63.352  1.00  0.00    -0.388 OA
ATOM      9  H   UNL     1     -11.568  -0.246  63.052  1.00  0.00     0.211 HD
ENDBRANCH   1   8
TORSDOF 5
ENDMDL
MODEL 8
REMARK VINA RESULT:    -3.615      1.351      1.934
REMARK INTER + INTRA:          -4.358
REMARK INTER:                  -4.141
REMARK INTRA:                  -0.217
REMARK UNBOUND:                -0.003
REMARK SMILES OCC(O)CO
REMARK SMILES IDX 3 1 5 2 6 3 2 5 1 6 4 8
REMARK H PARENT 6 4 1 7 4 9
REMARK Flexibility Score: inf
ROOT
ATOM      1  C   UNL     1      -9.489  -1.900  63.600  1.00  0.00     0.165 C 
ENDROOT
BRANCH   1   2
ATOM      2  C   UNL     1      -8.443  -3.020  63.565  1.00  0.00     0.190 C 
BRANCH   2   3
ATOM      3  O   UNL     1      -7.532  -2.865  64.619  1.00  0.00    -0.394 OA
ATOM      4  H   UNL     1      -8.029  -2.406  65.346  1.00  0.00     0.210 HD
ENDBRANCH   2   3
ENDBRANCH   1   2
BRANCH   1   5
ATOM      5  C   UNL     1      -8.965  -0.605  62.953  1.00  0.00     0.190 C 
BRANCH   5   6
ATOM      6  O   UNL     1      -7.987   0.003  63.754  1.00  0.00    -0.394 OA
ATOM      7  H   UNL     1      -7.990   0.969  63.525  1.00  0.00     0.210 HD
ENDBRANCH   5   6
ENDBRANCH   1   5
BRANCH   1   8
ATOM      8  O   UNL     1     -10.648  -2.335  62.937  1.00  0.00    -0.388 OA
ATOM      9  H   UNL     1     -11.031  -3.071  63.484  1.00  0.00     0.211 HD
ENDBRANCH   1   8
TORSDOF 5
ENDMDL
MODEL 9
REMARK VINA RESULT:    -3.287     14.994     15.768
REMARK INTER + INTRA:          -3.963
REMARK INTER:                  -3.740
REMARK INTRA:                  -0.223
REMARK UNBOUND:                -0.003
REMARK SMILES OCC(O)CO
REMARK SMILES IDX 3 1 5 2 6 3 2 5 1 6 4 8
REMARK H PARENT 6 4 1 7 4 9
REMARK Flexibility Score: inf
ROOT
ATOM      1  C   UNL     1     -17.009 -14.160  62.055  1.00  0.00     0.165 C 
ENDROOT
BRANCH   1   2
ATOM      2  C   UNL     1     -18.101 -14.955  62.781  1.00  0.00     0.190 C 
BRANCH   2   3
ATOM      3  O   UNL     1     -17.523 -15.937  63.598  1.00  0.00    -0.394 OA
ATOM      4  H   UNL     1     -16.773 -16.323  63.074  1.00  0.00     0.210 HD
ENDBRANCH   2   3
ENDBRANCH   1   2
BRANCH   1   5
ATOM      5  C   UNL     1     -15.885 -13.723  63.012  1.00  0.00     0.190 C 
BRANCH   5   6
ATOM      6  O   UNL     1     -16.399 -13.344  64.261  1.00  0.00    -0.394 OA
ATOM      7  H   UNL     1     -16.146 -12.394  64.397  1.00  0.00     0.210 HD
ENDBRANCH   5   6
ENDBRANCH   1   5
BRANCH   1   8
ATOM      8  O   UNL     1     -16.482 -14.946  61.019  1.00  0.00    -0.388 OA
ATOM      9  H   UNL     1     -15.647 -15.358  61.366  1.00  0.00     0.211 HD
ENDBRANCH   1   8
TORSDOF 5
ENDMDL
