MODEL 1
REMARK VINA RESULT:    -5.251      0.000      0.000
REMARK INTER + INTRA:          -8.990
REMARK INTER:                  -8.320
REMARK INTRA:                  -0.670
REMARK UNBOUND:                -0.670
REMARK SMILES CCCCCCCCCCCC(=O)[O-]
REMARK SMILES IDX 7 1 8 2 9 3 10 4 11 5 12 6 13 7 14 8 6 9 5 10 4 11 3 12 2 13
REMARK SMILES IDX 1 14
REMARK H PARENT
REMARK Flexibility Score: inf
ROOT
ATOM      1  C   UNL     1      11.369 -18.171 -27.940  1.00  0.00     0.000 C 
ENDROOT
BRANCH   1   2
ATOM      2  C   UNL     1      10.494 -17.981 -26.687  1.00  0.00     0.000 C 
BRANCH   2   3
ATOM      3  C   UNL     1       9.038 -17.561 -26.971  1.00  0.00     0.000 C 
BRANCH   3   4
ATOM      4  C   UNL     1       8.583 -17.845 -28.419  1.00  0.00     0.006 C 
BRANCH   4   5
ATOM      5  C   UNL     1       8.056 -16.590 -29.126  1.00  0.00     0.053 C 
BRANCH   5   6
ATOM      6  C   UNL     1       8.511 -16.562 -30.551  1.00  0.00     0.041 C 
ATOM      7  O   UNL     1       9.670 -16.950 -30.854  1.00  0.00    -0.550 OA
ATOM      8  O   UNL     1       7.637 -16.155 -31.552  1.00  0.00    -0.550 OA
ENDBRANCH   5   6
ENDBRANCH   4   5
ENDBRANCH   3   4
ENDBRANCH   2   3
ENDBRANCH   1   2
BRANCH   1   9
ATOM      9  C   UNL     1      12.067 -19.542 -28.049  1.00  0.00     0.000 C 
BRANCH   9  10
ATOM     10  C   UNL     1      12.086 -20.369 -26.752  1.00  0.00    -0.000 C 
BRANCH  10  11
ATOM     11  C   UNL     1      12.804 -21.720 -26.917  1.00  0.00    -0.000 C 
BRANCH  11  12
ATOM     12  C   UNL     1      11.979 -22.897 -26.371  1.00  0.00    -0.000 C 
BRANCH  12  13
ATOM     13  C   UNL     1      11.292 -23.700 -27.485  1.00  0.00    -0.003 C 
ATOM     14  C   UNL     1      12.217 -23.874 -28.687  1.00  0.00     0.004 C 
ENDBRANCH  12  13
ENDBRANCH  11  12
ENDBRANCH  10  11
ENDBRANCH   9  10
ENDBRANCH   1   9
TORSDOF 10
ENDMDL
MODEL 2
REMARK VINA RESULT:    -4.978      1.545      2.363
REMARK INTER + INTRA:          -8.557
REMARK INTER:                  -7.743
REMARK INTRA:                  -0.814
REMARK UNBOUND:                -0.670
REMARK SMILES CCCCCCCCCCCC(=O)[O-]
REMARK SMILES IDX 7 1 8 2 9 3 10 4 11 5 12 6 13 7 14 8 6 9 5 10 4 11 3 12 2 13
REMARK SMILES IDX 1 14
REMARK H PARENT
REMARK Flexibility Score: inf
ROOT
ATOM      1  C   UNL     1      12.962 -19.678 -26.507  1.00  0.00     0.000 C 
ENDROOT
BRANCH   1   2
ATOM      2  C   UNL     1      12.179 -18.752 -25.557  1.00  0.00     0.000 C 
BRANCH   2   3
ATOM      3  C   UNL     1      10.661 -18.690 -25.820  1.00  0.00     0.000 C 
BRANCH   3   4
ATOM      4  C   UNL     1      10.216 -17.426 -26.587  1.00  0.00     0.006 C 
BRANCH   4   5
ATOM      5  C   UNL     1       8.839 -17.590 -27.243  1.00  0.00     0.053 C 
BRANCH   5   6
ATOM      6  C   UNL     1       8.973 -17.651 -28.731  1.00  0.00     0.041 C 
ATOM      7  O   UNL     1       9.975 -18.205 -29.256  1.00  0.00    -0.550 OA
ATOM      8  O   UNL     1       7.967 -17.140 -29.541  1.00  0.00    -0.550 OA
ENDBRANCH   5   6
ENDBRANCH   4   5
ENDBRANCH   3   4
ENDBRANCH   2   3
ENDBRANCH   1   2
BRANCH   1   9
ATOM      9  C   UNL     1      12.159 -20.867 -27.073  1.00  0.00     0.000 C 
BRANCH   9  10
ATOM     10  C   UNL     1      12.009 -20.881 -28.605  1.00  0.00    -0.000 C 
BRANCH  10  11
ATOM     11  C   UNL     1      11.970 -22.305 -29.187  1.00  0.00    -0.000 C 
BRANCH  11  12
ATOM     12  C   UNL     1      12.642 -23.337 -28.267  1.00  0.00    -0.000 C 
BRANCH  12  13
ATOM     13  C   UNL     1      14.076 -23.668 -28.703  1.00  0.00    -0.003 C 
ATOM     14  C   UNL     1      15.097 -23.041 -27.756  1.00  0.00     0.004 C 
ENDBRANCH  12  13
ENDBRANCH  11  12
ENDBRANCH  10  11
ENDBRANCH   9  10
ENDBRANCH   1   9
TORSDOF 10
ENDMDL
MODEL 3
REMARK VINA RESULT:    -4.884      2.788      6.136
REMARK INTER + INTRA:          -8.409
REMARK INTER:                  -7.963
REMARK INTRA:                  -0.446
REMARK UNBOUND:                -0.670
REMARK SMILES CCCCCCCCCCCC(=O)[O-]
REMARK SMILES IDX 7 1 8 2 9 3 10 4 11 5 12 6 13 7 14 8 6 9 5 10 4 11 3 12 2 13
REMARK SMILES IDX 1 14
REMARK H PARENT
REMARK Flexibility Score: inf
ROOT
ATOM      1  C   UNL     1      12.722 -19.369 -26.614  1.00  0.00     0.000 C 
ENDROOT
BRANCH   1   2
ATOM      2  C   UNL     1      11.860 -20.643 -26.689  1.00  0.00     0.000 C 
BRANCH   2   3
ATOM      3  C   UNL     1      12.655 -21.962 -26.725  1.00  0.00     0.000 C 
BRANCH   3   4
ATOM      4  C   UNL     1      11.785 -23.203 -27.019  1.00  0.00     0.006 C 
BRANCH   4   5
ATOM      5  C   UNL     1      12.040 -23.782 -28.417  1.00  0.00     0.053 C 
BRANCH   5   6
ATOM      6  C   UNL     1      11.319 -22.981 -29.454  1.00  0.00     0.041 C 
ATOM      7  O   UNL     1      11.966 -22.309 -30.299  1.00  0.00    -0.550 OA
ATOM      8  O   UNL     1       9.932 -23.016 -29.519  1.00  0.00    -0.550 OA
ENDBRANCH   5   6
ENDBRANCH   4   5
ENDBRANCH   3   4
ENDBRANCH   2   3
ENDBRANCH   1   2
BRANCH   1   9
ATOM      9  C   UNL     1      12.331 -18.254 -27.605  1.00  0.00     0.000 C 
BRANCH   9  10
ATOM     10  C   UNL     1      10.893 -18.338 -28.147  1.00  0.00    -0.000 C 
BRANCH  10  11
ATOM     11  C   UNL     1       9.859 -17.713 -27.194  1.00  0.00    -0.000 C 
BRANCH  11  12
ATOM     12  C   UNL     1       8.437 -17.721 -27.778  1.00  0.00    -0.000 C 
BRANCH  12  13
ATOM     13  C   UNL     1       7.419 -17.033 -26.858  1.00  0.00    -0.003 C 
ATOM     14  C   UNL     1       7.487 -15.515 -27.002  1.00  0.00     0.004 C 
ENDBRANCH  12  13
ENDBRANCH  11  12
ENDBRANCH  10  11
ENDBRANCH   9  10
ENDBRANCH   1   9
TORSDOF 10
ENDMDL
MODEL 4
REMARK VINA RESULT:    -4.803      2.667      4.089
REMARK INTER + INTRA:          -8.280
REMARK INTER:                  -7.669
REMARK INTRA:                  -0.611
REMARK UNBOUND:                -0.670
REMARK SMILES CCCCCCCCCCCC(=O)[O-]
REMARK SMILES IDX 7 1 8 2 9 3 10 4 11 5 12 6 13 7 14 8 6 9 5 10 4 11 3 12 2 13
REMARK SMILES IDX 1 14
REMARK H PARENT
REMARK Flexibility Score: inf
ROOT
ATOM      1  C   UNL     1      12.061 -21.727 -26.630  1.00  0.00     0.000 C 
ENDROOT
BRANCH   1   2
ATOM      2  C   UNL     1      11.790 -20.301 -26.116  1.00  0.00     0.000 C 
BRANCH   2   3
ATOM      3  C   UNL     1      12.831 -19.249 -26.545  1.00  0.00     0.000 C 
BRANCH   3   4
ATOM      4  C   UNL     1      12.305 -18.249 -27.597  1.00  0.00     0.006 C 
BRANCH   4   5
ATOM      5  C   UNL     1      11.228 -18.859 -28.502  1.00  0.00     0.053 C 
BRANCH   5   6
ATOM      6  C   UNL     1       9.996 -18.011 -28.495  1.00  0.00     0.041 C 
ATOM      7  O   UNL     1       9.370 -17.792 -29.565  1.00  0.00    -0.550 OA
ATOM      8  O   UNL     1       9.510 -17.502 -27.297  1.00  0.00    -0.550 OA
ENDBRANCH   5   6
ENDBRANCH   4   5
ENDBRANCH   3   4
ENDBRANCH   2   3
ENDBRANCH   1   2
BRANCH   1   9
ATOM      9  C   UNL     1      13.230 -21.852 -27.629  1.00  0.00     0.000 C 
BRANCH   9  10
ATOM     10  C   UNL     1      14.277 -22.924 -27.276  1.00  0.00    -0.000 C 
BRANCH  10  11
ATOM     11  C   UNL     1      15.158 -23.314 -28.476  1.00  0.00    -0.000 C 
BRANCH  11  12
ATOM     12  C   UNL     1      16.659 -23.174 -28.176  1.00  0.00    -0.000 C 
BRANCH  12  13
ATOM     13  C   UNL     1      16.936 -22.831 -26.706  1.00  0.00    -0.003 C 
ATOM     14  C   UNL     1      17.984 -21.728 -26.587  1.00  0.00     0.004 C 
ENDBRANCH  12  13
ENDBRANCH  11  12
ENDBRANCH  10  11
ENDBRANCH   9  10
ENDBRANCH   1   9
TORSDOF 10
ENDMDL
MODEL 5
REMARK VINA RESULT:    -4.712      2.798      5.932
REMARK INTER + INTRA:          -8.136
REMARK INTER:                  -7.276
REMARK INTRA:                  -0.861
REMARK UNBOUND:                -0.670
REMARK SMILES CCCCCCCCCCCC(=O)[O-]
REMARK SMILES IDX 7 1 8 2 9 3 10 4 11 5 12 6 13 7 14 8 6 9 5 10 4 11 3 12 2 13
REMARK SMILES IDX 1 14
REMARK H PARENT
REMARK Flexibility Score: inf
ROOT
ATOM      1  C   UNL     1      11.814 -21.500 -26.479  1.00  0.00     0.000 C 
ENDROOT
BRANCH   1   2
ATOM      2  C   UNL     1      12.621 -22.807 -26.588  1.00  0.00     0.000 C 
BRANCH   2   3
ATOM      3  C   UNL     1      13.956 -22.683 -27.347  1.00  0.00     0.000 C 
BRANCH   3   4
ATOM      4  C   UNL     1      13.945 -23.353 -28.738  1.00  0.00     0.006 C 
BRANCH   4   5
ATOM      5  C   UNL     1      12.546 -23.828 -29.150  1.00  0.00     0.053 C 
BRANCH   5   6
ATOM      6  C   UNL     1      11.845 -22.768 -29.940  1.00  0.00     0.041 C 
ATOM      7  O   UNL     1      10.690 -22.390 -29.609  1.00  0.00    -0.550 OA
ATOM      8  O   UNL     1      12.487 -22.161 -31.012  1.00  0.00    -0.550 OA
ENDBRANCH   5   6
ENDBRANCH   4   5
ENDBRANCH   3   4
ENDBRANCH   2   3
ENDBRANCH   1   2
BRANCH   1   9
ATOM      9  C   UNL     1      12.482 -20.263 -27.115  1.00  0.00     0.000 C 
BRANCH   9  10
ATOM     10  C   UNL     1      12.611 -19.043 -26.186  1.00  0.00    -0.000 C 
BRANCH  10  11
ATOM     11  C   UNL     1      11.279 -18.658 -25.520  1.00  0.00    -0.000 C 
BRANCH  11  12
ATOM     12  C   UNL     1      10.598 -17.464 -26.209  1.00  0.00    -0.000 C 
BRANCH  12  13
ATOM     13  C   UNL     1       9.400 -17.887 -27.070  1.00  0.00    -0.003 C 
ATOM     14  C   UNL     1       9.792 -17.997 -28.542  1.00  0.00     0.004 C 
ENDBRANCH  12  13
ENDBRANCH  11  12
ENDBRANCH  10  11
ENDBRANCH   9  10
ENDBRANCH   1   9
TORSDOF 10
ENDMDL
MODEL 6
REMARK VINA RESULT:    -4.686      4.185      6.001
REMARK INTER + INTRA:          -8.095
REMARK INTER:                  -7.515
REMARK INTRA:                  -0.580
REMARK UNBOUND:                -0.670
REMARK SMILES CCCCCCCCCCCC(=O)[O-]
REMARK SMILES IDX 7 1 8 2 9 3 10 4 11 5 12 6 13 7 14 8 6 9 5 10 4 11 3 12 2 13
REMARK SMILES IDX 1 14
REMARK H PARENT
REMARK Flexibility Score: inf
ROOT
ATOM      1  C   UNL     1      14.368 -23.094 -28.304  1.00  0.00     0.000 C 
ENDROOT
BRANCH   1   2
ATOM      2  C   UNL     1      13.050 -22.299 -28.361  1.00  0.00     0.000 C 
BRANCH   2   3
ATOM      3  C   UNL     1      12.647 -21.618 -27.039  1.00  0.00     0.000 C 
BRANCH   3   4
ATOM      4  C   UNL     1      12.094 -20.188 -27.221  1.00  0.00     0.006 C 
BRANCH   4   5
ATOM      5  C   UNL     1      12.843 -19.154 -26.372  1.00  0.00     0.053 C 
BRANCH   5   6
ATOM      6  C   UNL     1      11.940 -18.584 -25.325  1.00  0.00     0.041 C 
ATOM      7  O   UNL     1      10.705 -18.475 -25.543  1.00  0.00    -0.550 OA
ATOM      8  O   UNL     1      12.456 -18.217 -24.087  1.00  0.00    -0.550 OA
ENDBRANCH   5   6
ENDBRANCH   4   5
ENDBRANCH   3   4
ENDBRANCH   2   3
ENDBRANCH   1   2
BRANCH   1   9
ATOM      9  C   UNL     1      15.125 -23.012 -26.962  1.00  0.00     0.000 C 
BRANCH   9  10
ATOM     10  C   UNL     1      16.619 -22.659 -27.077  1.00  0.00    -0.000 C 
BRANCH  10  11
ATOM     11  C   UNL     1      17.534 -23.736 -26.467  1.00  0.00    -0.000 C 
BRANCH  11  12
ATOM     12  C   UNL     1      17.582 -23.669 -24.932  1.00  0.00    -0.000 C 
BRANCH  12  13
ATOM     13  C   UNL     1      17.139 -24.981 -24.272  1.00  0.00    -0.003 C 
ATOM     14  C   UNL     1      15.971 -24.748 -23.316  1.00  0.00     0.004 C 
ENDBRANCH  12  13
ENDBRANCH  11  12
ENDBRANCH  10  11
ENDBRANCH   9  10
ENDBRANCH   1   9
TORSDOF 10
ENDMDL
MODEL 7
REMARK VINA RESULT:    -4.663      4.320      6.472
REMARK INTER + INTRA:          -8.060
REMARK INTER:                  -7.164
REMARK INTRA:                  -0.895
REMARK UNBOUND:                -0.670
REMARK SMILES CCCCCCCCCCCC(=O)[O-]
REMARK SMILES IDX 7 1 8 2 9 3 10 4 11 5 12 6 13 7 14 8 6 9 5 10 4 11 3 12 2 13
REMARK SMILES IDX 1 14
REMARK H PARENT
REMARK Flexibility Score: inf
ROOT
ATOM      1  C   UNL     1      16.767 -23.024 -28.121  1.00  0.00     0.000 C 
ENDROOT
BRANCH   1   2
ATOM      2  C   UNL     1      15.263 -23.302 -28.298  1.00  0.00     0.000 C 
BRANCH   2   3
ATOM      3  C   UNL     1      14.396 -22.988 -27.064  1.00  0.00     0.000 C 
BRANCH   3   4
ATOM      4  C   UNL     1      12.915 -22.710 -27.400  1.00  0.00     0.006 C 
BRANCH   4   5
ATOM      5  C   UNL     1      12.575 -21.214 -27.367  1.00  0.00     0.053 C 
BRANCH   5   6
ATOM      6  C   UNL     1      11.866 -20.812 -28.622  1.00  0.00     0.041 C 
ATOM      7  O   UNL     1      11.380 -21.687 -29.384  1.00  0.00    -0.550 OA
ATOM      8  O   UNL     1      11.699 -19.466 -28.924  1.00  0.00    -0.550 OA
ENDBRANCH   5   6
ENDBRANCH   4   5
ENDBRANCH   3   4
ENDBRANCH   2   3
ENDBRANCH   1   2
BRANCH   1   9
ATOM      9  C   UNL     1      17.136 -22.191 -26.876  1.00  0.00     0.000 C 
BRANCH   9  10
ATOM     10  C   UNL     1      18.048 -22.904 -25.862  1.00  0.00    -0.000 C 
BRANCH  10  11
ATOM     11  C   UNL     1      18.131 -24.422 -26.100  1.00  0.00    -0.000 C 
BRANCH  11  12
ATOM     12  C   UNL     1      17.213 -25.218 -25.159  1.00  0.00    -0.000 C 
BRANCH  12  13
ATOM     13  C   UNL     1      16.605 -24.344 -24.053  1.00  0.00    -0.003 C 
ATOM     14  C   UNL     1      16.124 -25.197 -22.882  1.00  0.00     0.004 C 
ENDBRANCH  12  13
ENDBRANCH  11  12
ENDBRANCH  10  11
ENDBRANCH   9  10
ENDBRANCH   1   9
TORSDOF 10
ENDMDL
MODEL 8
REMARK VINA RESULT:    -4.662      3.865      5.439
REMARK INTER + INTRA:          -8.057
REMARK INTER:                  -7.131
REMARK INTRA:                  -0.926
REMARK UNBOUND:                -0.670
REMARK SMILES CCCCCCCCCCCC(=O)[O-]
REMARK SMILES IDX 7 1 8 2 9 3 10 4 11 5 12 6 13 7 14 8 6 9 5 10 4 11 3 12 2 13
REMARK SMILES IDX 1 14
REMARK H PARENT
REMARK Flexibility Score: inf
ROOT
ATOM      1  C   UNL     1      11.670 -22.358 -28.687  1.00  0.00     0.000 C 
ENDROOT
BRANCH   1   2
ATOM      2  C   UNL     1      11.746 -22.615 -27.170  1.00  0.00     0.000 C 
BRANCH   2   3
ATOM      3  C   UNL     1      12.135 -21.388 -26.324  1.00  0.00     0.000 C 
BRANCH   3   4
ATOM      4  C   UNL     1      12.123 -20.061 -27.112  1.00  0.00     0.006 C 
BRANCH   4   5
ATOM      5  C   UNL     1      12.885 -18.941 -26.393  1.00  0.00     0.053 C 
BRANCH   5   6
ATOM      6  C   UNL     1      12.131 -18.489 -25.182  1.00  0.00     0.041 C 
ATOM      7  O   UNL     1      10.891 -18.283 -25.248  1.00  0.00    -0.550 OA
ATOM      8  O   UNL     1      12.790 -18.342 -23.968  1.00  0.00    -0.550 OA
ENDBRANCH   5   6
ENDBRANCH   4   5
ENDBRANCH   3   4
ENDBRANCH   2   3
ENDBRANCH   1   2
BRANCH   1   9
ATOM      9  C   UNL     1      12.947 -22.711 -29.476  1.00  0.00     0.000 C 
BRANCH   9  10
ATOM     10  C   UNL     1      13.856 -23.760 -28.810  1.00  0.00    -0.000 C 
BRANCH  10  11
ATOM     11  C   UNL     1      15.277 -23.233 -28.543  1.00  0.00    -0.000 C 
BRANCH  11  12
ATOM     12  C   UNL     1      15.516 -22.908 -27.059  1.00  0.00    -0.000 C 
BRANCH  12  13
ATOM     13  C   UNL     1      16.960 -22.472 -26.777  1.00  0.00    -0.003 C 
ATOM     14  C   UNL     1      17.778 -22.414 -28.065  1.00  0.00     0.004 C 
ENDBRANCH  12  13
ENDBRANCH  11  12
ENDBRANCH  10  11
ENDBRANCH   9  10
ENDBRANCH   1   9
TORSDOF 10
ENDMDL
MODEL 9
REMARK VINA RESULT:    -4.577      3.385      4.902
REMARK INTER + INTRA:          -7.922
REMARK INTER:                  -7.348
REMARK INTRA:                  -0.574
REMARK UNBOUND:                -0.670
REMARK SMILES CCCCCCCCCCCC(=O)[O-]
REMARK SMILES IDX 7 1 8 2 9 3 10 4 11 5 12 6 13 7 14 8 6 9 5 10 4 11 3 12 2 13
REMARK SMILES IDX 1 14
REMARK H PARENT
REMARK Flexibility Score: inf
ROOT
ATOM      1  C   UNL     1      13.202 -22.637 -28.692  1.00  0.00     0.000 C 
ENDROOT
BRANCH   1   2
ATOM      2  C   UNL     1      12.208 -21.478 -28.488  1.00  0.00     0.000 C 
BRANCH   2   3
ATOM      3  C   UNL     1      12.174 -20.897 -27.061  1.00  0.00     0.000 C 
BRANCH   3   4
ATOM      4  C   UNL     1      12.319 -19.361 -27.012  1.00  0.00     0.006 C 
BRANCH   4   5
ATOM      5  C   UNL     1      11.808 -18.681 -28.288  1.00  0.00     0.053 C 
BRANCH   5   6
ATOM      6  C   UNL     1      10.418 -18.167 -28.086  1.00  0.00     0.041 C 
ATOM      7  O   UNL     1      10.076 -17.681 -26.976  1.00  0.00    -0.550 OA
ATOM      8  O   UNL     1       9.513 -18.177 -29.141  1.00  0.00    -0.550 OA
ENDBRANCH   5   6
ENDBRANCH   4   5
ENDBRANCH   3   4
ENDBRANCH   2   3
ENDBRANCH   1   2
BRANCH   1   9
ATOM      9  C   UNL     1      14.174 -22.880 -27.519  1.00  0.00     0.000 C 
BRANCH   9  10
ATOM     10  C   UNL     1      15.653 -23.025 -27.919  1.00  0.00    -0.000 C 
BRANCH  10  11
ATOM     11  C   UNL     1      16.609 -22.898 -26.720  1.00  0.00    -0.000 C 
BRANCH  11  12
ATOM     12  C   UNL     1      17.885 -22.113 -27.064  1.00  0.00    -0.000 C 
BRANCH  12  13
ATOM     13  C   UNL     1      18.295 -22.272 -28.534  1.00  0.00    -0.003 C 
ATOM     14  C   UNL     1      18.906 -20.982 -29.076  1.00  0.00     0.004 C 
ENDBRANCH  12  13
ENDBRANCH  11  12
ENDBRANCH  10  11
ENDBRANCH   9  10
ENDBRANCH   1   9
TORSDOF 10
ENDMDL
