MODEL 1
REMARK VINA RESULT:    -4.700      0.000      0.000
REMARK INTER + INTRA:          -5.712
REMARK INTER:                  -5.387
REMARK INTRA:                  -0.325
REMARK UNBOUND:                -0.325
REMARK SMILES COc1ccc(C(C)=O)c(O)c1
REMARK SMILES IDX 6 1 10 2 12 3 3 4 4 5 5 6 7 7 8 8 9 9 11 10 2 12 1 13
REMARK H PARENT 11 11
REMARK Flexibility Score: inf
ROOT
ATOM      1  C   UNL     1     109.367 120.223 120.624  1.00  0.00     0.059 A 
ATOM      2  C   UNL     1     109.208 120.190 122.031  1.00  0.00     0.130 A 
ATOM      3  C   UNL     1     108.053 120.727 122.613  1.00  0.00     0.093 A 
ATOM      4  C   UNL     1     107.064 121.328 121.829  1.00  0.00     0.122 A 
ATOM      5  C   UNL     1     107.235 121.387 120.436  1.00  0.00     0.047 A 
ATOM      6  C   UNL     1     108.375 120.840 119.843  1.00  0.00     0.019 A 
ENDROOT
BRANCH   1   7
ATOM      7  C   UNL     1     110.528 119.595 119.951  1.00  0.00     0.163 C 
ATOM      8  C   UNL     1     110.373 118.890 118.638  1.00  0.00     0.093 C 
ATOM      9  O   UNL     1     111.653 119.577 120.520  1.00  0.00    -0.294 OA
ENDBRANCH   1   7
BRANCH   2  10
ATOM     10  O   UNL     1     110.182 119.664 122.883  1.00  0.00    -0.507 OA
ATOM     11  H   UNL     1     109.974 119.278 123.794  1.00  0.00     0.293 HD
ENDBRANCH   2  10
BRANCH   4  12
ATOM     12  O   UNL     1     105.933 121.855 122.471  1.00  0.00    -0.497 OA
ATOM     13  C   UNL     1     105.122 121.133 123.392  1.00  0.00     0.278 C 
ENDBRANCH   4  12
TORSDOF 3
ENDMDL
MODEL 2
REMARK VINA RESULT:    -4.634      1.913      2.826
REMARK INTER + INTRA:          -5.636
REMARK INTER:                  -5.332
REMARK INTRA:                  -0.304
REMARK UNBOUND:                -0.325
REMARK SMILES COc1ccc(C(C)=O)c(O)c1
REMARK SMILES IDX 6 1 10 2 12 3 3 4 4 5 5 6 7 7 8 8 9 9 11 10 2 12 1 13
REMARK H PARENT 11 11
REMARK Flexibility Score: inf
ROOT
ATOM      1  C   UNL     1     109.157 120.772 120.876  1.00  0.00     0.059 A 
ATOM      2  C   UNL     1     107.819 120.613 121.313  1.00  0.00     0.130 A 
ATOM      3  C   UNL     1     106.775 121.188 120.579  1.00  0.00     0.093 A 
ATOM      4  C   UNL     1     107.032 121.949 119.435  1.00  0.00     0.122 A 
ATOM      5  C   UNL     1     108.360 122.132 119.018  1.00  0.00     0.047 A 
ATOM      6  C   UNL     1     109.409 121.549 119.733  1.00  0.00     0.019 A 
ENDROOT
BRANCH   1   7
ATOM      7  C   UNL     1     110.292 120.115 121.567  1.00  0.00     0.163 C 
ATOM      8  C   UNL     1     111.547 119.764 120.829  1.00  0.00     0.093 C 
ATOM      9  O   UNL     1     110.180 119.769 122.773  1.00  0.00    -0.294 OA
ENDBRANCH   1   7
BRANCH   2  10
ATOM     10  O   UNL     1     107.490 119.921 122.481  1.00  0.00    -0.507 OA
ATOM     11  H   UNL     1     106.935 120.320 123.227  1.00  0.00     0.293 HD
ENDBRANCH   2  10
BRANCH   4  12
ATOM     12  O   UNL     1     105.943 122.506 118.747  1.00  0.00    -0.497 OA
ATOM     13  C   UNL     1     105.991 123.731 118.024  1.00  0.00     0.278 C 
ENDBRANCH   4  12
TORSDOF 3
ENDMDL
MODEL 3
REMARK VINA RESULT:    -4.527      1.421      2.167
REMARK INTER + INTRA:          -5.514
REMARK INTER:                  -5.237
REMARK INTRA:                  -0.277
REMARK UNBOUND:                -0.325
REMARK SMILES COc1ccc(C(C)=O)c(O)c1
REMARK SMILES IDX 6 1 10 2 12 3 3 4 4 5 5 6 7 7 8 8 9 9 11 10 2 12 1 13
REMARK H PARENT 11 11
REMARK Flexibility Score: inf
ROOT
ATOM      1  C   UNL     1     109.447 120.147 120.840  1.00  0.00     0.059 A 
ATOM      2  C   UNL     1     108.235 120.377 120.144  1.00  0.00     0.130 A 
ATOM      3  C   UNL     1     107.157 120.978 120.805  1.00  0.00     0.093 A 
ATOM      4  C   UNL     1     107.245 121.328 122.156  1.00  0.00     0.122 A 
ATOM      5  C   UNL     1     108.436 121.073 122.854  1.00  0.00     0.047 A 
ATOM      6  C   UNL     1     109.524 120.489 122.200  1.00  0.00     0.019 A 
ENDROOT
BRANCH   1   7
ATOM      7  C   UNL     1     110.645 119.592 120.167  1.00  0.00     0.163 C 
ATOM      8  C   UNL     1     112.018 119.812 120.725  1.00  0.00     0.093 C 
ATOM      9  O   UNL     1     110.527 118.993 119.064  1.00  0.00    -0.294 OA
ENDBRANCH   1   7
BRANCH   2  10
ATOM     10  O   UNL     1     108.052 119.997 118.812  1.00  0.00    -0.507 OA
ATOM     11  H   UNL     1     108.126 119.041 118.491  1.00  0.00     0.293 HD
ENDBRANCH   2  10
BRANCH   4  12
ATOM     12  O   UNL     1     106.128 121.920 122.765  1.00  0.00    -0.497 OA
ATOM     13  C   UNL     1     105.020 121.196 123.289  1.00  0.00     0.278 C 
ENDBRANCH   4  12
TORSDOF 3
ENDMDL
MODEL 4
REMARK VINA RESULT:    -4.387      2.200      2.488
REMARK INTER + INTRA:          -5.353
REMARK INTER:                  -5.040
REMARK INTRA:                  -0.313
REMARK UNBOUND:                -0.325
REMARK SMILES COc1ccc(C(C)=O)c(O)c1
REMARK SMILES IDX 6 1 10 2 12 3 3 4 4 5 5 6 7 7 8 8 9 9 11 10 2 12 1 13
REMARK H PARENT 11 11
REMARK Flexibility Score: inf
ROOT
ATOM      1  C   UNL     1     109.313 121.031 121.007  1.00  0.00     0.059 A 
ATOM      2  C   UNL     1     108.262 120.271 121.576  1.00  0.00     0.130 A 
ATOM      3  C   UNL     1     107.055 120.126 120.882  1.00  0.00     0.093 A 
ATOM      4  C   UNL     1     106.854 120.747 119.646  1.00  0.00     0.122 A 
ATOM      5  C   UNL     1     107.886 121.525 119.095  1.00  0.00     0.047 A 
ATOM      6  C   UNL     1     109.100 121.664 119.770  1.00  0.00     0.019 A 
ENDROOT
BRANCH   1   7
ATOM      7  C   UNL     1     110.639 121.148 121.658  1.00  0.00     0.163 C 
ATOM      8  C   UNL     1     111.848 120.480 121.077  1.00  0.00     0.093 C 
ATOM      9  O   UNL     1     110.749 121.749 122.760  1.00  0.00    -0.294 OA
ENDBRANCH   1   7
BRANCH   2  10
ATOM     10  O   UNL     1     108.366 119.674 122.835  1.00  0.00    -0.507 OA
ATOM     11  H   UNL     1     109.248 119.512 123.302  1.00  0.00     0.293 HD
ENDBRANCH   2  10
BRANCH   4  12
ATOM     12  O   UNL     1     105.620 120.570 119.003  1.00  0.00    -0.497 OA
ATOM     13  C   UNL     1     104.457 120.037 119.628  1.00  0.00     0.278 C 
ENDBRANCH   4  12
TORSDOF 3
ENDMDL
MODEL 5
REMARK VINA RESULT:    -4.378      3.666      6.050
REMARK INTER + INTRA:          -5.342
REMARK INTER:                  -5.009
REMARK INTRA:                  -0.333
REMARK UNBOUND:                -0.325
REMARK SMILES COc1ccc(C(C)=O)c(O)c1
REMARK SMILES IDX 6 1 10 2 12 3 3 4 4 5 5 6 7 7 8 8 9 9 11 10 2 12 1 13
REMARK H PARENT 11 11
REMARK Flexibility Score: inf
ROOT
ATOM      1  C   UNL     1     105.982 123.255 118.333  1.00  0.00     0.059 A 
ATOM      2  C   UNL     1     107.210 123.862 117.975  1.00  0.00     0.130 A 
ATOM      3  C   UNL     1     108.417 123.265 118.356  1.00  0.00     0.093 A 
ATOM      4  C   UNL     1     108.434 122.092 119.116  1.00  0.00     0.122 A 
ATOM      5  C   UNL     1     107.215 121.505 119.496  1.00  0.00     0.047 A 
ATOM      6  C   UNL     1     106.004 122.082 119.108  1.00  0.00     0.019 A 
ENDROOT
BRANCH   1   7
ATOM      7  C   UNL     1     104.677 123.798 117.885  1.00  0.00     0.163 C 
ATOM      8  C   UNL     1     103.777 123.005 116.987  1.00  0.00     0.093 C 
ATOM      9  O   UNL     1     104.346 124.974 118.192  1.00  0.00    -0.294 OA
ENDBRANCH   1   7
BRANCH   2  10
ATOM     10  O   UNL     1     107.272 125.068 117.272  1.00  0.00    -0.507 OA
ATOM     11  H   UNL     1     106.486 125.462 116.773  1.00  0.00     0.293 HD
ENDBRANCH   2  10
BRANCH   4  12
ATOM     12  O   UNL     1     109.676 121.546 119.473  1.00  0.00    -0.497 OA
ATOM     13  C   UNL     1     109.894 120.171 119.771  1.00  0.00     0.278 C 
ENDBRANCH   4  12
TORSDOF 3
ENDMDL
MODEL 6
REMARK VINA RESULT:    -4.267      2.110      3.238
REMARK INTER + INTRA:          -5.216
REMARK INTER:                  -4.881
REMARK INTRA:                  -0.335
REMARK UNBOUND:                -0.325
REMARK SMILES COc1ccc(C(C)=O)c(O)c1
REMARK SMILES IDX 6 1 10 2 12 3 3 4 4 5 5 6 7 7 8 8 9 9 11 10 2 12 1 13
REMARK H PARENT 11 11
REMARK Flexibility Score: inf
ROOT
ATOM      1  C   UNL     1     109.093 120.988 121.555  1.00  0.00     0.059 A 
ATOM      2  C   UNL     1     108.770 121.140 120.185  1.00  0.00     0.130 A 
ATOM      3  C   UNL     1     107.539 120.674 119.706  1.00  0.00     0.093 A 
ATOM      4  C   UNL     1     106.633 120.029 120.552  1.00  0.00     0.122 A 
ATOM      5  C   UNL     1     106.966 119.853 121.905  1.00  0.00     0.047 A 
ATOM      6  C   UNL     1     108.183 120.328 122.398  1.00  0.00     0.019 A 
ENDROOT
BRANCH   1   7
ATOM      7  C   UNL     1     110.343 121.537 122.132  1.00  0.00     0.163 C 
ATOM      8  C   UNL     1     110.307 122.591 123.196  1.00  0.00     0.093 C 
ATOM      9  O   UNL     1     111.460 121.178 121.672  1.00  0.00    -0.294 OA
ENDBRANCH   1   7
BRANCH   2  10
ATOM     10  O   UNL     1     109.651 121.716 119.266  1.00  0.00    -0.507 OA
ATOM     11  H   UNL     1     110.147 122.580 119.439  1.00  0.00     0.293 HD
ENDBRANCH   2  10
BRANCH   4  12
ATOM     12  O   UNL     1     105.420 119.578 120.011  1.00  0.00    -0.497 OA
ATOM     13  C   UNL     1     104.676 120.274 119.016  1.00  0.00     0.278 C 
ENDBRANCH   4  12
TORSDOF 3
ENDMDL
MODEL 7
REMARK VINA RESULT:    -4.264      1.919      4.611
REMARK INTER + INTRA:          -5.213
REMARK INTER:                  -4.889
REMARK INTRA:                  -0.323
REMARK UNBOUND:                -0.325
REMARK SMILES COc1ccc(C(C)=O)c(O)c1
REMARK SMILES IDX 6 1 10 2 12 3 3 4 4 5 5 6 7 7 8 8 9 9 11 10 2 12 1 13
REMARK H PARENT 11 11
REMARK Flexibility Score: inf
ROOT
ATOM      1  C   UNL     1     107.249 121.741 119.591  1.00  0.00     0.059 A 
ATOM      2  C   UNL     1     107.096 120.913 120.729  1.00  0.00     0.130 A 
ATOM      3  C   UNL     1     108.228 120.392 121.366  1.00  0.00     0.093 A 
ATOM      4  C   UNL     1     109.513 120.649 120.879  1.00  0.00     0.122 A 
ATOM      5  C   UNL     1     109.663 121.447 119.733  1.00  0.00     0.047 A 
ATOM      6  C   UNL     1     108.542 121.986 119.098  1.00  0.00     0.019 A 
ENDROOT
BRANCH   1   7
ATOM      7  C   UNL     1     106.091 122.387 118.928  1.00  0.00     0.163 C 
ATOM      8  C   UNL     1     106.203 123.759 118.337  1.00  0.00     0.093 C 
ATOM      9  O   UNL     1     104.967 121.816 118.927  1.00  0.00    -0.294 OA
ENDBRANCH   1   7
BRANCH   2  10
ATOM     10  O   UNL     1     105.842 120.559 121.235  1.00  0.00    -0.507 OA
ATOM     11  H   UNL     1     105.717 119.956 122.037  1.00  0.00     0.293 HD
ENDBRANCH   2  10
BRANCH   4  12
ATOM     12  O   UNL     1     110.607 120.092 121.557  1.00  0.00    -0.497 OA
ATOM     13  C   UNL     1     111.871 119.824 120.961  1.00  0.00     0.278 C 
ENDBRANCH   4  12
TORSDOF 3
ENDMDL
MODEL 8
REMARK VINA RESULT:    -4.233      2.271      3.439
REMARK INTER + INTRA:          -5.177
REMARK INTER:                  -4.841
REMARK INTRA:                  -0.336
REMARK UNBOUND:                -0.325
REMARK SMILES COc1ccc(C(C)=O)c(O)c1
REMARK SMILES IDX 6 1 10 2 12 3 3 4 4 5 5 6 7 7 8 8 9 9 11 10 2 12 1 13
REMARK H PARENT 11 11
REMARK Flexibility Score: inf
ROOT
ATOM      1  C   UNL     1     108.402 121.236 121.048  1.00  0.00     0.059 A 
ATOM      2  C   UNL     1     108.706 121.725 119.754  1.00  0.00     0.130 A 
ATOM      3  C   UNL     1     107.677 122.191 118.928  1.00  0.00     0.093 A 
ATOM      4  C   UNL     1     106.344 122.153 119.345  1.00  0.00     0.122 A 
ATOM      5  C   UNL     1     106.038 121.642 120.617  1.00  0.00     0.047 A 
ATOM      6  C   UNL     1     107.058 121.189 121.457  1.00  0.00     0.019 A 
ENDROOT
BRANCH   1   7
ATOM      7  C   UNL     1     109.459 120.810 121.996  1.00  0.00     0.163 C 
ATOM      8  C   UNL     1     109.255 119.641 122.909  1.00  0.00     0.093 C 
ATOM      9  O   UNL     1     110.520 121.483 122.100  1.00  0.00    -0.294 OA
ENDBRANCH   1   7
BRANCH   2  10
ATOM     10  O   UNL     1     110.007 121.734 119.244  1.00  0.00    -0.507 OA
ATOM     11  H   UNL     1     110.464 122.569 118.901  1.00  0.00     0.293 HD
ENDBRANCH   2  10
BRANCH   4  12
ATOM     12  O   UNL     1     105.357 122.627 118.468  1.00  0.00    -0.497 OA
ATOM     13  C   UNL     1     105.006 123.999 118.318  1.00  0.00     0.278 C 
ENDBRANCH   4  12
TORSDOF 3
ENDMDL
MODEL 9
REMARK VINA RESULT:    -4.160      2.374      4.761
REMARK INTER + INTRA:          -5.093
REMARK INTER:                  -4.760
REMARK INTRA:                  -0.333
REMARK UNBOUND:                -0.325
REMARK SMILES COc1ccc(C(C)=O)c(O)c1
REMARK SMILES IDX 6 1 10 2 12 3 3 4 4 5 5 6 7 7 8 8 9 9 11 10 2 12 1 13
REMARK H PARENT 11 11
REMARK Flexibility Score: inf
ROOT
ATOM      1  C   UNL     1     106.758 122.159 119.104  1.00  0.00     0.059 A 
ATOM      2  C   UNL     1     106.368 121.142 120.009  1.00  0.00     0.130 A 
ATOM      3  C   UNL     1     107.344 120.416 120.702  1.00  0.00     0.093 A 
ATOM      4  C   UNL     1     108.705 120.655 120.491  1.00  0.00     0.122 A 
ATOM      5  C   UNL     1     109.093 121.643 119.571  1.00  0.00     0.047 A 
ATOM      6  C   UNL     1     108.128 122.385 118.887  1.00  0.00     0.019 A 
ENDROOT
BRANCH   1   7
ATOM      7  C   UNL     1     105.767 123.014 118.409  1.00  0.00     0.163 C 
ATOM      8  C   UNL     1     105.967 124.494 118.293  1.00  0.00     0.093 C 
ATOM      9  O   UNL     1     104.696 122.511 117.975  1.00  0.00    -0.294 OA
ENDBRANCH   1   7
BRANCH   2  10
ATOM     10  O   UNL     1     105.029 120.804 120.224  1.00  0.00    -0.507 OA
ATOM     11  H   UNL     1     104.504 120.197 119.610  1.00  0.00     0.293 HD
ENDBRANCH   2  10
BRANCH   4  12
ATOM     12  O   UNL     1     109.636 119.889 121.209  1.00  0.00    -0.497 OA
ATOM     13  C   UNL     1     109.814 119.956 122.620  1.00  0.00     0.278 C 
ENDBRANCH   4  12
TORSDOF 3
ENDMDL
