MODEL 1
REMARK VINA RESULT:    -5.157      0.000      0.000
REMARK INTER + INTRA:         -17.581
REMARK INTER:                 -13.598
REMARK INTRA:                  -3.983
REMARK UNBOUND:                -3.983
REMARK SMILES CCCCCCCCCCCCCCCCCCCCCCCCCCCCCC(=O)[O-]
REMARK SMILES IDX 16 1 17 2 18 3 19 4 20 5 21 6 22 7 23 8 24 9 25 10 26 11
REMARK SMILES IDX 27 12 28 13 29 14 30 15 31 16 32 17 15 18 14 19 13 20 12 21
REMARK SMILES IDX 11 22 10 23 9 24 8 25 7 26 6 27 5 28 4 29 3 30 2 31 1 32
REMARK H PARENT
REMARK Flexibility Score: inf
ROOT
ATOM      1  C   UNL     1      -7.538 -27.249  28.908  1.00  0.00     0.000 C 
ENDROOT
BRANCH   1   2
ATOM      2  C   UNL     1      -7.905 -27.755  27.501  1.00  0.00     0.000 C 
BRANCH   2   3
ATOM      3  C   UNL     1      -9.420 -27.794  27.258  1.00  0.00     0.000 C 
BRANCH   3   4
ATOM      4  C   UNL     1     -10.191 -27.385  28.519  1.00  0.00     0.000 C 
BRANCH   4   5
ATOM      5  C   UNL     1     -11.030 -26.124  28.266  1.00  0.00     0.000 C 
BRANCH   5   6
ATOM      6  C   UNL     1     -10.181 -24.840  28.220  1.00  0.00     0.000 C 
BRANCH   6   7
ATOM      7  C   UNL     1     -10.011 -24.222  26.818  1.00  0.00     0.000 C 
BRANCH   7   8
ATOM      8  C   UNL     1     -11.068 -23.168  26.436  1.00  0.00     0.000 C 
BRANCH   8   9
ATOM      9  C   UNL     1     -12.097 -23.627  25.385  1.00  0.00     0.000 C 
BRANCH   9  10
ATOM     10  C   UNL     1     -11.908 -25.067  24.874  1.00  0.00     0.000 C 
BRANCH  10  11
ATOM     11  C   UNL     1     -13.140 -25.953  25.110  1.00  0.00     0.000 C 
BRANCH  11  12
ATOM     12  C   UNL     1     -14.053 -25.962  23.875  1.00  0.00     0.000 C 
BRANCH  12  13
ATOM     13  C   UNL     1     -15.373 -26.717  24.116  1.00  0.00     0.006 C 
BRANCH  13  14
ATOM     14  C   UNL     1     -16.625 -25.827  24.074  1.00  0.00     0.053 C 
BRANCH  14  15
ATOM     15  C   UNL     1     -17.033 -25.368  25.441  1.00  0.00     0.041 C 
ATOM     16  O   UNL     1     -17.587 -24.249  25.596  1.00  0.00    -0.550 OA
ATOM     17  O   UNL     1     -16.771 -26.166  26.548  1.00  0.00    -0.550 OA
ENDBRANCH  14  15
ENDBRANCH  13  14
ENDBRANCH  12  13
ENDBRANCH  11  12
ENDBRANCH  10  11
ENDBRANCH   9  10
ENDBRANCH   8   9
ENDBRANCH   7   8
ENDBRANCH   6   7
ENDBRANCH   5   6
ENDBRANCH   4   5
ENDBRANCH   3   4
ENDBRANCH   2   3
ENDBRANCH   1   2
BRANCH   1  18
ATOM     18  C   UNL     1      -6.044 -26.931  29.118  1.00  0.00     0.000 C 
BRANCH  18  19
ATOM     19  C   UNL     1      -5.223 -28.064  29.759  1.00  0.00     0.000 C 
BRANCH  19  20
ATOM     20  C   UNL     1      -3.759 -27.664  30.018  1.00  0.00     0.000 C 
BRANCH  20  21
ATOM     21  C   UNL     1      -3.149 -28.406  31.217  1.00  0.00     0.000 C 
BRANCH  21  22
ATOM     22  C   UNL     1      -4.178 -28.676  32.330  1.00  0.00     0.000 C 
BRANCH  22  23
ATOM     23  C   UNL     1      -3.751 -28.094  33.687  1.00  0.00     0.000 C 
BRANCH  23  24
ATOM     24  C   UNL     1      -4.724 -27.018  34.197  1.00  0.00    -0.000 C 
BRANCH  24  25
ATOM     25  C   UNL     1      -4.345 -25.599  33.738  1.00  0.00    -0.000 C 
BRANCH  25  26
ATOM     26  C   UNL     1      -5.131 -25.065  32.524  1.00  0.00    -0.000 C 
BRANCH  26  27
ATOM     27  C   UNL     1      -6.660 -25.028  32.696  1.00  0.00    -0.000 C 
BRANCH  27  28
ATOM     28  C   UNL     1      -7.385 -24.403  31.491  1.00  0.00    -0.000 C 
BRANCH  28  29
ATOM     29  C   UNL     1      -8.891 -24.739  31.470  1.00  0.00    -0.000 C 
BRANCH  29  30
ATOM     30  C   UNL     1      -9.234 -26.111  32.075  1.00  0.00    -0.000 C 
BRANCH  30  31
ATOM     31  C   UNL     1     -10.743 -26.382  32.133  1.00  0.00    -0.003 C 
ATOM     32  C   UNL     1     -11.319 -26.009  33.496  1.00  0.00     0.004 C 
ENDBRANCH  30  31
ENDBRANCH  29  30
ENDBRANCH  28  29
ENDBRANCH  27  28
ENDBRANCH  26  27
ENDBRANCH  25  26
ENDBRANCH  24  25
ENDBRANCH  23  24
ENDBRANCH  22  23
ENDBRANCH  21  22
ENDBRANCH  20  21
ENDBRANCH  19  20
ENDBRANCH  18  19
ENDBRANCH   1  18
TORSDOF 28
ENDMDL
MODEL 2
REMARK VINA RESULT:    -5.030      1.643      3.601
REMARK INTER + INTRA:         -17.246
REMARK INTER:                 -12.716
REMARK INTRA:                  -4.529
REMARK UNBOUND:                -3.983
REMARK SMILES CCCCCCCCCCCCCCCCCCCCCCCCCCCCCC(=O)[O-]
REMARK SMILES IDX 16 1 17 2 18 3 19 4 20 5 21 6 22 7 23 8 24 9 25 10 26 11
REMARK SMILES IDX 27 12 28 13 29 14 30 15 31 16 32 17 15 18 14 19 13 20 12 21
REMARK SMILES IDX 11 22 10 23 9 24 8 25 7 26 6 27 5 28 4 29 3 30 2 31 1 32
REMARK H PARENT
REMARK Flexibility Score: inf
ROOT
ATOM      1  C   UNL     1      -9.373 -24.838  30.679  1.00  0.00     0.000 C 
ENDROOT
BRANCH   1   2
ATOM      2  C   UNL     1      -9.953 -25.332  29.342  1.00  0.00     0.000 C 
BRANCH   2   3
ATOM      3  C   UNL     1      -8.869 -25.789  28.356  1.00  0.00     0.000 C 
BRANCH   3   4
ATOM      4  C   UNL     1      -9.075 -27.253  27.949  1.00  0.00     0.000 C 
BRANCH   4   5
ATOM      5  C   UNL     1     -10.482 -27.737  28.332  1.00  0.00     0.000 C 
BRANCH   5   6
ATOM      6  C   UNL     1     -11.338 -28.113  27.109  1.00  0.00     0.000 C 
BRANCH   6   7
ATOM      7  C   UNL     1     -12.247 -26.987  26.578  1.00  0.00     0.000 C 
BRANCH   7   8
ATOM      8  C   UNL     1     -11.540 -25.937  25.698  1.00  0.00     0.000 C 
BRANCH   8   9
ATOM      9  C   UNL     1     -12.481 -24.966  24.958  1.00  0.00     0.000 C 
BRANCH   9  10
ATOM     10  C   UNL     1     -13.527 -25.639  24.051  1.00  0.00     0.000 C 
BRANCH  10  11
ATOM     11  C   UNL     1     -14.906 -24.967  24.128  1.00  0.00     0.000 C 
BRANCH  11  12
ATOM     12  C   UNL     1     -16.022 -26.018  24.229  1.00  0.00     0.000 C 
BRANCH  12  13
ATOM     13  C   UNL     1     -15.946 -26.844  25.527  1.00  0.00     0.006 C 
BRANCH  13  14
ATOM     14  C   UNL     1     -17.299 -27.044  26.227  1.00  0.00     0.053 C 
BRANCH  14  15
ATOM     15  C   UNL     1     -17.173 -27.884  27.461  1.00  0.00     0.041 C 
ATOM     16  O   UNL     1     -18.191 -28.422  27.970  1.00  0.00    -0.550 OA
ATOM     17  O   UNL     1     -15.934 -28.047  28.067  1.00  0.00    -0.550 OA
ENDBRANCH  14  15
ENDBRANCH  13  14
ENDBRANCH  12  13
ENDBRANCH  11  12
ENDBRANCH  10  11
ENDBRANCH   9  10
ENDBRANCH   8   9
ENDBRANCH   7   8
ENDBRANCH   6   7
ENDBRANCH   5   6
ENDBRANCH   4   5
ENDBRANCH   3   4
ENDBRANCH   2   3
ENDBRANCH   1   2
BRANCH   1  18
ATOM     18  C   UNL     1      -9.605 -25.780  31.879  1.00  0.00     0.000 C 
BRANCH  18  19
ATOM     19  C   UNL     1      -9.189 -27.243  31.645  1.00  0.00     0.000 C 
BRANCH  19  20
ATOM     20  C   UNL     1      -7.722 -27.511  32.023  1.00  0.00     0.000 C 
BRANCH  20  21
ATOM     21  C   UNL     1      -6.839 -27.791  30.797  1.00  0.00     0.000 C 
BRANCH  21  22
ATOM     22  C   UNL     1      -5.916 -26.608  30.452  1.00  0.00     0.000 C 
BRANCH  22  23
ATOM     23  C   UNL     1      -4.433 -27.007  30.401  1.00  0.00     0.000 C 
BRANCH  23  24
ATOM     24  C   UNL     1      -4.229 -28.528  30.509  1.00  0.00    -0.000 C 
BRANCH  24  25
ATOM     25  C   UNL     1      -3.341 -28.931  31.700  1.00  0.00    -0.000 C 
BRANCH  25  26
ATOM     26  C   UNL     1      -3.858 -28.496  33.086  1.00  0.00    -0.000 C 
BRANCH  26  27
ATOM     27  C   UNL     1      -2.858 -27.693  33.938  1.00  0.00    -0.000 C 
BRANCH  27  28
ATOM     28  C   UNL     1      -3.390 -26.305  34.337  1.00  0.00    -0.000 C 
BRANCH  28  29
ATOM     29  C   UNL     1      -4.882 -26.123  33.986  1.00  0.00    -0.000 C 
BRANCH  29  30
ATOM     30  C   UNL     1      -5.252 -24.695  33.550  1.00  0.00    -0.000 C 
BRANCH  30  31
ATOM     31  C   UNL     1      -6.752 -24.399  33.673  1.00  0.00    -0.003 C 
ATOM     32  C   UNL     1      -7.360 -25.116  34.875  1.00  0.00     0.004 C 
ENDBRANCH  30  31
ENDBRANCH  29  30
ENDBRANCH  28  29
ENDBRANCH  27  28
ENDBRANCH  26  27
ENDBRANCH  25  26
ENDBRANCH  24  25
ENDBRANCH  23  24
ENDBRANCH  22  23
ENDBRANCH  21  22
ENDBRANCH  20  21
ENDBRANCH  19  20
ENDBRANCH  18  19
ENDBRANCH   1  18
TORSDOF 28
ENDMDL
MODEL 3
REMARK VINA RESULT:    -4.973      5.794     13.629
REMARK INTER + INTRA:         -17.097
REMARK INTER:                 -13.519
REMARK INTRA:                  -3.578
REMARK UNBOUND:                -3.983
REMARK SMILES CCCCCCCCCCCCCCCCCCCCCCCCCCCCCC(=O)[O-]
REMARK SMILES IDX 16 1 17 2 18 3 19 4 20 5 21 6 22 7 23 8 24 9 25 10 26 11
REMARK SMILES IDX 27 12 28 13 29 14 30 15 31 16 32 17 15 18 14 19 13 20 12 21
REMARK SMILES IDX 11 22 10 23 9 24 8 25 7 26 6 27 5 28 4 29 3 30 2 31 1 32
REMARK H PARENT
REMARK Flexibility Score: inf
ROOT
ATOM      1  C   UNL     1     -15.795 -24.250  21.593  1.00  0.00     0.000 C 
ENDROOT
BRANCH   1   2
ATOM      2  C   UNL     1     -14.607 -24.140  22.564  1.00  0.00     0.000 C 
BRANCH   2   3
ATOM      3  C   UNL     1     -14.432 -25.392  23.436  1.00  0.00     0.000 C 
BRANCH   3   4
ATOM      4  C   UNL     1     -13.325 -25.189  24.477  1.00  0.00     0.000 C 
BRANCH   4   5
ATOM      5  C   UNL     1     -13.070 -23.695  24.725  1.00  0.00     0.000 C 
BRANCH   5   6
ATOM      6  C   UNL     1     -11.811 -23.436  25.572  1.00  0.00     0.000 C 
BRANCH   6   7
ATOM      7  C   UNL     1     -10.706 -24.503  25.439  1.00  0.00     0.000 C 
BRANCH   7   8
ATOM      8  C   UNL     1     -10.364 -25.255  26.740  1.00  0.00     0.000 C 
BRANCH   8   9
ATOM      9  C   UNL     1     -10.524 -26.786  26.669  1.00  0.00     0.000 C 
BRANCH   9  10
ATOM     10  C   UNL     1      -9.811 -27.567  27.788  1.00  0.00     0.000 C 
BRANCH  10  11
ATOM     11  C   UNL     1      -8.342 -27.156  27.963  1.00  0.00     0.000 C 
BRANCH  11  12
ATOM     12  C   UNL     1      -7.946 -27.158  29.447  1.00  0.00     0.000 C 
BRANCH  12  13
ATOM     13  C   UNL     1      -9.122 -26.813  30.379  1.00  0.00     0.006 C 
BRANCH  13  14
ATOM     14  C   UNL     1      -9.342 -25.307  30.586  1.00  0.00     0.053 C 
BRANCH  14  15
ATOM     15  C   UNL     1      -8.611 -24.793  31.788  1.00  0.00     0.041 C 
ATOM     16  O   UNL     1      -7.793 -23.843  31.675  1.00  0.00    -0.550 OA
ATOM     17  O   UNL     1      -8.810 -25.386  33.028  1.00  0.00    -0.550 OA
ENDBRANCH  14  15
ENDBRANCH  13  14
ENDBRANCH  12  13
ENDBRANCH  11  12
ENDBRANCH  10  11
ENDBRANCH   9  10
ENDBRANCH   8   9
ENDBRANCH   7   8
ENDBRANCH   6   7
ENDBRANCH   5   6
ENDBRANCH   4   5
ENDBRANCH   3   4
ENDBRANCH   2   3
ENDBRANCH   1   2
BRANCH   1  18
ATOM     18  C   UNL     1     -15.607 -23.518  20.248  1.00  0.00     0.000 C 
BRANCH  18  19
ATOM     19  C   UNL     1     -14.832 -22.192  20.333  1.00  0.00     0.000 C 
BRANCH  19  20
ATOM     20  C   UNL     1     -14.278 -21.739  18.971  1.00  0.00     0.000 C 
BRANCH  20  21
ATOM     21  C   UNL     1     -14.951 -22.457  17.792  1.00  0.00     0.000 C 
BRANCH  21  22
ATOM     22  C   UNL     1     -15.550 -21.477  16.767  1.00  0.00     0.000 C 
BRANCH  22  23
ATOM     23  C   UNL     1     -17.037 -21.745  16.486  1.00  0.00     0.000 C 
BRANCH  23  24
ATOM     24  C   UNL     1     -17.531 -23.051  17.130  1.00  0.00    -0.000 C 
BRANCH  24  25
ATOM     25  C   UNL     1     -19.047 -23.057  17.388  1.00  0.00    -0.000 C 
BRANCH  25  26
ATOM     26  C   UNL     1     -19.539 -22.062  18.459  1.00  0.00    -0.000 C 
BRANCH  26  27
ATOM     27  C   UNL     1     -18.663 -21.969  19.722  1.00  0.00    -0.000 C 
BRANCH  27  28
ATOM     28  C   UNL     1     -18.562 -20.538  20.278  1.00  0.00    -0.000 C 
BRANCH  28  29
ATOM     29  C   UNL     1     -17.705 -19.617  19.384  1.00  0.00    -0.000 C 
BRANCH  29  30
ATOM     30  C   UNL     1     -16.527 -18.953  20.117  1.00  0.00    -0.000 C 
BRANCH  30  31
ATOM     31  C   UNL     1     -15.463 -18.395  19.162  1.00  0.00    -0.003 C 
ATOM     32  C   UNL     1     -14.859 -17.103  19.702  1.00  0.00     0.004 C 
ENDBRANCH  30  31
ENDBRANCH  29  30
ENDBRANCH  28  29
ENDBRANCH  27  28
ENDBRANCH  26  27
ENDBRANCH  25  26
ENDBRANCH  24  25
ENDBRANCH  23  24
ENDBRANCH  22  23
ENDBRANCH  21  22
ENDBRANCH  20  21
ENDBRANCH  19  20
ENDBRANCH  18  19
ENDBRANCH   1  18
TORSDOF 28
ENDMDL
MODEL 4
REMARK VINA RESULT:    -4.938      3.951      5.338
REMARK INTER + INTRA:         -17.005
REMARK INTER:                 -13.959
REMARK INTRA:                  -3.046
REMARK UNBOUND:                -3.983
REMARK SMILES CCCCCCCCCCCCCCCCCCCCCCCCCCCCCC(=O)[O-]
REMARK SMILES IDX 16 1 17 2 18 3 19 4 20 5 21 6 22 7 23 8 24 9 25 10 26 11
REMARK SMILES IDX 27 12 28 13 29 14 30 15 31 16 32 17 15 18 14 19 13 20 12 21
REMARK SMILES IDX 11 22 10 23 9 24 8 25 7 26 6 27 5 28 4 29 3 30 2 31 1 32
REMARK H PARENT
REMARK Flexibility Score: inf
ROOT
ATOM      1  C   UNL     1     -10.408 -24.972  27.755  1.00  0.00     0.000 C 
ENDROOT
BRANCH   1   2
ATOM      2  C   UNL     1     -10.350 -24.319  26.362  1.00  0.00     0.000 C 
BRANCH   2   3
ATOM      3  C   UNL     1     -10.887 -22.880  26.356  1.00  0.00     0.000 C 
BRANCH   3   4
ATOM      4  C   UNL     1     -12.064 -22.736  25.383  1.00  0.00     0.000 C 
BRANCH   4   5
ATOM      5  C   UNL     1     -12.502 -24.105  24.842  1.00  0.00     0.000 C 
BRANCH   5   6
ATOM      6  C   UNL     1     -13.997 -24.153  24.478  1.00  0.00     0.000 C 
BRANCH   6   7
ATOM      7  C   UNL     1     -14.369 -25.175  23.384  1.00  0.00     0.000 C 
BRANCH   7   8
ATOM      8  C   UNL     1     -15.368 -24.666  22.327  1.00  0.00     0.000 C 
BRANCH   8   9
ATOM      9  C   UNL     1     -14.848 -23.521  21.436  1.00  0.00     0.000 C 
BRANCH   9  10
ATOM     10  C   UNL     1     -15.772 -23.134  20.268  1.00  0.00     0.000 C 
BRANCH  10  11
ATOM     11  C   UNL     1     -15.195 -22.011  19.394  1.00  0.00     0.000 C 
BRANCH  11  12
ATOM     12  C   UNL     1     -14.845 -22.532  17.992  1.00  0.00     0.000 C 
BRANCH  12  13
ATOM     13  C   UNL     1     -15.445 -21.667  16.868  1.00  0.00     0.006 C 
BRANCH  13  14
ATOM     14  C   UNL     1     -16.953 -21.407  17.009  1.00  0.00     0.053 C 
BRANCH  14  15
ATOM     15  C   UNL     1     -17.747 -22.676  16.966  1.00  0.00     0.041 C 
ATOM     16  O   UNL     1     -18.496 -22.989  17.928  1.00  0.00    -0.550 OA
ATOM     17  O   UNL     1     -17.636 -23.529  15.875  1.00  0.00    -0.550 OA
ENDBRANCH  14  15
ENDBRANCH  13  14
ENDBRANCH  12  13
ENDBRANCH  11  12
ENDBRANCH  10  11
ENDBRANCH   9  10
ENDBRANCH   8   9
ENDBRANCH   7   8
ENDBRANCH   6   7
ENDBRANCH   5   6
ENDBRANCH   4   5
ENDBRANCH   3   4
ENDBRANCH   2   3
ENDBRANCH   1   2
BRANCH   1  18
ATOM     18  C   UNL     1     -10.626 -26.499  27.750  1.00  0.00     0.000 C 
BRANCH  18  19
ATOM     19  C   UNL     1      -9.338 -27.338  27.685  1.00  0.00     0.000 C 
BRANCH  19  20
ATOM     20  C   UNL     1      -8.119 -26.602  28.267  1.00  0.00     0.000 C 
BRANCH  20  21
ATOM     21  C   UNL     1      -6.965 -27.555  28.614  1.00  0.00     0.000 C 
BRANCH  21  22
ATOM     22  C   UNL     1      -6.016 -26.971  29.676  1.00  0.00     0.000 C 
BRANCH  22  23
ATOM     23  C   UNL     1      -5.823 -27.907  30.880  1.00  0.00     0.000 C 
BRANCH  23  24
ATOM     24  C   UNL     1      -4.956 -27.276  31.982  1.00  0.00    -0.000 C 
BRANCH  24  25
ATOM     25  C   UNL     1      -5.213 -25.770  32.159  1.00  0.00    -0.000 C 
BRANCH  25  26
ATOM     26  C   UNL     1      -5.925 -25.370  33.467  1.00  0.00    -0.000 C 
BRANCH  26  27
ATOM     27  C   UNL     1      -7.340 -24.788  33.294  1.00  0.00    -0.000 C 
BRANCH  27  28
ATOM     28  C   UNL     1      -7.602 -24.261  31.872  1.00  0.00    -0.000 C 
BRANCH  28  29
ATOM     29  C   UNL     1      -8.845 -24.907  31.225  1.00  0.00    -0.000 C 
BRANCH  29  30
ATOM     30  C   UNL     1      -9.218 -26.277  31.817  1.00  0.00    -0.000 C 
BRANCH  30  31
ATOM     31  C   UNL     1     -10.667 -26.339  32.319  1.00  0.00    -0.003 C 
ATOM     32  C   UNL     1     -10.781 -25.805  33.744  1.00  0.00     0.004 C 
ENDBRANCH  30  31
ENDBRANCH  29  30
ENDBRANCH  28  29
ENDBRANCH  27  28
ENDBRANCH  26  27
ENDBRANCH  25  26
ENDBRANCH  24  25
ENDBRANCH  23  24
ENDBRANCH  22  23
ENDBRANCH  21  22
ENDBRANCH  20  21
ENDBRANCH  19  20
ENDBRANCH  18  19
ENDBRANCH   1  18
TORSDOF 28
ENDMDL
MODEL 5
REMARK VINA RESULT:    -4.921      6.227     11.234
REMARK INTER + INTRA:         -16.960
REMARK INTER:                 -13.466
REMARK INTRA:                  -3.494
REMARK UNBOUND:                -3.983
REMARK SMILES CCCCCCCCCCCCCCCCCCCCCCCCCCCCCC(=O)[O-]
REMARK SMILES IDX 16 1 17 2 18 3 19 4 20 5 21 6 22 7 23 8 24 9 25 10 26 11
REMARK SMILES IDX 27 12 28 13 29 14 30 15 31 16 32 17 15 18 14 19 13 20 12 21
REMARK SMILES IDX 11 22 10 23 9 24 8 25 7 26 6 27 5 28 4 29 3 30 2 31 1 32
REMARK H PARENT
REMARK Flexibility Score: inf
ROOT
ATOM      1  C   UNL     1     -14.184 -21.600  19.428  1.00  0.00     0.000 C 
ENDROOT
BRANCH   1   2
ATOM      2  C   UNL     1     -14.652 -22.248  18.112  1.00  0.00     0.000 C 
BRANCH   2   3
ATOM      3  C   UNL     1     -15.177 -21.223  17.098  1.00  0.00     0.000 C 
BRANCH   3   4
ATOM      4  C   UNL     1     -16.309 -21.817  16.250  1.00  0.00     0.000 C 
BRANCH   4   5
ATOM      5  C   UNL     1     -16.731 -23.194  16.783  1.00  0.00     0.000 C 
BRANCH   5   6
ATOM      6  C   UNL     1     -18.153 -23.593  16.348  1.00  0.00     0.000 C 
BRANCH   6   7
ATOM      7  C   UNL     1     -19.285 -23.044  17.239  1.00  0.00     0.000 C 
BRANCH   7   8
ATOM      8  C   UNL     1     -18.861 -22.657  18.669  1.00  0.00     0.000 C 
BRANCH   8   9
ATOM      9  C   UNL     1     -19.737 -21.582  19.341  1.00  0.00     0.000 C 
BRANCH   9  10
ATOM     10  C   UNL     1     -19.045 -20.225  19.566  1.00  0.00     0.000 C 
BRANCH  10  11
ATOM     11  C   UNL     1     -17.567 -20.365  19.956  1.00  0.00     0.000 C 
BRANCH  11  12
ATOM     12  C   UNL     1     -16.911 -18.986  20.122  1.00  0.00     0.000 C 
BRANCH  12  13
ATOM     13  C   UNL     1     -16.568 -18.323  18.775  1.00  0.00     0.006 C 
BRANCH  13  14
ATOM     14  C   UNL     1     -15.197 -17.631  18.743  1.00  0.00     0.053 C 
BRANCH  14  15
ATOM     15  C   UNL     1     -15.190 -16.363  19.540  1.00  0.00     0.041 C 
ATOM     16  O   UNL     1     -15.848 -15.364  19.150  1.00  0.00    -0.550 OA
ATOM     17  O   UNL     1     -14.431 -16.276  20.701  1.00  0.00    -0.550 OA
ENDBRANCH  14  15
ENDBRANCH  13  14
ENDBRANCH  12  13
ENDBRANCH  11  12
ENDBRANCH  10  11
ENDBRANCH   9  10
ENDBRANCH   8   9
ENDBRANCH   7   8
ENDBRANCH   6   7
ENDBRANCH   5   6
ENDBRANCH   4   5
ENDBRANCH   3   4
ENDBRANCH   2   3
ENDBRANCH   1   2
BRANCH   1  18
ATOM     18  C   UNL     1     -14.543 -22.386  20.705  1.00  0.00     0.000 C 
BRANCH  18  19
ATOM     19  C   UNL     1     -15.587 -23.500  20.511  1.00  0.00     0.000 C 
BRANCH  19  20
ATOM     20  C   UNL     1     -15.672 -24.452  21.717  1.00  0.00     0.000 C 
BRANCH  20  21
ATOM     21  C   UNL     1     -14.486 -24.291  22.680  1.00  0.00     0.000 C 
BRANCH  21  22
ATOM     22  C   UNL     1     -14.199 -25.572  23.483  1.00  0.00     0.000 C 
BRANCH  22  23
ATOM     23  C   UNL     1     -13.210 -25.342  24.636  1.00  0.00     0.000 C 
BRANCH  23  24
ATOM     24  C   UNL     1     -12.861 -23.856  24.823  1.00  0.00    -0.000 C 
BRANCH  24  25
ATOM     25  C   UNL     1     -11.529 -23.640  25.564  1.00  0.00    -0.000 C 
BRANCH  25  26
ATOM     26  C   UNL     1     -10.677 -24.909  25.773  1.00  0.00    -0.000 C 
BRANCH  26  27
ATOM     27  C   UNL     1     -10.325 -25.228  27.237  1.00  0.00    -0.000 C 
BRANCH  27  28
ATOM     28  C   UNL     1     -10.847 -26.602  27.694  1.00  0.00    -0.000 C 
BRANCH  28  29
ATOM     29  C   UNL     1      -9.851 -27.333  28.620  1.00  0.00    -0.000 C 
BRANCH  29  30
ATOM     30  C   UNL     1      -8.386 -26.906  28.423  1.00  0.00    -0.000 C 
BRANCH  30  31
ATOM     31  C   UNL     1      -7.724 -26.418  29.719  1.00  0.00    -0.003 C 
ATOM     32  C   UNL     1      -6.592 -27.347  30.145  1.00  0.00     0.004 C 
ENDBRANCH  30  31
ENDBRANCH  29  30
ENDBRANCH  28  29
ENDBRANCH  27  28
ENDBRANCH  26  27
ENDBRANCH  25  26
ENDBRANCH  24  25
ENDBRANCH  23  24
ENDBRANCH  22  23
ENDBRANCH  21  22
ENDBRANCH  20  21
ENDBRANCH  19  20
ENDBRANCH  18  19
ENDBRANCH   1  18
TORSDOF 28
ENDMDL
MODEL 6
REMARK VINA RESULT:    -4.833      3.741      8.093
REMARK INTER + INTRA:         -16.728
REMARK INTER:                 -13.098
REMARK INTRA:                  -3.630
REMARK UNBOUND:                -3.983
REMARK SMILES CCCCCCCCCCCCCCCCCCCCCCCCCCCCCC(=O)[O-]
REMARK SMILES IDX 16 1 17 2 18 3 19 4 20 5 21 6 22 7 23 8 24 9 25 10 26 11
REMARK SMILES IDX 27 12 28 13 29 14 30 15 31 16 32 17 15 18 14 19 13 20 12 21
REMARK SMILES IDX 11 22 10 23 9 24 8 25 7 26 6 27 5 28 4 29 3 30 2 31 1 32
REMARK H PARENT
REMARK Flexibility Score: inf
ROOT
ATOM      1  C   UNL     1      -8.027 -24.945  31.259  1.00  0.00     0.000 C 
ENDROOT
BRANCH   1   2
ATOM      2  C   UNL     1      -7.317 -24.299  32.462  1.00  0.00     0.000 C 
BRANCH   2   3
ATOM      3  C   UNL     1      -7.193 -25.249  33.662  1.00  0.00     0.000 C 
BRANCH   3   4
ATOM      4  C   UNL     1      -6.635 -26.611  33.231  1.00  0.00     0.000 C 
BRANCH   4   5
ATOM      5  C   UNL     1      -5.104 -26.639  33.346  1.00  0.00     0.000 C 
BRANCH   5   6
ATOM      6  C   UNL     1      -4.427 -27.327  32.146  1.00  0.00     0.000 C 
BRANCH   6   7
ATOM      7  C   UNL     1      -5.395 -27.892  31.088  1.00  0.00     0.000 C 
BRANCH   7   8
ATOM      8  C   UNL     1      -5.357 -27.182  29.721  1.00  0.00     0.000 C 
BRANCH   8   9
ATOM      9  C   UNL     1      -6.358 -27.717  28.679  1.00  0.00     0.000 C 
BRANCH   9  10
ATOM     10  C   UNL     1      -7.790 -27.168  28.810  1.00  0.00     0.000 C 
BRANCH  10  11
ATOM     11  C   UNL     1      -8.650 -27.434  27.566  1.00  0.00     0.000 C 
BRANCH  11  12
ATOM     12  C   UNL     1     -10.137 -27.532  27.938  1.00  0.00     0.000 C 
BRANCH  12  13
ATOM     13  C   UNL     1     -10.841 -26.162  27.946  1.00  0.00     0.006 C 
BRANCH  13  14
ATOM     14  C   UNL     1      -9.964 -25.000  27.456  1.00  0.00     0.053 C 
BRANCH  14  15
ATOM     15  C   UNL     1     -10.649 -24.187  26.400  1.00  0.00     0.041 C 
ATOM     16  O   UNL     1     -10.850 -24.672  25.256  1.00  0.00    -0.550 OA
ATOM     17  O   UNL     1     -11.038 -22.882  26.672  1.00  0.00    -0.550 OA
ENDBRANCH  14  15
ENDBRANCH  13  14
ENDBRANCH  12  13
ENDBRANCH  11  12
ENDBRANCH  10  11
ENDBRANCH   9  10
ENDBRANCH   8   9
ENDBRANCH   7   8
ENDBRANCH   6   7
ENDBRANCH   5   6
ENDBRANCH   4   5
ENDBRANCH   3   4
ENDBRANCH   2   3
ENDBRANCH   1   2
BRANCH   1  18
ATOM     18  C   UNL     1      -9.562 -25.036  31.380  1.00  0.00     0.000 C 
BRANCH  18  19
ATOM     19  C   UNL     1     -10.114 -26.457  31.591  1.00  0.00     0.000 C 
BRANCH  19  20
ATOM     20  C   UNL     1     -11.502 -26.463  32.256  1.00  0.00     0.000 C 
BRANCH  20  21
ATOM     21  C   UNL     1     -11.452 -26.020  33.727  1.00  0.00     0.000 C 
BRANCH  21  22
ATOM     22  C   UNL     1     -12.849 -25.722  34.301  1.00  0.00     0.000 C 
BRANCH  22  23
ATOM     23  C   UNL     1     -13.977 -25.996  33.294  1.00  0.00     0.000 C 
BRANCH  23  24
ATOM     24  C   UNL     1     -15.301 -25.326  33.697  1.00  0.00    -0.000 C 
BRANCH  24  25
ATOM     25  C   UNL     1     -15.761 -25.710  35.114  1.00  0.00    -0.000 C 
BRANCH  25  26
ATOM     26  C   UNL     1     -17.231 -26.161  35.233  1.00  0.00    -0.000 C 
BRANCH  26  27
ATOM     27  C   UNL     1     -18.109 -25.869  34.002  1.00  0.00    -0.000 C 
BRANCH  27  28
ATOM     28  C   UNL     1     -19.003 -27.058  33.607  1.00  0.00    -0.000 C 
BRANCH  28  29
ATOM     29  C   UNL     1     -18.188 -28.334  33.313  1.00  0.00    -0.000 C 
BRANCH  29  30
ATOM     30  C   UNL     1     -17.237 -28.207  32.111  1.00  0.00    -0.000 C 
BRANCH  30  31
ATOM     31  C   UNL     1     -17.914 -27.607  30.871  1.00  0.00    -0.003 C 
ATOM     32  C   UNL     1     -17.174 -26.365  30.383  1.00  0.00     0.004 C 
ENDBRANCH  30  31
ENDBRANCH  29  30
ENDBRANCH  28  29
ENDBRANCH  27  28
ENDBRANCH  26  27
ENDBRANCH  25  26
ENDBRANCH  24  25
ENDBRANCH  23  24
ENDBRANCH  22  23
ENDBRANCH  21  22
ENDBRANCH  20  21
ENDBRANCH  19  20
ENDBRANCH  18  19
ENDBRANCH   1  18
TORSDOF 28
ENDMDL
MODEL 7
REMARK VINA RESULT:    -4.825      4.272      9.220
REMARK INTER + INTRA:         -16.705
REMARK INTER:                 -12.852
REMARK INTRA:                  -3.853
REMARK UNBOUND:                -3.983
REMARK SMILES CCCCCCCCCCCCCCCCCCCCCCCCCCCCCC(=O)[O-]
REMARK SMILES IDX 16 1 17 2 18 3 19 4 20 5 21 6 22 7 23 8 24 9 25 10 26 11
REMARK SMILES IDX 27 12 28 13 29 14 30 15 31 16 32 17 15 18 14 19 13 20 12 21
REMARK SMILES IDX 11 22 10 23 9 24 8 25 7 26 6 27 5 28 4 29 3 30 2 31 1 32
REMARK H PARENT
REMARK Flexibility Score: inf
ROOT
ATOM      1  C   UNL     1     -10.219 -25.735  33.389  1.00  0.00     0.000 C 
ENDROOT
BRANCH   1   2
ATOM      2  C   UNL     1      -9.306 -25.882  32.158  1.00  0.00     0.000 C 
BRANCH   2   3
ATOM      3  C   UNL     1      -8.918 -24.532  31.540  1.00  0.00     0.000 C 
BRANCH   3   4
ATOM      4  C   UNL     1      -7.415 -24.269  31.689  1.00  0.00     0.000 C 
BRANCH   4   5
ATOM      5  C   UNL     1      -7.006 -24.236  33.169  1.00  0.00     0.000 C 
BRANCH   5   6
ATOM      6  C   UNL     1      -5.772 -25.106  33.469  1.00  0.00     0.000 C 
BRANCH   6   7
ATOM      7  C   UNL     1      -5.307 -26.000  32.302  1.00  0.00     0.000 C 
BRANCH   7   8
ATOM      8  C   UNL     1      -5.819 -27.453  32.349  1.00  0.00     0.000 C 
BRANCH   8   9
ATOM      9  C   UNL     1      -6.472 -27.957  31.048  1.00  0.00     0.000 C 
BRANCH   9  10
ATOM     10  C   UNL     1      -6.332 -27.013  29.841  1.00  0.00     0.000 C 
BRANCH  10  11
ATOM     11  C   UNL     1      -7.030 -27.544  28.581  1.00  0.00     0.000 C 
BRANCH  11  12
ATOM     12  C   UNL     1      -8.266 -26.697  28.241  1.00  0.00     0.000 C 
BRANCH  12  13
ATOM     13  C   UNL     1      -9.564 -27.268  28.843  1.00  0.00     0.006 C 
BRANCH  13  14
ATOM     14  C   UNL     1     -10.756 -26.300  28.805  1.00  0.00     0.053 C 
BRANCH  14  15
ATOM     15  C   UNL     1     -10.889 -25.625  27.474  1.00  0.00     0.041 C 
ATOM     16  O   UNL     1     -11.246 -26.283  26.462  1.00  0.00    -0.550 OA
ATOM     17  O   UNL     1     -10.588 -24.275  27.347  1.00  0.00    -0.550 OA
ENDBRANCH  14  15
ENDBRANCH  13  14
ENDBRANCH  12  13
ENDBRANCH  11  12
ENDBRANCH  10  11
ENDBRANCH   9  10
ENDBRANCH   8   9
ENDBRANCH   7   8
ENDBRANCH   6   7
ENDBRANCH   5   6
ENDBRANCH   4   5
ENDBRANCH   3   4
ENDBRANCH   2   3
ENDBRANCH   1   2
BRANCH   1  18
ATOM     18  C   UNL     1     -11.691 -26.133  33.160  1.00  0.00     0.000 C 
BRANCH  18  19
ATOM     19  C   UNL     1     -12.652 -25.753  34.301  1.00  0.00     0.000 C 
BRANCH  19  20
ATOM     20  C   UNL     1     -14.123 -25.713  33.851  1.00  0.00     0.000 C 
BRANCH  20  21
ATOM     21  C   UNL     1     -15.101 -25.704  35.036  1.00  0.00     0.000 C 
BRANCH  21  22
ATOM     22  C   UNL     1     -16.573 -25.675  34.586  1.00  0.00     0.000 C 
BRANCH  22  23
ATOM     23  C   UNL     1     -17.479 -26.556  35.460  1.00  0.00     0.000 C 
BRANCH  23  24
ATOM     24  C   UNL     1     -18.782 -26.951  34.745  1.00  0.00    -0.000 C 
BRANCH  24  25
ATOM     25  C   UNL     1     -18.645 -28.239  33.915  1.00  0.00    -0.000 C 
BRANCH  25  26
ATOM     26  C   UNL     1     -19.355 -28.221  32.546  1.00  0.00    -0.000 C 
BRANCH  26  27
ATOM     27  C   UNL     1     -18.425 -28.303  31.322  1.00  0.00    -0.000 C 
BRANCH  27  28
ATOM     28  C   UNL     1     -16.941 -28.109  31.682  1.00  0.00    -0.000 C 
BRANCH  28  29
ATOM     29  C   UNL     1     -16.390 -26.753  31.194  1.00  0.00    -0.000 C 
BRANCH  29  30
ATOM     30  C   UNL     1     -17.452 -25.835  30.565  1.00  0.00    -0.000 C 
BRANCH  30  31
ATOM     31  C   UNL     1     -17.807 -24.633  31.451  1.00  0.00    -0.003 C 
ATOM     32  C   UNL     1     -17.035 -23.387  31.026  1.00  0.00     0.004 C 
ENDBRANCH  30  31
ENDBRANCH  29  30
ENDBRANCH  28  29
ENDBRANCH  27  28
ENDBRANCH  26  27
ENDBRANCH  25  26
ENDBRANCH  24  25
ENDBRANCH  23  24
ENDBRANCH  22  23
ENDBRANCH  21  22
ENDBRANCH  20  21
ENDBRANCH  19  20
ENDBRANCH  18  19
ENDBRANCH   1  18
TORSDOF 28
ENDMDL
MODEL 8
REMARK VINA RESULT:    -4.811      3.171      6.246
REMARK INTER + INTRA:         -16.668
REMARK INTER:                 -13.624
REMARK INTRA:                  -3.045
REMARK UNBOUND:                -3.983
REMARK SMILES CCCCCCCCCCCCCCCCCCCCCCCCCCCCCC(=O)[O-]
REMARK SMILES IDX 16 1 17 2 18 3 19 4 20 5 21 6 22 7 23 8 24 9 25 10 26 11
REMARK SMILES IDX 27 12 28 13 29 14 30 15 31 16 32 17 15 18 14 19 13 20 12 21
REMARK SMILES IDX 11 22 10 23 9 24 8 25 7 26 6 27 5 28 4 29 3 30 2 31 1 32
REMARK H PARENT
REMARK Flexibility Score: inf
ROOT
ATOM      1  C   UNL     1     -11.417 -25.770  34.372  1.00  0.00     0.000 C 
ENDROOT
BRANCH   1   2
ATOM      2  C   UNL     1     -12.915 -25.768  34.725  1.00  0.00     0.000 C 
BRANCH   2   3
ATOM      3  C   UNL     1     -13.819 -25.764  33.484  1.00  0.00     0.000 C 
BRANCH   3   4
ATOM      4  C   UNL     1     -15.273 -25.458  33.863  1.00  0.00     0.000 C 
BRANCH   4   5
ATOM      5  C   UNL     1     -16.237 -25.910  32.756  1.00  0.00     0.000 C 
BRANCH   5   6
ATOM      6  C   UNL     1     -15.584 -26.879  31.754  1.00  0.00     0.000 C 
BRANCH   6   7
ATOM      7  C   UNL     1     -16.518 -27.977  31.207  1.00  0.00     0.000 C 
BRANCH   7   8
ATOM      8  C   UNL     1     -17.747 -28.287  32.084  1.00  0.00     0.000 C 
BRANCH   8   9
ATOM      9  C   UNL     1     -19.097 -28.282  31.342  1.00  0.00     0.000 C 
BRANCH   9  10
ATOM     10  C   UNL     1     -18.996 -28.334  29.807  1.00  0.00     0.000 C 
BRANCH  10  11
ATOM     11  C   UNL     1     -19.261 -26.976  29.142  1.00  0.00     0.000 C 
BRANCH  11  12
ATOM     12  C   UNL     1     -18.428 -26.820  27.861  1.00  0.00     0.000 C 
BRANCH  12  13
ATOM     13  C   UNL     1     -17.508 -28.027  27.598  1.00  0.00     0.006 C 
BRANCH  13  14
ATOM     14  C   UNL     1     -16.025 -27.665  27.428  1.00  0.00     0.053 C 
BRANCH  14  15
ATOM     15  C   UNL     1     -15.667 -27.426  25.994  1.00  0.00     0.041 C 
ATOM     16  O   UNL     1     -15.959 -26.334  25.440  1.00  0.00    -0.550 OA
ATOM     17  O   UNL     1     -15.037 -28.423  25.259  1.00  0.00    -0.550 OA
ENDBRANCH  14  15
ENDBRANCH  13  14
ENDBRANCH  12  13
ENDBRANCH  11  12
ENDBRANCH  10  11
ENDBRANCH   9  10
ENDBRANCH   8   9
ENDBRANCH   7   8
ENDBRANCH   6   7
ENDBRANCH   5   6
ENDBRANCH   4   5
ENDBRANCH   3   4
ENDBRANCH   2   3
ENDBRANCH   1   2
BRANCH   1  18
ATOM     18  C   UNL     1     -11.093 -26.125  32.906  1.00  0.00     0.000 C 
BRANCH  18  19
ATOM     19  C   UNL     1      -9.596 -26.107  32.550  1.00  0.00     0.000 C 
BRANCH  19  20
ATOM     20  C   UNL     1      -9.261 -25.091  31.443  1.00  0.00     0.000 C 
BRANCH  20  21
ATOM     21  C   UNL     1      -8.021 -24.246  31.775  1.00  0.00     0.000 C 
BRANCH  21  22
ATOM     22  C   UNL     1      -7.287 -24.743  33.033  1.00  0.00     0.000 C 
BRANCH  22  23
ATOM     23  C   UNL     1      -5.954 -25.436  32.709  1.00  0.00     0.000 C 
BRANCH  23  24
ATOM     24  C   UNL     1      -5.561 -25.291  31.229  1.00  0.00    -0.000 C 
BRANCH  24  25
ATOM     25  C   UNL     1      -5.073 -26.610  30.605  1.00  0.00    -0.000 C 
BRANCH  25  26
ATOM     26  C   UNL     1      -5.834 -27.064  29.342  1.00  0.00    -0.000 C 
BRANCH  26  27
ATOM     27  C   UNL     1      -7.353 -27.237  29.518  1.00  0.00    -0.000 C 
BRANCH  27  28
ATOM     28  C   UNL     1      -8.136 -27.023  28.210  1.00  0.00    -0.000 C 
BRANCH  28  29
ATOM     29  C   UNL     1      -9.663 -27.008  28.433  1.00  0.00    -0.000 C 
BRANCH  29  30
ATOM     30  C   UNL     1     -10.353 -25.722  27.946  1.00  0.00    -0.000 C 
BRANCH  30  31
ATOM     31  C   UNL     1     -10.708 -25.760  26.453  1.00  0.00    -0.003 C 
ATOM     32  C   UNL     1     -10.752 -24.355  25.860  1.00  0.00     0.004 C 
ENDBRANCH  30  31
ENDBRANCH  29  30
ENDBRANCH  28  29
ENDBRANCH  27  28
ENDBRANCH  26  27
ENDBRANCH  25  26
ENDBRANCH  24  25
ENDBRANCH  23  24
ENDBRANCH  22  23
ENDBRANCH  21  22
ENDBRANCH  20  21
ENDBRANCH  19  20
ENDBRANCH  18  19
ENDBRANCH   1  18
TORSDOF 28
ENDMDL
MODEL 9
REMARK VINA RESULT:    -4.809      4.723      7.045
REMARK INTER + INTRA:         -16.663
REMARK INTER:                 -13.661
REMARK INTRA:                  -3.003
REMARK UNBOUND:                -3.983
REMARK SMILES CCCCCCCCCCCCCCCCCCCCCCCCCCCCCC(=O)[O-]
REMARK SMILES IDX 16 1 17 2 18 3 19 4 20 5 21 6 22 7 23 8 24 9 25 10 26 11
REMARK SMILES IDX 27 12 28 13 29 14 30 15 31 16 32 17 15 18 14 19 13 20 12 21
REMARK SMILES IDX 11 22 10 23 9 24 8 25 7 26 6 27 5 28 4 29 3 30 2 31 1 32
REMARK H PARENT
REMARK Flexibility Score: inf
ROOT
ATOM      1  C   UNL     1     -11.044 -25.215  25.415  1.00  0.00     0.000 C 
ENDROOT
BRANCH   1   2
ATOM      2  C   UNL     1     -12.451 -24.908  24.871  1.00  0.00     0.000 C 
BRANCH   2   3
ATOM      3  C   UNL     1     -13.347 -26.153  24.802  1.00  0.00     0.000 C 
BRANCH   3   4
ATOM      4  C   UNL     1     -14.542 -25.919  23.870  1.00  0.00     0.000 C 
BRANCH   4   5
ATOM      5  C   UNL     1     -14.532 -24.490  23.309  1.00  0.00     0.000 C 
BRANCH   5   6
ATOM      6  C   UNL     1     -15.253 -24.374  21.954  1.00  0.00     0.000 C 
BRANCH   6   7
ATOM      7  C   UNL     1     -14.787 -23.204  21.065  1.00  0.00     0.000 C 
BRANCH   7   8
ATOM      8  C   UNL     1     -15.619 -22.981  19.788  1.00  0.00     0.000 C 
BRANCH   8   9
ATOM      9  C   UNL     1     -14.895 -22.217  18.662  1.00  0.00     0.000 C 
BRANCH   9  10
ATOM     10  C   UNL     1     -15.234 -22.686  17.236  1.00  0.00     0.000 C 
BRANCH  10  11
ATOM     11  C   UNL     1     -16.078 -21.669  16.455  1.00  0.00     0.000 C 
BRANCH  11  12
ATOM     12  C   UNL     1     -17.533 -21.670  16.950  1.00  0.00     0.000 C 
BRANCH  12  13
ATOM     13  C   UNL     1     -18.048 -20.259  17.289  1.00  0.00     0.006 C 
BRANCH  13  14
ATOM     14  C   UNL     1     -17.740 -19.802  18.723  1.00  0.00     0.053 C 
BRANCH  14  15
ATOM     15  C   UNL     1     -16.834 -18.609  18.750  1.00  0.00     0.041 C 
ATOM     16  O   UNL     1     -15.614 -18.732  18.467  1.00  0.00    -0.550 OA
ATOM     17  O   UNL     1     -17.334 -17.366  19.117  1.00  0.00    -0.550 OA
ENDBRANCH  14  15
ENDBRANCH  13  14
ENDBRANCH  12  13
ENDBRANCH  11  12
ENDBRANCH  10  11
ENDBRANCH   9  10
ENDBRANCH   8   9
ENDBRANCH   7   8
ENDBRANCH   6   7
ENDBRANCH   5   6
ENDBRANCH   4   5
ENDBRANCH   3   4
ENDBRANCH   2   3
ENDBRANCH   1   2
BRANCH   1  18
ATOM     18  C   UNL     1     -10.619 -24.374  26.636  1.00  0.00     0.000 C 
BRANCH  18  19
ATOM     19  C   UNL     1      -9.702 -25.099  27.637  1.00  0.00     0.000 C 
BRANCH  19  20
ATOM     20  C   UNL     1      -9.853 -26.630  27.580  1.00  0.00     0.000 C 
BRANCH  20  21
ATOM     21  C   UNL     1     -10.162 -27.243  28.954  1.00  0.00     0.000 C 
BRANCH  21  22
ATOM     22  C   UNL     1     -10.709 -26.208  29.953  1.00  0.00     0.000 C 
BRANCH  22  23
ATOM     23  C   UNL     1     -10.399 -26.571  31.414  1.00  0.00     0.000 C 
BRANCH  23  24
ATOM     24  C   UNL     1      -9.729 -25.416  32.178  1.00  0.00    -0.000 C 
BRANCH  24  25
ATOM     25  C   UNL     1      -8.969 -24.447  31.255  1.00  0.00    -0.000 C 
BRANCH  25  26
ATOM     26  C   UNL     1      -7.487 -24.216  31.616  1.00  0.00    -0.000 C 
BRANCH  26  27
ATOM     27  C   UNL     1      -7.086 -24.634  33.042  1.00  0.00    -0.000 C 
BRANCH  27  28
ATOM     28  C   UNL     1      -6.212 -25.900  33.073  1.00  0.00    -0.000 C 
BRANCH  28  29
ATOM     29  C   UNL     1      -4.949 -25.766  32.196  1.00  0.00    -0.000 C 
BRANCH  29  30
ATOM     30  C   UNL     1      -4.815 -26.857  31.120  1.00  0.00    -0.000 C 
BRANCH  30  31
ATOM     31  C   UNL     1      -6.148 -27.542  30.791  1.00  0.00    -0.003 C 
ATOM     32  C   UNL     1      -6.622 -27.182  29.386  1.00  0.00     0.004 C 
ENDBRANCH  30  31
ENDBRANCH  29  30
ENDBRANCH  28  29
ENDBRANCH  27  28
ENDBRANCH  26  27
ENDBRANCH  25  26
ENDBRANCH  24  25
ENDBRANCH  23  24
ENDBRANCH  22  23
ENDBRANCH  21  22
ENDBRANCH  20  21
ENDBRANCH  19  20
ENDBRANCH  18  19
ENDBRANCH   1  18
TORSDOF 28
ENDMDL
