MODEL 1
REMARK VINA RESULT:    -4.596      0.000      0.000
REMARK INTER + INTRA:          -6.515
REMARK INTER:                  -6.343
REMARK INTRA:                  -0.172
REMARK UNBOUND:                -0.172
REMARK SMILES CCCCCCCCO
REMARK SMILES IDX 5 1 4 2 3 3 2 4 1 5 6 6 7 7 8 8 9 9
REMARK H PARENT 9 10
REMARK Flexibility Score: inf
ROOT
ATOM      1  C   UNL     1     187.183 174.819 188.851  1.00  0.00     0.000 C 
ENDROOT
BRANCH   1   2
ATOM      2  C   UNL     1     186.180 173.678 189.057  1.00  0.00    -0.000 C 
BRANCH   2   3
ATOM      3  C   UNL     1     186.602 172.427 188.278  1.00  0.00    -0.000 C 
BRANCH   3   4
ATOM      4  C   UNL     1     185.869 172.342 186.935  1.00  0.00    -0.003 C 
ATOM      5  C   UNL     1     186.854 172.282 185.771  1.00  0.00     0.004 C 
ENDBRANCH   3   4
ENDBRANCH   2   3
ENDBRANCH   1   2
BRANCH   1   6
ATOM      6  C   UNL     1     187.254 175.721 190.089  1.00  0.00     0.002 C 
BRANCH   6   7
ATOM      7  C   UNL     1     188.472 176.651 190.025  1.00  0.00     0.028 C 
BRANCH   7   8
ATOM      8  C   UNL     1     188.091 178.056 189.548  1.00  0.00     0.156 C 
BRANCH   8   9
ATOM      9  O   UNL     1     188.766 178.384 188.363  1.00  0.00    -0.396 OA
ATOM     10  H   UNL     1     188.594 179.347 188.194  1.00  0.00     0.210 HD
ENDBRANCH   8   9
ENDBRANCH   7   8
ENDBRANCH   6   7
ENDBRANCH   1   6
TORSDOF 7
ENDMDL
MODEL 2
REMARK VINA RESULT:    -3.811      9.126      9.477
REMARK INTER + INTRA:          -5.432
REMARK INTER:                  -5.268
REMARK INTRA:                  -0.164
REMARK UNBOUND:                -0.172
REMARK SMILES CCCCCCCCO
REMARK SMILES IDX 5 1 4 2 3 3 2 4 1 5 6 6 7 7 8 8 9 9
REMARK H PARENT 9 10
REMARK Flexibility Score: inf
ROOT
ATOM      1  C   UNL     1     180.916 178.410 184.942  1.00  0.00     0.000 C 
ENDROOT
BRANCH   1   2
ATOM      2  C   UNL     1     180.826 177.664 183.605  1.00  0.00    -0.000 C 
BRANCH   2   3
ATOM      3  C   UNL     1     181.539 176.309 183.681  1.00  0.00    -0.000 C 
BRANCH   3   4
ATOM      4  C   UNL     1     181.278 175.478 182.421  1.00  0.00    -0.003 C 
ATOM      5  C   UNL     1     181.901 174.090 182.535  1.00  0.00     0.004 C 
ENDBRANCH   3   4
ENDBRANCH   2   3
ENDBRANCH   1   2
BRANCH   1   6
ATOM      6  C   UNL     1     179.818 179.474 185.054  1.00  0.00     0.002 C 
BRANCH   6   7
ATOM      7  C   UNL     1     179.195 179.771 183.683  1.00  0.00     0.028 C 
BRANCH   7   8
ATOM      8  C   UNL     1     179.143 181.275 183.395  1.00  0.00     0.156 C 
BRANCH   8   9
ATOM      9  O   UNL     1     178.307 181.547 182.303  1.00  0.00    -0.396 OA
ATOM     10  H   UNL     1     178.895 181.857 181.565  1.00  0.00     0.210 HD
ENDBRANCH   8   9
ENDBRANCH   7   8
ENDBRANCH   6   7
ENDBRANCH   1   6
TORSDOF 7
ENDMDL
MODEL 3
REMARK VINA RESULT:    -3.750      8.592     10.104
REMARK INTER + INTRA:          -5.348
REMARK INTER:                  -5.268
REMARK INTRA:                  -0.080
REMARK UNBOUND:                -0.172
REMARK SMILES CCCCCCCCO
REMARK SMILES IDX 5 1 4 2 3 3 2 4 1 5 6 6 7 7 8 8 9 9
REMARK H PARENT 9 10
REMARK Flexibility Score: inf
ROOT
ATOM      1  C   UNL     1     181.802 175.832 182.532  1.00  0.00     0.000 C 
ENDROOT
BRANCH   1   2
ATOM      2  C   UNL     1     181.211 176.378 183.837  1.00  0.00    -0.000 C 
BRANCH   2   3
ATOM      3  C   UNL     1     181.115 177.908 183.800  1.00  0.00    -0.000 C 
BRANCH   3   4
ATOM      4  C   UNL     1     180.632 178.462 185.145  1.00  0.00    -0.003 C 
ATOM      5  C   UNL     1     179.666 179.626 184.948  1.00  0.00     0.004 C 
ENDBRANCH   3   4
ENDBRANCH   2   3
ENDBRANCH   1   2
BRANCH   1   6
ATOM      6  C   UNL     1     181.971 174.310 182.598  1.00  0.00     0.002 C 
BRANCH   6   7
ATOM      7  C   UNL     1     181.176 173.617 181.484  1.00  0.00     0.028 C 
BRANCH   7   8
ATOM      8  C   UNL     1     181.782 172.261 181.111  1.00  0.00     0.156 C 
BRANCH   8   9
ATOM      9  O   UNL     1     180.781 171.295 180.937  1.00  0.00    -0.396 OA
ATOM     10  H   UNL     1     180.564 170.943 181.840  1.00  0.00     0.210 HD
ENDBRANCH   8   9
ENDBRANCH   7   8
ENDBRANCH   6   7
ENDBRANCH   1   6
TORSDOF 7
ENDMDL
MODEL 4
REMARK VINA RESULT:    -3.729      8.754      9.955
REMARK INTER + INTRA:          -5.319
REMARK INTER:                  -5.114
REMARK INTRA:                  -0.205
REMARK UNBOUND:                -0.172
REMARK SMILES CCCCCCCCO
REMARK SMILES IDX 5 1 4 2 3 3 2 4 1 5 6 6 7 7 8 8 9 9
REMARK H PARENT 9 10
REMARK Flexibility Score: inf
ROOT
ATOM      1  C   UNL     1     180.643 177.613 183.590  1.00  0.00     0.000 C 
ENDROOT
BRANCH   1   2
ATOM      2  C   UNL     1     180.865 178.376 184.902  1.00  0.00    -0.000 C 
BRANCH   2   3
ATOM      3  C   UNL     1     179.793 179.455 185.099  1.00  0.00    -0.000 C 
BRANCH   3   4
ATOM      4  C   UNL     1     179.077 179.765 183.780  1.00  0.00    -0.003 C 
ATOM      5  C   UNL     1     179.240 181.232 183.395  1.00  0.00     0.004 C 
ENDBRANCH   3   4
ENDBRANCH   2   3
ENDBRANCH   1   2
BRANCH   1   6
ATOM      6  C   UNL     1     181.568 176.393 183.500  1.00  0.00     0.002 C 
BRANCH   6   7
ATOM      7  C   UNL     1     181.422 175.690 182.144  1.00  0.00     0.028 C 
BRANCH   7   8
ATOM      8  C   UNL     1     181.663 174.181 182.257  1.00  0.00     0.156 C 
BRANCH   8   9
ATOM      9  O   UNL     1     182.232 173.855 183.496  1.00  0.00    -0.396 OA
ATOM     10  H   UNL     1     182.713 172.995 183.372  1.00  0.00     0.210 HD
ENDBRANCH   8   9
ENDBRANCH   7   8
ENDBRANCH   6   7
ENDBRANCH   1   6
TORSDOF 7
ENDMDL
MODEL 5
REMARK VINA RESULT:    -3.722     10.874     11.207
REMARK INTER + INTRA:          -5.309
REMARK INTER:                  -5.122
REMARK INTRA:                  -0.187
REMARK UNBOUND:                -0.172
REMARK SMILES CCCCCCCCO
REMARK SMILES IDX 5 1 4 2 3 3 2 4 1 5 6 6 7 7 8 8 9 9
REMARK H PARENT 9 10
REMARK Flexibility Score: inf
ROOT
ATOM      1  C   UNL     1     179.390 180.296 183.798  1.00  0.00     0.000 C 
ENDROOT
BRANCH   1   2
ATOM      2  C   UNL     1     179.779 179.811 185.200  1.00  0.00    -0.000 C 
BRANCH   2   3
ATOM      3  C   UNL     1     180.544 178.484 185.132  1.00  0.00    -0.000 C 
BRANCH   3   4
ATOM      4  C   UNL     1     180.528 177.913 183.710  1.00  0.00    -0.003 C 
ATOM      5  C   UNL     1     181.557 176.798 183.551  1.00  0.00     0.004 C 
ENDBRANCH   3   4
ENDBRANCH   2   3
ENDBRANCH   1   2
BRANCH   1   6
ATOM      6  C   UNL     1     179.335 181.827 183.740  1.00  0.00     0.002 C 
BRANCH   6   7
ATOM      7  C   UNL     1     178.510 182.304 182.538  1.00  0.00     0.028 C 
BRANCH   7   8
ATOM      8  C   UNL     1     178.320 183.824 182.545  1.00  0.00     0.156 C 
BRANCH   8   9
ATOM      9  O   UNL     1     176.976 184.162 182.330  1.00  0.00    -0.396 OA
ATOM     10  H   UNL     1     176.975 185.022 181.834  1.00  0.00     0.210 HD
ENDBRANCH   8   9
ENDBRANCH   7   8
ENDBRANCH   6   7
ENDBRANCH   1   6
TORSDOF 7
ENDMDL
MODEL 6
REMARK VINA RESULT:    -3.717      8.775      9.899
REMARK INTER + INTRA:          -5.302
REMARK INTER:                  -5.075
REMARK INTRA:                  -0.227
REMARK UNBOUND:                -0.172
REMARK SMILES CCCCCCCCO
REMARK SMILES IDX 5 1 4 2 3 3 2 4 1 5 6 6 7 7 8 8 9 9
REMARK H PARENT 9 10
REMARK Flexibility Score: inf
ROOT
ATOM      1  C   UNL     1     180.281 179.349 185.665  1.00  0.00     0.000 C 
ENDROOT
BRANCH   1   2
ATOM      2  C   UNL     1     181.582 179.709 186.393  1.00  0.00    -0.000 C 
BRANCH   2   3
ATOM      3  C   UNL     1     181.427 181.015 187.182  1.00  0.00    -0.000 C 
BRANCH   3   4
ATOM      4  C   UNL     1     182.402 181.061 188.364  1.00  0.00    -0.003 C 
ATOM      5  C   UNL     1     183.033 179.695 188.613  1.00  0.00     0.004 C 
ENDBRANCH   3   4
ENDBRANCH   2   3
ENDBRANCH   1   2
BRANCH   1   6
ATOM      6  C   UNL     1     180.567 178.538 184.396  1.00  0.00     0.002 C 
BRANCH   6   7
ATOM      7  C   UNL     1     180.176 179.326 183.138  1.00  0.00     0.028 C 
BRANCH   7   8
ATOM      8  C   UNL     1     179.586 180.696 183.486  1.00  0.00     0.156 C 
BRANCH   8   9
ATOM      9  O   UNL     1     178.302 180.842 182.940  1.00  0.00    -0.396 OA
ATOM     10  H   UNL     1     178.386 181.476 182.181  1.00  0.00     0.210 HD
ENDBRANCH   8   9
ENDBRANCH   7   8
ENDBRANCH   6   7
ENDBRANCH   1   6
TORSDOF 7
ENDMDL
MODEL 7
REMARK VINA RESULT:    -3.621      9.459      9.907
REMARK INTER + INTRA:          -5.169
REMARK INTER:                  -4.730
REMARK INTRA:                  -0.440
REMARK UNBOUND:                -0.172
REMARK SMILES CCCCCCCCO
REMARK SMILES IDX 5 1 4 2 3 3 2 4 1 5 6 6 7 7 8 8 9 9
REMARK H PARENT 9 10
REMARK Flexibility Score: inf
ROOT
ATOM      1  C   UNL     1     181.453 181.030 185.280  1.00  0.00     0.000 C 
ENDROOT
BRANCH   1   2
ATOM      2  C   UNL     1     181.719 179.553 185.595  1.00  0.00    -0.000 C 
BRANCH   2   3
ATOM      3  C   UNL     1     180.467 178.703 185.343  1.00  0.00    -0.000 C 
BRANCH   3   4
ATOM      4  C   UNL     1     180.444 178.172 183.906  1.00  0.00    -0.003 C 
ATOM      5  C   UNL     1     181.244 176.879 183.782  1.00  0.00     0.004 C 
ENDBRANCH   3   4
ENDBRANCH   2   3
ENDBRANCH   1   2
BRANCH   1   6
ATOM      6  C   UNL     1     180.044 181.442 185.722  1.00  0.00     0.002 C 
BRANCH   6   7
ATOM      7  C   UNL     1     179.369 182.322 184.662  1.00  0.00     0.028 C 
BRANCH   7   8
ATOM      8  C   UNL     1     179.471 181.706 183.263  1.00  0.00     0.156 C 
BRANCH   8   9
ATOM      9  O   UNL     1     178.363 180.888 182.993  1.00  0.00    -0.396 OA
ATOM     10  H   UNL     1     177.666 181.124 183.660  1.00  0.00     0.210 HD
ENDBRANCH   8   9
ENDBRANCH   7   8
ENDBRANCH   6   7
ENDBRANCH   1   6
TORSDOF 7
ENDMDL
MODEL 8
REMARK VINA RESULT:    -3.619     10.156     10.741
REMARK INTER + INTRA:          -5.167
REMARK INTER:                  -4.637
REMARK INTRA:                  -0.530
REMARK UNBOUND:                -0.172
REMARK SMILES CCCCCCCCO
REMARK SMILES IDX 5 1 4 2 3 3 2 4 1 5 6 6 7 7 8 8 9 9
REMARK H PARENT 9 10
REMARK Flexibility Score: inf
ROOT
ATOM      1  C   UNL     1     181.312 179.150 182.968  1.00  0.00     0.000 C 
ENDROOT
BRANCH   1   2
ATOM      2  C   UNL     1     180.611 178.154 183.899  1.00  0.00    -0.000 C 
BRANCH   2   3
ATOM      3  C   UNL     1     180.650 178.638 185.353  1.00  0.00    -0.000 C 
BRANCH   3   4
ATOM      4  C   UNL     1     179.494 179.601 185.644  1.00  0.00    -0.003 C 
ATOM      5  C   UNL     1     180.011 180.962 186.099  1.00  0.00     0.004 C 
ENDBRANCH   3   4
ENDBRANCH   2   3
ENDBRANCH   1   2
BRANCH   1   6
ATOM      6  C   UNL     1     180.317 179.779 181.984  1.00  0.00     0.002 C 
BRANCH   6   7
ATOM      7  C   UNL     1     180.464 181.306 181.952  1.00  0.00     0.028 C 
BRANCH   7   8
ATOM      8  C   UNL     1     179.228 182.009 182.521  1.00  0.00     0.156 C 
BRANCH   8   9
ATOM      9  O   UNL     1     178.238 181.079 182.869  1.00  0.00    -0.396 OA
ATOM     10  H   UNL     1     177.378 181.575 182.895  1.00  0.00     0.210 HD
ENDBRANCH   8   9
ENDBRANCH   7   8
ENDBRANCH   6   7
ENDBRANCH   1   6
TORSDOF 7
ENDMDL
MODEL 9
REMARK VINA RESULT:    -3.555      7.603      7.997
REMARK INTER + INTRA:          -5.079
REMARK INTER:                  -4.812
REMARK INTRA:                  -0.267
REMARK UNBOUND:                -0.172
REMARK SMILES CCCCCCCCO
REMARK SMILES IDX 5 1 4 2 3 3 2 4 1 5 6 6 7 7 8 8 9 9
REMARK H PARENT 9 10
REMARK Flexibility Score: inf
ROOT
ATOM      1  C   UNL     1     180.544 180.593 185.821  1.00  0.00     0.000 C 
ENDROOT
BRANCH   1   2
ATOM      2  C   UNL     1     180.378 179.081 185.625  1.00  0.00    -0.000 C 
BRANCH   2   3
ATOM      3  C   UNL     1     180.172 178.737 184.145  1.00  0.00    -0.000 C 
BRANCH   3   4
ATOM      4  C   UNL     1     181.426 178.088 183.552  1.00  0.00    -0.003 C 
ATOM      5  C   UNL     1     181.317 176.567 183.560  1.00  0.00     0.004 C 
ENDBRANCH   3   4
ENDBRANCH   2   3
ENDBRANCH   1   2
BRANCH   1   6
ATOM      6  C   UNL     1     181.440 180.896 187.028  1.00  0.00     0.002 C 
BRANCH   6   7
ATOM      7  C   UNL     1     182.500 179.803 187.217  1.00  0.00     0.028 C 
BRANCH   7   8
ATOM      8  C   UNL     1     183.043 179.778 188.650  1.00  0.00     0.156 C 
BRANCH   8   9
ATOM      9  O   UNL     1     182.600 180.895 189.373  1.00  0.00    -0.396 OA
ATOM     10  H   UNL     1     181.723 180.648 189.769  1.00  0.00     0.210 HD
ENDBRANCH   8   9
ENDBRANCH   7   8
ENDBRANCH   6   7
ENDBRANCH   1   6
TORSDOF 7
ENDMDL
