MODEL 1
REMARK VINA RESULT:    -5.305      0.000      0.000
REMARK INTER + INTRA:         -10.454
REMARK INTER:                  -9.802
REMARK INTRA:                  -0.652
REMARK UNBOUND:                -0.652
REMARK SMILES CCCCCCCCCCCCCCCCO
REMARK SMILES IDX 9 1 8 2 7 3 6 4 5 5 4 6 3 7 2 8 1 9 10 10 11 11 12 12 13 13
REMARK SMILES IDX 14 14 15 15 16 16 17 17
REMARK H PARENT 17 18
REMARK Flexibility Score: inf
ROOT
ATOM      1  C   UNL     1       5.472  23.535  20.131  1.00  0.00     0.000 C 
ENDROOT
BRANCH   1   2
ATOM      2  C   UNL     1       6.429  24.534  19.454  1.00  0.00    -0.000 C 
BRANCH   2   3
ATOM      3  C   UNL     1       7.567  24.981  20.386  1.00  0.00    -0.000 C 
BRANCH   3   4
ATOM      4  C   UNL     1       7.566  26.501  20.633  1.00  0.00    -0.000 C 
BRANCH   4   5
ATOM      5  C   UNL     1       7.591  27.309  19.325  1.00  0.00    -0.000 C 
BRANCH   5   6
ATOM      6  C   UNL     1       7.292  28.803  19.546  1.00  0.00    -0.000 C 
BRANCH   6   7
ATOM      7  C   UNL     1       7.958  29.701  18.491  1.00  0.00    -0.000 C 
BRANCH   7   8
ATOM      8  C   UNL     1       7.293  29.582  17.112  1.00  0.00    -0.003 C 
ATOM      9  C   UNL     1       8.128  30.273  16.038  1.00  0.00     0.004 C 
ENDBRANCH   7   8
ENDBRANCH   6   7
ENDBRANCH   5   6
ENDBRANCH   4   5
ENDBRANCH   3   4
ENDBRANCH   2   3
ENDBRANCH   1   2
BRANCH   1  10
ATOM     10  C   UNL     1       6.196  22.589  21.104  1.00  0.00     0.000 C 
BRANCH  10  11
ATOM     11  C   UNL     1       5.340  21.368  21.490  1.00  0.00     0.000 C 
BRANCH  11  12
ATOM     12  C   UNL     1       3.860  21.730  21.692  1.00  0.00     0.000 C 
BRANCH  12  13
ATOM     13  C   UNL     1       2.954  20.489  21.763  1.00  0.00     0.000 C 
BRANCH  13  14
ATOM     14  C   UNL     1       3.335  19.413  20.733  1.00  0.00     0.002 C 
BRANCH  14  15
ATOM     15  C   UNL     1       2.161  18.972  19.833  1.00  0.00     0.028 C 
BRANCH  15  16
ATOM     16  C   UNL     1       0.817  19.010  20.571  1.00  0.00     0.156 C 
BRANCH  16  17
ATOM     17  O   UNL     1      -0.235  18.799  19.669  1.00  0.00    -0.396 OA
ATOM     18  H   UNL     1      -1.067  18.752  20.210  1.00  0.00     0.210 HD
ENDBRANCH  16  17
ENDBRANCH  15  16
ENDBRANCH  14  15
ENDBRANCH  13  14
ENDBRANCH  12  13
ENDBRANCH  11  12
ENDBRANCH  10  11
ENDBRANCH   1  10
TORSDOF 15
ENDMDL
MODEL 2
REMARK VINA RESULT:    -5.046      3.993     10.139
REMARK INTER + INTRA:          -9.975
REMARK INTER:                  -9.105
REMARK INTRA:                  -0.870
REMARK UNBOUND:                -0.652
REMARK SMILES CCCCCCCCCCCCCCCCO
REMARK SMILES IDX 9 1 8 2 7 3 6 4 5 5 4 6 3 7 2 8 1 9 10 10 11 11 12 12 13 13
REMARK SMILES IDX 14 14 15 15 16 16 17 17
REMARK H PARENT 17 18
REMARK Flexibility Score: inf
ROOT
ATOM      1  C   UNL     1       2.192  20.338  21.585  1.00  0.00     0.000 C 
ENDROOT
BRANCH   1   2
ATOM      2  C   UNL     1       1.726  19.117  20.773  1.00  0.00    -0.000 C 
BRANCH   2   3
ATOM      3  C   UNL     1       2.673  18.789  19.607  1.00  0.00    -0.000 C 
BRANCH   3   4
ATOM      4  C   UNL     1       3.070  17.303  19.569  1.00  0.00    -0.000 C 
BRANCH   4   5
ATOM      5  C   UNL     1       3.430  16.753  20.959  1.00  0.00    -0.000 C 
BRANCH   5   6
ATOM      6  C   UNL     1       3.356  15.217  21.027  1.00  0.00    -0.000 C 
BRANCH   6   7
ATOM      7  C   UNL     1       4.690  14.579  21.449  1.00  0.00    -0.000 C 
BRANCH   7   8
ATOM      8  C   UNL     1       4.904  13.194  20.822  1.00  0.00    -0.003 C 
ATOM      9  C   UNL     1       6.360  12.994  20.414  1.00  0.00     0.004 C 
ENDBRANCH   7   8
ENDBRANCH   6   7
ENDBRANCH   5   6
ENDBRANCH   4   5
ENDBRANCH   3   4
ENDBRANCH   2   3
ENDBRANCH   1   2
BRANCH   1  10
ATOM     10  C   UNL     1       3.341  20.004  22.552  1.00  0.00     0.000 C 
BRANCH  10  11
ATOM     11  C   UNL     1       4.491  21.024  22.481  1.00  0.00     0.000 C 
BRANCH  11  12
ATOM     12  C   UNL     1       4.669  21.611  21.071  1.00  0.00     0.000 C 
BRANCH  12  13
ATOM     13  C   UNL     1       5.947  22.455  20.941  1.00  0.00     0.000 C 
BRANCH  13  14
ATOM     14  C   UNL     1       5.744  23.719  20.089  1.00  0.00     0.002 C 
BRANCH  14  15
ATOM     15  C   UNL     1       6.845  24.782  20.284  1.00  0.00     0.028 C 
BRANCH  15  16
ATOM     16  C   UNL     1       7.910  24.338  21.294  1.00  0.00     0.156 C 
BRANCH  16  17
ATOM     17  O   UNL     1       9.157  24.228  20.665  1.00  0.00    -0.396 OA
ATOM     18  H   UNL     1       9.149  23.367  20.169  1.00  0.00     0.210 HD
ENDBRANCH  16  17
ENDBRANCH  15  16
ENDBRANCH  14  15
ENDBRANCH  13  14
ENDBRANCH  12  13
ENDBRANCH  11  12
ENDBRANCH  10  11
ENDBRANCH   1  10
TORSDOF 15
ENDMDL
MODEL 3
REMARK VINA RESULT:    -4.984      3.505      9.428
REMARK INTER + INTRA:          -9.862
REMARK INTER:                  -9.184
REMARK INTRA:                  -0.678
REMARK UNBOUND:                -0.652
REMARK SMILES CCCCCCCCCCCCCCCCO
REMARK SMILES IDX 9 1 8 2 7 3 6 4 5 5 4 6 3 7 2 8 1 9 10 10 11 11 12 12 13 13
REMARK SMILES IDX 14 14 15 15 16 16 17 17
REMARK H PARENT 17 18
REMARK Flexibility Score: inf
ROOT
ATOM      1  C   UNL     1       6.198  24.427  19.377  1.00  0.00     0.000 C 
ENDROOT
BRANCH   1   2
ATOM      2  C   UNL     1       5.407  23.335  20.120  1.00  0.00    -0.000 C 
BRANCH   2   3
ATOM      3  C   UNL     1       6.217  22.694  21.259  1.00  0.00    -0.000 C 
BRANCH   3   4
ATOM      4  C   UNL     1       5.541  21.433  21.826  1.00  0.00    -0.000 C 
BRANCH   4   5
ATOM      5  C   UNL     1       4.040  21.370  21.496  1.00  0.00    -0.000 C 
BRANCH   5   6
ATOM      6  C   UNL     1       3.425  19.990  21.792  1.00  0.00    -0.000 C 
BRANCH   6   7
ATOM      7  C   UNL     1       3.061  19.218  20.514  1.00  0.00    -0.000 C 
BRANCH   7   8
ATOM      8  C   UNL     1       1.588  18.786  20.487  1.00  0.00    -0.003 C 
ATOM      9  C   UNL     1       0.660  19.997  20.515  1.00  0.00     0.004 C 
ENDBRANCH   7   8
ENDBRANCH   6   7
ENDBRANCH   5   6
ENDBRANCH   4   5
ENDBRANCH   3   4
ENDBRANCH   2   3
ENDBRANCH   1   2
BRANCH   1  10
ATOM     10  C   UNL     1       7.541  24.749  20.053  1.00  0.00     0.000 C 
BRANCH  10  11
ATOM     11  C   UNL     1       7.597  26.183  20.610  1.00  0.00     0.000 C 
BRANCH  11  12
ATOM     12  C   UNL     1       7.595  27.244  19.498  1.00  0.00     0.000 C 
BRANCH  12  13
ATOM     13  C   UNL     1       7.295  28.655  20.030  1.00  0.00     0.000 C 
BRANCH  13  14
ATOM     14  C   UNL     1       7.391  29.737  18.941  1.00  0.00     0.002 C 
BRANCH  14  15
ATOM     15  C   UNL     1       7.939  29.216  17.596  1.00  0.00     0.028 C 
BRANCH  15  16
ATOM     16  C   UNL     1       7.687  30.199  16.445  1.00  0.00     0.156 C 
BRANCH  16  17
ATOM     17  O   UNL     1       7.984  29.592  15.217  1.00  0.00    -0.396 OA
ATOM     18  H   UNL     1       8.711  30.128  14.804  1.00  0.00     0.210 HD
ENDBRANCH  16  17
ENDBRANCH  15  16
ENDBRANCH  14  15
ENDBRANCH  13  14
ENDBRANCH  12  13
ENDBRANCH  11  12
ENDBRANCH  10  11
ENDBRANCH   1  10
TORSDOF 15
ENDMDL
MODEL 4
REMARK VINA RESULT:    -4.746      3.986     10.486
REMARK INTER + INTRA:          -9.421
REMARK INTER:                  -8.034
REMARK INTRA:                  -1.388
REMARK UNBOUND:                -0.652
REMARK SMILES CCCCCCCCCCCCCCCCO
REMARK SMILES IDX 9 1 8 2 7 3 6 4 5 5 4 6 3 7 2 8 1 9 10 10 11 11 12 12 13 13
REMARK SMILES IDX 14 14 15 15 16 16 17 17
REMARK H PARENT 17 18
REMARK Flexibility Score: inf
ROOT
ATOM      1  C   UNL     1       2.215  18.691  19.826  1.00  0.00     0.000 C 
ENDROOT
BRANCH   1   2
ATOM      2  C   UNL     1       2.952  17.346  19.711  1.00  0.00    -0.000 C 
BRANCH   2   3
ATOM      3  C   UNL     1       3.829  17.049  20.939  1.00  0.00    -0.000 C 
BRANCH   3   4
ATOM      4  C   UNL     1       3.527  15.675  21.563  1.00  0.00    -0.000 C 
BRANCH   4   5
ATOM      5  C   UNL     1       2.030  15.477  21.854  1.00  0.00    -0.000 C 
BRANCH   5   6
ATOM      6  C   UNL     1       1.449  14.235  21.156  1.00  0.00    -0.000 C 
BRANCH   6   7
ATOM      7  C   UNL     1      -0.037  14.399  20.796  1.00  0.00    -0.000 C 
BRANCH   7   8
ATOM      8  C   UNL     1      -0.409  15.856  20.484  1.00  0.00    -0.003 C 
ATOM      9  C   UNL     1      -1.808  15.948  19.882  1.00  0.00     0.004 C 
ENDBRANCH   7   8
ENDBRANCH   6   7
ENDBRANCH   5   6
ENDBRANCH   4   5
ENDBRANCH   3   4
ENDBRANCH   2   3
ENDBRANCH   1   2
BRANCH   1  10
ATOM     10  C   UNL     1       2.005  19.130  21.285  1.00  0.00     0.000 C 
BRANCH  10  11
ATOM     11  C   UNL     1       2.450  20.582  21.536  1.00  0.00     0.000 C 
BRANCH  11  12
ATOM     12  C   UNL     1       3.893  20.672  22.058  1.00  0.00     0.000 C 
BRANCH  12  13
ATOM     13  C   UNL     1       4.905  20.987  20.944  1.00  0.00     0.000 C 
BRANCH  13  14
ATOM     14  C   UNL     1       5.816  22.178  21.283  1.00  0.00     0.002 C 
BRANCH  14  15
ATOM     15  C   UNL     1       5.790  23.300  20.224  1.00  0.00     0.028 C 
BRANCH  15  16
ATOM     16  C   UNL     1       6.811  24.405  20.522  1.00  0.00     0.156 C 
BRANCH  16  17
ATOM     17  O   UNL     1       8.099  23.982  20.164  1.00  0.00    -0.396 OA
ATOM     18  H   UNL     1       8.606  23.871  21.010  1.00  0.00     0.210 HD
ENDBRANCH  16  17
ENDBRANCH  15  16
ENDBRANCH  14  15
ENDBRANCH  13  14
ENDBRANCH  12  13
ENDBRANCH  11  12
ENDBRANCH  10  11
ENDBRANCH   1  10
TORSDOF 15
ENDMDL
MODEL 5
REMARK VINA RESULT:    -4.689      3.199      6.305
REMARK INTER + INTRA:          -9.316
REMARK INTER:                  -8.411
REMARK INTRA:                  -0.905
REMARK UNBOUND:                -0.652
REMARK SMILES CCCCCCCCCCCCCCCCO
REMARK SMILES IDX 9 1 8 2 7 3 6 4 5 5 4 6 3 7 2 8 1 9 10 10 11 11 12 12 13 13
REMARK SMILES IDX 14 14 15 15 16 16 17 17
REMARK H PARENT 17 18
REMARK Flexibility Score: inf
ROOT
ATOM      1  C   UNL     1       2.528  18.437  19.895  1.00  0.00     0.000 C 
ENDROOT
BRANCH   1   2
ATOM      2  C   UNL     1       3.629  19.290  20.550  1.00  0.00    -0.000 C 
BRANCH   2   3
ATOM      3  C   UNL     1       3.073  20.250  21.615  1.00  0.00    -0.000 C 
BRANCH   3   4
ATOM      4  C   UNL     1       4.015  21.436  21.890  1.00  0.00    -0.000 C 
BRANCH   4   5
ATOM      5  C   UNL     1       5.310  21.363  21.066  1.00  0.00    -0.000 C 
BRANCH   5   6
ATOM      6  C   UNL     1       6.127  22.666  21.128  1.00  0.00    -0.000 C 
BRANCH   6   7
ATOM      7  C   UNL     1       5.685  23.691  20.072  1.00  0.00    -0.000 C 
BRANCH   7   8
ATOM      8  C   UNL     1       6.780  24.720  19.755  1.00  0.00    -0.003 C 
ATOM      9  C   UNL     1       7.960  24.577  20.712  1.00  0.00     0.004 C 
ENDBRANCH   7   8
ENDBRANCH   6   7
ENDBRANCH   5   6
ENDBRANCH   4   5
ENDBRANCH   3   4
ENDBRANCH   2   3
ENDBRANCH   1   2
BRANCH   1  10
ATOM     10  C   UNL     1       1.374  18.116  20.859  1.00  0.00     0.000 C 
BRANCH  10  11
ATOM     11  C   UNL     1       0.842  16.681  20.692  1.00  0.00     0.000 C 
BRANCH  11  12
ATOM     12  C   UNL     1       1.521  15.688  21.649  1.00  0.00     0.000 C 
BRANCH  12  13
ATOM     13  C   UNL     1       1.677  14.288  21.034  1.00  0.00     0.000 C 
BRANCH  13  14
ATOM     14  C   UNL     1       2.999  13.608  21.425  1.00  0.00     0.002 C 
BRANCH  14  15
ATOM     15  C   UNL     1       4.226  14.155  20.664  1.00  0.00     0.028 C 
BRANCH  15  16
ATOM     16  C   UNL     1       5.225  14.851  21.595  1.00  0.00     0.156 C 
BRANCH  16  17
ATOM     17  O   UNL     1       4.956  16.226  21.652  1.00  0.00    -0.396 OA
ATOM     18  H   UNL     1       4.554  16.472  20.778  1.00  0.00     0.210 HD
ENDBRANCH  16  17
ENDBRANCH  15  16
ENDBRANCH  14  15
ENDBRANCH  13  14
ENDBRANCH  12  13
ENDBRANCH  11  12
ENDBRANCH  10  11
ENDBRANCH   1  10
TORSDOF 15
ENDMDL
MODEL 6
REMARK VINA RESULT:    -4.668      1.616      2.442
REMARK INTER + INTRA:          -9.277
REMARK INTER:                  -8.594
REMARK INTRA:                  -0.683
REMARK UNBOUND:                -0.652
REMARK SMILES CCCCCCCCCCCCCCCCO
REMARK SMILES IDX 9 1 8 2 7 3 6 4 5 5 4 6 3 7 2 8 1 9 10 10 11 11 12 12 13 13
REMARK SMILES IDX 14 14 15 15 16 16 17 17
REMARK H PARENT 17 18
REMARK Flexibility Score: inf
ROOT
ATOM      1  C   UNL     1       5.757  23.570  20.158  1.00  0.00     0.000 C 
ENDROOT
BRANCH   1   2
ATOM      2  C   UNL     1       6.588  24.706  19.536  1.00  0.00    -0.000 C 
BRANCH   2   3
ATOM      3  C   UNL     1       7.766  25.130  20.429  1.00  0.00    -0.000 C 
BRANCH   3   4
ATOM      4  C   UNL     1       7.579  26.537  21.025  1.00  0.00    -0.000 C 
BRANCH   4   5
ATOM      5  C   UNL     1       7.688  27.645  19.964  1.00  0.00    -0.000 C 
BRANCH   5   6
ATOM      6  C   UNL     1       6.987  28.947  20.392  1.00  0.00    -0.000 C 
BRANCH   6   7
ATOM      7  C   UNL     1       7.570  29.534  21.687  1.00  0.00    -0.000 C 
BRANCH   7   8
ATOM      8  C   UNL     1       6.613  29.395  22.879  1.00  0.00    -0.003 C 
ATOM      9  C   UNL     1       5.250  30.005  22.564  1.00  0.00     0.004 C 
ENDBRANCH   7   8
ENDBRANCH   6   7
ENDBRANCH   5   6
ENDBRANCH   4   5
ENDBRANCH   3   4
ENDBRANCH   2   3
ENDBRANCH   1   2
BRANCH   1  10
ATOM     10  C   UNL     1       6.430  22.952  21.395  1.00  0.00     0.000 C 
BRANCH  10  11
ATOM     11  C   UNL     1       5.704  21.690  21.897  1.00  0.00     0.000 C 
BRANCH  11  12
ATOM     12  C   UNL     1       4.866  21.019  20.797  1.00  0.00     0.000 C 
BRANCH  12  13
ATOM     13  C   UNL     1       3.575  20.387  21.342  1.00  0.00     0.000 C 
BRANCH  13  14
ATOM     14  C   UNL     1       3.394  18.925  20.902  1.00  0.00     0.002 C 
BRANCH  14  15
ATOM     15  C   UNL     1       2.128  18.685  20.053  1.00  0.00     0.028 C 
BRANCH  15  16
ATOM     16  C   UNL     1       0.949  19.552  20.510  1.00  0.00     0.156 C 
BRANCH  16  17
ATOM     17  O   UNL     1      -0.156  19.348  19.671  1.00  0.00    -0.396 OA
ATOM     18  H   UNL     1       0.076  18.585  19.079  1.00  0.00     0.210 HD
ENDBRANCH  16  17
ENDBRANCH  15  16
ENDBRANCH  14  15
ENDBRANCH  13  14
ENDBRANCH  12  13
ENDBRANCH  11  12
ENDBRANCH  10  11
ENDBRANCH   1  10
TORSDOF 15
ENDMDL
MODEL 7
REMARK VINA RESULT:    -4.656      4.056     10.820
REMARK INTER + INTRA:          -9.255
REMARK INTER:                  -8.073
REMARK INTRA:                  -1.182
REMARK UNBOUND:                -0.652
REMARK SMILES CCCCCCCCCCCCCCCCO
REMARK SMILES IDX 9 1 8 2 7 3 6 4 5 5 4 6 3 7 2 8 1 9 10 10 11 11 12 12 13 13
REMARK SMILES IDX 14 14 15 15 16 16 17 17
REMARK H PARENT 17 18
REMARK Flexibility Score: inf
ROOT
ATOM      1  C   UNL     1       3.287  18.343  20.251  1.00  0.00     0.000 C 
ENDROOT
BRANCH   1   2
ATOM      2  C   UNL     1       3.607  17.477  21.482  1.00  0.00    -0.000 C 
BRANCH   2   3
ATOM      3  C   UNL     1       2.466  16.507  21.832  1.00  0.00    -0.000 C 
BRANCH   3   4
ATOM      4  C   UNL     1       1.618  16.125  20.606  1.00  0.00    -0.000 C 
BRANCH   4   5
ATOM      5  C   UNL     1       0.625  14.991  20.907  1.00  0.00    -0.000 C 
BRANCH   5   6
ATOM      6  C   UNL     1       1.234  13.887  21.790  1.00  0.00    -0.000 C 
BRANCH   6   7
ATOM      7  C   UNL     1       2.202  12.978  21.015  1.00  0.00    -0.000 C 
BRANCH   7   8
ATOM      8  C   UNL     1       3.629  13.020  21.582  1.00  0.00    -0.003 C 
ATOM      9  C   UNL     1       4.593  13.675  20.596  1.00  0.00     0.004 C 
ENDBRANCH   7   8
ENDBRANCH   6   7
ENDBRANCH   5   6
ENDBRANCH   4   5
ENDBRANCH   3   4
ENDBRANCH   2   3
ENDBRANCH   1   2
BRANCH   1  10
ATOM     10  C   UNL     1       2.536  19.635  20.615  1.00  0.00     0.000 C 
BRANCH  10  11
ATOM     11  C   UNL     1       3.061  20.281  21.910  1.00  0.00     0.000 C 
BRANCH  11  12
ATOM     12  C   UNL     1       3.874  21.558  21.642  1.00  0.00     0.000 C 
BRANCH  12  13
ATOM     13  C   UNL     1       5.330  21.259  21.252  1.00  0.00     0.000 C 
BRANCH  13  14
ATOM     14  C   UNL     1       6.196  22.526  21.159  1.00  0.00     0.002 C 
BRANCH  14  15
ATOM     15  C   UNL     1       5.677  23.558  20.136  1.00  0.00     0.028 C 
BRANCH  15  16
ATOM     16  C   UNL     1       6.691  24.679  19.874  1.00  0.00     0.156 C 
BRANCH  16  17
ATOM     17  O   UNL     1       7.997  24.185  19.990  1.00  0.00    -0.396 OA
ATOM     18  H   UNL     1       8.606  24.947  19.804  1.00  0.00     0.210 HD
ENDBRANCH  16  17
ENDBRANCH  15  16
ENDBRANCH  14  15
ENDBRANCH  13  14
ENDBRANCH  12  13
ENDBRANCH  11  12
ENDBRANCH  10  11
ENDBRANCH   1  10
TORSDOF 15
ENDMDL
MODEL 8
REMARK VINA RESULT:    -4.632      4.601     10.705
REMARK INTER + INTRA:          -9.210
REMARK INTER:                  -8.269
REMARK INTRA:                  -0.941
REMARK UNBOUND:                -0.652
REMARK SMILES CCCCCCCCCCCCCCCCO
REMARK SMILES IDX 9 1 8 2 7 3 6 4 5 5 4 6 3 7 2 8 1 9 10 10 11 11 12 12 13 13
REMARK SMILES IDX 14 14 15 15 16 16 17 17
REMARK H PARENT 17 18
REMARK Flexibility Score: inf
ROOT
ATOM      1  C   UNL     1       2.659  17.962  20.109  1.00  0.00     0.000 C 
ENDROOT
BRANCH   1   2
ATOM      2  C   UNL     1       1.937  17.264  21.276  1.00  0.00    -0.000 C 
BRANCH   2   3
ATOM      3  C   UNL     1       2.491  15.857  21.552  1.00  0.00    -0.000 C 
BRANCH   3   4
ATOM      4  C   UNL     1       3.830  15.887  22.310  1.00  0.00    -0.000 C 
BRANCH   4   5
ATOM      5  C   UNL     1       4.981  15.270  21.497  1.00  0.00    -0.000 C 
BRANCH   5   6
ATOM      6  C   UNL     1       4.568  13.977  20.772  1.00  0.00    -0.000 C 
BRANCH   6   7
ATOM      7  C   UNL     1       5.761  13.049  20.492  1.00  0.00    -0.000 C 
BRANCH   7   8
ATOM      8  C   UNL     1       6.219  12.286  21.743  1.00  0.00    -0.003 C 
ATOM      9  C   UNL     1       7.654  12.648  22.113  1.00  0.00     0.004 C 
ENDBRANCH   7   8
ENDBRANCH   6   7
ENDBRANCH   5   6
ENDBRANCH   4   5
ENDBRANCH   3   4
ENDBRANCH   2   3
ENDBRANCH   1   2
BRANCH   1  10
ATOM     10  C   UNL     1       3.034  19.419  20.431  1.00  0.00     0.000 C 
BRANCH  10  11
ATOM     11  C   UNL     1       3.394  19.624  21.914  1.00  0.00     0.000 C 
BRANCH  11  12
ATOM     12  C   UNL     1       4.451  20.722  22.114  1.00  0.00     0.000 C 
BRANCH  12  13
ATOM     13  C   UNL     1       4.523  21.696  20.926  1.00  0.00     0.000 C 
BRANCH  13  14
ATOM     14  C   UNL     1       5.802  22.549  20.931  1.00  0.00     0.002 C 
BRANCH  14  15
ATOM     15  C   UNL     1       5.745  23.757  19.971  1.00  0.00     0.028 C 
BRANCH  15  16
ATOM     16  C   UNL     1       6.944  24.696  20.147  1.00  0.00     0.156 C 
BRANCH  16  17
ATOM     17  O   UNL     1       8.117  23.953  20.337  1.00  0.00    -0.396 OA
ATOM     18  H   UNL     1       8.816  24.595  20.628  1.00  0.00     0.210 HD
ENDBRANCH  16  17
ENDBRANCH  15  16
ENDBRANCH  14  15
ENDBRANCH  13  14
ENDBRANCH  12  13
ENDBRANCH  11  12
ENDBRANCH  10  11
ENDBRANCH   1  10
TORSDOF 15
ENDMDL
MODEL 9
REMARK VINA RESULT:    -4.584      5.269      9.093
REMARK INTER + INTRA:          -9.121
REMARK INTER:                  -7.856
REMARK INTRA:                  -1.265
REMARK UNBOUND:                -0.652
REMARK SMILES CCCCCCCCCCCCCCCCO
REMARK SMILES IDX 9 1 8 2 7 3 6 4 5 5 4 6 3 7 2 8 1 9 10 10 11 11 12 12 13 13
REMARK SMILES IDX 14 14 15 15 16 16 17 17
REMARK H PARENT 17 18
REMARK Flexibility Score: inf
ROOT
ATOM      1  C   UNL     1       1.677  15.458  21.597  1.00  0.00     0.000 C 
ENDROOT
BRANCH   1   2
ATOM      2  C   UNL     1       3.210  15.546  21.506  1.00  0.00    -0.000 C 
BRANCH   2   3
ATOM      3  C   UNL     1       3.689  16.883  20.915  1.00  0.00    -0.000 C 
BRANCH   3   4
ATOM      4  C   UNL     1       2.804  17.366  19.753  1.00  0.00    -0.000 C 
BRANCH   4   5
ATOM      5  C   UNL     1       2.280  18.796  19.967  1.00  0.00    -0.000 C 
BRANCH   5   6
ATOM      6  C   UNL     1       2.358  19.243  21.438  1.00  0.00    -0.000 C 
BRANCH   6   7
ATOM      7  C   UNL     1       3.111  20.572  21.613  1.00  0.00    -0.000 C 
BRANCH   7   8
ATOM      8  C   UNL     1       4.526  20.529  21.017  1.00  0.00    -0.003 C 
ATOM      9  C   UNL     1       5.333  21.756  21.431  1.00  0.00     0.004 C 
ENDBRANCH   7   8
ENDBRANCH   6   7
ENDBRANCH   5   6
ENDBRANCH   4   5
ENDBRANCH   3   4
ENDBRANCH   2   3
ENDBRANCH   1   2
BRANCH   1  10
ATOM     10  C   UNL     1       1.122  14.150  21.007  1.00  0.00     0.000 C 
BRANCH  10  11
ATOM     11  C   UNL     1       0.015  14.392  19.966  1.00  0.00     0.000 C 
BRANCH  11  12
ATOM     12  C   UNL     1      -0.691  15.743  20.163  1.00  0.00     0.000 C 
BRANCH  12  13
ATOM     13  C   UNL     1      -2.116  15.754  19.585  1.00  0.00     0.000 C 
BRANCH  13  14
ATOM     14  C   UNL     1      -2.260  14.872  18.334  1.00  0.00     0.002 C 
BRANCH  14  15
ATOM     15  C   UNL     1      -3.722  14.523  17.986  1.00  0.00     0.028 C 
BRANCH  15  16
ATOM     16  C   UNL     1      -4.254  15.350  16.809  1.00  0.00     0.156 C 
BRANCH  16  17
ATOM     17  O   UNL     1      -3.210  15.664  15.928  1.00  0.00    -0.396 OA
ATOM     18  H   UNL     1      -2.415  15.861  16.489  1.00  0.00     0.210 HD
ENDBRANCH  16  17
ENDBRANCH  15  16
ENDBRANCH  14  15
ENDBRANCH  13  14
ENDBRANCH  12  13
ENDBRANCH  11  12
ENDBRANCH  10  11
ENDBRANCH   1  10
TORSDOF 15
ENDMDL
