MODEL 1
REMARK VINA RESULT:     0.917      0.000      0.000
REMARK INTER + INTRA:          -1.015
REMARK INTER:                   1.990
REMARK INTRA:                  -3.005
REMARK UNBOUND:                -3.005
REMARK SMILES CCCCCCCCCCCCCCCCCCCCCC(=O)[O-]
REMARK SMILES IDX 12 1 11 2 10 3 9 4 8 5 7 6 6 7 5 8 4 9 3 10 2 11 1 12 13 13
REMARK SMILES IDX 14 14 15 15 16 16 17 17 18 18 19 19 20 20 21 21 22 22 23 23
REMARK SMILES IDX 24 24
REMARK H PARENT
REMARK Flexibility Score: inf
ROOT
ATOM      1  C   UNL     1       5.737 -36.791  23.947  1.00  0.00     0.000 C 
ENDROOT
BRANCH   1   2
ATOM      2  C   UNL     1       5.589 -36.993  25.469  1.00  0.00     0.000 C 
BRANCH   2   3
ATOM      3  C   UNL     1       5.009 -38.354  25.891  1.00  0.00     0.000 C 
BRANCH   3   4
ATOM      4  C   UNL     1       4.565 -39.212  24.696  1.00  0.00    -0.000 C 
BRANCH   4   5
ATOM      5  C   UNL     1       5.340 -40.537  24.654  1.00  0.00    -0.000 C 
BRANCH   5   6
ATOM      6  C   UNL     1       5.660 -40.997  23.221  1.00  0.00    -0.000 C 
BRANCH   6   7
ATOM      7  C   UNL     1       4.975 -40.181  22.106  1.00  0.00    -0.000 C 
BRANCH   7   8
ATOM      8  C   UNL     1       5.934 -39.502  21.106  1.00  0.00    -0.000 C 
BRANCH   8   9
ATOM      9  C   UNL     1       5.307 -38.376  20.264  1.00  0.00    -0.000 C 
BRANCH   9  10
ATOM     10  C   UNL     1       3.930 -37.935  20.790  1.00  0.00    -0.000 C 
BRANCH  10  11
ATOM     11  C   UNL     1       2.808 -38.163  19.764  1.00  0.00    -0.003 C 
ATOM     12  C   UNL     1       1.650 -37.178  19.923  1.00  0.00     0.004 C 
ENDBRANCH  10  11
ENDBRANCH   9  10
ENDBRANCH   8   9
ENDBRANCH   7   8
ENDBRANCH   6   7
ENDBRANCH   5   6
ENDBRANCH   4   5
ENDBRANCH   3   4
ENDBRANCH   2   3
ENDBRANCH   1   2
BRANCH   1  13
ATOM     13  C   UNL     1       6.017 -35.342  23.506  1.00  0.00     0.000 C 
BRANCH  13  14
ATOM     14  C   UNL     1       5.107 -34.815  22.379  1.00  0.00     0.000 C 
BRANCH  14  15
ATOM     15  C   UNL     1       5.784 -34.694  21.001  1.00  0.00     0.000 C 
BRANCH  15  16
ATOM     16  C   UNL     1       4.793 -34.821  19.836  1.00  0.00     0.000 C 
BRANCH  16  17
ATOM     17  C   UNL     1       5.524 -35.135  18.525  1.00  0.00     0.000 C 
BRANCH  17  18
ATOM     18  C   UNL     1       4.700 -36.087  17.649  1.00  0.00     0.000 C 
BRANCH  18  19
ATOM     19  C   UNL     1       3.394 -35.422  17.192  1.00  0.00     0.000 C 
BRANCH  19  20
ATOM     20  C   UNL     1       2.485 -36.377  16.396  1.00  0.00     0.006 C 
BRANCH  20  21
ATOM     21  C   UNL     1       3.112 -37.749  16.100  1.00  0.00     0.053 C 
BRANCH  21  22
ATOM     22  C   UNL     1       3.638 -37.836  14.701  1.00  0.00     0.041 C 
ATOM     23  O   UNL     1       3.483 -36.873  13.904  1.00  0.00    -0.550 OA
ATOM     24  O   UNL     1       4.270 -38.994  14.265  1.00  0.00    -0.550 OA
ENDBRANCH  21  22
ENDBRANCH  20  21
ENDBRANCH  19  20
ENDBRANCH  18  19
ENDBRANCH  17  18
ENDBRANCH  16  17
ENDBRANCH  15  16
ENDBRANCH  14  15
ENDBRANCH  13  14
ENDBRANCH   1  13
TORSDOF 20
ENDMDL
MODEL 2
REMARK VINA RESULT:     1.096      1.413      4.256
REMARK INTER + INTRA:          -0.628
REMARK INTER:                   0.403
REMARK INTRA:                  -1.031
REMARK UNBOUND:                -3.005
REMARK SMILES CCCCCCCCCCCCCCCCCCCCCC(=O)[O-]
REMARK SMILES IDX 12 1 11 2 10 3 9 4 8 5 7 6 6 7 5 8 4 9 3 10 2 11 1 12 13 13
REMARK SMILES IDX 14 14 15 15 16 16 17 17 18 18 19 19 20 20 21 21 22 22 23 23
REMARK SMILES IDX 24 24
REMARK H PARENT
REMARK Flexibility Score: inf
ROOT
ATOM      1  C   UNL     1       5.170 -37.877  22.163  1.00  0.00     0.000 C 
ENDROOT
BRANCH   1   2
ATOM      2  C   UNL     1       6.125 -36.722  22.525  1.00  0.00     0.000 C 
BRANCH   2   3
ATOM      3  C   UNL     1       5.487 -35.322  22.513  1.00  0.00     0.000 C 
BRANCH   3   4
ATOM      4  C   UNL     1       5.390 -34.696  23.912  1.00  0.00    -0.000 C 
BRANCH   4   5
ATOM      5  C   UNL     1       5.895 -35.673  24.985  1.00  0.00    -0.000 C 
BRANCH   5   6
ATOM      6  C   UNL     1       4.864 -36.760  25.336  1.00  0.00    -0.000 C 
BRANCH   6   7
ATOM      7  C   UNL     1       5.459 -38.063  25.909  1.00  0.00    -0.000 C 
BRANCH   7   8
ATOM      8  C   UNL     1       4.728 -39.356  25.496  1.00  0.00    -0.000 C 
BRANCH   8   9
ATOM      9  C   UNL     1       5.551 -40.319  24.622  1.00  0.00    -0.000 C 
BRANCH   9  10
ATOM     10  C   UNL     1       5.313 -41.797  24.976  1.00  0.00    -0.000 C 
BRANCH  10  11
ATOM     11  C   UNL     1       6.079 -42.755  24.049  1.00  0.00    -0.003 C 
ATOM     12  C   UNL     1       6.125 -42.268  22.601  1.00  0.00     0.004 C 
ENDBRANCH  10  11
ENDBRANCH   9  10
ENDBRANCH   8   9
ENDBRANCH   7   8
ENDBRANCH   6   7
ENDBRANCH   5   6
ENDBRANCH   4   5
ENDBRANCH   3   4
ENDBRANCH   2   3
ENDBRANCH   1   2
BRANCH   1  13
ATOM     13  C   UNL     1       5.675 -38.816  21.051  1.00  0.00     0.000 C 
BRANCH  13  14
ATOM     14  C   UNL     1       5.288 -38.399  19.618  1.00  0.00     0.000 C 
BRANCH  14  15
ATOM     15  C   UNL     1       4.827 -36.937  19.470  1.00  0.00     0.000 C 
BRANCH  15  16
ATOM     16  C   UNL     1       3.319 -36.760  19.697  1.00  0.00     0.000 C 
BRANCH  16  17
ATOM     17  C   UNL     1       2.543 -37.993  19.219  1.00  0.00     0.000 C 
BRANCH  17  18
ATOM     18  C   UNL     1       1.030 -37.779  19.355  1.00  0.00     0.000 C 
BRANCH  18  19
ATOM     19  C   UNL     1       0.356 -37.732  17.977  1.00  0.00     0.000 C 
BRANCH  19  20
ATOM     20  C   UNL     1       0.888 -36.589  17.091  1.00  0.00     0.006 C 
BRANCH  20  21
ATOM     21  C   UNL     1       1.535 -37.055  15.777  1.00  0.00     0.053 C 
BRANCH  21  22
ATOM     22  C   UNL     1       3.023 -36.889  15.793  1.00  0.00     0.041 C 
ATOM     23  O   UNL     1       3.754 -37.649  15.105  1.00  0.00    -0.550 OA
ATOM     24  O   UNL     1       3.606 -35.916  16.596  1.00  0.00    -0.550 OA
ENDBRANCH  21  22
ENDBRANCH  20  21
ENDBRANCH  19  20
ENDBRANCH  18  19
ENDBRANCH  17  18
ENDBRANCH  16  17
ENDBRANCH  15  16
ENDBRANCH  14  15
ENDBRANCH  13  14
ENDBRANCH   1  13
TORSDOF 20
ENDMDL
MODEL 3
REMARK VINA RESULT:     1.192      2.321      6.399
REMARK INTER + INTRA:          -0.418
REMARK INTER:                   0.621
REMARK INTRA:                  -1.039
REMARK UNBOUND:                -3.005
REMARK SMILES CCCCCCCCCCCCCCCCCCCCCC(=O)[O-]
REMARK SMILES IDX 12 1 11 2 10 3 9 4 8 5 7 6 6 7 5 8 4 9 3 10 2 11 1 12 13 13
REMARK SMILES IDX 14 14 15 15 16 16 17 17 18 18 19 19 20 20 21 21 22 22 23 23
REMARK SMILES IDX 24 24
REMARK H PARENT
REMARK Flexibility Score: inf
ROOT
ATOM      1  C   UNL     1       5.723 -36.109  22.852  1.00  0.00     0.000 C 
ENDROOT
BRANCH   1   2
ATOM      2  C   UNL     1       6.116 -35.832  21.386  1.00  0.00     0.000 C 
BRANCH   2   3
ATOM      3  C   UNL     1       5.231 -34.805  20.659  1.00  0.00     0.000 C 
BRANCH   3   4
ATOM      4  C   UNL     1       4.376 -35.433  19.548  1.00  0.00    -0.000 C 
BRANCH   4   5
ATOM      5  C   UNL     1       3.320 -36.379  20.138  1.00  0.00    -0.000 C 
BRANCH   5   6
ATOM      6  C   UNL     1       2.773 -37.382  19.107  1.00  0.00    -0.000 C 
BRANCH   6   7
ATOM      7  C   UNL     1       3.560 -37.449  17.782  1.00  0.00    -0.000 C 
BRANCH   7   8
ATOM      8  C   UNL     1       3.333 -36.263  16.822  1.00  0.00    -0.000 C 
BRANCH   8   9
ATOM      9  C   UNL     1       2.203 -36.461  15.797  1.00  0.00    -0.000 C 
BRANCH   9  10
ATOM     10  C   UNL     1       2.567 -37.472  14.696  1.00  0.00    -0.000 C 
BRANCH  10  11
ATOM     11  C   UNL     1       4.041 -37.373  14.271  1.00  0.00    -0.003 C 
ATOM     12  C   UNL     1       4.689 -38.740  14.054  1.00  0.00     0.004 C 
ENDBRANCH  10  11
ENDBRANCH   9  10
ENDBRANCH   8   9
ENDBRANCH   7   8
ENDBRANCH   6   7
ENDBRANCH   5   6
ENDBRANCH   4   5
ENDBRANCH   3   4
ENDBRANCH   2   3
ENDBRANCH   1   2
BRANCH   1  13
ATOM     13  C   UNL     1       6.074 -34.984  23.844  1.00  0.00     0.000 C 
BRANCH  13  14
ATOM     14  C   UNL     1       5.932 -35.359  25.333  1.00  0.00     0.000 C 
BRANCH  14  15
ATOM     15  C   UNL     1       5.998 -36.868  25.631  1.00  0.00     0.000 C 
BRANCH  15  16
ATOM     16  C   UNL     1       4.612 -37.506  25.796  1.00  0.00     0.000 C 
BRANCH  16  17
ATOM     17  C   UNL     1       4.442 -38.704  24.854  1.00  0.00     0.000 C 
BRANCH  17  18
ATOM     18  C   UNL     1       4.861 -40.010  25.541  1.00  0.00     0.000 C 
BRANCH  18  19
ATOM     19  C   UNL     1       5.705 -40.880  24.600  1.00  0.00     0.000 C 
BRANCH  19  20
ATOM     20  C   UNL     1       5.079 -41.028  23.201  1.00  0.00     0.006 C 
BRANCH  20  21
ATOM     21  C   UNL     1       6.047 -41.548  22.126  1.00  0.00     0.053 C 
BRANCH  21  22
ATOM     22  C   UNL     1       6.029 -40.696  20.894  1.00  0.00     0.041 C 
ATOM     23  O   UNL     1       5.896 -39.447  20.989  1.00  0.00    -0.550 OA
ATOM     24  O   UNL     1       6.124 -41.284  19.639  1.00  0.00    -0.550 OA
ENDBRANCH  21  22
ENDBRANCH  20  21
ENDBRANCH  19  20
ENDBRANCH  18  19
ENDBRANCH  17  18
ENDBRANCH  16  17
ENDBRANCH  15  16
ENDBRANCH  14  15
ENDBRANCH  13  14
ENDBRANCH   1  13
TORSDOF 20
ENDMDL
MODEL 4
REMARK VINA RESULT:     1.279      3.050      7.193
REMARK INTER + INTRA:          -0.231
REMARK INTER:                   1.489
REMARK INTRA:                  -1.720
REMARK UNBOUND:                -3.005
REMARK SMILES CCCCCCCCCCCCCCCCCCCCCC(=O)[O-]
REMARK SMILES IDX 12 1 11 2 10 3 9 4 8 5 7 6 6 7 5 8 4 9 3 10 2 11 1 12 13 13
REMARK SMILES IDX 14 14 15 15 16 16 17 17 18 18 19 19 20 20 21 21 22 22 23 23
REMARK SMILES IDX 24 24
REMARK H PARENT
REMARK Flexibility Score: inf
ROOT
ATOM      1  C   UNL     1       5.362 -37.975  20.981  1.00  0.00     0.000 C 
ENDROOT
BRANCH   1   2
ATOM      2  C   UNL     1       5.024 -37.976  19.476  1.00  0.00     0.000 C 
BRANCH   2   3
ATOM      3  C   UNL     1       3.817 -37.108  19.080  1.00  0.00     0.000 C 
BRANCH   3   4
ATOM      4  C   UNL     1       2.472 -37.819  19.297  1.00  0.00    -0.000 C 
BRANCH   4   5
ATOM      5  C   UNL     1       1.520 -37.562  18.120  1.00  0.00    -0.000 C 
BRANCH   5   6
ATOM      6  C   UNL     1       2.209 -36.857  16.938  1.00  0.00    -0.000 C 
BRANCH   6   7
ATOM      7  C   UNL     1       1.421 -36.886  15.612  1.00  0.00    -0.000 C 
BRANCH   7   8
ATOM      8  C   UNL     1       2.249 -36.575  14.348  1.00  0.00    -0.000 C 
BRANCH   8   9
ATOM      9  C   UNL     1       3.769 -36.488  14.571  1.00  0.00    -0.000 C 
BRANCH   9  10
ATOM     10  C   UNL     1       4.537 -37.638  13.897  1.00  0.00    -0.000 C 
BRANCH  10  11
ATOM     11  C   UNL     1       3.985 -39.020  14.284  1.00  0.00    -0.003 C 
ATOM     12  C   UNL     1       4.980 -40.151  14.022  1.00  0.00     0.004 C 
ENDBRANCH  10  11
ENDBRANCH   9  10
ENDBRANCH   8   9
ENDBRANCH   7   8
ENDBRANCH   6   7
ENDBRANCH   5   6
ENDBRANCH   4   5
ENDBRANCH   3   4
ENDBRANCH   2   3
ENDBRANCH   1   2
BRANCH   1  13
ATOM     13  C   UNL     1       5.902 -36.639  21.527  1.00  0.00     0.000 C 
BRANCH  13  14
ATOM     14  C   UNL     1       4.840 -35.538  21.722  1.00  0.00     0.000 C 
BRANCH  14  15
ATOM     15  C   UNL     1       4.756 -34.964  23.148  1.00  0.00     0.000 C 
BRANCH  15  16
ATOM     16  C   UNL     1       6.125 -34.867  23.835  1.00  0.00     0.000 C 
BRANCH  16  17
ATOM     17  C   UNL     1       6.120 -35.608  25.177  1.00  0.00     0.000 C 
BRANCH  17  18
ATOM     18  C   UNL     1       4.924 -36.564  25.274  1.00  0.00     0.000 C 
BRANCH  18  19
ATOM     19  C   UNL     1       5.381 -37.977  25.663  1.00  0.00     0.000 C 
BRANCH  19  20
ATOM     20  C   UNL     1       5.885 -38.794  24.459  1.00  0.00     0.006 C 
BRANCH  20  21
ATOM     21  C   UNL     1       4.846 -39.764  23.872  1.00  0.00     0.053 C 
BRANCH  21  22
ATOM     22  C   UNL     1       5.454 -41.081  23.501  1.00  0.00     0.041 C 
ATOM     23  O   UNL     1       5.576 -41.989  24.365  1.00  0.00    -0.550 OA
ATOM     24  O   UNL     1       5.920 -41.294  22.209  1.00  0.00    -0.550 OA
ENDBRANCH  21  22
ENDBRANCH  20  21
ENDBRANCH  19  20
ENDBRANCH  18  19
ENDBRANCH  17  18
ENDBRANCH  16  17
ENDBRANCH  15  16
ENDBRANCH  14  15
ENDBRANCH  13  14
ENDBRANCH   1  13
TORSDOF 20
ENDMDL
MODEL 5
REMARK VINA RESULT:     1.344      3.543      7.115
REMARK INTER + INTRA:          -0.090
REMARK INTER:                   0.968
REMARK INTRA:                  -1.058
REMARK UNBOUND:                -3.005
REMARK SMILES CCCCCCCCCCCCCCCCCCCCCC(=O)[O-]
REMARK SMILES IDX 12 1 11 2 10 3 9 4 8 5 7 6 6 7 5 8 4 9 3 10 2 11 1 12 13 13
REMARK SMILES IDX 14 14 15 15 16 16 17 17 18 18 19 19 20 20 21 21 22 22 23 23
REMARK SMILES IDX 24 24
REMARK H PARENT
REMARK Flexibility Score: inf
ROOT
ATOM      1  C   UNL     1       3.852 -35.298  17.806  1.00  0.00     0.000 C 
ENDROOT
BRANCH   1   2
ATOM      2  C   UNL     1       3.768 -36.010  16.441  1.00  0.00     0.000 C 
BRANCH   2   3
ATOM      3  C   UNL     1       2.346 -36.165  15.875  1.00  0.00     0.000 C 
BRANCH   3   4
ATOM      4  C   UNL     1       1.374 -36.816  16.870  1.00  0.00    -0.000 C 
BRANCH   4   5
ATOM      5  C   UNL     1       2.063 -37.944  17.652  1.00  0.00    -0.000 C 
BRANCH   5   6
ATOM      6  C   UNL     1       1.774 -37.889  19.162  1.00  0.00    -0.000 C 
BRANCH   6   7
ATOM      7  C   UNL     1       3.022 -37.944  20.068  1.00  0.00    -0.000 C 
BRANCH   7   8
ATOM      8  C   UNL     1       4.347 -38.253  19.341  1.00  0.00    -0.000 C 
BRANCH   8   9
ATOM      9  C   UNL     1       5.571 -38.416  20.259  1.00  0.00    -0.000 C 
BRANCH   9  10
ATOM     10  C   UNL     1       5.186 -38.630  21.733  1.00  0.00    -0.000 C 
BRANCH  10  11
ATOM     11  C   UNL     1       5.383 -40.085  22.188  1.00  0.00    -0.003 C 
ATOM     12  C   UNL     1       6.123 -40.934  21.154  1.00  0.00     0.004 C 
ENDBRANCH  10  11
ENDBRANCH   9  10
ENDBRANCH   8   9
ENDBRANCH   7   8
ENDBRANCH   6   7
ENDBRANCH   5   6
ENDBRANCH   4   5
ENDBRANCH   3   4
ENDBRANCH   2   3
ENDBRANCH   1   2
BRANCH   1  13
ATOM     13  C   UNL     1       5.159 -34.521  18.056  1.00  0.00     0.000 C 
BRANCH  13  14
ATOM     14  C   UNL     1       6.031 -35.063  19.207  1.00  0.00     0.000 C 
BRANCH  14  15
ATOM     15  C   UNL     1       5.648 -34.550  20.607  1.00  0.00     0.000 C 
BRANCH  15  16
ATOM     16  C   UNL     1       4.266 -35.037  21.065  1.00  0.00     0.000 C 
BRANCH  16  17
ATOM     17  C   UNL     1       3.892 -34.434  22.424  1.00  0.00     0.000 C 
BRANCH  17  18
ATOM     18  C   UNL     1       5.139 -33.940  23.169  1.00  0.00     0.000 C 
BRANCH  18  19
ATOM     19  C   UNL     1       6.124 -35.091  23.415  1.00  0.00     0.000 C 
BRANCH  19  20
ATOM     20  C   UNL     1       5.423 -36.400  23.826  1.00  0.00     0.006 C 
BRANCH  20  21
ATOM     21  C   UNL     1       5.801 -36.908  25.227  1.00  0.00     0.053 C 
BRANCH  21  22
ATOM     22  C   UNL     1       4.850 -37.955  25.720  1.00  0.00     0.041 C 
ATOM     23  O   UNL     1       5.090 -39.175  25.517  1.00  0.00    -0.550 OA
ATOM     24  O   UNL     1       3.681 -37.583  26.373  1.00  0.00    -0.550 OA
ENDBRANCH  21  22
ENDBRANCH  20  21
ENDBRANCH  19  20
ENDBRANCH  18  19
ENDBRANCH  17  18
ENDBRANCH  16  17
ENDBRANCH  15  16
ENDBRANCH  14  15
ENDBRANCH  13  14
ENDBRANCH   1  13
TORSDOF 20
ENDMDL
MODEL 6
REMARK VINA RESULT:     1.414      2.112      4.143
REMARK INTER + INTRA:           0.063
REMARK INTER:                   1.582
REMARK INTRA:                  -1.519
REMARK UNBOUND:                -3.005
REMARK SMILES CCCCCCCCCCCCCCCCCCCCCC(=O)[O-]
REMARK SMILES IDX 12 1 11 2 10 3 9 4 8 5 7 6 6 7 5 8 4 9 3 10 2 11 1 12 13 13
REMARK SMILES IDX 14 14 15 15 16 16 17 17 18 18 19 19 20 20 21 21 22 22 23 23
REMARK SMILES IDX 24 24
REMARK H PARENT
REMARK Flexibility Score: inf
ROOT
ATOM      1  C   UNL     1       4.780 -37.394  20.893  1.00  0.00     0.000 C 
ENDROOT
BRANCH   1   2
ATOM      2  C   UNL     1       5.282 -38.367  19.806  1.00  0.00     0.000 C 
BRANCH   2   3
ATOM      3  C   UNL     1       6.051 -39.591  20.333  1.00  0.00     0.000 C 
BRANCH   3   4
ATOM      4  C   UNL     1       6.125 -39.636  21.867  1.00  0.00    -0.000 C 
BRANCH   4   5
ATOM      5  C   UNL     1       5.894 -41.063  22.385  1.00  0.00    -0.000 C 
BRANCH   5   6
ATOM      6  C   UNL     1       4.744 -41.150  23.405  1.00  0.00    -0.000 C 
BRANCH   6   7
ATOM      7  C   UNL     1       5.049 -40.534  24.786  1.00  0.00    -0.000 C 
BRANCH   7   8
ATOM      8  C   UNL     1       5.521 -39.066  24.760  1.00  0.00    -0.000 C 
BRANCH   8   9
ATOM      9  C   UNL     1       4.818 -38.137  25.766  1.00  0.00    -0.000 C 
BRANCH   9  10
ATOM     10  C   UNL     1       5.117 -36.649  25.514  1.00  0.00    -0.000 C 
BRANCH  10  11
ATOM     11  C   UNL     1       6.119 -36.438  24.366  1.00  0.00    -0.003 C 
ATOM     12  C   UNL     1       5.992 -35.060  23.715  1.00  0.00     0.004 C 
ENDBRANCH  10  11
ENDBRANCH   9  10
ENDBRANCH   8   9
ENDBRANCH   7   8
ENDBRANCH   6   7
ENDBRANCH   5   6
ENDBRANCH   4   5
ENDBRANCH   3   4
ENDBRANCH   2   3
ENDBRANCH   1   2
BRANCH   1  13
ATOM     13  C   UNL     1       4.645 -35.927  20.443  1.00  0.00     0.000 C 
BRANCH  13  14
ATOM     14  C   UNL     1       5.974 -35.223  20.107  1.00  0.00     0.000 C 
BRANCH  14  15
ATOM     15  C   UNL     1       6.002 -34.505  18.745  1.00  0.00     0.000 C 
BRANCH  15  16
ATOM     16  C   UNL     1       4.626 -34.460  18.065  1.00  0.00     0.000 C 
BRANCH  16  17
ATOM     17  C   UNL     1       4.402 -35.704  17.197  1.00  0.00     0.000 C 
BRANCH  17  18
ATOM     18  C   UNL     1       3.201 -35.514  16.262  1.00  0.00     0.000 C 
BRANCH  18  19
ATOM     19  C   UNL     1       2.623 -36.869  15.827  1.00  0.00     0.000 C 
BRANCH  19  20
ATOM     20  C   UNL     1       1.574 -37.415  16.815  1.00  0.00     0.006 C 
BRANCH  20  21
ATOM     21  C   UNL     1       2.123 -37.715  18.219  1.00  0.00     0.053 C 
BRANCH  21  22
ATOM     22  C   UNL     1       1.051 -37.665  19.263  1.00  0.00     0.041 C 
ATOM     23  O   UNL     1       1.339 -37.835  20.477  1.00  0.00    -0.550 OA
ATOM     24  O   UNL     1      -0.274 -37.467  18.893  1.00  0.00    -0.550 OA
ENDBRANCH  21  22
ENDBRANCH  20  21
ENDBRANCH  19  20
ENDBRANCH  18  19
ENDBRANCH  17  18
ENDBRANCH  16  17
ENDBRANCH  15  16
ENDBRANCH  14  15
ENDBRANCH  13  14
ENDBRANCH   1  13
TORSDOF 20
ENDMDL
MODEL 7
REMARK VINA RESULT:     1.454      3.532      7.869
REMARK INTER + INTRA:           0.149
REMARK INTER:                   1.986
REMARK INTRA:                  -1.836
REMARK UNBOUND:                -3.005
REMARK SMILES CCCCCCCCCCCCCCCCCCCCCC(=O)[O-]
REMARK SMILES IDX 12 1 11 2 10 3 9 4 8 5 7 6 6 7 5 8 4 9 3 10 2 11 1 12 13 13
REMARK SMILES IDX 14 14 15 15 16 16 17 17 18 18 19 19 20 20 21 21 22 22 23 23
REMARK SMILES IDX 24 24
REMARK H PARENT
REMARK Flexibility Score: inf
ROOT
ATOM      1  C   UNL     1       1.746 -37.664  19.975  1.00  0.00     0.000 C 
ENDROOT
BRANCH   1   2
ATOM      2  C   UNL     1       0.840 -37.614  18.728  1.00  0.00     0.000 C 
BRANCH   2   3
ATOM      3  C   UNL     1       1.574 -37.759  17.384  1.00  0.00     0.000 C 
BRANCH   3   4
ATOM      4  C   UNL     1       1.431 -36.519  16.488  1.00  0.00    -0.000 C 
BRANCH   4   5
ATOM      5  C   UNL     1       2.793 -36.097  15.916  1.00  0.00    -0.000 C 
BRANCH   5   6
ATOM      6  C   UNL     1       3.534 -35.094  16.818  1.00  0.00    -0.000 C 
BRANCH   6   7
ATOM      7  C   UNL     1       4.569 -35.719  17.776  1.00  0.00    -0.000 C 
BRANCH   7   8
ATOM      8  C   UNL     1       5.328 -34.715  18.669  1.00  0.00    -0.000 C 
BRANCH   8   9
ATOM      9  C   UNL     1       5.949 -35.315  19.942  1.00  0.00    -0.000 C 
BRANCH   9  10
ATOM     10  C   UNL     1       4.990 -35.282  21.145  1.00  0.00    -0.000 C 
BRANCH  10  11
ATOM     11  C   UNL     1       5.697 -35.613  22.470  1.00  0.00    -0.003 C 
ATOM     12  C   UNL     1       5.683 -34.445  23.456  1.00  0.00     0.004 C 
ENDBRANCH  10  11
ENDBRANCH   9  10
ENDBRANCH   8   9
ENDBRANCH   7   8
ENDBRANCH   6   7
ENDBRANCH   5   6
ENDBRANCH   4   5
ENDBRANCH   3   4
ENDBRANCH   2   3
ENDBRANCH   1   2
BRANCH   1  13
ATOM     13  C   UNL     1       3.250 -37.825  19.681  1.00  0.00     0.000 C 
BRANCH  13  14
ATOM     14  C   UNL     1       4.036 -38.639  20.728  1.00  0.00     0.000 C 
BRANCH  14  15
ATOM     15  C   UNL     1       5.535 -38.811  20.424  1.00  0.00     0.000 C 
BRANCH  15  16
ATOM     16  C   UNL     1       6.125 -40.091  21.034  1.00  0.00     0.000 C 
BRANCH  16  17
ATOM     17  C   UNL     1       5.111 -40.778  21.957  1.00  0.00     0.000 C 
BRANCH  17  18
ATOM     18  C   UNL     1       5.813 -41.723  22.941  1.00  0.00     0.000 C 
BRANCH  18  19
ATOM     19  C   UNL     1       5.702 -41.198  24.379  1.00  0.00     0.000 C 
BRANCH  19  20
ATOM     20  C   UNL     1       5.297 -39.714  24.444  1.00  0.00     0.006 C 
BRANCH  20  21
ATOM     21  C   UNL     1       4.936 -39.217  25.853  1.00  0.00     0.053 C 
BRANCH  21  22
ATOM     22  C   UNL     1       4.814 -37.725  25.909  1.00  0.00     0.041 C 
ATOM     23  O   UNL     1       3.728 -37.191  26.258  1.00  0.00    -0.550 OA
ATOM     24  O   UNL     1       5.888 -36.924  25.541  1.00  0.00    -0.550 OA
ENDBRANCH  21  22
ENDBRANCH  20  21
ENDBRANCH  19  20
ENDBRANCH  18  19
ENDBRANCH  17  18
ENDBRANCH  16  17
ENDBRANCH  15  16
ENDBRANCH  14  15
ENDBRANCH  13  14
ENDBRANCH   1  13
TORSDOF 20
ENDMDL
MODEL 8
REMARK VINA RESULT:     1.520      2.145      3.930
REMARK INTER + INTRA:           0.293
REMARK INTER:                   0.652
REMARK INTRA:                  -0.358
REMARK UNBOUND:                -3.005
REMARK SMILES CCCCCCCCCCCCCCCCCCCCCC(=O)[O-]
REMARK SMILES IDX 12 1 11 2 10 3 9 4 8 5 7 6 6 7 5 8 4 9 3 10 2 11 1 12 13 13
REMARK SMILES IDX 14 14 15 15 16 16 17 17 18 18 19 19 20 20 21 21 22 22 23 23
REMARK SMILES IDX 24 24
REMARK H PARENT
REMARK Flexibility Score: inf
ROOT
ATOM      1  C   UNL     1       4.476 -35.701  21.986  1.00  0.00     0.000 C 
ENDROOT
BRANCH   1   2
ATOM      2  C   UNL     1       5.661 -34.868  22.515  1.00  0.00     0.000 C 
BRANCH   2   3
ATOM      3  C   UNL     1       6.125 -35.227  23.937  1.00  0.00     0.000 C 
BRANCH   3   4
ATOM      4  C   UNL     1       6.022 -36.729  24.239  1.00  0.00    -0.000 C 
BRANCH   4   5
ATOM      5  C   UNL     1       5.201 -36.977  25.513  1.00  0.00    -0.000 C 
BRANCH   5   6
ATOM      6  C   UNL     1       4.857 -38.463  25.722  1.00  0.00    -0.000 C 
BRANCH   6   7
ATOM      7  C   UNL     1       5.000 -39.349  24.467  1.00  0.00    -0.000 C 
BRANCH   7   8
ATOM      8  C   UNL     1       5.011 -40.868  24.733  1.00  0.00    -0.000 C 
BRANCH   8   9
ATOM      9  C   UNL     1       6.087 -41.656  23.966  1.00  0.00    -0.000 C 
BRANCH   9  10
ATOM     10  C   UNL     1       5.930 -41.547  22.439  1.00  0.00    -0.000 C 
BRANCH  10  11
ATOM     11  C   UNL     1       5.682 -40.101  21.976  1.00  0.00    -0.003 C 
ATOM     12  C   UNL     1       6.091 -39.867  20.522  1.00  0.00     0.004 C 
ENDBRANCH  10  11
ENDBRANCH   9  10
ENDBRANCH   8   9
ENDBRANCH   7   8
ENDBRANCH   6   7
ENDBRANCH   5   6
ENDBRANCH   4   5
ENDBRANCH   3   4
ENDBRANCH   2   3
ENDBRANCH   1   2
BRANCH   1  13
ATOM     13  C   UNL     1       4.616 -36.183  20.529  1.00  0.00     0.000 C 
BRANCH  13  14
ATOM     14  C   UNL     1       5.661 -35.423  19.689  1.00  0.00     0.000 C 
BRANCH  14  15
ATOM     15  C   UNL     1       5.115 -34.779  18.402  1.00  0.00     0.000 C 
BRANCH  15  16
ATOM     16  C   UNL     1       3.825 -35.445  17.901  1.00  0.00     0.000 C 
BRANCH  16  17
ATOM     17  C   UNL     1       3.952 -35.853  16.429  1.00  0.00     0.000 C 
BRANCH  17  18
ATOM     18  C   UNL     1       3.415 -37.271  16.201  1.00  0.00     0.000 C 
BRANCH  18  19
ATOM     19  C   UNL     1       1.891 -37.258  16.011  1.00  0.00     0.000 C 
BRANCH  19  20
ATOM     20  C   UNL     1       1.132 -36.875  17.296  1.00  0.00     0.006 C 
BRANCH  20  21
ATOM     21  C   UNL     1       0.863 -38.052  18.246  1.00  0.00     0.053 C 
BRANCH  21  22
ATOM     22  C   UNL     1       1.360 -37.781  19.632  1.00  0.00     0.041 C 
ATOM     23  O   UNL     1       2.541 -38.082  19.952  1.00  0.00    -0.550 OA
ATOM     24  O   UNL     1       0.510 -37.227  20.582  1.00  0.00    -0.550 OA
ENDBRANCH  21  22
ENDBRANCH  20  21
ENDBRANCH  19  20
ENDBRANCH  18  19
ENDBRANCH  17  18
ENDBRANCH  16  17
ENDBRANCH  15  16
ENDBRANCH  14  15
ENDBRANCH  13  14
ENDBRANCH   1  13
TORSDOF 20
ENDMDL
