MODEL 1
REMARK VINA RESULT:    -5.007      0.000      0.000
REMARK INTER + INTRA:          -6.596
REMARK INTER:                  -6.177
REMARK INTRA:                  -0.419
REMARK UNBOUND:                -0.419
REMARK SMILES CCCCCc1ccccc1
REMARK SMILES IDX 4 1 3 2 2 3 1 4 5 5 6 6 7 7 11 8 8 9 10 10 9 11
REMARK H PARENT
REMARK Flexibility Score: inf
ROOT
ATOM      1  C   UNL     1       8.261  -2.700 -35.707  1.00  0.00     0.005 C 
ENDROOT
BRANCH   1   2
ATOM      2  C   UNL     1       8.135  -1.534 -36.693  1.00  0.00     0.000 C 
BRANCH   2   3
ATOM      3  C   UNL     1       8.204  -2.030 -38.142  1.00  0.00    -0.003 C 
ATOM      4  C   UNL     1       8.412  -0.871 -39.113  1.00  0.00     0.004 C 
ENDBRANCH   2   3
ENDBRANCH   1   2
BRANCH   1   5
ATOM      5  C   UNL     1       9.258  -3.747 -36.217  1.00  0.00     0.035 C 
BRANCH   5   6
ATOM      6  C   UNL     1       8.623  -5.112 -36.248  1.00  0.00    -0.048 A 
ATOM      7  C   UNL     1       8.244  -5.691 -37.470  1.00  0.00     0.004 A 
ATOM      8  C   UNL     1       8.352  -5.793 -35.050  1.00  0.00     0.004 A 
ATOM      9  C   UNL     1       7.626  -6.945 -37.494  1.00  0.00     0.000 A 
ATOM     10  C   UNL     1       7.732  -7.047 -35.077  1.00  0.00     0.000 A 
ATOM     11  C   UNL     1       7.371  -7.623 -36.299  1.00  0.00     0.000 A 
ENDBRANCH   5   6
ENDBRANCH   1   5
TORSDOF 4
ENDMDL
MODEL 2
REMARK VINA RESULT:    -4.983      0.506      1.638
REMARK INTER + INTRA:          -6.567
REMARK INTER:                  -6.397
REMARK INTRA:                  -0.169
REMARK UNBOUND:                -0.419
REMARK SMILES CCCCCc1ccccc1
REMARK SMILES IDX 4 1 3 2 2 3 1 4 5 5 6 6 7 7 11 8 8 9 10 10 9 11
REMARK H PARENT
REMARK Flexibility Score: inf
ROOT
ATOM      1  C   UNL     1       8.140  -2.547 -36.626  1.00  0.00     0.005 C 
ENDROOT
BRANCH   1   2
ATOM      2  C   UNL     1       8.251  -2.212 -38.117  1.00  0.00     0.000 C 
BRANCH   2   3
ATOM      3  C   UNL     1       7.971  -0.726 -38.368  1.00  0.00    -0.003 C 
ATOM      4  C   UNL     1       8.379  -0.318 -39.780  1.00  0.00     0.004 C 
ENDBRANCH   2   3
ENDBRANCH   1   2
BRANCH   1   5
ATOM      5  C   UNL     1       9.168  -3.609 -36.223  1.00  0.00     0.035 C 
BRANCH   5   6
ATOM      6  C   UNL     1       8.543  -4.979 -36.224  1.00  0.00    -0.048 A 
ATOM      7  C   UNL     1       8.365  -5.679 -35.020  1.00  0.00     0.004 A 
ATOM      8  C   UNL     1       8.186  -5.592 -37.437  1.00  0.00     0.004 A 
ATOM      9  C   UNL     1       7.813  -6.964 -35.027  1.00  0.00     0.000 A 
ATOM     10  C   UNL     1       7.636  -6.878 -37.440  1.00  0.00     0.000 A 
ATOM     11  C   UNL     1       7.448  -7.563 -36.236  1.00  0.00     0.000 A 
ENDBRANCH   5   6
ENDBRANCH   1   5
TORSDOF 4
ENDMDL
MODEL 3
REMARK VINA RESULT:    -4.977     15.759     17.397
REMARK INTER + INTRA:          -6.560
REMARK INTER:                  -5.716
REMARK INTRA:                  -0.844
REMARK UNBOUND:                -0.419
REMARK SMILES CCCCCc1ccccc1
REMARK SMILES IDX 4 1 3 2 2 3 1 4 5 5 6 6 7 7 11 8 8 9 10 10 9 11
REMARK H PARENT
REMARK Flexibility Score: inf
ROOT
ATOM      1  C   UNL     1      -7.547   1.013 -41.848  1.00  0.00     0.005 C 
ENDROOT
BRANCH   1   2
ATOM      2  C   UNL     1      -8.241   0.247 -40.716  1.00  0.00     0.000 C 
BRANCH   2   3
ATOM      3  C   UNL     1      -7.216  -0.474 -39.834  1.00  0.00    -0.003 C 
ATOM      4  C   UNL     1      -7.296   0.009 -38.388  1.00  0.00     0.004 C 
ENDBRANCH   2   3
ENDBRANCH   1   2
BRANCH   1   5
ATOM      5  C   UNL     1      -7.707   2.526 -41.668  1.00  0.00     0.035 C 
BRANCH   5   6
ATOM      6  C   UNL     1      -6.974   2.993 -40.438  1.00  0.00    -0.048 A 
ATOM      7  C   UNL     1      -7.676   3.584 -39.375  1.00  0.00     0.004 A 
ATOM      8  C   UNL     1      -5.574   2.895 -40.369  1.00  0.00     0.004 A 
ATOM      9  C   UNL     1      -6.989   4.045 -38.247  1.00  0.00     0.000 A 
ATOM     10  C   UNL     1      -4.890   3.359 -39.240  1.00  0.00     0.000 A 
ATOM     11  C   UNL     1      -5.597   3.932 -38.179  1.00  0.00     0.000 A 
ENDBRANCH   5   6
ENDBRANCH   1   5
TORSDOF 4
ENDMDL
MODEL 4
REMARK VINA RESULT:    -4.963     16.365     16.938
REMARK INTER + INTRA:          -6.542
REMARK INTER:                  -6.303
REMARK INTRA:                  -0.239
REMARK UNBOUND:                -0.419
REMARK SMILES CCCCCc1ccccc1
REMARK SMILES IDX 4 1 3 2 2 3 1 4 5 5 6 6 7 7 11 8 8 9 10 10 9 11
REMARK H PARENT
REMARK Flexibility Score: inf
ROOT
ATOM      1  C   UNL     1      -5.848   3.765 -38.124  1.00  0.00     0.005 C 
ENDROOT
BRANCH   1   2
ATOM      2  C   UNL     1      -6.093   3.551 -36.626  1.00  0.00     0.000 C 
BRANCH   2   3
ATOM      3  C   UNL     1      -5.709   4.798 -35.823  1.00  0.00    -0.003 C 
ATOM      4  C   UNL     1      -6.026   4.619 -34.341  1.00  0.00     0.004 C 
ENDBRANCH   2   3
ENDBRANCH   1   2
BRANCH   1   5
ATOM      5  C   UNL     1      -7.154   3.649 -38.917  1.00  0.00     0.035 C 
BRANCH   5   6
ATOM      6  C   UNL     1      -7.189   2.358 -39.692  1.00  0.00    -0.048 A 
ATOM      7  C   UNL     1      -7.194   2.373 -41.096  1.00  0.00     0.004 A 
ATOM      8  C   UNL     1      -7.276   1.129 -39.016  1.00  0.00     0.004 A 
ATOM      9  C   UNL     1      -7.259   1.173 -41.813  1.00  0.00     0.000 A 
ATOM     10  C   UNL     1      -7.342  -0.068 -39.736  1.00  0.00     0.000 A 
ATOM     11  C   UNL     1      -7.332  -0.046 -41.134  1.00  0.00     0.000 A 
ENDBRANCH   5   6
ENDBRANCH   1   5
TORSDOF 4
ENDMDL
MODEL 5
REMARK VINA RESULT:    -4.944     16.187     16.915
REMARK INTER + INTRA:          -6.518
REMARK INTER:                  -6.058
REMARK INTRA:                  -0.461
REMARK UNBOUND:                -0.419
REMARK SMILES CCCCCc1ccccc1
REMARK SMILES IDX 4 1 3 2 2 3 1 4 5 5 6 6 7 7 11 8 8 9 10 10 9 11
REMARK H PARENT
REMARK Flexibility Score: inf
ROOT
ATOM      1  C   UNL     1      -6.275   2.378 -40.309  1.00  0.00     0.005 C 
ENDROOT
BRANCH   1   2
ATOM      2  C   UNL     1      -7.294   2.147 -41.430  1.00  0.00     0.000 C 
BRANCH   2   3
ATOM      3  C   UNL     1      -7.573   0.652 -41.620  1.00  0.00    -0.003 C 
ATOM      4  C   UNL     1      -7.316  -0.125 -40.333  1.00  0.00     0.004 C 
ENDBRANCH   2   3
ENDBRANCH   1   2
BRANCH   1   5
ATOM      5  C   UNL     1      -6.647   3.606 -39.471  1.00  0.00     0.035 C 
BRANCH   5   6
ATOM      6  C   UNL     1      -6.434   3.332 -38.006  1.00  0.00    -0.048 A 
ATOM      7  C   UNL     1      -6.705   2.060 -37.476  1.00  0.00     0.004 A 
ATOM      8  C   UNL     1      -6.018   4.362 -37.147  1.00  0.00     0.004 A 
ATOM      9  C   UNL     1      -6.537   1.816 -36.109  1.00  0.00     0.000 A 
ATOM     10  C   UNL     1      -5.853   4.115 -35.780  1.00  0.00     0.000 A 
ATOM     11  C   UNL     1      -6.110   2.843 -35.261  1.00  0.00     0.000 A 
ENDBRANCH   5   6
ENDBRANCH   1   5
TORSDOF 4
ENDMDL
MODEL 6
REMARK VINA RESULT:    -4.847      1.848      4.136
REMARK INTER + INTRA:          -6.399
REMARK INTER:                  -5.573
REMARK INTRA:                  -0.826
REMARK UNBOUND:                -0.419
REMARK SMILES CCCCCc1ccccc1
REMARK SMILES IDX 4 1 3 2 2 3 1 4 5 5 6 6 7 7 11 8 8 9 10 10 9 11
REMARK H PARENT
REMARK Flexibility Score: inf
ROOT
ATOM      1  C   UNL     1       6.711  -7.100 -34.142  1.00  0.00     0.005 C 
ENDROOT
BRANCH   1   2
ATOM      2  C   UNL     1       5.386  -6.700 -34.800  1.00  0.00     0.000 C 
BRANCH   2   3
ATOM      3  C   UNL     1       4.945  -5.305 -34.341  1.00  0.00    -0.003 C 
ATOM      4  C   UNL     1       4.936  -4.319 -35.505  1.00  0.00     0.004 C 
ENDBRANCH   2   3
ENDBRANCH   1   2
BRANCH   1   5
ATOM      5  C   UNL     1       7.765  -7.454 -35.197  1.00  0.00     0.035 C 
BRANCH   5   6
ATOM      6  C   UNL     1       8.158  -6.231 -35.983  1.00  0.00    -0.048 A 
ATOM      7  C   UNL     1       8.142  -6.255 -37.387  1.00  0.00     0.004 A 
ATOM      8  C   UNL     1       8.600  -5.075 -35.319  1.00  0.00     0.004 A 
ATOM      9  C   UNL     1       8.538  -5.128 -38.115  1.00  0.00     0.000 A 
ATOM     10  C   UNL     1       8.996  -3.950 -36.050  1.00  0.00     0.000 A 
ATOM     11  C   UNL     1       8.964  -3.976 -37.447  1.00  0.00     0.000 A 
ENDBRANCH   5   6
ENDBRANCH   1   5
TORSDOF 4
ENDMDL
MODEL 7
REMARK VINA RESULT:    -4.803      1.918      4.755
REMARK INTER + INTRA:          -6.345
REMARK INTER:                  -5.505
REMARK INTRA:                  -0.839
REMARK UNBOUND:                -0.419
REMARK SMILES CCCCCc1ccccc1
REMARK SMILES IDX 4 1 3 2 2 3 1 4 5 5 6 6 7 7 11 8 8 9 10 10 9 11
REMARK H PARENT
REMARK Flexibility Score: inf
ROOT
ATOM      1  C   UNL     1       6.038  -8.224 -35.156  1.00  0.00     0.005 C 
ENDROOT
BRANCH   1   2
ATOM      2  C   UNL     1       4.869  -7.990 -36.119  1.00  0.00     0.000 C 
BRANCH   2   3
ATOM      3  C   UNL     1       4.258  -6.600 -35.913  1.00  0.00    -0.003 C 
ATOM      4  C   UNL     1       4.387  -5.748 -37.173  1.00  0.00     0.004 C 
ENDBRANCH   2   3
ENDBRANCH   1   2
BRANCH   1   5
ATOM      5  C   UNL     1       7.371  -8.275 -35.910  1.00  0.00     0.035 C 
BRANCH   5   6
ATOM      6  C   UNL     1       7.867  -6.885 -36.204  1.00  0.00    -0.048 A 
ATOM      7  C   UNL     1       8.113  -5.982 -35.156  1.00  0.00     0.004 A 
ATOM      8  C   UNL     1       8.033  -6.458 -37.533  1.00  0.00     0.004 A 
ATOM      9  C   UNL     1       8.543  -4.681 -35.434  1.00  0.00     0.000 A 
ATOM     10  C   UNL     1       8.462  -5.155 -37.807  1.00  0.00     0.000 A 
ATOM     11  C   UNL     1       8.719  -4.268 -36.758  1.00  0.00     0.000 A 
ENDBRANCH   5   6
ENDBRANCH   1   5
TORSDOF 4
ENDMDL
MODEL 8
REMARK VINA RESULT:    -4.761      2.380      6.373
REMARK INTER + INTRA:          -6.293
REMARK INTER:                  -6.015
REMARK INTRA:                  -0.277
REMARK UNBOUND:                -0.419
REMARK SMILES CCCCCc1ccccc1
REMARK SMILES IDX 4 1 3 2 2 3 1 4 5 5 6 6 7 7 11 8 8 9 10 10 9 11
REMARK H PARENT
REMARK Flexibility Score: inf
ROOT
ATOM      1  C   UNL     1       7.027  -9.548 -35.491  1.00  0.00     0.005 C 
ENDROOT
BRANCH   1   2
ATOM      2  C   UNL     1       6.320 -10.650 -34.694  1.00  0.00     0.000 C 
BRANCH   2   3
ATOM      3  C   UNL     1       5.904 -11.808 -35.608  1.00  0.00    -0.003 C 
ATOM      4  C   UNL     1       4.808 -11.380 -36.579  1.00  0.00     0.004 C 
ENDBRANCH   2   3
ENDBRANCH   1   2
BRANCH   1   5
ATOM      5  C   UNL     1       7.284  -8.316 -34.617  1.00  0.00     0.035 C 
BRANCH   5   6
ATOM      6  C   UNL     1       7.743  -7.156 -35.460  1.00  0.00    -0.048 A 
ATOM      7  C   UNL     1       8.206  -5.977 -34.853  1.00  0.00     0.004 A 
ATOM      8  C   UNL     1       7.657  -7.221 -36.861  1.00  0.00     0.004 A 
ATOM      9  C   UNL     1       8.602  -4.889 -35.638  1.00  0.00     0.000 A 
ATOM     10  C   UNL     1       8.052  -6.131 -37.643  1.00  0.00     0.000 A 
ATOM     11  C   UNL     1       8.526  -4.966 -37.032  1.00  0.00     0.000 A 
ENDBRANCH   5   6
ENDBRANCH   1   5
TORSDOF 4
ENDMDL
MODEL 9
REMARK VINA RESULT:    -4.619      1.707      2.745
REMARK INTER + INTRA:          -6.118
REMARK INTER:                  -5.393
REMARK INTRA:                  -0.725
REMARK UNBOUND:                -0.419
REMARK SMILES CCCCCc1ccccc1
REMARK SMILES IDX 4 1 3 2 2 3 1 4 5 5 6 6 7 7 11 8 8 9 10 10 9 11
REMARK H PARENT
REMARK Flexibility Score: inf
ROOT
ATOM      1  C   UNL     1       8.466  -4.332 -37.673  1.00  0.00     0.005 C 
ENDROOT
BRANCH   1   2
ATOM      2  C   UNL     1       9.231  -3.999 -36.387  1.00  0.00     0.000 C 
BRANCH   2   3
ATOM      3  C   UNL     1       8.390  -3.113 -35.462  1.00  0.00    -0.003 C 
ATOM      4  C   UNL     1       7.020  -3.731 -35.201  1.00  0.00     0.004 C 
ENDBRANCH   2   3
ENDBRANCH   1   2
BRANCH   1   5
ATOM      5  C   UNL     1       8.546  -5.830 -37.989  1.00  0.00     0.035 C 
BRANCH   5   6
ATOM      6  C   UNL     1       7.444  -6.578 -37.288  1.00  0.00    -0.048 A 
ATOM      7  C   UNL     1       6.108  -6.419 -37.694  1.00  0.00     0.004 A 
ATOM      8  C   UNL     1       7.735  -7.398 -36.184  1.00  0.00     0.004 A 
ATOM      9  C   UNL     1       5.083  -7.091 -37.020  1.00  0.00     0.000 A 
ATOM     10  C   UNL     1       6.707  -8.067 -35.513  1.00  0.00     0.000 A 
ATOM     11  C   UNL     1       5.382  -7.915 -35.932  1.00  0.00     0.000 A 
ENDBRANCH   5   6
ENDBRANCH   1   5
TORSDOF 4
ENDMDL
