MODEL 1
REMARK VINA RESULT:    -3.408      0.000      0.000
REMARK INTER + INTRA:         -13.444
REMARK INTER:                  -8.589
REMARK INTRA:                  -4.855
REMARK UNBOUND:                -4.855
REMARK SMILES CCCCCCCCCCCCCCCCCCCCCCCCCCCC(=O)[O-]
REMARK SMILES IDX 15 1 16 2 17 3 18 4 19 5 20 6 21 7 22 8 23 9 24 10 25 11
REMARK SMILES IDX 26 12 27 13 28 14 29 15 30 16 14 17 13 18 12 19 11 20 10 21
REMARK SMILES IDX 9 22 8 23 7 24 6 25 5 26 4 27 3 28 2 29 1 30
REMARK H PARENT
REMARK Flexibility Score: inf
ROOT
ATOM      1  C   UNL     1     -99.181  71.645  21.666  1.00  0.00     0.000 C 
ENDROOT
BRANCH   1   2
ATOM      2  C   UNL     1     -98.194  72.153  20.597  1.00  0.00     0.000 C 
BRANCH   2   3
ATOM      3  C   UNL     1     -96.732  71.818  20.936  1.00  0.00     0.000 C 
BRANCH   3   4
ATOM      4  C   UNL     1     -95.772  72.990  20.661  1.00  0.00     0.000 C 
BRANCH   4   5
ATOM      5  C   UNL     1     -95.328  73.704  21.948  1.00  0.00     0.000 C 
BRANCH   5   6
ATOM      6  C   UNL     1     -95.635  72.888  23.214  1.00  0.00     0.000 C 
BRANCH   6   7
ATOM      7  C   UNL     1     -96.322  73.755  24.282  1.00  0.00     0.000 C 
BRANCH   7   8
ATOM      8  C   UNL     1     -97.766  74.137  23.902  1.00  0.00     0.000 C 
BRANCH   8   9
ATOM      9  C   UNL     1     -98.855  73.547  24.818  1.00  0.00     0.000 C 
BRANCH   9  10
ATOM     10  C   UNL     1     -98.349  72.525  25.853  1.00  0.00     0.000 C 
BRANCH  10  11
ATOM     11  C   UNL     1     -98.405  73.039  27.309  1.00  0.00     0.000 C 
BRANCH  11  12
ATOM     12  C   UNL     1     -98.959  71.983  28.282  1.00  0.00     0.006 C 
BRANCH  12  13
ATOM     13  C   UNL     1     -98.054  70.746  28.368  1.00  0.00     0.053 C 
BRANCH  13  14
ATOM     14  C   UNL     1     -98.700  69.636  29.141  1.00  0.00     0.041 C 
ATOM     15  O   UNL     1     -99.638  69.886  29.944  1.00  0.00    -0.550 OA
ATOM     16  O   UNL     1     -98.258  68.329  28.981  1.00  0.00    -0.550 OA
ENDBRANCH  13  14
ENDBRANCH  12  13
ENDBRANCH  11  12
ENDBRANCH  10  11
ENDBRANCH   9  10
ENDBRANCH   8   9
ENDBRANCH   7   8
ENDBRANCH   6   7
ENDBRANCH   5   6
ENDBRANCH   4   5
ENDBRANCH   3   4
ENDBRANCH   2   3
ENDBRANCH   1   2
BRANCH   1  17
ATOM     17  C   UNL     1     -98.586  70.544  22.569  1.00  0.00     0.000 C 
BRANCH  17  18
ATOM     18  C   UNL     1     -99.615  69.521  23.089  1.00  0.00     0.000 C 
BRANCH  18  19
ATOM     19  C   UNL     1     -99.061  68.440  24.032  1.00  0.00     0.000 C 
BRANCH  19  20
ATOM     20  C   UNL     1     -99.379  68.717  25.512  1.00  0.00     0.000 C 
BRANCH  20  21
ATOM     21  C   UNL     1    -100.474  69.782  25.708  1.00  0.00     0.000 C 
BRANCH  21  22
ATOM     22  C   UNL     1    -101.526  69.458  26.786  1.00  0.00    -0.000 C 
BRANCH  22  23
ATOM     23  C   UNL     1    -102.491  70.628  27.057  1.00  0.00    -0.000 C 
BRANCH  23  24
ATOM     24  C   UNL     1    -102.086  71.912  26.317  1.00  0.00    -0.000 C 
BRANCH  24  25
ATOM     25  C   UNL     1    -103.131  72.348  25.275  1.00  0.00    -0.000 C 
BRANCH  25  26
ATOM     26  C   UNL     1    -103.145  71.435  24.038  1.00  0.00    -0.000 C 
BRANCH  26  27
ATOM     27  C   UNL     1    -104.534  71.332  23.391  1.00  0.00    -0.000 C 
BRANCH  27  28
ATOM     28  C   UNL     1    -104.431  70.837  21.940  1.00  0.00    -0.000 C 
BRANCH  28  29
ATOM     29  C   UNL     1    -103.482  69.637  21.792  1.00  0.00    -0.003 C 
ATOM     30  C   UNL     1    -102.444  69.837  20.689  1.00  0.00     0.004 C 
ENDBRANCH  28  29
ENDBRANCH  27  28
ENDBRANCH  26  27
ENDBRANCH  25  26
ENDBRANCH  24  25
ENDBRANCH  23  24
ENDBRANCH  22  23
ENDBRANCH  21  22
ENDBRANCH  20  21
ENDBRANCH  19  20
ENDBRANCH  18  19
ENDBRANCH  17  18
ENDBRANCH   1  17
TORSDOF 26
ENDMDL
MODEL 2
REMARK VINA RESULT:    -3.390      2.518      4.700
REMARK INTER + INTRA:         -13.397
REMARK INTER:                  -7.263
REMARK INTRA:                  -6.134
REMARK UNBOUND:                -4.855
REMARK SMILES CCCCCCCCCCCCCCCCCCCCCCCCCCCC(=O)[O-]
REMARK SMILES IDX 15 1 16 2 17 3 18 4 19 5 20 6 21 7 22 8 23 9 24 10 25 11
REMARK SMILES IDX 26 12 27 13 28 14 29 15 30 16 14 17 13 18 12 19 11 20 10 21
REMARK SMILES IDX 9 22 8 23 7 24 6 25 5 26 4 27 3 28 2 29 1 30
REMARK H PARENT
REMARK Flexibility Score: inf
ROOT
ATOM      1  C   UNL     1     -98.404  70.929  21.976  1.00  0.00     0.000 C 
ENDROOT
BRANCH   1   2
ATOM      2  C   UNL     1     -97.032  71.341  21.406  1.00  0.00     0.000 C 
BRANCH   2   3
ATOM      3  C   UNL     1     -97.122  72.564  20.479  1.00  0.00     0.000 C 
BRANCH   3   4
ATOM      4  C   UNL     1     -95.910  73.504  20.611  1.00  0.00     0.000 C 
BRANCH   4   5
ATOM      5  C   UNL     1     -95.233  73.404  21.988  1.00  0.00     0.000 C 
BRANCH   5   6
ATOM      6  C   UNL     1     -95.746  74.462  22.979  1.00  0.00     0.000 C 
BRANCH   6   7
ATOM      7  C   UNL     1     -96.370  73.804  24.220  1.00  0.00     0.000 C 
BRANCH   7   8
ATOM      8  C   UNL     1     -97.849  74.188  24.419  1.00  0.00     0.000 C 
BRANCH   8   9
ATOM      9  C   UNL     1     -98.577  74.648  23.141  1.00  0.00     0.000 C 
BRANCH   9  10
ATOM     10  C   UNL     1    -100.002  74.088  22.969  1.00  0.00     0.000 C 
BRANCH  10  11
ATOM     11  C   UNL     1    -100.673  73.682  24.300  1.00  0.00     0.000 C 
BRANCH  11  12
ATOM     12  C   UNL     1    -101.752  72.602  24.106  1.00  0.00     0.006 C 
BRANCH  12  13
ATOM     13  C   UNL     1    -101.824  72.112  22.653  1.00  0.00     0.053 C 
BRANCH  13  14
ATOM     14  C   UNL     1    -102.469  70.763  22.552  1.00  0.00     0.041 C 
ATOM     15  O   UNL     1    -103.430  70.462  23.310  1.00  0.00    -0.550 OA
ATOM     16  O   UNL     1    -102.003  69.837  21.628  1.00  0.00    -0.550 OA
ENDBRANCH  13  14
ENDBRANCH  12  13
ENDBRANCH  11  12
ENDBRANCH  10  11
ENDBRANCH   9  10
ENDBRANCH   8   9
ENDBRANCH   7   8
ENDBRANCH   6   7
ENDBRANCH   5   6
ENDBRANCH   4   5
ENDBRANCH   3   4
ENDBRANCH   2   3
ENDBRANCH   1   2
BRANCH   1  17
ATOM     17  C   UNL     1     -98.387  70.705  23.502  1.00  0.00     0.000 C 
BRANCH  17  18
ATOM     18  C   UNL     1     -99.294  69.558  23.988  1.00  0.00     0.000 C 
BRANCH  18  19
ATOM     19  C   UNL     1     -99.956  69.768  25.360  1.00  0.00     0.000 C 
BRANCH  19  20
ATOM     20  C   UNL     1     -99.132  69.178  26.519  1.00  0.00     0.000 C 
BRANCH  20  21
ATOM     21  C   UNL     1     -98.316  70.236  27.283  1.00  0.00     0.000 C 
BRANCH  21  22
ATOM     22  C   UNL     1     -98.677  71.701  26.974  1.00  0.00    -0.000 C 
BRANCH  22  23
ATOM     23  C   UNL     1     -99.214  72.462  28.201  1.00  0.00    -0.000 C 
BRANCH  23  24
ATOM     24  C   UNL     1    -100.433  73.336  27.867  1.00  0.00    -0.000 C 
BRANCH  24  25
ATOM     25  C   UNL     1    -101.741  72.775  28.453  1.00  0.00    -0.000 C 
BRANCH  25  26
ATOM     26  C   UNL     1    -102.301  71.605  27.630  1.00  0.00    -0.000 C 
BRANCH  26  27
ATOM     27  C   UNL     1    -102.546  70.346  28.475  1.00  0.00    -0.000 C 
BRANCH  27  28
ATOM     28  C   UNL     1    -101.739  70.392  29.781  1.00  0.00    -0.000 C 
BRANCH  28  29
ATOM     29  C   UNL     1    -100.661  69.298  29.847  1.00  0.00    -0.003 C 
ATOM     30  C   UNL     1     -99.536  69.634  30.824  1.00  0.00     0.004 C 
ENDBRANCH  28  29
ENDBRANCH  27  28
ENDBRANCH  26  27
ENDBRANCH  25  26
ENDBRANCH  24  25
ENDBRANCH  23  24
ENDBRANCH  22  23
ENDBRANCH  21  22
ENDBRANCH  20  21
ENDBRANCH  19  20
ENDBRANCH  18  19
ENDBRANCH  17  18
ENDBRANCH   1  17
TORSDOF 26
ENDMDL
MODEL 3
REMARK VINA RESULT:    -3.305      3.053      5.597
REMARK INTER + INTRA:         -13.182
REMARK INTER:                  -7.340
REMARK INTRA:                  -5.842
REMARK UNBOUND:                -4.855
REMARK SMILES CCCCCCCCCCCCCCCCCCCCCCCCCCCC(=O)[O-]
REMARK SMILES IDX 15 1 16 2 17 3 18 4 19 5 20 6 21 7 22 8 23 9 24 10 25 11
REMARK SMILES IDX 26 12 27 13 28 14 29 15 30 16 14 17 13 18 12 19 11 20 10 21
REMARK SMILES IDX 9 22 8 23 7 24 6 25 5 26 4 27 3 28 2 29 1 30
REMARK H PARENT
REMARK Flexibility Score: inf
ROOT
ATOM      1  C   UNL     1     -98.070  71.377  21.613  1.00  0.00     0.000 C 
ENDROOT
BRANCH   1   2
ATOM      2  C   UNL     1     -96.845  72.309  21.542  1.00  0.00     0.000 C 
BRANCH   2   3
ATOM      3  C   UNL     1     -96.169  72.498  22.910  1.00  0.00     0.000 C 
BRANCH   3   4
ATOM      4  C   UNL     1     -95.750  73.956  23.173  1.00  0.00     0.000 C 
BRANCH   4   5
ATOM      5  C   UNL     1     -96.769  74.716  24.039  1.00  0.00     0.000 C 
BRANCH   5   6
ATOM      6  C   UNL     1     -97.544  73.791  24.992  1.00  0.00     0.000 C 
BRANCH   6   7
ATOM      7  C   UNL     1     -99.062  73.975  24.832  1.00  0.00     0.000 C 
BRANCH   7   8
ATOM      8  C   UNL     1     -99.470  74.346  23.393  1.00  0.00     0.000 C 
BRANCH   8   9
ATOM      9  C   UNL     1    -100.714  73.607  22.861  1.00  0.00     0.000 C 
BRANCH   9  10
ATOM     10  C   UNL     1    -101.377  72.646  23.866  1.00  0.00     0.000 C 
BRANCH  10  11
ATOM     11  C   UNL     1    -102.285  71.586  23.202  1.00  0.00     0.000 C 
BRANCH  11  12
ATOM     12  C   UNL     1    -101.934  71.360  21.721  1.00  0.00     0.006 C 
BRANCH  12  13
ATOM     13  C   UNL     1    -102.130  69.896  21.299  1.00  0.00     0.053 C 
BRANCH  13  14
ATOM     14  C   UNL     1    -102.858  69.786  19.994  1.00  0.00     0.041 C 
ATOM     15  O   UNL     1    -102.696  70.662  19.102  1.00  0.00    -0.550 OA
ATOM     16  O   UNL     1    -103.722  68.723  19.768  1.00  0.00    -0.550 OA
ENDBRANCH  13  14
ENDBRANCH  12  13
ENDBRANCH  11  12
ENDBRANCH  10  11
ENDBRANCH   9  10
ENDBRANCH   8   9
ENDBRANCH   7   8
ENDBRANCH   6   7
ENDBRANCH   5   6
ENDBRANCH   4   5
ENDBRANCH   3   4
ENDBRANCH   2   3
ENDBRANCH   1   2
BRANCH   1  17
ATOM     17  C   UNL     1     -98.277  70.746  23.005  1.00  0.00     0.000 C 
BRANCH  17  18
ATOM     18  C   UNL     1     -99.058  69.418  22.994  1.00  0.00     0.000 C 
BRANCH  18  19
ATOM     19  C   UNL     1     -99.188  68.710  24.353  1.00  0.00     0.000 C 
BRANCH  19  20
ATOM     20  C   UNL     1     -99.848  69.595  25.427  1.00  0.00     0.000 C 
BRANCH  20  21
ATOM     21  C   UNL     1    -100.312  68.803  26.663  1.00  0.00     0.000 C 
BRANCH  21  22
ATOM     22  C   UNL     1    -101.673  69.226  27.247  1.00  0.00    -0.000 C 
BRANCH  22  23
ATOM     23  C   UNL     1    -102.125  70.621  26.776  1.00  0.00    -0.000 C 
BRANCH  23  24
ATOM     24  C   UNL     1    -102.067  71.670  27.897  1.00  0.00    -0.000 C 
BRANCH  24  25
ATOM     25  C   UNL     1    -100.994  72.744  27.647  1.00  0.00    -0.000 C 
BRANCH  25  26
ATOM     26  C   UNL     1     -99.795  72.612  28.599  1.00  0.00    -0.000 C 
BRANCH  26  27
ATOM     27  C   UNL     1     -98.600  71.893  27.955  1.00  0.00    -0.000 C 
BRANCH  27  28
ATOM     28  C   UNL     1     -98.158  70.690  28.803  1.00  0.00    -0.000 C 
BRANCH  28  29
ATOM     29  C   UNL     1     -99.188  70.319  29.881  1.00  0.00    -0.003 C 
ATOM     30  C   UNL     1     -99.182  68.828  30.216  1.00  0.00     0.004 C 
ENDBRANCH  28  29
ENDBRANCH  27  28
ENDBRANCH  26  27
ENDBRANCH  25  26
ENDBRANCH  24  25
ENDBRANCH  23  24
ENDBRANCH  22  23
ENDBRANCH  21  22
ENDBRANCH  20  21
ENDBRANCH  19  20
ENDBRANCH  18  19
ENDBRANCH  17  18
ENDBRANCH   1  17
TORSDOF 26
ENDMDL
MODEL 4
REMARK VINA RESULT:    -3.264      2.364      4.491
REMARK INTER + INTRA:         -13.079
REMARK INTER:                  -8.224
REMARK INTRA:                  -4.855
REMARK UNBOUND:                -4.855
REMARK SMILES CCCCCCCCCCCCCCCCCCCCCCCCCCCC(=O)[O-]
REMARK SMILES IDX 15 1 16 2 17 3 18 4 19 5 20 6 21 7 22 8 23 9 24 10 25 11
REMARK SMILES IDX 26 12 27 13 28 14 29 15 30 16 14 17 13 18 12 19 11 20 10 21
REMARK SMILES IDX 9 22 8 23 7 24 6 25 5 26 4 27 3 28 2 29 1 30
REMARK H PARENT
REMARK Flexibility Score: inf
ROOT
ATOM      1  C   UNL     1     -97.876  71.022  21.637  1.00  0.00     0.000 C 
ENDROOT
BRANCH   1   2
ATOM      2  C   UNL     1     -98.749  72.106  20.974  1.00  0.00     0.000 C 
BRANCH   2   3
ATOM      3  C   UNL     1     -97.931  73.064  20.092  1.00  0.00     0.000 C 
BRANCH   3   4
ATOM      4  C   UNL     1     -96.505  72.553  19.818  1.00  0.00     0.000 C 
BRANCH   4   5
ATOM      5  C   UNL     1     -95.426  73.584  20.190  1.00  0.00     0.000 C 
BRANCH   5   6
ATOM      6  C   UNL     1     -95.665  74.219  21.570  1.00  0.00     0.000 C 
BRANCH   6   7
ATOM      7  C   UNL     1     -95.233  73.269  22.700  1.00  0.00     0.000 C 
BRANCH   7   8
ATOM      8  C   UNL     1     -96.121  73.390  23.954  1.00  0.00     0.000 C 
BRANCH   8   9
ATOM      9  C   UNL     1     -97.402  74.225  23.763  1.00  0.00     0.000 C 
BRANCH   9  10
ATOM     10  C   UNL     1     -98.401  74.157  24.932  1.00  0.00     0.000 C 
BRANCH  10  11
ATOM     11  C   UNL     1     -98.609  72.731  25.488  1.00  0.00     0.000 C 
BRANCH  11  12
ATOM     12  C   UNL     1     -99.875  72.619  26.357  1.00  0.00     0.006 C 
BRANCH  12  13
ATOM     13  C   UNL     1    -101.124  73.134  25.626  1.00  0.00     0.053 C 
BRANCH  13  14
ATOM     14  C   UNL     1    -101.464  72.284  24.440  1.00  0.00     0.041 C 
ATOM     15  O   UNL     1    -101.230  72.700  23.274  1.00  0.00    -0.550 OA
ATOM     16  O   UNL     1    -102.048  71.037  24.623  1.00  0.00    -0.550 OA
ENDBRANCH  13  14
ENDBRANCH  12  13
ENDBRANCH  11  12
ENDBRANCH  10  11
ENDBRANCH   9  10
ENDBRANCH   8   9
ENDBRANCH   7   8
ENDBRANCH   6   7
ENDBRANCH   5   6
ENDBRANCH   4   5
ENDBRANCH   3   4
ENDBRANCH   2   3
ENDBRANCH   1   2
BRANCH   1  17
ATOM     17  C   UNL     1     -98.395  70.586  23.023  1.00  0.00     0.000 C 
BRANCH  17  18
ATOM     18  C   UNL     1     -99.422  69.438  22.987  1.00  0.00     0.000 C 
BRANCH  18  19
ATOM     19  C   UNL     1     -99.312  68.410  24.125  1.00  0.00     0.000 C 
BRANCH  19  20
ATOM     20  C   UNL     1     -99.087  69.063  25.501  1.00  0.00     0.000 C 
BRANCH  20  21
ATOM     21  C   UNL     1    -100.261  68.847  26.474  1.00  0.00     0.000 C 
BRANCH  21  22
ATOM     22  C   UNL     1     -99.919  69.002  27.968  1.00  0.00    -0.000 C 
BRANCH  22  23
ATOM     23  C   UNL     1     -98.574  69.714  28.209  1.00  0.00    -0.000 C 
BRANCH  23  24
ATOM     24  C   UNL     1     -98.616  70.661  29.418  1.00  0.00    -0.000 C 
BRANCH  24  25
ATOM     25  C   UNL     1     -99.407  70.076  30.601  1.00  0.00    -0.000 C 
BRANCH  25  26
ATOM     26  C   UNL     1    -100.557  70.991  31.049  1.00  0.00    -0.000 C 
BRANCH  26  27
ATOM     27  C   UNL     1    -101.813  70.209  31.464  1.00  0.00    -0.000 C 
BRANCH  27  28
ATOM     28  C   UNL     1    -102.858  70.206  30.338  1.00  0.00    -0.000 C 
BRANCH  28  29
ATOM     29  C   UNL     1    -102.642  71.345  29.329  1.00  0.00    -0.003 C 
ATOM     30  C   UNL     1    -103.089  70.976  27.915  1.00  0.00     0.004 C 
ENDBRANCH  28  29
ENDBRANCH  27  28
ENDBRANCH  26  27
ENDBRANCH  25  26
ENDBRANCH  24  25
ENDBRANCH  23  24
ENDBRANCH  22  23
ENDBRANCH  21  22
ENDBRANCH  20  21
ENDBRANCH  19  20
ENDBRANCH  18  19
ENDBRANCH  17  18
ENDBRANCH   1  17
TORSDOF 26
ENDMDL
MODEL 5
REMARK VINA RESULT:    -3.256      1.920      5.442
REMARK INTER + INTRA:         -13.060
REMARK INTER:                  -7.277
REMARK INTRA:                  -5.783
REMARK UNBOUND:                -4.855
REMARK SMILES CCCCCCCCCCCCCCCCCCCCCCCCCCCC(=O)[O-]
REMARK SMILES IDX 15 1 16 2 17 3 18 4 19 5 20 6 21 7 22 8 23 9 24 10 25 11
REMARK SMILES IDX 26 12 27 13 28 14 29 15 30 16 14 17 13 18 12 19 11 20 10 21
REMARK SMILES IDX 9 22 8 23 7 24 6 25 5 26 4 27 3 28 2 29 1 30
REMARK H PARENT
REMARK Flexibility Score: inf
ROOT
ATOM      1  C   UNL     1     -99.148  71.304  24.002  1.00  0.00     0.000 C 
ENDROOT
BRANCH   1   2
ATOM      2  C   UNL     1     -98.949  69.882  23.442  1.00  0.00     0.000 C 
BRANCH   2   3
ATOM      3  C   UNL     1     -99.424  68.792  24.417  1.00  0.00     0.000 C 
BRANCH   3   4
ATOM      4  C   UNL     1    -100.442  69.314  25.447  1.00  0.00     0.000 C 
BRANCH   4   5
ATOM      5  C   UNL     1    -100.101  68.884  26.884  1.00  0.00     0.000 C 
BRANCH   5   6
ATOM      6  C   UNL     1     -98.625  69.125  27.240  1.00  0.00     0.000 C 
BRANCH   6   7
ATOM      7  C   UNL     1     -98.483  69.701  28.658  1.00  0.00     0.000 C 
BRANCH   7   8
ATOM      8  C   UNL     1     -98.141  71.205  28.660  1.00  0.00     0.000 C 
BRANCH   8   9
ATOM      9  C   UNL     1     -99.347  72.143  28.863  1.00  0.00     0.000 C 
BRANCH   9  10
ATOM     10  C   UNL     1     -99.762  72.945  27.616  1.00  0.00     0.000 C 
BRANCH  10  11
ATOM     11  C   UNL     1    -101.163  72.575  27.079  1.00  0.00     0.000 C 
BRANCH  11  12
ATOM     12  C   UNL     1    -101.979  71.753  28.092  1.00  0.00     0.006 C 
BRANCH  12  13
ATOM     13  C   UNL     1    -103.413  71.497  27.606  1.00  0.00     0.053 C 
BRANCH  13  14
ATOM     14  C   UNL     1    -104.367  71.329  28.750  1.00  0.00     0.041 C 
ATOM     15  O   UNL     1    -105.610  71.374  28.550  1.00  0.00    -0.550 OA
ATOM     16  O   UNL     1    -103.881  71.133  30.036  1.00  0.00    -0.550 OA
ENDBRANCH  13  14
ENDBRANCH  12  13
ENDBRANCH  11  12
ENDBRANCH  10  11
ENDBRANCH   9  10
ENDBRANCH   8   9
ENDBRANCH   7   8
ENDBRANCH   6   7
ENDBRANCH   5   6
ENDBRANCH   4   5
ENDBRANCH   3   4
ENDBRANCH   2   3
ENDBRANCH   1   2
BRANCH   1  17
ATOM     17  C   UNL     1     -97.875  71.886  24.652  1.00  0.00     0.000 C 
BRANCH  17  18
ATOM     18  C   UNL     1     -97.756  73.420  24.558  1.00  0.00     0.000 C 
BRANCH  18  19
ATOM     19  C   UNL     1     -96.412  73.953  24.034  1.00  0.00     0.000 C 
BRANCH  19  20
ATOM     20  C   UNL     1     -95.582  72.875  23.313  1.00  0.00     0.000 C 
BRANCH  20  21
ATOM     21  C   UNL     1     -95.757  72.898  21.783  1.00  0.00     0.000 C 
BRANCH  21  22
ATOM     22  C   UNL     1     -96.656  71.790  21.204  1.00  0.00    -0.000 C 
BRANCH  22  23
ATOM     23  C   UNL     1     -97.799  72.338  20.328  1.00  0.00    -0.000 C 
BRANCH  23  24
ATOM     24  C   UNL     1     -98.458  73.589  20.930  1.00  0.00    -0.000 C 
BRANCH  24  25
ATOM     25  C   UNL     1     -99.962  73.398  21.190  1.00  0.00    -0.000 C 
BRANCH  25  26
ATOM     26  C   UNL     1    -100.516  72.124  20.533  1.00  0.00    -0.000 C 
BRANCH  26  27
ATOM     27  C   UNL     1    -101.702  71.524  21.303  1.00  0.00    -0.000 C 
BRANCH  27  28
ATOM     28  C   UNL     1    -102.414  72.595  22.143  1.00  0.00    -0.000 C 
BRANCH  28  29
ATOM     29  C   UNL     1    -102.506  72.215  23.629  1.00  0.00    -0.003 C 
ATOM     30  C   UNL     1    -103.399  71.000  23.874  1.00  0.00     0.004 C 
ENDBRANCH  28  29
ENDBRANCH  27  28
ENDBRANCH  26  27
ENDBRANCH  25  26
ENDBRANCH  24  25
ENDBRANCH  23  24
ENDBRANCH  22  23
ENDBRANCH  21  22
ENDBRANCH  20  21
ENDBRANCH  19  20
ENDBRANCH  18  19
ENDBRANCH  17  18
ENDBRANCH   1  17
TORSDOF 26
ENDMDL
MODEL 6
REMARK VINA RESULT:    -3.233      2.885      6.002
REMARK INTER + INTRA:         -13.001
REMARK INTER:                  -7.691
REMARK INTRA:                  -5.311
REMARK UNBOUND:                -4.855
REMARK SMILES CCCCCCCCCCCCCCCCCCCCCCCCCCCC(=O)[O-]
REMARK SMILES IDX 15 1 16 2 17 3 18 4 19 5 20 6 21 7 22 8 23 9 24 10 25 11
REMARK SMILES IDX 26 12 27 13 28 14 29 15 30 16 14 17 13 18 12 19 11 20 10 21
REMARK SMILES IDX 9 22 8 23 7 24 6 25 5 26 4 27 3 28 2 29 1 30
REMARK H PARENT
REMARK Flexibility Score: inf
ROOT
ATOM      1  C   UNL     1     -99.144  72.648  26.312  1.00  0.00     0.000 C 
ENDROOT
BRANCH   1   2
ATOM      2  C   UNL     1     -98.263  73.844  25.900  1.00  0.00     0.000 C 
BRANCH   2   3
ATOM      3  C   UNL     1     -97.855  73.793  24.418  1.00  0.00     0.000 C 
BRANCH   3   4
ATOM      4  C   UNL     1     -96.362  74.095  24.199  1.00  0.00     0.000 C 
BRANCH   4   5
ATOM      5  C   UNL     1     -95.631  72.958  23.465  1.00  0.00     0.000 C 
BRANCH   5   6
ATOM      6  C   UNL     1     -95.429  73.253  21.969  1.00  0.00     0.000 C 
BRANCH   6   7
ATOM      7  C   UNL     1     -96.000  72.121  21.099  1.00  0.00     0.000 C 
BRANCH   7   8
ATOM      8  C   UNL     1     -97.387  72.458  20.516  1.00  0.00     0.000 C 
BRANCH   8   9
ATOM      9  C   UNL     1     -98.578  71.859  21.289  1.00  0.00     0.000 C 
BRANCH   9  10
ATOM     10  C   UNL     1     -98.230  70.660  22.190  1.00  0.00     0.000 C 
BRANCH  10  11
ATOM     11  C   UNL     1     -99.434  70.120  22.995  1.00  0.00     0.000 C 
BRANCH  11  12
ATOM     12  C   UNL     1    -100.574  71.148  23.104  1.00  0.00     0.006 C 
BRANCH  12  13
ATOM     13  C   UNL     1    -101.953  70.506  22.893  1.00  0.00     0.053 C 
BRANCH  13  14
ATOM     14  C   UNL     1    -102.241  70.272  21.441  1.00  0.00     0.041 C 
ATOM     15  O   UNL     1    -101.972  71.162  20.590  1.00  0.00    -0.550 OA
ATOM     16  O   UNL     1    -102.815  69.076  21.031  1.00  0.00    -0.550 OA
ENDBRANCH  13  14
ENDBRANCH  12  13
ENDBRANCH  11  12
ENDBRANCH  10  11
ENDBRANCH   9  10
ENDBRANCH   8   9
ENDBRANCH   7   8
ENDBRANCH   6   7
ENDBRANCH   5   6
ENDBRANCH   4   5
ENDBRANCH   3   4
ENDBRANCH   2   3
ENDBRANCH   1   2
BRANCH   1  17
ATOM     17  C   UNL     1     -98.421  71.291  26.196  1.00  0.00     0.000 C 
BRANCH  17  18
ATOM     18  C   UNL     1     -98.268  70.534  27.529  1.00  0.00     0.000 C 
BRANCH  18  19
ATOM     19  C   UNL     1     -99.068  69.226  27.648  1.00  0.00     0.000 C 
BRANCH  19  20
ATOM     20  C   UNL     1    -100.005  68.987  26.450  1.00  0.00     0.000 C 
BRANCH  20  21
ATOM     21  C   UNL     1    -101.496  68.994  26.835  1.00  0.00     0.000 C 
BRANCH  21  22
ATOM     22  C   UNL     1    -102.250  70.303  26.535  1.00  0.00    -0.000 C 
BRANCH  22  23
ATOM     23  C   UNL     1    -102.304  71.259  27.741  1.00  0.00    -0.000 C 
BRANCH  23  24
ATOM     24  C   UNL     1    -102.220  70.518  29.086  1.00  0.00    -0.000 C 
BRANCH  24  25
ATOM     25  C   UNL     1    -101.152  71.111  30.021  1.00  0.00    -0.000 C 
BRANCH  25  26
ATOM     26  C   UNL     1    -100.793  72.561  29.661  1.00  0.00    -0.000 C 
BRANCH  26  27
ATOM     27  C   UNL     1     -99.698  73.146  30.566  1.00  0.00    -0.000 C 
BRANCH  27  28
ATOM     28  C   UNL     1     -98.409  73.409  29.772  1.00  0.00    -0.000 C 
BRANCH  28  29
ATOM     29  C   UNL     1     -97.168  72.797  30.441  1.00  0.00    -0.003 C 
ATOM     30  C   UNL     1     -95.864  73.219  29.767  1.00  0.00     0.004 C 
ENDBRANCH  28  29
ENDBRANCH  27  28
ENDBRANCH  26  27
ENDBRANCH  25  26
ENDBRANCH  24  25
ENDBRANCH  23  24
ENDBRANCH  22  23
ENDBRANCH  21  22
ENDBRANCH  20  21
ENDBRANCH  19  20
ENDBRANCH  18  19
ENDBRANCH  17  18
ENDBRANCH   1  17
TORSDOF 26
ENDMDL
MODEL 7
REMARK VINA RESULT:    -3.229      1.735      2.397
REMARK INTER + INTRA:         -12.991
REMARK INTER:                  -7.514
REMARK INTRA:                  -5.477
REMARK UNBOUND:                -4.855
REMARK SMILES CCCCCCCCCCCCCCCCCCCCCCCCCCCC(=O)[O-]
REMARK SMILES IDX 15 1 16 2 17 3 18 4 19 5 20 6 21 7 22 8 23 9 24 10 25 11
REMARK SMILES IDX 26 12 27 13 28 14 29 15 30 16 14 17 13 18 12 19 11 20 10 21
REMARK SMILES IDX 9 22 8 23 7 24 6 25 5 26 4 27 3 28 2 29 1 30
REMARK H PARENT
REMARK Flexibility Score: inf
ROOT
ATOM      1  C   UNL     1     -98.867  71.902  21.262  1.00  0.00     0.000 C 
ENDROOT
BRANCH   1   2
ATOM      2  C   UNL     1     -98.018  72.614  20.190  1.00  0.00     0.000 C 
BRANCH   2   3
ATOM      3  C   UNL     1     -96.546  72.171  20.214  1.00  0.00     0.000 C 
BRANCH   3   4
ATOM      4  C   UNL     1     -95.564  73.355  20.152  1.00  0.00     0.000 C 
BRANCH   4   5
ATOM      5  C   UNL     1     -95.284  73.963  21.537  1.00  0.00     0.000 C 
BRANCH   5   6
ATOM      6  C   UNL     1     -95.239  72.903  22.651  1.00  0.00     0.000 C 
BRANCH   6   7
ATOM      7  C   UNL     1     -96.071  73.341  23.867  1.00  0.00     0.000 C 
BRANCH   7   8
ATOM      8  C   UNL     1     -97.202  74.320  23.496  1.00  0.00     0.000 C 
BRANCH   8   9
ATOM      9  C   UNL     1     -98.383  74.352  24.486  1.00  0.00     0.000 C 
BRANCH   9  10
ATOM     10  C   UNL     1     -98.243  73.407  25.693  1.00  0.00     0.000 C 
BRANCH  10  11
ATOM     11  C   UNL     1     -97.906  74.135  27.014  1.00  0.00     0.000 C 
BRANCH  11  12
ATOM     12  C   UNL     1     -98.321  73.321  28.253  1.00  0.00     0.006 C 
BRANCH  12  13
ATOM     13  C   UNL     1     -99.821  73.453  28.555  1.00  0.00     0.053 C 
BRANCH  13  14
ATOM     14  C   UNL     1    -100.137  73.083  29.973  1.00  0.00     0.041 C 
ATOM     15  O   UNL     1    -100.471  73.972  30.801  1.00  0.00    -0.550 OA
ATOM     16  O   UNL     1    -100.052  71.758  30.380  1.00  0.00    -0.550 OA
ENDBRANCH  13  14
ENDBRANCH  12  13
ENDBRANCH  11  12
ENDBRANCH  10  11
ENDBRANCH   9  10
ENDBRANCH   8   9
ENDBRANCH   7   8
ENDBRANCH   6   7
ENDBRANCH   5   6
ENDBRANCH   4   5
ENDBRANCH   3   4
ENDBRANCH   2   3
ENDBRANCH   1   2
BRANCH   1  17
ATOM     17  C   UNL     1     -98.110  70.769  21.986  1.00  0.00     0.000 C 
BRANCH  17  18
ATOM     18  C   UNL     1     -98.566  70.524  23.437  1.00  0.00     0.000 C 
BRANCH  18  19
ATOM     19  C   UNL     1     -99.288  69.190  23.691  1.00  0.00     0.000 C 
BRANCH  19  20
ATOM     20  C   UNL     1     -99.210  68.738  25.161  1.00  0.00     0.000 C 
BRANCH  20  21
ATOM     21  C   UNL     1     -98.851  69.881  26.129  1.00  0.00     0.000 C 
BRANCH  21  22
ATOM     22  C   UNL     1     -99.454  69.764  27.541  1.00  0.00    -0.000 C 
BRANCH  22  23
ATOM     23  C   UNL     1    -100.604  68.743  27.625  1.00  0.00    -0.000 C 
BRANCH  23  24
ATOM     24  C   UNL     1    -101.949  69.329  27.168  1.00  0.00    -0.000 C 
BRANCH  24  25
ATOM     25  C   UNL     1    -102.210  70.731  27.747  1.00  0.00    -0.000 C 
BRANCH  25  26
ATOM     26  C   UNL     1    -102.633  71.743  26.671  1.00  0.00    -0.000 C 
BRANCH  26  27
ATOM     27  C   UNL     1    -102.400  71.227  25.243  1.00  0.00    -0.000 C 
BRANCH  27  28
ATOM     28  C   UNL     1    -101.447  72.152  24.470  1.00  0.00    -0.000 C 
BRANCH  28  29
ATOM     29  C   UNL     1    -102.009  72.569  23.103  1.00  0.00    -0.003 C 
ATOM     30  C   UNL     1    -101.717  74.029  22.763  1.00  0.00     0.004 C 
ENDBRANCH  28  29
ENDBRANCH  27  28
ENDBRANCH  26  27
ENDBRANCH  25  26
ENDBRANCH  24  25
ENDBRANCH  23  24
ENDBRANCH  22  23
ENDBRANCH  21  22
ENDBRANCH  20  21
ENDBRANCH  19  20
ENDBRANCH  18  19
ENDBRANCH  17  18
ENDBRANCH   1  17
TORSDOF 26
ENDMDL
MODEL 8
REMARK VINA RESULT:    -3.219      2.483      5.112
REMARK INTER + INTRA:         -12.967
REMARK INTER:                  -7.323
REMARK INTRA:                  -5.644
REMARK UNBOUND:                -4.855
REMARK SMILES CCCCCCCCCCCCCCCCCCCCCCCCCCCC(=O)[O-]
REMARK SMILES IDX 15 1 16 2 17 3 18 4 19 5 20 6 21 7 22 8 23 9 24 10 25 11
REMARK SMILES IDX 26 12 27 13 28 14 29 15 30 16 14 17 13 18 12 19 11 20 10 21
REMARK SMILES IDX 9 22 8 23 7 24 6 25 5 26 4 27 3 28 2 29 1 30
REMARK H PARENT
REMARK Flexibility Score: inf
ROOT
ATOM      1  C   UNL     1     -98.342  72.129  20.994  1.00  0.00     0.000 C 
ENDROOT
BRANCH   1   2
ATOM      2  C   UNL     1     -96.869  71.736  21.219  1.00  0.00     0.000 C 
BRANCH   2   3
ATOM      3  C   UNL     1     -95.894  72.865  20.845  1.00  0.00     0.000 C 
BRANCH   3   4
ATOM      4  C   UNL     1     -95.358  73.623  22.073  1.00  0.00     0.000 C 
BRANCH   4   5
ATOM      5  C   UNL     1     -95.714  72.928  23.398  1.00  0.00     0.000 C 
BRANCH   5   6
ATOM      6  C   UNL     1     -96.526  73.831  24.341  1.00  0.00     0.000 C 
BRANCH   6   7
ATOM      7  C   UNL     1     -97.201  74.976  23.568  1.00  0.00     0.000 C 
BRANCH   7   8
ATOM      8  C   UNL     1     -98.740  74.918  23.639  1.00  0.00     0.000 C 
BRANCH   8   9
ATOM      9  C   UNL     1     -99.308  74.382  24.967  1.00  0.00     0.000 C 
BRANCH   9  10
ATOM     10  C   UNL     1    -100.731  73.801  24.877  1.00  0.00     0.000 C 
BRANCH  10  11
ATOM     11  C   UNL     1    -101.252  73.227  26.213  1.00  0.00     0.000 C 
BRANCH  11  12
ATOM     12  C   UNL     1    -102.062  71.933  26.019  1.00  0.00     0.006 C 
BRANCH  12  13
ATOM     13  C   UNL     1    -102.176  71.540  24.539  1.00  0.00     0.053 C 
BRANCH  13  14
ATOM     14  C   UNL     1    -103.605  71.458  24.094  1.00  0.00     0.041 C 
ATOM     15  O   UNL     1    -103.957  70.591  23.249  1.00  0.00    -0.550 OA
ATOM     16  O   UNL     1    -104.543  72.345  24.603  1.00  0.00    -0.550 OA
ENDBRANCH  13  14
ENDBRANCH  12  13
ENDBRANCH  11  12
ENDBRANCH  10  11
ENDBRANCH   9  10
ENDBRANCH   8   9
ENDBRANCH   7   8
ENDBRANCH   6   7
ENDBRANCH   5   6
ENDBRANCH   4   5
ENDBRANCH   3   4
ENDBRANCH   2   3
ENDBRANCH   1   2
BRANCH   1  17
ATOM     17  C   UNL     1     -99.261  71.752  22.174  1.00  0.00     0.000 C 
BRANCH  17  18
ATOM     18  C   UNL     1     -99.448  70.237  22.378  1.00  0.00     0.000 C 
BRANCH  18  19
ATOM     19  C   UNL     1     -98.959  69.680  23.725  1.00  0.00     0.000 C 
BRANCH  19  20
ATOM     20  C   UNL     1     -98.561  70.786  24.720  1.00  0.00     0.000 C 
BRANCH  20  21
ATOM     21  C   UNL     1     -98.694  70.353  26.192  1.00  0.00     0.000 C 
BRANCH  21  22
ATOM     22  C   UNL     1     -99.688  69.207  26.457  1.00  0.00    -0.000 C 
BRANCH  22  23
ATOM     23  C   UNL     1     -99.722  68.767  27.933  1.00  0.00    -0.000 C 
BRANCH  23  24
ATOM     24  C   UNL     1     -98.615  69.426  28.771  1.00  0.00    -0.000 C 
BRANCH  24  25
ATOM     25  C   UNL     1     -99.162  70.127  30.027  1.00  0.00    -0.000 C 
BRANCH  25  26
ATOM     26  C   UNL     1    -100.244  71.167  29.697  1.00  0.00    -0.000 C 
BRANCH  26  27
ATOM     27  C   UNL     1     -99.691  72.598  29.617  1.00  0.00    -0.000 C 
BRANCH  27  28
ATOM     28  C   UNL     1     -98.317  72.697  30.298  1.00  0.00    -0.000 C 
BRANCH  28  29
ATOM     29  C   UNL     1     -97.186  73.000  29.304  1.00  0.00    -0.003 C 
ATOM     30  C   UNL     1     -97.700  73.518  27.962  1.00  0.00     0.004 C 
ENDBRANCH  28  29
ENDBRANCH  27  28
ENDBRANCH  26  27
ENDBRANCH  25  26
ENDBRANCH  24  25
ENDBRANCH  23  24
ENDBRANCH  22  23
ENDBRANCH  21  22
ENDBRANCH  20  21
ENDBRANCH  19  20
ENDBRANCH  18  19
ENDBRANCH  17  18
ENDBRANCH   1  17
TORSDOF 26
ENDMDL
MODEL 9
REMARK VINA RESULT:    -3.193      3.024      5.719
REMARK INTER + INTRA:         -12.902
REMARK INTER:                  -7.571
REMARK INTRA:                  -5.331
REMARK UNBOUND:                -4.855
REMARK SMILES CCCCCCCCCCCCCCCCCCCCCCCCCCCC(=O)[O-]
REMARK SMILES IDX 15 1 16 2 17 3 18 4 19 5 20 6 21 7 22 8 23 9 24 10 25 11
REMARK SMILES IDX 26 12 27 13 28 14 29 15 30 16 14 17 13 18 12 19 11 20 10 21
REMARK SMILES IDX 9 22 8 23 7 24 6 25 5 26 4 27 3 28 2 29 1 30
REMARK H PARENT
REMARK Flexibility Score: inf
ROOT
ATOM      1  C   UNL     1     -99.225  68.752  24.394  1.00  0.00     0.000 C 
ENDROOT
BRANCH   1   2
ATOM      2  C   UNL     1    -100.150  69.667  23.568  1.00  0.00     0.000 C 
BRANCH   2   3
ATOM      3  C   UNL     1     -99.421  70.334  22.390  1.00  0.00     0.000 C 
BRANCH   3   4
ATOM      4  C   UNL     1     -98.081  70.970  22.801  1.00  0.00     0.000 C 
BRANCH   4   5
ATOM      5  C   UNL     1     -98.260  72.332  23.494  1.00  0.00     0.000 C 
BRANCH   5   6
ATOM      6  C   UNL     1     -96.921  73.032  23.780  1.00  0.00     0.000 C 
BRANCH   6   7
ATOM      7  C   UNL     1     -95.817  72.522  22.840  1.00  0.00     0.000 C 
BRANCH   7   8
ATOM      8  C   UNL     1     -95.164  73.652  22.019  1.00  0.00     0.000 C 
BRANCH   8   9
ATOM      9  C   UNL     1     -95.511  73.646  20.518  1.00  0.00     0.000 C 
BRANCH   9  10
ATOM     10  C   UNL     1     -96.181  72.355  20.012  1.00  0.00     0.000 C 
BRANCH  10  11
ATOM     11  C   UNL     1     -97.607  72.573  19.460  1.00  0.00     0.000 C 
BRANCH  11  12
ATOM     12  C   UNL     1     -98.298  73.796  20.090  1.00  0.00     0.006 C 
BRANCH  12  13
ATOM     13  C   UNL     1     -99.730  73.983  19.566  1.00  0.00     0.053 C 
BRANCH  13  14
ATOM     14  C   UNL     1    -100.714  73.150  20.329  1.00  0.00     0.041 C 
ATOM     15  O   UNL     1    -101.010  73.448  21.518  1.00  0.00    -0.550 OA
ATOM     16  O   UNL     1    -101.296  72.040  19.731  1.00  0.00    -0.550 OA
ENDBRANCH  13  14
ENDBRANCH  12  13
ENDBRANCH  11  12
ENDBRANCH  10  11
ENDBRANCH   9  10
ENDBRANCH   8   9
ENDBRANCH   7   8
ENDBRANCH   6   7
ENDBRANCH   5   6
ENDBRANCH   4   5
ENDBRANCH   3   4
ENDBRANCH   2   3
ENDBRANCH   1   2
BRANCH   1  17
ATOM     17  C   UNL     1     -99.345  68.979  25.916  1.00  0.00     0.000 C 
BRANCH  17  18
ATOM     18  C   UNL     1     -98.546  70.185  26.445  1.00  0.00     0.000 C 
BRANCH  18  19
ATOM     19  C   UNL     1     -98.217  70.158  27.947  1.00  0.00     0.000 C 
BRANCH  19  20
ATOM     20  C   UNL     1     -98.715  68.880  28.646  1.00  0.00     0.000 C 
BRANCH  20  21
ATOM     21  C   UNL     1     -99.942  69.119  29.545  1.00  0.00     0.000 C 
BRANCH  21  22
ATOM     22  C   UNL     1    -100.169  70.579  29.981  1.00  0.00    -0.000 C 
BRANCH  22  23
ATOM     23  C   UNL     1    -101.341  71.253  29.244  1.00  0.00    -0.000 C 
BRANCH  23  24
ATOM     24  C   UNL     1    -102.290  70.236  28.589  1.00  0.00    -0.000 C 
BRANCH  24  25
ATOM     25  C   UNL     1    -102.279  70.322  27.053  1.00  0.00    -0.000 C 
BRANCH  25  26
ATOM     26  C   UNL     1    -102.550  71.745  26.540  1.00  0.00    -0.000 C 
BRANCH  26  27
ATOM     27  C   UNL     1    -101.336  72.363  25.830  1.00  0.00    -0.000 C 
BRANCH  27  28
ATOM     28  C   UNL     1    -100.965  73.718  26.453  1.00  0.00    -0.000 C 
BRANCH  28  29
ATOM     29  C   UNL     1     -99.446  73.923  26.555  1.00  0.00    -0.003 C 
ATOM     30  C   UNL     1     -98.927  73.796  27.986  1.00  0.00     0.004 C 
ENDBRANCH  28  29
ENDBRANCH  27  28
ENDBRANCH  26  27
ENDBRANCH  25  26
ENDBRANCH  24  25
ENDBRANCH  23  24
ENDBRANCH  22  23
ENDBRANCH  21  22
ENDBRANCH  20  21
ENDBRANCH  19  20
ENDBRANCH  18  19
ENDBRANCH  17  18
ENDBRANCH   1  17
TORSDOF 26
ENDMDL
