MODEL 1
REMARK VINA RESULT:     8.743      0.000      0.000
REMARK INTER + INTRA:          10.199
REMARK INTER:                  10.788
REMARK INTRA:                  -0.589
REMARK UNBOUND:                -0.589
REMARK SMILES CC(C)=CCC[C@@H](C)[C@H]1C=CC(C)=CC1
REMARK SMILES IDX 6 1 7 2 8 3 9 4 13 5 12 6 14 7 11 8 15 9 10 10 5 11 4 12
REMARK SMILES IDX 2 13 1 14 3 15
REMARK H PARENT
REMARK Flexibility Score: inf
ROOT
ATOM      1  C   UNL     1       0.307   6.524 -10.757  1.00  0.00     0.008 C 
ENDROOT
BRANCH   1   2
ATOM      2  C   UNL     1       0.825   5.411  -9.808  1.00  0.00    -0.007 C 
ATOM      3  C   UNL     1       2.336   5.597  -9.581  1.00  0.00     0.008 C 
BRANCH   2   4
ATOM      4  C   UNL     1       0.020   5.286  -8.474  1.00  0.00     0.018 C 
ATOM      5  C   UNL     1      -0.672   9.339  -6.984  1.00  0.00     0.044 C 
ATOM      6  C   UNL     1      -0.583   7.883  -7.335  1.00  0.00    -0.055 C 
ATOM      7  C   UNL     1      -1.452   7.343  -8.202  1.00  0.00    -0.023 C 
ATOM      8  C   UNL     1       0.537   7.071  -6.812  1.00  0.00    -0.001 C 
ATOM      9  C   UNL     1      -1.416   5.873  -8.519  1.00  0.00     0.035 C 
ATOM     10  C   UNL     1       0.806   5.861  -7.314  1.00  0.00    -0.023 C 
ENDBRANCH   2   4
ENDBRANCH   1   2
BRANCH   1  11
ATOM     11  C   UNL     1      -0.126   5.999 -12.135  1.00  0.00     0.027 C 
BRANCH  11  12
ATOM     12  C   UNL     1      -1.587   5.622 -12.131  1.00  0.00    -0.028 C 
ATOM     13  C   UNL     1      -2.209   4.974 -13.141  1.00  0.00    -0.080 C 
ATOM     14  C   UNL     1      -1.467   4.509 -14.372  1.00  0.00     0.039 C 
ATOM     15  C   UNL     1      -3.686   4.698 -13.016  1.00  0.00     0.039 C 
ENDBRANCH  11  12
ENDBRANCH   1  11
TORSDOF 4
ENDMDL
MODEL 2
REMARK VINA RESULT:     9.044      9.404     12.469
REMARK INTER + INTRA:          10.569
REMARK INTER:                  11.252
REMARK INTRA:                  -0.683
REMARK UNBOUND:                -0.589
REMARK SMILES CC(C)=CCC[C@@H](C)[C@H]1C=CC(C)=CC1
REMARK SMILES IDX 6 1 7 2 8 3 9 4 13 5 12 6 14 7 11 8 15 9 10 10 5 11 4 12
REMARK SMILES IDX 2 13 1 14 3 15
REMARK H PARENT
REMARK Flexibility Score: inf
ROOT
ATOM      1  C   UNL     1      10.391   8.619  -6.614  1.00  0.00     0.008 C 
ENDROOT
BRANCH   1   2
ATOM      2  C   UNL     1      11.701   7.890  -7.013  1.00  0.00    -0.007 C 
ATOM      3  C   UNL     1      12.083   6.886  -5.911  1.00  0.00     0.008 C 
BRANCH   2   4
ATOM      4  C   UNL     1      11.664   7.246  -8.437  1.00  0.00     0.018 C 
ATOM      5  C   UNL     1      13.817   9.929 -11.137  1.00  0.00     0.044 C 
ATOM      6  C   UNL     1      13.083   8.860 -10.383  1.00  0.00    -0.055 C 
ATOM      7  C   UNL     1      13.763   7.924  -9.705  1.00  0.00    -0.023 C 
ATOM      8  C   UNL     1      11.607   8.907 -10.295  1.00  0.00    -0.001 C 
ATOM      9  C   UNL     1      13.046   6.809  -8.993  1.00  0.00     0.035 C 
ATOM     10  C   UNL     1      10.943   8.147  -9.418  1.00  0.00    -0.023 C 
ENDBRANCH   2   4
ENDBRANCH   1   2
BRANCH   1  11
ATOM     11  C   UNL     1       9.202   7.669  -6.403  1.00  0.00     0.027 C 
BRANCH  11  12
ATOM     12  C   UNL     1       8.002   8.419  -5.880  1.00  0.00    -0.028 C 
ATOM     13  C   UNL     1       7.090   9.039  -6.662  1.00  0.00    -0.080 C 
ATOM     14  C   UNL     1       7.164   8.991  -8.169  1.00  0.00     0.039 C 
ATOM     15  C   UNL     1       5.962   9.784  -5.997  1.00  0.00     0.039 C 
ENDBRANCH  11  12
ENDBRANCH   1  11
TORSDOF 4
ENDMDL
MODEL 3
REMARK VINA RESULT:    10.275      0.875      5.335
REMARK INTER + INTRA:          12.088
REMARK INTER:                  12.013
REMARK INTRA:                   0.076
REMARK UNBOUND:                -0.589
REMARK SMILES CC(C)=CCC[C@@H](C)[C@H]1C=CC(C)=CC1
REMARK SMILES IDX 6 1 7 2 8 3 9 4 13 5 12 6 14 7 11 8 15 9 10 10 5 11 4 12
REMARK SMILES IDX 2 13 1 14 3 15
REMARK H PARENT
REMARK Flexibility Score: inf
ROOT
ATOM      1  C   UNL     1       1.866   5.656  -8.851  1.00  0.00     0.008 C 
ENDROOT
BRANCH   1   2
ATOM      2  C   UNL     1       1.284   5.249 -10.230  1.00  0.00    -0.007 C 
ATOM      3  C   UNL     1       0.659   3.846 -10.127  1.00  0.00     0.008 C 
BRANCH   2   4
ATOM      4  C   UNL     1       0.311   6.304 -10.848  1.00  0.00     0.018 C 
ATOM      5  C   UNL     1      -2.311   4.185 -13.633  1.00  0.00     0.044 C 
ATOM      6  C   UNL     1      -1.553   5.088 -12.706  1.00  0.00    -0.055 C 
ATOM      7  C   UNL     1      -1.894   5.164 -11.411  1.00  0.00    -0.023 C 
ATOM      8  C   UNL     1      -0.358   5.806 -13.198  1.00  0.00    -0.001 C 
ATOM      9  C   UNL     1      -1.184   6.110 -10.479  1.00  0.00     0.035 C 
ATOM     10  C   UNL     1       0.493   6.392 -12.349  1.00  0.00    -0.023 C 
ENDBRANCH   2   4
ENDBRANCH   1   2
BRANCH   1  11
ATOM     11  C   UNL     1       0.822   5.664  -7.724  1.00  0.00     0.027 C 
BRANCH  11  12
ATOM     12  C   UNL     1       0.531   7.074  -7.272  1.00  0.00    -0.028 C 
ATOM     13  C   UNL     1      -0.684   7.661  -7.343  1.00  0.00    -0.080 C 
ATOM     14  C   UNL     1      -1.902   6.923  -7.845  1.00  0.00     0.039 C 
ATOM     15  C   UNL     1      -0.817   9.092  -6.889  1.00  0.00     0.039 C 
ENDBRANCH  11  12
ENDBRANCH   1  11
TORSDOF 4
ENDMDL
MODEL 4
REMARK VINA RESULT:    10.600      9.373     12.068
REMARK INTER + INTRA:          12.489
REMARK INTER:                  12.733
REMARK INTRA:                  -0.244
REMARK UNBOUND:                -0.589
REMARK SMILES CC(C)=CCC[C@@H](C)[C@H]1C=CC(C)=CC1
REMARK SMILES IDX 6 1 7 2 8 3 9 4 13 5 12 6 14 7 11 8 15 9 10 10 5 11 4 12
REMARK SMILES IDX 2 13 1 14 3 15
REMARK H PARENT
REMARK Flexibility Score: inf
ROOT
ATOM      1  C   UNL     1      12.387   7.689  -7.599  1.00  0.00     0.008 C 
ENDROOT
BRANCH   1   2
ATOM      2  C   UNL     1      11.105   8.041  -6.799  1.00  0.00    -0.007 C 
ATOM      3  C   UNL     1      11.005   9.568  -6.641  1.00  0.00     0.008 C 
BRANCH   2   4
ATOM      4  C   UNL     1       9.799   7.402  -7.374  1.00  0.00     0.018 C 
ATOM      5  C   UNL     1       6.435   9.800  -5.941  1.00  0.00     0.044 C 
ATOM      6  C   UNL     1       7.437   8.878  -6.570  1.00  0.00    -0.055 C 
ATOM      7  C   UNL     1       8.061   9.231  -7.703  1.00  0.00    -0.023 C 
ATOM      8  C   UNL     1       7.820   7.630  -5.875  1.00  0.00    -0.001 C 
ATOM      9  C   UNL     1       9.024   8.294  -8.380  1.00  0.00     0.035 C 
ATOM     10  C   UNL     1       8.893   6.929  -6.256  1.00  0.00    -0.023 C 
ENDBRANCH   2   4
ENDBRANCH   1   2
BRANCH   1  11
ATOM     11  C   UNL     1      12.135   7.491  -9.102  1.00  0.00     0.027 C 
BRANCH  11  12
ATOM     12  C   UNL     1      12.511   8.730  -9.877  1.00  0.00    -0.028 C 
ATOM     13  C   UNL     1      13.551   8.804 -10.737  1.00  0.00    -0.080 C 
ATOM     14  C   UNL     1      14.419   7.608 -11.048  1.00  0.00     0.039 C 
ATOM     15  C   UNL     1      13.832  10.121 -11.412  1.00  0.00     0.039 C 
ENDBRANCH  11  12
ENDBRANCH   1  11
TORSDOF 4
ENDMDL
MODEL 5
REMARK VINA RESULT:    10.769     10.540     13.279
REMARK INTER + INTRA:          12.698
REMARK INTER:                  12.113
REMARK INTRA:                   0.585
REMARK UNBOUND:                -0.589
REMARK SMILES CC(C)=CCC[C@@H](C)[C@H]1C=CC(C)=CC1
REMARK SMILES IDX 6 1 7 2 8 3 9 4 13 5 12 6 14 7 11 8 15 9 10 10 5 11 4 12
REMARK SMILES IDX 2 13 1 14 3 15
REMARK H PARENT
REMARK Flexibility Score: inf
ROOT
ATOM      1  C   UNL     1      11.748   8.821  -9.655  1.00  0.00     0.008 C 
ENDROOT
BRANCH   1   2
ATOM      2  C   UNL     1      11.951   7.750  -8.551  1.00  0.00    -0.007 C 
ATOM      3  C   UNL     1      13.348   7.122  -8.697  1.00  0.00     0.008 C 
BRANCH   2   4
ATOM      4  C   UNL     1      11.664   8.266  -7.102  1.00  0.00     0.018 C 
ATOM      5  C   UNL     1       7.793   6.640  -5.882  1.00  0.00     0.044 C 
ATOM      6  C   UNL     1       9.143   7.260  -6.083  1.00  0.00    -0.055 C 
ATOM      7  C   UNL     1      10.255   6.539  -5.875  1.00  0.00    -0.023 C 
ATOM      8  C   UNL     1       9.246   8.634  -6.622  1.00  0.00    -0.001 C 
ATOM      9  C   UNL     1      11.618   7.161  -6.013  1.00  0.00     0.035 C 
ATOM     10  C   UNL     1      10.411   9.114  -7.070  1.00  0.00    -0.023 C 
ENDBRANCH   2   4
ENDBRANCH   1   2
BRANCH   1  11
ATOM     11  C   UNL     1      13.053   9.231 -10.355  1.00  0.00     0.027 C 
BRANCH  11  12
ATOM     12  C   UNL     1      13.649   8.066 -11.105  1.00  0.00    -0.028 C 
ATOM     13  C   UNL     1      14.889   8.060 -11.642  1.00  0.00    -0.080 C 
ATOM     14  C   UNL     1      15.834   9.229 -11.490  1.00  0.00     0.039 C 
ATOM     15  C   UNL     1      15.338   6.837 -12.400  1.00  0.00     0.039 C 
ENDBRANCH  11  12
ENDBRANCH   1  11
TORSDOF 4
ENDMDL
MODEL 6
REMARK VINA RESULT:    11.641      0.796      1.404
REMARK INTER + INTRA:          13.773
REMARK INTER:                  12.271
REMARK INTRA:                   1.503
REMARK UNBOUND:                -0.589
REMARK SMILES CC(C)=CCC[C@@H](C)[C@H]1C=CC(C)=CC1
REMARK SMILES IDX 6 1 7 2 8 3 9 4 13 5 12 6 14 7 11 8 15 9 10 10 5 11 4 12
REMARK SMILES IDX 2 13 1 14 3 15
REMARK H PARENT
REMARK Flexibility Score: inf
ROOT
ATOM      1  C   UNL     1      -0.514   6.178 -11.254  1.00  0.00     0.008 C 
ENDROOT
BRANCH   1   2
ATOM      2  C   UNL     1       0.433   5.464 -10.254  1.00  0.00    -0.007 C 
ATOM      3  C   UNL     1       1.791   6.185 -10.231  1.00  0.00     0.008 C 
BRANCH   2   4
ATOM      4  C   UNL     1      -0.177   5.270  -8.827  1.00  0.00     0.018 C 
ATOM      5  C   UNL     1      -0.391   9.216  -6.955  1.00  0.00     0.044 C 
ATOM      6  C   UNL     1      -0.445   7.791  -7.422  1.00  0.00    -0.055 C 
ATOM      7  C   UNL     1      -1.463   7.370  -8.187  1.00  0.00    -0.023 C 
ATOM      8  C   UNL     1       0.685   6.883  -7.133  1.00  0.00    -0.001 C 
ATOM      9  C   UNL     1      -1.565   5.931  -8.614  1.00  0.00     0.035 C 
ATOM     10  C   UNL     1       0.802   5.706  -7.758  1.00  0.00    -0.023 C 
ENDBRANCH   2   4
ENDBRANCH   1   2
BRANCH   1  11
ATOM     11  C   UNL     1      -1.784   5.375 -11.574  1.00  0.00     0.027 C 
BRANCH  11  12
ATOM     12  C   UNL     1      -1.806   4.961 -13.025  1.00  0.00    -0.028 C 
ATOM     13  C   UNL     1      -0.852   5.288 -13.925  1.00  0.00    -0.080 C 
ATOM     14  C   UNL     1       0.379   6.072 -13.537  1.00  0.00     0.039 C 
ATOM     15  C   UNL     1      -1.026   4.837 -15.352  1.00  0.00     0.039 C 
ENDBRANCH  11  12
ENDBRANCH   1  11
TORSDOF 4
ENDMDL
