MODEL 1
REMARK VINA RESULT:    -7.156      0.000      0.000
REMARK INTER + INTRA:         -21.432
REMARK INTER:                 -18.868
REMARK INTRA:                  -2.564
REMARK UNBOUND:                -2.564
REMARK SMILES CCCCCCCCCCCCCCCCCCCCCCCCCCCCCC(=O)[O-]
REMARK SMILES IDX 16 1 17 2 18 3 19 4 20 5 21 6 22 7 23 8 24 9 25 10 26 11
REMARK SMILES IDX 27 12 28 13 29 14 30 15 31 16 32 17 15 18 14 19 13 20 12 21
REMARK SMILES IDX 11 22 10 23 9 24 8 25 7 26 6 27 5 28 4 29 3 30 2 31 1 32
REMARK H PARENT
REMARK Flexibility Score: inf
ROOT
ATOM      1  C   UNL     1      85.525  -2.618   2.457  1.00  0.00     0.000 C 
ENDROOT
BRANCH   1   2
ATOM      2  C   UNL     1      84.263  -2.822   3.311  1.00  0.00     0.000 C 
BRANCH   2   3
ATOM      3  C   UNL     1      83.239  -3.767   2.655  1.00  0.00     0.000 C 
BRANCH   3   4
ATOM      4  C   UNL     1      81.781  -3.593   3.129  1.00  0.00     0.000 C 
BRANCH   4   5
ATOM      5  C   UNL     1      80.796  -3.082   2.061  1.00  0.00     0.000 C 
BRANCH   5   6
ATOM      6  C   UNL     1      81.152  -3.451   0.607  1.00  0.00     0.000 C 
BRANCH   6   7
ATOM      7  C   UNL     1      81.783  -2.298  -0.203  1.00  0.00     0.000 C 
BRANCH   7   8
ATOM      8  C   UNL     1      81.870  -0.987   0.598  1.00  0.00     0.000 C 
BRANCH   8   9
ATOM      9  C   UNL     1      83.238  -0.293   0.456  1.00  0.00     0.000 C 
BRANCH   9  10
ATOM     10  C   UNL     1      83.214   0.997  -0.385  1.00  0.00     0.000 C 
BRANCH  10  11
ATOM     11  C   UNL     1      81.894   1.779  -0.242  1.00  0.00     0.000 C 
BRANCH  11  12
ATOM     12  C   UNL     1      82.010   2.968   0.724  1.00  0.00     0.000 C 
BRANCH  12  13
ATOM     13  C   UNL     1      81.064   2.843   1.931  1.00  0.00     0.006 C 
BRANCH  13  14
ATOM     14  C   UNL     1      81.751   2.203   3.144  1.00  0.00     0.053 C 
BRANCH  14  15
ATOM     15  C   UNL     1      81.819   3.143   4.308  1.00  0.00     0.041 C 
ATOM     16  O   UNL     1      82.635   4.103   4.303  1.00  0.00    -0.550 OA
ATOM     17  O   UNL     1      81.001   2.943   5.412  1.00  0.00    -0.550 OA
ENDBRANCH  14  15
ENDBRANCH  13  14
ENDBRANCH  12  13
ENDBRANCH  11  12
ENDBRANCH  10  11
ENDBRANCH   9  10
ENDBRANCH   8   9
ENDBRANCH   7   8
ENDBRANCH   6   7
ENDBRANCH   5   6
ENDBRANCH   4   5
ENDBRANCH   3   4
ENDBRANCH   2   3
ENDBRANCH   1   2
BRANCH   1  18
ATOM     18  C   UNL     1      86.813  -2.520   3.298  1.00  0.00     0.000 C 
BRANCH  18  19
ATOM     19  C   UNL     1      88.116  -2.343   2.495  1.00  0.00     0.000 C 
BRANCH  19  20
ATOM     20  C   UNL     1      89.368  -2.791   3.268  1.00  0.00     0.000 C 
BRANCH  20  21
ATOM     21  C   UNL     1      89.043  -3.356   4.663  1.00  0.00     0.000 C 
BRANCH  21  22
ATOM     22  C   UNL     1      89.698  -2.611   5.840  1.00  0.00     0.000 C 
BRANCH  22  23
ATOM     23  C   UNL     1      90.018  -1.145   5.517  1.00  0.00     0.000 C 
BRANCH  23  24
ATOM     24  C   UNL     1      91.421  -0.772   6.012  1.00  0.00    -0.000 C 
BRANCH  24  25
ATOM     25  C   UNL     1      92.105  -1.973   6.683  1.00  0.00    -0.000 C 
BRANCH  25  26
ATOM     26  C   UNL     1      93.631  -1.808   6.785  1.00  0.00    -0.000 C 
BRANCH  26  27
ATOM     27  C   UNL     1      94.314  -2.714   7.830  1.00  0.00    -0.000 C 
BRANCH  27  28
ATOM     28  C   UNL     1      93.355  -3.547   8.703  1.00  0.00    -0.000 C 
BRANCH  28  29
ATOM     29  C   UNL     1      93.745  -3.651  10.189  1.00  0.00    -0.000 C 
BRANCH  29  30
ATOM     30  C   UNL     1      94.836  -4.704  10.446  1.00  0.00    -0.000 C 
BRANCH  30  31
ATOM     31  C   UNL     1      96.250  -4.101  10.434  1.00  0.00    -0.003 C 
ATOM     32  C   UNL     1      96.379  -2.870  11.330  1.00  0.00     0.004 C 
ENDBRANCH  30  31
ENDBRANCH  29  30
ENDBRANCH  28  29
ENDBRANCH  27  28
ENDBRANCH  26  27
ENDBRANCH  25  26
ENDBRANCH  24  25
ENDBRANCH  23  24
ENDBRANCH  22  23
ENDBRANCH  21  22
ENDBRANCH  20  21
ENDBRANCH  19  20
ENDBRANCH  18  19
ENDBRANCH   1  18
TORSDOF 28
ENDMDL
MODEL 2
REMARK VINA RESULT:    -7.127      5.398     14.414
REMARK INTER + INTRA:         -21.357
REMARK INTER:                 -18.778
REMARK INTRA:                  -2.579
REMARK UNBOUND:                -2.564
REMARK SMILES CCCCCCCCCCCCCCCCCCCCCCCCCCCCCC(=O)[O-]
REMARK SMILES IDX 16 1 17 2 18 3 19 4 20 5 21 6 22 7 23 8 24 9 25 10 26 11
REMARK SMILES IDX 27 12 28 13 29 14 30 15 31 16 32 17 15 18 14 19 13 20 12 21
REMARK SMILES IDX 11 22 10 23 9 24 8 25 7 26 6 27 5 28 4 29 3 30 2 31 1 32
REMARK H PARENT
REMARK Flexibility Score: inf
ROOT
ATOM      1  C   UNL     1      91.733  -1.951   7.028  1.00  0.00     0.000 C 
ENDROOT
BRANCH   1   2
ATOM      2  C   UNL     1      93.208  -2.347   7.206  1.00  0.00     0.000 C 
BRANCH   2   3
ATOM      3  C   UNL     1      93.386  -3.693   7.933  1.00  0.00     0.000 C 
BRANCH   3   4
ATOM      4  C   UNL     1      93.456  -3.607   9.472  1.00  0.00     0.000 C 
BRANCH   4   5
ATOM      5  C   UNL     1      94.497  -4.528  10.137  1.00  0.00     0.000 C 
BRANCH   5   6
ATOM      6  C   UNL     1      95.641  -3.803  10.873  1.00  0.00     0.000 C 
BRANCH   6   7
ATOM      7  C   UNL     1      96.598  -3.026   9.944  1.00  0.00     0.000 C 
BRANCH   7   8
ATOM      8  C   UNL     1      97.003  -3.832   8.697  1.00  0.00     0.000 C 
BRANCH   8   9
ATOM      9  C   UNL     1      97.014  -2.977   7.415  1.00  0.00     0.000 C 
BRANCH   9  10
ATOM     10  C   UNL     1      98.415  -2.523   6.963  1.00  0.00     0.000 C 
BRANCH  10  11
ATOM     11  C   UNL     1      99.403  -3.696   6.813  1.00  0.00     0.000 C 
BRANCH  11  12
ATOM     12  C   UNL     1      99.131  -4.545   5.562  1.00  0.00     0.000 C 
BRANCH  12  13
ATOM     13  C   UNL     1      98.960  -6.038   5.887  1.00  0.00     0.006 C 
BRANCH  13  14
ATOM     14  C   UNL     1      97.505  -6.503   5.736  1.00  0.00     0.053 C 
BRANCH  14  15
ATOM     15  C   UNL     1      97.389  -7.685   4.824  1.00  0.00     0.041 C 
ATOM     16  O   UNL     1      97.558  -8.851   5.269  1.00  0.00    -0.550 OA
ATOM     17  O   UNL     1      97.124  -7.498   3.474  1.00  0.00    -0.550 OA
ENDBRANCH  14  15
ENDBRANCH  13  14
ENDBRANCH  12  13
ENDBRANCH  11  12
ENDBRANCH  10  11
ENDBRANCH   9  10
ENDBRANCH   8   9
ENDBRANCH   7   8
ENDBRANCH   6   7
ENDBRANCH   5   6
ENDBRANCH   4   5
ENDBRANCH   3   4
ENDBRANCH   2   3
ENDBRANCH   1   2
BRANCH   1  18
ATOM     18  C   UNL     1      91.509  -0.970   5.860  1.00  0.00     0.000 C 
BRANCH  18  19
ATOM     19  C   UNL     1      90.115  -1.027   5.207  1.00  0.00     0.000 C 
BRANCH  19  20
ATOM     20  C   UNL     1      89.276  -2.228   5.676  1.00  0.00     0.000 C 
BRANCH  20  21
ATOM     21  C   UNL     1      88.624  -2.996   4.512  1.00  0.00     0.000 C 
BRANCH  21  22
ATOM     22  C   UNL     1      87.282  -2.424   4.021  1.00  0.00     0.000 C 
BRANCH  22  23
ATOM     23  C   UNL     1      87.076  -2.592   2.509  1.00  0.00     0.000 C 
BRANCH  23  24
ATOM     24  C   UNL     1      85.641  -2.224   2.110  1.00  0.00    -0.000 C 
BRANCH  24  25
ATOM     25  C   UNL     1      84.647  -2.610   3.215  1.00  0.00    -0.000 C 
BRANCH  25  26
ATOM     26  C   UNL     1      83.629  -3.668   2.756  1.00  0.00    -0.000 C 
BRANCH  26  27
ATOM     27  C   UNL     1      82.203  -3.484   3.315  1.00  0.00    -0.000 C 
BRANCH  27  28
ATOM     28  C   UNL     1      81.113  -3.227   2.256  1.00  0.00    -0.000 C 
BRANCH  28  29
ATOM     29  C   UNL     1      81.481  -3.649   0.822  1.00  0.00    -0.000 C 
BRANCH  29  30
ATOM     30  C   UNL     1      81.846  -2.455  -0.075  1.00  0.00    -0.000 C 
BRANCH  30  31
ATOM     31  C   UNL     1      81.809  -1.117   0.681  1.00  0.00    -0.003 C 
ATOM     32  C   UNL     1      83.009  -0.224   0.370  1.00  0.00     0.004 C 
ENDBRANCH  30  31
ENDBRANCH  29  30
ENDBRANCH  28  29
ENDBRANCH  27  28
ENDBRANCH  26  27
ENDBRANCH  25  26
ENDBRANCH  24  25
ENDBRANCH  23  24
ENDBRANCH  22  23
ENDBRANCH  21  22
ENDBRANCH  20  21
ENDBRANCH  19  20
ENDBRANCH  18  19
ENDBRANCH   1  18
TORSDOF 28
ENDMDL
MODEL 3
REMARK VINA RESULT:    -7.050      1.463      3.672
REMARK INTER + INTRA:         -21.154
REMARK INTER:                 -18.069
REMARK INTRA:                  -3.084
REMARK UNBOUND:                -2.564
REMARK SMILES CCCCCCCCCCCCCCCCCCCCCCCCCCCCCC(=O)[O-]
REMARK SMILES IDX 16 1 17 2 18 3 19 4 20 5 21 6 22 7 23 8 24 9 25 10 26 11
REMARK SMILES IDX 27 12 28 13 29 14 30 15 31 16 32 17 15 18 14 19 13 20 12 21
REMARK SMILES IDX 11 22 10 23 9 24 8 25 7 26 6 27 5 28 4 29 3 30 2 31 1 32
REMARK H PARENT
REMARK Flexibility Score: inf
ROOT
ATOM      1  C   UNL     1      89.330  -3.383   6.053  1.00  0.00     0.000 C 
ENDROOT
BRANCH   1   2
ATOM      2  C   UNL     1      87.836  -3.659   6.290  1.00  0.00     0.000 C 
BRANCH   2   3
ATOM      3  C   UNL     1      86.968  -2.390   6.198  1.00  0.00     0.000 C 
BRANCH   3   4
ATOM      4  C   UNL     1      85.733  -2.500   5.279  1.00  0.00     0.000 C 
BRANCH   4   5
ATOM      5  C   UNL     1      86.036  -2.576   3.771  1.00  0.00     0.000 C 
BRANCH   5   6
ATOM      6  C   UNL     1      84.807  -2.472   2.847  1.00  0.00     0.000 C 
BRANCH   6   7
ATOM      7  C   UNL     1      83.858  -3.688   2.917  1.00  0.00     0.000 C 
BRANCH   7   8
ATOM      8  C   UNL     1      82.406  -3.291   3.241  1.00  0.00     0.000 C 
BRANCH   8   9
ATOM      9  C   UNL     1      81.404  -3.788   2.182  1.00  0.00     0.000 C 
BRANCH   9  10
ATOM     10  C   UNL     1      80.883  -2.692   1.233  1.00  0.00     0.000 C 
BRANCH  10  11
ATOM     11  C   UNL     1      81.805  -2.466   0.019  1.00  0.00     0.000 C 
BRANCH  11  12
ATOM     12  C   UNL     1      82.279  -1.010  -0.104  1.00  0.00     0.000 C 
BRANCH  12  13
ATOM     13  C   UNL     1      81.800  -0.132   1.065  1.00  0.00     0.006 C 
BRANCH  13  14
ATOM     14  C   UNL     1      81.416   1.282   0.610  1.00  0.00     0.053 C 
BRANCH  14  15
ATOM     15  C   UNL     1      81.755   2.312   1.644  1.00  0.00     0.041 C 
ATOM     16  O   UNL     1      82.099   3.472   1.297  1.00  0.00    -0.550 OA
ATOM     17  O   UNL     1      81.720   1.980   2.992  1.00  0.00    -0.550 OA
ENDBRANCH  14  15
ENDBRANCH  13  14
ENDBRANCH  12  13
ENDBRANCH  11  12
ENDBRANCH  10  11
ENDBRANCH   9  10
ENDBRANCH   8   9
ENDBRANCH   7   8
ENDBRANCH   6   7
ENDBRANCH   5   6
ENDBRANCH   4   5
ENDBRANCH   3   4
ENDBRANCH   2   3
ENDBRANCH   1   2
BRANCH   1  18
ATOM     18  C   UNL     1      89.776  -3.679   4.607  1.00  0.00     0.000 C 
BRANCH  18  19
ATOM     19  C   UNL     1      89.798  -2.465   3.660  1.00  0.00     0.000 C 
BRANCH  19  20
ATOM     20  C   UNL     1      90.010  -1.129   4.393  1.00  0.00     0.000 C 
BRANCH  20  21
ATOM     21  C   UNL     1      91.498  -0.780   4.584  1.00  0.00     0.000 C 
BRANCH  21  22
ATOM     22  C   UNL     1      91.936  -0.564   6.044  1.00  0.00     0.000 C 
BRANCH  22  23
ATOM     23  C   UNL     1      93.028  -1.545   6.493  1.00  0.00     0.000 C 
BRANCH  23  24
ATOM     24  C   UNL     1      92.475  -2.545   7.515  1.00  0.00    -0.000 C 
BRANCH  24  25
ATOM     25  C   UNL     1      93.567  -3.521   7.978  1.00  0.00    -0.000 C 
BRANCH  25  26
ATOM     26  C   UNL     1      93.172  -4.300   9.243  1.00  0.00    -0.000 C 
BRANCH  26  27
ATOM     27  C   UNL     1      94.356  -4.762  10.118  1.00  0.00    -0.000 C 
BRANCH  27  28
ATOM     28  C   UNL     1      95.018  -3.655  10.962  1.00  0.00    -0.000 C 
BRANCH  28  29
ATOM     29  C   UNL     1      96.556  -3.623  10.907  1.00  0.00    -0.000 C 
BRANCH  29  30
ATOM     30  C   UNL     1      97.094  -2.735   9.773  1.00  0.00    -0.000 C 
BRANCH  30  31
ATOM     31  C   UNL     1      97.387  -3.531   8.490  1.00  0.00    -0.003 C 
ATOM     32  C   UNL     1      97.015  -2.770   7.219  1.00  0.00     0.004 C 
ENDBRANCH  30  31
ENDBRANCH  29  30
ENDBRANCH  28  29
ENDBRANCH  27  28
ENDBRANCH  26  27
ENDBRANCH  25  26
ENDBRANCH  24  25
ENDBRANCH  23  24
ENDBRANCH  22  23
ENDBRANCH  21  22
ENDBRANCH  20  21
ENDBRANCH  19  20
ENDBRANCH  18  19
ENDBRANCH   1  18
TORSDOF 28
ENDMDL
MODEL 4
REMARK VINA RESULT:    -7.046      4.602     13.813
REMARK INTER + INTRA:         -21.144
REMARK INTER:                 -18.819
REMARK INTRA:                  -2.325
REMARK UNBOUND:                -2.564
REMARK SMILES CCCCCCCCCCCCCCCCCCCCCCCCCCCCCC(=O)[O-]
REMARK SMILES IDX 16 1 17 2 18 3 19 4 20 5 21 6 22 7 23 8 24 9 25 10 26 11
REMARK SMILES IDX 27 12 28 13 29 14 30 15 31 16 32 17 15 18 14 19 13 20 12 21
REMARK SMILES IDX 11 22 10 23 9 24 8 25 7 26 6 27 5 28 4 29 3 30 2 31 1 32
REMARK H PARENT
REMARK Flexibility Score: inf
ROOT
ATOM      1  C   UNL     1      88.682  -2.638   3.066  1.00  0.00     0.000 C 
ENDROOT
BRANCH   1   2
ATOM      2  C   UNL     1      88.479  -2.890   4.570  1.00  0.00     0.000 C 
BRANCH   2   3
ATOM      3  C   UNL     1      89.790  -2.810   5.375  1.00  0.00     0.000 C 
BRANCH   3   4
ATOM      4  C   UNL     1      90.044  -3.987   6.340  1.00  0.00     0.000 C 
BRANCH   4   5
ATOM      5  C   UNL     1      91.509  -4.182   6.772  1.00  0.00     0.000 C 
BRANCH   5   6
ATOM      6  C   UNL     1      92.222  -2.910   7.272  1.00  0.00     0.000 C 
BRANCH   6   7
ATOM      7  C   UNL     1      93.384  -3.180   8.252  1.00  0.00     0.000 C 
BRANCH   7   8
ATOM      8  C   UNL     1      93.141  -4.414   9.138  1.00  0.00     0.000 C 
BRANCH   8   9
ATOM      9  C   UNL     1      94.333  -4.725  10.064  1.00  0.00     0.000 C 
BRANCH   9  10
ATOM     10  C   UNL     1      94.722  -3.573  11.011  1.00  0.00     0.000 C 
BRANCH  10  11
ATOM     11  C   UNL     1      96.243  -3.333  11.065  1.00  0.00     0.000 C 
BRANCH  11  12
ATOM     12  C   UNL     1      96.973  -3.872   9.825  1.00  0.00     0.000 C 
BRANCH  12  13
ATOM     13  C   UNL     1      97.443  -2.751   8.883  1.00  0.00     0.006 C 
BRANCH  13  14
ATOM     14  C   UNL     1      96.917  -2.936   7.453  1.00  0.00     0.053 C 
BRANCH  14  15
ATOM     15  C   UNL     1      97.610  -4.060   6.745  1.00  0.00     0.041 C 
ATOM     16  O   UNL     1      97.118  -5.219   6.759  1.00  0.00    -0.550 OA
ATOM     17  O   UNL     1      98.814  -3.833   6.093  1.00  0.00    -0.550 OA
ENDBRANCH  14  15
ENDBRANCH  13  14
ENDBRANCH  12  13
ENDBRANCH  11  12
ENDBRANCH  10  11
ENDBRANCH   9  10
ENDBRANCH   8   9
ENDBRANCH   7   8
ENDBRANCH   6   7
ENDBRANCH   5   6
ENDBRANCH   4   5
ENDBRANCH   3   4
ENDBRANCH   2   3
ENDBRANCH   1   2
BRANCH   1  18
ATOM     18  C   UNL     1      87.357  -2.431   2.306  1.00  0.00     0.000 C 
BRANCH  18  19
ATOM     19  C   UNL     1      86.077  -2.622   3.141  1.00  0.00     0.000 C 
BRANCH  19  20
ATOM     20  C   UNL     1      84.795  -2.624   2.292  1.00  0.00     0.000 C 
BRANCH  20  21
ATOM     21  C   UNL     1      83.777  -3.688   2.743  1.00  0.00     0.000 C 
BRANCH  21  22
ATOM     22  C   UNL     1      82.418  -3.137   3.208  1.00  0.00     0.000 C 
BRANCH  22  23
ATOM     23  C   UNL     1      81.230  -3.762   2.463  1.00  0.00     0.000 C 
BRANCH  23  24
ATOM     24  C   UNL     1      80.597  -2.750   1.501  1.00  0.00    -0.000 C 
BRANCH  24  25
ATOM     25  C   UNL     1      81.069  -2.991   0.059  1.00  0.00    -0.000 C 
BRANCH  25  26
ATOM     26  C   UNL     1      82.195  -2.033  -0.366  1.00  0.00    -0.000 C 
BRANCH  26  27
ATOM     27  C   UNL     1      82.167  -0.652   0.320  1.00  0.00    -0.000 C 
BRANCH  27  28
ATOM     28  C   UNL     1      82.488   0.543  -0.599  1.00  0.00    -0.000 C 
BRANCH  28  29
ATOM     29  C   UNL     1      81.586   1.776  -0.407  1.00  0.00    -0.000 C 
BRANCH  29  30
ATOM     30  C   UNL     1      82.057   2.687   0.738  1.00  0.00    -0.000 C 
BRANCH  30  31
ATOM     31  C   UNL     1      81.051   2.740   1.900  1.00  0.00    -0.003 C 
ATOM     32  C   UNL     1      81.652   2.282   3.228  1.00  0.00     0.004 C 
ENDBRANCH  30  31
ENDBRANCH  29  30
ENDBRANCH  28  29
ENDBRANCH  27  28
ENDBRANCH  26  27
ENDBRANCH  25  26
ENDBRANCH  24  25
ENDBRANCH  23  24
ENDBRANCH  22  23
ENDBRANCH  21  22
ENDBRANCH  20  21
ENDBRANCH  19  20
ENDBRANCH  18  19
ENDBRANCH   1  18
TORSDOF 28
ENDMDL
MODEL 5
REMARK VINA RESULT:    -7.000      2.534     11.138
REMARK INTER + INTRA:         -21.022
REMARK INTER:                 -17.640
REMARK INTRA:                  -3.382
REMARK UNBOUND:                -2.564
REMARK SMILES CCCCCCCCCCCCCCCCCCCCCCCCCCCCCC(=O)[O-]
REMARK SMILES IDX 16 1 17 2 18 3 19 4 20 5 21 6 22 7 23 8 24 9 25 10 26 11
REMARK SMILES IDX 27 12 28 13 29 14 30 15 31 16 32 17 15 18 14 19 13 20 12 21
REMARK SMILES IDX 11 22 10 23 9 24 8 25 7 26 6 27 5 28 4 29 3 30 2 31 1 32
REMARK H PARENT
REMARK Flexibility Score: inf
ROOT
ATOM      1  C   UNL     1      86.568  -2.591   2.769  1.00  0.00     0.000 C 
ENDROOT
BRANCH   1   2
ATOM      2  C   UNL     1      87.553  -1.881   1.825  1.00  0.00     0.000 C 
BRANCH   2   3
ATOM      3  C   UNL     1      88.860  -2.669   1.617  1.00  0.00     0.000 C 
BRANCH   3   4
ATOM      4  C   UNL     1      89.964  -2.402   2.662  1.00  0.00     0.000 C 
BRANCH   4   5
ATOM      5  C   UNL     1      90.537  -0.973   2.668  1.00  0.00     0.000 C 
BRANCH   5   6
ATOM      6  C   UNL     1      90.669  -0.322   4.059  1.00  0.00     0.000 C 
BRANCH   6   7
ATOM      7  C   UNL     1      91.958  -0.705   4.817  1.00  0.00     0.000 C 
BRANCH   7   8
ATOM      8  C   UNL     1      91.700  -1.043   6.297  1.00  0.00     0.000 C 
BRANCH   8   9
ATOM      9  C   UNL     1      92.630  -2.153   6.823  1.00  0.00     0.000 C 
BRANCH   9  10
ATOM     10  C   UNL     1      91.913  -3.470   7.178  1.00  0.00     0.000 C 
BRANCH  10  11
ATOM     11  C   UNL     1      91.032  -3.998   6.029  1.00  0.00     0.000 C 
BRANCH  11  12
ATOM     12  C   UNL     1      89.587  -4.277   6.470  1.00  0.00     0.000 C 
BRANCH  12  13
ATOM     13  C   UNL     1      88.552  -3.547   5.598  1.00  0.00     0.006 C 
BRANCH  13  14
ATOM     14  C   UNL     1      88.280  -2.120   6.091  1.00  0.00     0.053 C 
BRANCH  14  15
ATOM     15  C   UNL     1      86.832  -1.906   6.411  1.00  0.00     0.041 C 
ATOM     16  O   UNL     1      86.107  -2.876   6.753  1.00  0.00    -0.550 OA
ATOM     17  O   UNL     1      86.277  -0.638   6.301  1.00  0.00    -0.550 OA
ENDBRANCH  14  15
ENDBRANCH  13  14
ENDBRANCH  12  13
ENDBRANCH  11  12
ENDBRANCH  10  11
ENDBRANCH   9  10
ENDBRANCH   8   9
ENDBRANCH   7   8
ENDBRANCH   6   7
ENDBRANCH   5   6
ENDBRANCH   4   5
ENDBRANCH   3   4
ENDBRANCH   2   3
ENDBRANCH   1   2
BRANCH   1  18
ATOM     18  C   UNL     1      85.092  -2.333   2.405  1.00  0.00     0.000 C 
BRANCH  18  19
ATOM     19  C   UNL     1      84.057  -2.984   3.342  1.00  0.00     0.000 C 
BRANCH  19  20
ATOM     20  C   UNL     1      83.038  -3.864   2.599  1.00  0.00     0.000 C 
BRANCH  20  21
ATOM     21  C   UNL     1      81.578  -3.520   2.949  1.00  0.00     0.000 C 
BRANCH  21  22
ATOM     22  C   UNL     1      80.687  -3.153   1.749  1.00  0.00     0.000 C 
BRANCH  22  23
ATOM     23  C   UNL     1      81.298  -3.560   0.401  1.00  0.00     0.000 C 
BRANCH  23  24
ATOM     24  C   UNL     1      81.490  -2.335  -0.502  1.00  0.00    -0.000 C 
BRANCH  24  25
ATOM     25  C   UNL     1      82.609  -1.428   0.032  1.00  0.00    -0.000 C 
BRANCH  25  26
ATOM     26  C   UNL     1      82.077  -0.113   0.626  1.00  0.00    -0.000 C 
BRANCH  26  27
ATOM     27  C   UNL     1      82.363   1.145  -0.219  1.00  0.00    -0.000 C 
BRANCH  27  28
ATOM     28  C   UNL     1      81.231   2.192  -0.240  1.00  0.00    -0.000 C 
BRANCH  28  29
ATOM     29  C   UNL     1      80.561   2.458   1.121  1.00  0.00    -0.000 C 
BRANCH  29  30
ATOM     30  C   UNL     1      81.520   3.087   2.145  1.00  0.00    -0.000 C 
BRANCH  30  31
ATOM     31  C   UNL     1      81.480   2.372   3.505  1.00  0.00    -0.003 C 
ATOM     32  C   UNL     1      82.262   3.112   4.589  1.00  0.00     0.004 C 
ENDBRANCH  30  31
ENDBRANCH  29  30
ENDBRANCH  28  29
ENDBRANCH  27  28
ENDBRANCH  26  27
ENDBRANCH  25  26
ENDBRANCH  24  25
ENDBRANCH  23  24
ENDBRANCH  22  23
ENDBRANCH  21  22
ENDBRANCH  20  21
ENDBRANCH  19  20
ENDBRANCH  18  19
ENDBRANCH   1  18
TORSDOF 28
ENDMDL
MODEL 6
REMARK VINA RESULT:    -6.959      2.913      6.683
REMARK INTER + INTRA:         -20.914
REMARK INTER:                 -18.657
REMARK INTRA:                  -2.257
REMARK UNBOUND:                -2.564
REMARK SMILES CCCCCCCCCCCCCCCCCCCCCCCCCCCCCC(=O)[O-]
REMARK SMILES IDX 16 1 17 2 18 3 19 4 20 5 21 6 22 7 23 8 24 9 25 10 26 11
REMARK SMILES IDX 27 12 28 13 29 14 30 15 31 16 32 17 15 18 14 19 13 20 12 21
REMARK SMILES IDX 11 22 10 23 9 24 8 25 7 26 6 27 5 28 4 29 3 30 2 31 1 32
REMARK H PARENT
REMARK Flexibility Score: inf
ROOT
ATOM      1  C   UNL     1      91.456  -4.504   7.096  1.00  0.00     0.000 C 
ENDROOT
BRANCH   1   2
ATOM      2  C   UNL     1      90.886  -4.861   5.713  1.00  0.00     0.000 C 
BRANCH   2   3
ATOM      3  C   UNL     1      90.054  -3.723   5.093  1.00  0.00     0.000 C 
BRANCH   3   4
ATOM      4  C   UNL     1      88.775  -3.344   5.868  1.00  0.00     0.000 C 
BRANCH   4   5
ATOM      5  C   UNL     1      88.289  -1.896   5.672  1.00  0.00     0.000 C 
BRANCH   5   6
ATOM      6  C   UNL     1      86.786  -1.665   5.928  1.00  0.00     0.000 C 
BRANCH   6   7
ATOM      7  C   UNL     1      85.858  -2.632   5.162  1.00  0.00     0.000 C 
BRANCH   7   8
ATOM      8  C   UNL     1      86.082  -2.591   3.640  1.00  0.00     0.000 C 
BRANCH   8   9
ATOM      9  C   UNL     1      84.771  -2.407   2.851  1.00  0.00     0.000 C 
BRANCH   9  10
ATOM     10  C   UNL     1      83.859  -3.649   2.833  1.00  0.00     0.000 C 
BRANCH  10  11
ATOM     11  C   UNL     1      82.598  -3.476   3.701  1.00  0.00     0.000 C 
BRANCH  11  12
ATOM     12  C   UNL     1      81.302  -3.495   2.876  1.00  0.00     0.000 C 
BRANCH  12  13
ATOM     13  C   UNL     1      81.565  -3.433   1.362  1.00  0.00     0.006 C 
BRANCH  13  14
ATOM     14  C   UNL     1      80.914  -2.206   0.709  1.00  0.00     0.053 C 
BRANCH  14  15
ATOM     15  C   UNL     1      81.811  -1.007   0.758  1.00  0.00     0.041 C 
ATOM     16  O   UNL     1      82.088  -0.465   1.860  1.00  0.00    -0.550 OA
ATOM     17  O   UNL     1      82.317  -0.469  -0.417  1.00  0.00    -0.550 OA
ENDBRANCH  14  15
ENDBRANCH  13  14
ENDBRANCH  12  13
ENDBRANCH  11  12
ENDBRANCH  10  11
ENDBRANCH   9  10
ENDBRANCH   8   9
ENDBRANCH   7   8
ENDBRANCH   6   7
ENDBRANCH   5   6
ENDBRANCH   4   5
ENDBRANCH   3   4
ENDBRANCH   2   3
ENDBRANCH   1   2
BRANCH   1  18
ATOM     18  C   UNL     1      92.234  -3.174   7.103  1.00  0.00     0.000 C 
BRANCH  18  19
ATOM     19  C   UNL     1      93.437  -3.116   8.063  1.00  0.00     0.000 C 
BRANCH  19  20
ATOM     20  C   UNL     1      93.478  -4.293   9.053  1.00  0.00     0.000 C 
BRANCH  20  21
ATOM     21  C   UNL     1      94.185  -3.942  10.375  1.00  0.00     0.000 C 
BRANCH  21  22
ATOM     22  C   UNL     1      95.212  -4.979  10.862  1.00  0.00     0.000 C 
BRANCH  22  23
ATOM     23  C   UNL     1      96.656  -4.458  10.823  1.00  0.00     0.000 C 
BRANCH  23  24
ATOM     24  C   UNL     1      96.696  -2.947  11.082  1.00  0.00    -0.000 C 
BRANCH  24  25
ATOM     25  C   UNL     1      97.284  -2.197   9.876  1.00  0.00    -0.000 C 
BRANCH  25  26
ATOM     26  C   UNL     1      97.398  -3.082   8.624  1.00  0.00    -0.000 C 
BRANCH  26  27
ATOM     27  C   UNL     1      98.157  -2.442   7.443  1.00  0.00    -0.000 C 
BRANCH  27  28
ATOM     28  C   UNL     1      98.603  -3.425   6.342  1.00  0.00    -0.000 C 
BRANCH  28  29
ATOM     29  C   UNL     1      99.639  -4.474   6.783  1.00  0.00    -0.000 C 
BRANCH  29  30
ATOM     30  C   UNL     1      99.254  -5.904   6.368  1.00  0.00    -0.000 C 
BRANCH  30  31
ATOM     31  C   UNL     1      97.768  -6.028   5.994  1.00  0.00    -0.003 C 
ATOM     32  C   UNL     1      97.451  -7.314   5.232  1.00  0.00     0.004 C 
ENDBRANCH  30  31
ENDBRANCH  29  30
ENDBRANCH  28  29
ENDBRANCH  27  28
ENDBRANCH  26  27
ENDBRANCH  25  26
ENDBRANCH  24  25
ENDBRANCH  23  24
ENDBRANCH  22  23
ENDBRANCH  21  22
ENDBRANCH  20  21
ENDBRANCH  19  20
ENDBRANCH  18  19
ENDBRANCH   1  18
TORSDOF 28
ENDMDL
MODEL 7
REMARK VINA RESULT:    -6.957      1.623      4.079
REMARK INTER + INTRA:         -20.908
REMARK INTER:                 -17.684
REMARK INTRA:                  -3.224
REMARK UNBOUND:                -2.564
REMARK SMILES CCCCCCCCCCCCCCCCCCCCCCCCCCCCCC(=O)[O-]
REMARK SMILES IDX 16 1 17 2 18 3 19 4 20 5 21 6 22 7 23 8 24 9 25 10 26 11
REMARK SMILES IDX 27 12 28 13 29 14 30 15 31 16 32 17 15 18 14 19 13 20 12 21
REMARK SMILES IDX 11 22 10 23 9 24 8 25 7 26 6 27 5 28 4 29 3 30 2 31 1 32
REMARK H PARENT
REMARK Flexibility Score: inf
ROOT
ATOM      1  C   UNL     1      89.938  -1.653   3.606  1.00  0.00     0.000 C 
ENDROOT
BRANCH   1   2
ATOM      2  C   UNL     1      89.664  -2.855   2.687  1.00  0.00     0.000 C 
BRANCH   2   3
ATOM      3  C   UNL     1      88.761  -2.504   1.491  1.00  0.00     0.000 C 
BRANCH   3   4
ATOM      4  C   UNL     1      87.381  -1.915   1.856  1.00  0.00     0.000 C 
BRANCH   4   5
ATOM      5  C   UNL     1      86.332  -2.937   2.330  1.00  0.00     0.000 C 
BRANCH   5   6
ATOM      6  C   UNL     1      85.456  -2.480   3.513  1.00  0.00     0.000 C 
BRANCH   6   7
ATOM      7  C   UNL     1      83.979  -2.221   3.145  1.00  0.00     0.000 C 
BRANCH   7   8
ATOM      8  C   UNL     1      83.171  -3.520   2.980  1.00  0.00     0.000 C 
BRANCH   8   9
ATOM      9  C   UNL     1      81.651  -3.271   2.924  1.00  0.00     0.000 C 
BRANCH   9  10
ATOM     10  C   UNL     1      81.002  -3.598   1.565  1.00  0.00     0.000 C 
BRANCH  10  11
ATOM     11  C   UNL     1      80.829  -2.354   0.673  1.00  0.00     0.000 C 
BRANCH  11  12
ATOM     12  C   UNL     1      82.131  -1.944  -0.033  1.00  0.00     0.000 C 
BRANCH  12  13
ATOM     13  C   UNL     1      82.197  -0.434  -0.320  1.00  0.00     0.006 C 
BRANCH  13  14
ATOM     14  C   UNL     1      82.930   0.336   0.786  1.00  0.00     0.053 C 
BRANCH  14  15
ATOM     15  C   UNL     1      81.998   1.207   1.570  1.00  0.00     0.041 C 
ATOM     16  O   UNL     1      81.088   1.853   0.987  1.00  0.00    -0.550 OA
ATOM     17  O   UNL     1      82.154   1.330   2.944  1.00  0.00    -0.550 OA
ENDBRANCH  14  15
ENDBRANCH  13  14
ENDBRANCH  12  13
ENDBRANCH  11  12
ENDBRANCH  10  11
ENDBRANCH   9  10
ENDBRANCH   8   9
ENDBRANCH   7   8
ENDBRANCH   6   7
ENDBRANCH   5   6
ENDBRANCH   4   5
ENDBRANCH   3   4
ENDBRANCH   2   3
ENDBRANCH   1   2
BRANCH   1  18
ATOM     18  C   UNL     1      89.207  -1.750   4.960  1.00  0.00     0.000 C 
BRANCH  18  19
ATOM     19  C   UNL     1      88.564  -3.115   5.268  1.00  0.00     0.000 C 
BRANCH  19  20
ATOM     20  C   UNL     1      89.297  -3.892   6.376  1.00  0.00     0.000 C 
BRANCH  20  21
ATOM     21  C   UNL     1      90.540  -4.641   5.862  1.00  0.00     0.000 C 
BRANCH  21  22
ATOM     22  C   UNL     1      91.773  -4.570   6.780  1.00  0.00     0.000 C 
BRANCH  22  23
ATOM     23  C   UNL     1      92.108  -3.139   7.224  1.00  0.00     0.000 C 
BRANCH  23  24
ATOM     24  C   UNL     1      93.440  -3.102   7.983  1.00  0.00    -0.000 C 
BRANCH  24  25
ATOM     25  C   UNL     1      93.239  -3.451   9.466  1.00  0.00    -0.000 C 
BRANCH  25  26
ATOM     26  C   UNL     1      93.840  -4.815   9.843  1.00  0.00    -0.000 C 
BRANCH  26  27
ATOM     27  C   UNL     1      95.070  -4.749  10.771  1.00  0.00    -0.000 C 
BRANCH  27  28
ATOM     28  C   UNL     1      95.456  -3.335  11.247  1.00  0.00    -0.000 C 
BRANCH  28  29
ATOM     29  C   UNL     1      96.564  -2.648  10.427  1.00  0.00    -0.000 C 
BRANCH  29  30
ATOM     30  C   UNL     1      97.376  -3.638   9.576  1.00  0.00    -0.000 C 
BRANCH  30  31
ATOM     31  C   UNL     1      97.258  -3.354   8.070  1.00  0.00    -0.003 C 
ATOM     32  C   UNL     1      96.715  -4.543   7.280  1.00  0.00     0.004 C 
ENDBRANCH  30  31
ENDBRANCH  29  30
ENDBRANCH  28  29
ENDBRANCH  27  28
ENDBRANCH  26  27
ENDBRANCH  25  26
ENDBRANCH  24  25
ENDBRANCH  23  24
ENDBRANCH  22  23
ENDBRANCH  21  22
ENDBRANCH  20  21
ENDBRANCH  19  20
ENDBRANCH  18  19
ENDBRANCH   1  18
TORSDOF 28
ENDMDL
MODEL 8
REMARK VINA RESULT:    -6.953      4.953     14.025
REMARK INTER + INTRA:         -20.898
REMARK INTER:                 -18.259
REMARK INTRA:                  -2.639
REMARK UNBOUND:                -2.564
REMARK SMILES CCCCCCCCCCCCCCCCCCCCCCCCCCCCCC(=O)[O-]
REMARK SMILES IDX 16 1 17 2 18 3 19 4 20 5 21 6 22 7 23 8 24 9 25 10 26 11
REMARK SMILES IDX 27 12 28 13 29 14 30 15 31 16 32 17 15 18 14 19 13 20 12 21
REMARK SMILES IDX 11 22 10 23 9 24 8 25 7 26 6 27 5 28 4 29 3 30 2 31 1 32
REMARK H PARENT
REMARK Flexibility Score: inf
ROOT
ATOM      1  C   UNL     1      90.134  -2.199   4.666  1.00  0.00     0.000 C 
ENDROOT
BRANCH   1   2
ATOM      2  C   UNL     1      90.544  -1.512   5.979  1.00  0.00     0.000 C 
BRANCH   2   3
ATOM      3  C   UNL     1      91.950  -0.889   5.918  1.00  0.00     0.000 C 
BRANCH   3   4
ATOM      4  C   UNL     1      93.051  -1.670   6.667  1.00  0.00     0.000 C 
BRANCH   4   5
ATOM      5  C   UNL     1      92.549  -2.656   7.737  1.00  0.00     0.000 C 
BRANCH   5   6
ATOM      6  C   UNL     1      93.583  -3.697   8.211  1.00  0.00     0.000 C 
BRANCH   6   7
ATOM      7  C   UNL     1      93.466  -4.071   9.704  1.00  0.00     0.000 C 
BRANCH   7   8
ATOM      8  C   UNL     1      94.431  -5.199  10.111  1.00  0.00     0.000 C 
BRANCH   8   9
ATOM      9  C   UNL     1      95.639  -4.685  10.917  1.00  0.00     0.000 C 
BRANCH   9  10
ATOM     10  C   UNL     1      95.653  -3.161  11.144  1.00  0.00     0.000 C 
BRANCH  10  11
ATOM     11  C   UNL     1      96.830  -2.463  10.437  1.00  0.00     0.000 C 
BRANCH  11  12
ATOM     12  C   UNL     1      97.521  -3.365   9.402  1.00  0.00     0.000 C 
BRANCH  12  13
ATOM     13  C   UNL     1      97.155  -2.991   7.956  1.00  0.00     0.006 C 
BRANCH  13  14
ATOM     14  C   UNL     1      97.348  -4.165   6.986  1.00  0.00     0.053 C 
BRANCH  14  15
ATOM     15  C   UNL     1      98.702  -4.141   6.345  1.00  0.00     0.041 C 
ATOM     16  O   UNL     1      99.634  -3.462   6.851  1.00  0.00    -0.550 OA
ATOM     17  O   UNL     1      98.926  -4.845   5.169  1.00  0.00    -0.550 OA
ENDBRANCH  14  15
ENDBRANCH  13  14
ENDBRANCH  12  13
ENDBRANCH  11  12
ENDBRANCH  10  11
ENDBRANCH   9  10
ENDBRANCH   8   9
ENDBRANCH   7   8
ENDBRANCH   6   7
ENDBRANCH   5   6
ENDBRANCH   4   5
ENDBRANCH   3   4
ENDBRANCH   2   3
ENDBRANCH   1   2
BRANCH   1  18
ATOM     18  C   UNL     1      88.907  -3.118   4.823  1.00  0.00     0.000 C 
BRANCH  18  19
ATOM     19  C   UNL     1      87.943  -2.745   5.964  1.00  0.00     0.000 C 
BRANCH  19  20
ATOM     20  C   UNL     1      86.761  -1.877   5.498  1.00  0.00     0.000 C 
BRANCH  20  21
ATOM     21  C   UNL     1      85.671  -2.688   4.772  1.00  0.00     0.000 C 
BRANCH  21  22
ATOM     22  C   UNL     1      85.693  -2.586   3.237  1.00  0.00     0.000 C 
BRANCH  22  23
ATOM     23  C   UNL     1      84.353  -2.966   2.591  1.00  0.00     0.000 C 
BRANCH  23  24
ATOM     24  C   UNL     1      83.318  -3.335   3.662  1.00  0.00    -0.000 C 
BRANCH  24  25
ATOM     25  C   UNL     1      81.965  -3.683   3.022  1.00  0.00    -0.000 C 
BRANCH  25  26
ATOM     26  C   UNL     1      82.112  -4.355   1.647  1.00  0.00    -0.000 C 
BRANCH  26  27
ATOM     27  C   UNL     1      81.313  -3.688   0.509  1.00  0.00    -0.000 C 
BRANCH  27  28
ATOM     28  C   UNL     1      81.132  -2.163   0.641  1.00  0.00    -0.000 C 
BRANCH  28  29
ATOM     29  C   UNL     1      82.176  -1.313  -0.107  1.00  0.00    -0.000 C 
BRANCH  29  30
ATOM     30  C   UNL     1      82.712  -0.147   0.739  1.00  0.00    -0.000 C 
BRANCH  30  31
ATOM     31  C   UNL     1      82.930   1.130  -0.089  1.00  0.00    -0.003 C 
ATOM     32  C   UNL     1      81.969   2.255   0.290  1.00  0.00     0.004 C 
ENDBRANCH  30  31
ENDBRANCH  29  30
ENDBRANCH  28  29
ENDBRANCH  27  28
ENDBRANCH  26  27
ENDBRANCH  25  26
ENDBRANCH  24  25
ENDBRANCH  23  24
ENDBRANCH  22  23
ENDBRANCH  21  22
ENDBRANCH  20  21
ENDBRANCH  19  20
ENDBRANCH  18  19
ENDBRANCH   1  18
TORSDOF 28
ENDMDL
MODEL 9
REMARK VINA RESULT:    -6.945      4.550     13.277
REMARK INTER + INTRA:         -20.878
REMARK INTER:                 -17.861
REMARK INTRA:                  -3.017
REMARK UNBOUND:                -2.564
REMARK SMILES CCCCCCCCCCCCCCCCCCCCCCCCCCCCCC(=O)[O-]
REMARK SMILES IDX 16 1 17 2 18 3 19 4 20 5 21 6 22 7 23 8 24 9 25 10 26 11
REMARK SMILES IDX 27 12 28 13 29 14 30 15 31 16 32 17 15 18 14 19 13 20 12 21
REMARK SMILES IDX 11 22 10 23 9 24 8 25 7 26 6 27 5 28 4 29 3 30 2 31 1 32
REMARK H PARENT
REMARK Flexibility Score: inf
ROOT
ATOM      1  C   UNL     1      89.760  -3.331   3.814  1.00  0.00     0.000 C 
ENDROOT
BRANCH   1   2
ATOM      2  C   UNL     1      89.548  -1.850   3.457  1.00  0.00     0.000 C 
BRANCH   2   3
ATOM      3  C   UNL     1      90.828  -1.007   3.605  1.00  0.00     0.000 C 
BRANCH   3   4
ATOM      4  C   UNL     1      91.165  -0.566   5.046  1.00  0.00     0.000 C 
BRANCH   4   5
ATOM      5  C   UNL     1      92.661  -0.596   5.412  1.00  0.00     0.000 C 
BRANCH   5   6
ATOM      6  C   UNL     1      93.035  -1.541   6.572  1.00  0.00     0.000 C 
BRANCH   6   7
ATOM      7  C   UNL     1      91.873  -2.430   7.064  1.00  0.00     0.000 C 
BRANCH   7   8
ATOM      8  C   UNL     1      92.324  -3.861   7.407  1.00  0.00     0.000 C 
BRANCH   8   9
ATOM      9  C   UNL     1      93.705  -3.902   8.088  1.00  0.00     0.000 C 
BRANCH   9  10
ATOM     10  C   UNL     1      93.657  -4.007   9.624  1.00  0.00     0.000 C 
BRANCH  10  11
ATOM     11  C   UNL     1      94.733  -4.952  10.192  1.00  0.00     0.000 C 
BRANCH  11  12
ATOM     12  C   UNL     1      95.712  -4.238  11.136  1.00  0.00     0.000 C 
BRANCH  12  13
ATOM     13  C   UNL     1      97.071  -3.955  10.473  1.00  0.00     0.006 C 
BRANCH  13  14
ATOM     14  C   UNL     1      97.014  -2.751   9.525  1.00  0.00     0.053 C 
BRANCH  14  15
ATOM     15  C   UNL     1      97.552  -3.085   8.167  1.00  0.00     0.041 C 
ATOM     16  O   UNL     1      97.134  -4.100   7.550  1.00  0.00    -0.550 OA
ATOM     17  O   UNL     1      98.537  -2.291   7.595  1.00  0.00    -0.550 OA
ENDBRANCH  14  15
ENDBRANCH  13  14
ENDBRANCH  12  13
ENDBRANCH  11  12
ENDBRANCH  10  11
ENDBRANCH   9  10
ENDBRANCH   8   9
ENDBRANCH   7   8
ENDBRANCH   6   7
ENDBRANCH   5   6
ENDBRANCH   4   5
ENDBRANCH   3   4
ENDBRANCH   2   3
ENDBRANCH   1   2
BRANCH   1  18
ATOM     18  C   UNL     1      89.113  -3.727   5.155  1.00  0.00     0.000 C 
BRANCH  18  19
ATOM     19  C   UNL     1      88.252  -2.637   5.822  1.00  0.00     0.000 C 
BRANCH  19  20
ATOM     20  C   UNL     1      86.766  -3.021   5.927  1.00  0.00     0.000 C 
BRANCH  20  21
ATOM     21  C   UNL     1      85.871  -2.224   4.960  1.00  0.00     0.000 C 
BRANCH  21  22
ATOM     22  C   UNL     1      85.934  -2.674   3.490  1.00  0.00     0.000 C 
BRANCH  22  23
ATOM     23  C   UNL     1      84.551  -2.767   2.831  1.00  0.00     0.000 C 
BRANCH  23  24
ATOM     24  C   UNL     1      83.501  -3.261   3.835  1.00  0.00    -0.000 C 
BRANCH  24  25
ATOM     25  C   UNL     1      82.269  -3.823   3.111  1.00  0.00    -0.000 C 
BRANCH  25  26
ATOM     26  C   UNL     1      82.453  -3.890   1.586  1.00  0.00    -0.000 C 
BRANCH  26  27
ATOM     27  C   UNL     1      81.202  -3.523   0.763  1.00  0.00    -0.000 C 
BRANCH  27  28
ATOM     28  C   UNL     1      80.652  -2.103   1.004  1.00  0.00    -0.000 C 
BRANCH  28  29
ATOM     29  C   UNL     1      81.708  -0.983   0.998  1.00  0.00    -0.000 C 
BRANCH  29  30
ATOM     30  C   UNL     1      82.367  -0.792  -0.379  1.00  0.00    -0.000 C 
BRANCH  30  31
ATOM     31  C   UNL     1      82.784   0.665  -0.635  1.00  0.00    -0.003 C 
ATOM     32  C   UNL     1      82.281   1.626   0.441  1.00  0.00     0.004 C 
ENDBRANCH  30  31
ENDBRANCH  29  30
ENDBRANCH  28  29
ENDBRANCH  27  28
ENDBRANCH  26  27
ENDBRANCH  25  26
ENDBRANCH  24  25
ENDBRANCH  23  24
ENDBRANCH  22  23
ENDBRANCH  21  22
ENDBRANCH  20  21
ENDBRANCH  19  20
ENDBRANCH  18  19
ENDBRANCH   1  18
TORSDOF 28
ENDMDL
