MODEL 1
REMARK VINA RESULT:    -4.126      0.000      0.000
REMARK INTER + INTRA:          -5.048
REMARK INTER:                  -4.971
REMARK INTRA:                  -0.077
REMARK UNBOUND:                -0.077
REMARK SMILES CC[C@@H](C)[C@H]([NH3+])C(=O)[O-]
REMARK SMILES IDX 3 1 4 2 5 3 6 4 7 8 8 9 9 10 2 11 1 12
REMARK H PARENT 6 5 6 6 6 7
REMARK Flexibility Score: inf
ROOT
ATOM      1  C   UNL     1      -0.010  53.912   4.779  1.00  0.00     0.050 C 
ATOM      2  C   UNL     1       1.002  55.053   4.980  1.00  0.00     0.014 C 
ENDROOT
BRANCH   1   3
ATOM      3  C   UNL     1      -1.467  54.326   5.165  1.00  0.00     0.230 C 
BRANCH   3   4
ATOM      4  N   UNL     1      -1.920  55.499   4.402  1.00  0.00    -0.350 N 
ATOM      5  H   UNL     1      -2.547  55.197   3.621  1.00  0.00     0.345 HD
ATOM      6  H   UNL     1      -2.466  56.135   5.027  1.00  0.00     0.345 HD
ATOM      7  H   UNL     1      -1.110  56.030   4.008  1.00  0.00     0.345 HD
ENDBRANCH   3   4
BRANCH   3   8
ATOM      8  C   UNL     1      -1.689  54.514   6.650  1.00  0.00     0.099 C 
ATOM      9  O   UNL     1      -2.124  55.603   7.111  1.00  0.00    -0.544 OA
ATOM     10  O   UNL     1      -1.453  53.459   7.523  1.00  0.00    -0.544 OA
ENDBRANCH   3   8
ENDBRANCH   1   3
BRANCH   1  11
ATOM     11  C   UNL     1       0.166  53.218   3.402  1.00  0.00     0.006 C 
ATOM     12  C   UNL     1       1.571  52.697   3.097  1.00  0.00     0.004 C 
ENDBRANCH   1  11
TORSDOF 4
ENDMDL
MODEL 2
REMARK VINA RESULT:    -4.119      1.173      1.842
REMARK INTER + INTRA:          -5.039
REMARK INTER:                  -4.958
REMARK INTRA:                  -0.081
REMARK UNBOUND:                -0.077
REMARK SMILES CC[C@@H](C)[C@H]([NH3+])C(=O)[O-]
REMARK SMILES IDX 3 1 4 2 5 3 6 4 7 8 8 9 9 10 2 11 1 12
REMARK H PARENT 6 5 6 6 6 7
REMARK Flexibility Score: inf
ROOT
ATOM      1  C   UNL     1      -0.719  53.255   4.194  1.00  0.00     0.050 C 
ATOM      2  C   UNL     1      -1.027  51.788   4.538  1.00  0.00     0.014 C 
ENDROOT
BRANCH   1   3
ATOM      3  C   UNL     1      -1.503  54.262   5.097  1.00  0.00     0.230 C 
BRANCH   3   4
ATOM      4  N   UNL     1      -1.800  55.514   4.386  1.00  0.00    -0.350 N 
ATOM      5  H   UNL     1      -2.027  56.270   5.072  1.00  0.00     0.345 HD
ATOM      6  H   UNL     1      -0.960  55.815   3.839  1.00  0.00     0.345 HD
ATOM      7  H   UNL     1      -2.603  55.394   3.727  1.00  0.00     0.345 HD
ENDBRANCH   3   4
BRANCH   3   8
ATOM      8  C   UNL     1      -0.857  54.528   6.439  1.00  0.00     0.099 C 
ATOM      9  O   UNL     1      -0.962  53.704   7.387  1.00  0.00    -0.544 OA
ATOM     10  O   UNL     1      -0.099  55.676   6.626  1.00  0.00    -0.544 OA
ENDBRANCH   3   8
ENDBRANCH   1   3
BRANCH   1  11
ATOM     11  C   UNL     1       0.806  53.507   4.046  1.00  0.00     0.006 C 
ATOM     12  C   UNL     1       1.519  52.660   2.991  1.00  0.00     0.004 C 
ENDBRANCH   1  11
TORSDOF 4
ENDMDL
MODEL 3
REMARK VINA RESULT:    -4.057      2.034      3.239
REMARK INTER + INTRA:          -4.964
REMARK INTER:                  -4.829
REMARK INTRA:                  -0.135
REMARK UNBOUND:                -0.077
REMARK SMILES CC[C@@H](C)[C@H]([NH3+])C(=O)[O-]
REMARK SMILES IDX 3 1 4 2 5 3 6 4 7 8 8 9 9 10 2 11 1 12
REMARK H PARENT 6 5 6 6 6 7
REMARK Flexibility Score: inf
ROOT
ATOM      1  C   UNL     1      -0.307  54.742   4.709  1.00  0.00     0.050 C 
ATOM      2  C   UNL     1       0.606  55.178   5.868  1.00  0.00     0.014 C 
ENDROOT
BRANCH   1   3
ATOM      3  C   UNL     1      -0.146  53.228   4.353  1.00  0.00     0.230 C 
BRANCH   3   4
ATOM      4  N   UNL     1      -0.125  53.009   2.900  1.00  0.00    -0.350 N 
ATOM      5  H   UNL     1       0.845  53.144   2.531  1.00  0.00     0.345 HD
ATOM      6  H   UNL     1      -0.418  52.028   2.688  1.00  0.00     0.345 HD
ATOM      7  H   UNL     1      -0.773  53.666   2.408  1.00  0.00     0.345 HD
ENDBRANCH   3   4
BRANCH   3   8
ATOM      8  C   UNL     1      -1.145  52.318   5.034  1.00  0.00     0.099 C 
ATOM      9  O   UNL     1      -1.916  51.581   4.364  1.00  0.00    -0.544 OA
ATOM     10  O   UNL     1      -1.191  52.257   6.421  1.00  0.00    -0.544 OA
ENDBRANCH   3   8
ENDBRANCH   1   3
BRANCH   1  11
ATOM     11  C   UNL     1      -1.761  55.254   4.893  1.00  0.00     0.006 C 
ATOM     12  C   UNL     1      -2.122  55.731   6.301  1.00  0.00     0.004 C 
ENDBRANCH   1  11
TORSDOF 4
ENDMDL
MODEL 4
REMARK VINA RESULT:    -3.988      1.703      2.246
REMARK INTER + INTRA:          -4.881
REMARK INTER:                  -4.824
REMARK INTRA:                  -0.057
REMARK UNBOUND:                -0.077
REMARK SMILES CC[C@@H](C)[C@H]([NH3+])C(=O)[O-]
REMARK SMILES IDX 3 1 4 2 5 3 6 4 7 8 8 9 9 10 2 11 1 12
REMARK H PARENT 6 5 6 6 6 7
REMARK Flexibility Score: inf
ROOT
ATOM      1  C   UNL     1      -0.558  53.623   5.036  1.00  0.00     0.050 C 
ATOM      2  C   UNL     1       0.152  53.287   3.713  1.00  0.00     0.014 C 
ENDROOT
BRANCH   1   3
ATOM      3  C   UNL     1      -0.647  55.161   5.297  1.00  0.00     0.230 C 
BRANCH   3   4
ATOM      4  N   UNL     1       0.538  55.869   4.789  1.00  0.00    -0.350 N 
ATOM      5  H   UNL     1       1.310  55.189   4.605  1.00  0.00     0.345 HD
ATOM      6  H   UNL     1       0.303  56.345   3.888  1.00  0.00     0.345 HD
ATOM      7  H   UNL     1       0.869  56.589   5.471  1.00  0.00     0.345 HD
ENDBRANCH   3   4
BRANCH   3   8
ATOM      8  C   UNL     1      -0.940  55.533   6.734  1.00  0.00     0.099 C 
ATOM      9  O   UNL     1      -2.117  55.760   7.120  1.00  0.00    -0.544 OA
ATOM     10  O   UNL     1       0.095  55.586   7.659  1.00  0.00    -0.544 OA
ENDBRANCH   3   8
ENDBRANCH   1   3
BRANCH   1  11
ATOM     11  C   UNL     1      -1.875  52.819   5.206  1.00  0.00     0.006 C 
ATOM     12  C   UNL     1      -1.939  51.486   4.458  1.00  0.00     0.004 C 
ENDBRANCH   1  11
TORSDOF 4
ENDMDL
MODEL 5
REMARK VINA RESULT:    -3.926      2.150      3.353
REMARK INTER + INTRA:          -4.807
REMARK INTER:                  -4.697
REMARK INTRA:                  -0.110
REMARK UNBOUND:                -0.077
REMARK SMILES CC[C@@H](C)[C@H]([NH3+])C(=O)[O-]
REMARK SMILES IDX 3 1 4 2 5 3 6 4 7 8 8 9 9 10 2 11 1 12
REMARK H PARENT 6 5 6 6 6 7
REMARK Flexibility Score: inf
ROOT
ATOM      1  C   UNL     1      -0.528  54.820   6.538  1.00  0.00     0.050 C 
ATOM      2  C   UNL     1      -1.890  55.280   7.086  1.00  0.00     0.014 C 
ENDROOT
BRANCH   1   3
ATOM      3  C   UNL     1      -0.492  54.777   4.976  1.00  0.00     0.230 C 
BRANCH   3   4
ATOM      4  N   UNL     1      -1.669  55.431   4.386  1.00  0.00    -0.350 N 
ATOM      5  H   UNL     1      -1.699  55.253   3.355  1.00  0.00     0.345 HD
ATOM      6  H   UNL     1      -2.540  55.033   4.808  1.00  0.00     0.345 HD
ATOM      7  H   UNL     1      -1.655  56.462   4.556  1.00  0.00     0.345 HD
ENDBRANCH   3   4
BRANCH   3   8
ATOM      8  C   UNL     1      -0.277  53.396   4.395  1.00  0.00     0.099 C 
ATOM      9  O   UNL     1       0.559  53.201   3.473  1.00  0.00    -0.544 OA
ATOM     10  O   UNL     1      -0.977  52.313   4.911  1.00  0.00    -0.544 OA
ENDBRANCH   3   8
ENDBRANCH   1   3
BRANCH   1  11
ATOM     11  C   UNL     1       0.652  55.551   7.233  1.00  0.00     0.006 C 
ATOM     12  C   UNL     1       1.976  55.550   6.468  1.00  0.00     0.004 C 
ENDBRANCH   1  11
TORSDOF 4
ENDMDL
MODEL 6
REMARK VINA RESULT:    -3.917      1.333      2.109
REMARK INTER + INTRA:          -4.796
REMARK INTER:                  -4.729
REMARK INTRA:                  -0.067
REMARK UNBOUND:                -0.077
REMARK SMILES CC[C@@H](C)[C@H]([NH3+])C(=O)[O-]
REMARK SMILES IDX 3 1 4 2 5 3 6 4 7 8 8 9 9 10 2 11 1 12
REMARK H PARENT 6 5 6 6 6 7
REMARK Flexibility Score: inf
ROOT
ATOM      1  C   UNL     1      -1.355  54.079   5.023  1.00  0.00     0.050 C 
ATOM      2  C   UNL     1      -1.672  52.584   5.201  1.00  0.00     0.014 C 
ENDROOT
BRANCH   1   3
ATOM      3  C   UNL     1      -1.730  54.927   6.282  1.00  0.00     0.230 C 
BRANCH   3   4
ATOM      4  N   UNL     1      -2.085  56.308   5.922  1.00  0.00    -0.350 N 
ATOM      5  H   UNL     1      -2.901  56.628   6.492  1.00  0.00     0.345 HD
ATOM      6  H   UNL     1      -1.279  56.942   6.126  1.00  0.00     0.345 HD
ATOM      7  H   UNL     1      -2.323  56.385   4.907  1.00  0.00     0.345 HD
ENDBRANCH   3   4
BRANCH   3   8
ATOM      8  C   UNL     1      -0.698  54.891   7.387  1.00  0.00     0.099 C 
ATOM      9  O   UNL     1      -0.685  53.960   8.236  1.00  0.00    -0.544 OA
ATOM     10  O   UNL     1       0.282  55.874   7.450  1.00  0.00    -0.544 OA
ENDBRANCH   3   8
ENDBRANCH   1   3
BRANCH   1  11
ATOM     11  C   UNL     1       0.066  54.305   4.440  1.00  0.00     0.006 C 
ATOM     12  C   UNL     1       0.619  53.165   3.583  1.00  0.00     0.004 C 
ENDBRANCH   1  11
TORSDOF 4
ENDMDL
MODEL 7
REMARK VINA RESULT:    -3.869      2.234      3.587
REMARK INTER + INTRA:          -4.738
REMARK INTER:                  -4.664
REMARK INTRA:                  -0.073
REMARK UNBOUND:                -0.077
REMARK SMILES CC[C@@H](C)[C@H]([NH3+])C(=O)[O-]
REMARK SMILES IDX 3 1 4 2 5 3 6 4 7 8 8 9 9 10 2 11 1 12
REMARK H PARENT 6 5 6 6 6 7
REMARK Flexibility Score: inf
ROOT
ATOM      1  C   UNL     1       0.274  55.406   6.029  1.00  0.00     0.050 C 
ATOM      2  C   UNL     1       1.797  55.551   6.195  1.00  0.00     0.014 C 
ENDROOT
BRANCH   1   3
ATOM      3  C   UNL     1      -0.139  55.030   4.569  1.00  0.00     0.230 C 
BRANCH   3   4
ATOM      4  N   UNL     1      -1.542  55.372   4.295  1.00  0.00    -0.350 N 
ATOM      5  H   UNL     1      -1.725  55.339   3.266  1.00  0.00     0.345 HD
ATOM      6  H   UNL     1      -2.170  54.675   4.758  1.00  0.00     0.345 HD
ATOM      7  H   UNL     1      -1.777  56.325   4.655  1.00  0.00     0.345 HD
ENDBRANCH   3   4
BRANCH   3   8
ATOM      8  C   UNL     1       0.168  53.600   4.183  1.00  0.00     0.099 C 
ATOM      9  O   UNL     1      -0.736  52.722   4.168  1.00  0.00    -0.544 OA
ATOM     10  O   UNL     1       1.455  53.248   3.796  1.00  0.00    -0.544 OA
ENDBRANCH   3   8
ENDBRANCH   1   3
BRANCH   1  11
ATOM     11  C   UNL     1      -0.352  54.550   7.163  1.00  0.00     0.006 C 
ATOM     12  C   UNL     1      -1.520  55.193   7.911  1.00  0.00     0.004 C 
ENDBRANCH   1  11
TORSDOF 4
ENDMDL
MODEL 8
REMARK VINA RESULT:    -3.816      1.061      2.297
REMARK INTER + INTRA:          -4.674
REMARK INTER:                  -4.488
REMARK INTRA:                  -0.187
REMARK UNBOUND:                -0.077
REMARK SMILES CC[C@@H](C)[C@H]([NH3+])C(=O)[O-]
REMARK SMILES IDX 3 1 4 2 5 3 6 4 7 8 8 9 9 10 2 11 1 12
REMARK H PARENT 6 5 6 6 6 7
REMARK Flexibility Score: inf
ROOT
ATOM      1  C   UNL     1       0.543  54.113   4.192  1.00  0.00     0.050 C 
ATOM      2  C   UNL     1       0.915  52.894   3.331  1.00  0.00     0.014 C 
ENDROOT
BRANCH   1   3
ATOM      3  C   UNL     1      -0.965  54.121   4.603  1.00  0.00     0.230 C 
BRANCH   3   4
ATOM      4  N   UNL     1      -1.576  55.444   4.407  1.00  0.00    -0.350 N 
ATOM      5  H   UNL     1      -1.760  55.894   5.333  1.00  0.00     0.345 HD
ATOM      6  H   UNL     1      -0.920  56.058   3.872  1.00  0.00     0.345 HD
ATOM      7  H   UNL     1      -2.474  55.370   3.876  1.00  0.00     0.345 HD
ENDBRANCH   3   4
BRANCH   3   8
ATOM      8  C   UNL     1      -1.234  53.588   5.994  1.00  0.00     0.099 C 
ATOM      9  O   UNL     1      -1.246  52.350   6.226  1.00  0.00    -0.544 OA
ATOM     10  O   UNL     1      -1.430  54.473   7.047  1.00  0.00    -0.544 OA
ENDBRANCH   3   8
ENDBRANCH   1   3
BRANCH   1  11
ATOM     11  C   UNL     1       1.569  54.351   5.333  1.00  0.00     0.006 C 
ATOM     12  C   UNL     1       1.752  55.806   5.766  1.00  0.00     0.004 C 
ENDBRANCH   1  11
TORSDOF 4
ENDMDL
MODEL 9
REMARK VINA RESULT:    -3.686      2.409      3.502
REMARK INTER + INTRA:          -4.518
REMARK INTER:                  -4.443
REMARK INTRA:                  -0.074
REMARK UNBOUND:                -0.077
REMARK SMILES CC[C@@H](C)[C@H]([NH3+])C(=O)[O-]
REMARK SMILES IDX 3 1 4 2 5 3 6 4 7 8 8 9 9 10 2 11 1 12
REMARK H PARENT 6 5 6 6 6 7
REMARK Flexibility Score: inf
ROOT
ATOM      1  C   UNL     1      -1.295  54.813   6.723  1.00  0.00     0.050 C 
ATOM      2  C   UNL     1      -0.636  55.375   7.994  1.00  0.00     0.014 C 
ENDROOT
BRANCH   1   3
ATOM      3  C   UNL     1      -0.718  55.447   5.416  1.00  0.00     0.230 C 
BRANCH   3   4
ATOM      4  N   UNL     1      -1.710  55.455   4.331  1.00  0.00    -0.350 N 
ATOM      5  H   UNL     1      -2.426  56.197   4.506  1.00  0.00     0.345 HD
ATOM      6  H   UNL     1      -1.236  55.670   3.424  1.00  0.00     0.345 HD
ATOM      7  H   UNL     1      -2.188  54.529   4.248  1.00  0.00     0.345 HD
ENDBRANCH   3   4
BRANCH   3   8
ATOM      8  C   UNL     1       0.595  54.848   4.961  1.00  0.00     0.099 C 
ATOM      9  O   UNL     1       1.687  55.202   5.480  1.00  0.00    -0.544 OA
ATOM     10  O   UNL     1       0.603  53.860   3.984  1.00  0.00    -0.544 OA
ENDBRANCH   3   8
ENDBRANCH   1   3
BRANCH   1  11
ATOM     11  C   UNL     1      -1.385  53.264   6.755  1.00  0.00     0.006 C 
ATOM     12  C   UNL     1      -1.388  52.628   8.146  1.00  0.00     0.004 C 
ENDBRANCH   1  11
TORSDOF 4
ENDMDL
