MODEL 1
REMARK VINA RESULT:    -4.216      0.000      0.000
REMARK INTER + INTRA:          -5.405
REMARK INTER:                  -5.202
REMARK INTRA:                  -0.203
REMARK UNBOUND:                -0.203
REMARK SMILES C=CC[C@H](C)C(=O)CC
REMARK SMILES IDX 4 1 5 2 6 3 7 4 8 5 9 6 3 7 2 8 1 9
REMARK H PARENT
REMARK Flexibility Score: inf
ROOT
ATOM      1  C   UNL     1      13.140 -30.749  22.895  1.00  0.00     0.057 C 
ATOM      2  C   UNL     1      13.575 -31.867  23.852  1.00  0.00     0.016 C 
ENDROOT
BRANCH   1   3
ATOM      3  C   UNL     1      13.803 -30.938  21.547  1.00  0.00     0.135 C 
ATOM      4  O   UNL     1      14.785 -30.270  21.256  1.00  0.00    -0.299 OA
BRANCH   3   5
ATOM      5  C   UNL     1      13.279 -31.941  20.554  1.00  0.00     0.072 C 
ATOM      6  C   UNL     1      14.169 -33.179  20.515  1.00  0.00     0.012 C 
ENDBRANCH   3   5
ENDBRANCH   1   3
BRANCH   1   7
ATOM      7  C   UNL     1      13.478 -29.354  23.455  1.00  0.00     0.038 C 
BRANCH   7   8
ATOM      8  C   UNL     1      12.256 -28.665  24.003  1.00  0.00    -0.034 C 
ATOM      9  C   UNL     1      11.209 -28.361  23.231  1.00  0.00     0.004 C 
ENDBRANCH   7   8
ENDBRANCH   1   7
TORSDOF 4
ENDMDL
MODEL 2
REMARK VINA RESULT:    -4.081      0.869      3.943
REMARK INTER + INTRA:          -5.239
REMARK INTER:                  -5.038
REMARK INTRA:                  -0.201
REMARK UNBOUND:                -0.203
REMARK SMILES C=CC[C@H](C)C(=O)CC
REMARK SMILES IDX 4 1 5 2 6 3 7 4 8 5 9 6 3 7 2 8 1 9
REMARK H PARENT
REMARK Flexibility Score: inf
ROOT
ATOM      1  C   UNL     1      13.773 -30.980  22.636  1.00  0.00     0.057 C 
ATOM      2  C   UNL     1      13.585 -31.874  23.869  1.00  0.00     0.016 C 
ENDROOT
BRANCH   1   3
ATOM      3  C   UNL     1      13.710 -29.522  23.041  1.00  0.00     0.135 C 
ATOM      4  O   UNL     1      14.433 -28.707  22.486  1.00  0.00    -0.299 OA
BRANCH   3   5
ATOM      5  C   UNL     1      12.765 -29.051  24.115  1.00  0.00     0.072 C 
ATOM      6  C   UNL     1      11.530 -28.400  23.500  1.00  0.00     0.012 C 
ENDBRANCH   3   5
ENDBRANCH   1   3
BRANCH   1   7
ATOM      7  C   UNL     1      12.716 -31.270  21.553  1.00  0.00     0.038 C 
BRANCH   7   8
ATOM      8  C   UNL     1      13.309 -32.013  20.385  1.00  0.00    -0.034 C 
ATOM      9  C   UNL     1      14.115 -33.065  20.551  1.00  0.00     0.004 C 
ENDBRANCH   7   8
ENDBRANCH   1   7
TORSDOF 4
ENDMDL
MODEL 3
REMARK VINA RESULT:    -4.052      1.656      2.114
REMARK INTER + INTRA:          -5.203
REMARK INTER:                  -4.770
REMARK INTRA:                  -0.433
REMARK UNBOUND:                -0.203
REMARK SMILES C=CC[C@H](C)C(=O)CC
REMARK SMILES IDX 4 1 5 2 6 3 7 4 8 5 9 6 3 7 2 8 1 9
REMARK H PARENT
REMARK Flexibility Score: inf
ROOT
ATOM      1  C   UNL     1      14.521 -30.118  23.092  1.00  0.00     0.057 C 
ATOM      2  C   UNL     1      15.757 -30.153  22.183  1.00  0.00     0.016 C 
ENDROOT
BRANCH   1   3
ATOM      3  C   UNL     1      13.537 -31.187  22.664  1.00  0.00     0.135 C 
ATOM      4  O   UNL     1      13.188 -32.044  23.464  1.00  0.00    -0.299 OA
BRANCH   3   5
ATOM      5  C   UNL     1      12.970 -31.212  21.269  1.00  0.00     0.072 C 
ATOM      6  C   UNL     1      11.471 -30.933  21.290  1.00  0.00     0.012 C 
ENDBRANCH   3   5
ENDBRANCH   1   3
BRANCH   1   7
ATOM      7  C   UNL     1      13.838 -28.737  23.073  1.00  0.00     0.038 C 
BRANCH   7   8
ATOM      8  C   UNL     1      12.767 -28.635  24.128  1.00  0.00    -0.034 C 
ATOM      9  C   UNL     1      11.510 -28.294  23.831  1.00  0.00     0.004 C 
ENDBRANCH   7   8
ENDBRANCH   1   7
TORSDOF 4
ENDMDL
MODEL 4
REMARK VINA RESULT:    -4.043      1.824      2.670
REMARK INTER + INTRA:          -5.192
REMARK INTER:                  -4.755
REMARK INTRA:                  -0.436
REMARK UNBOUND:                -0.203
REMARK SMILES C=CC[C@H](C)C(=O)CC
REMARK SMILES IDX 4 1 5 2 6 3 7 4 8 5 9 6 3 7 2 8 1 9
REMARK H PARENT
REMARK Flexibility Score: inf
ROOT
ATOM      1  C   UNL     1      13.431 -30.573  22.189  1.00  0.00     0.057 C 
ATOM      2  C   UNL     1      13.046 -31.393  20.950  1.00  0.00     0.016 C 
ENDROOT
BRANCH   1   3
ATOM      3  C   UNL     1      14.078 -31.472  23.221  1.00  0.00     0.135 C 
ATOM      4  O   UNL     1      13.394 -32.277  23.838  1.00  0.00    -0.299 OA
BRANCH   3   5
ATOM      5  C   UNL     1      15.556 -31.401  23.500  1.00  0.00     0.072 C 
ATOM      6  C   UNL     1      16.198 -30.253  22.728  1.00  0.00     0.012 C 
ENDBRANCH   3   5
ENDBRANCH   1   3
BRANCH   1   7
ATOM      7  C   UNL     1      12.210 -29.861  22.804  1.00  0.00     0.038 C 
BRANCH   7   8
ATOM      8  C   UNL     1      12.601 -29.016  23.989  1.00  0.00    -0.034 C 
ATOM      9  C   UNL     1      13.183 -27.823  23.845  1.00  0.00     0.004 C 
ENDBRANCH   7   8
ENDBRANCH   1   7
TORSDOF 4
ENDMDL
MODEL 5
REMARK VINA RESULT:    -4.039      1.222      3.998
REMARK INTER + INTRA:          -5.187
REMARK INTER:                  -4.881
REMARK INTRA:                  -0.306
REMARK UNBOUND:                -0.203
REMARK SMILES C=CC[C@H](C)C(=O)CC
REMARK SMILES IDX 4 1 5 2 6 3 7 4 8 5 9 6 3 7 2 8 1 9
REMARK H PARENT
REMARK Flexibility Score: inf
ROOT
ATOM      1  C   UNL     1      12.841 -30.981  22.763  1.00  0.00     0.057 C 
ATOM      2  C   UNL     1      13.147 -31.345  21.304  1.00  0.00     0.016 C 
ENDROOT
BRANCH   1   3
ATOM      3  C   UNL     1      13.191 -29.530  23.017  1.00  0.00     0.135 C 
ATOM      4  O   UNL     1      14.172 -29.040  22.474  1.00  0.00    -0.299 OA
BRANCH   3   5
ATOM      5  C   UNL     1      12.349 -28.671  23.922  1.00  0.00     0.072 C 
ATOM      6  C   UNL     1      11.084 -28.210  23.206  1.00  0.00     0.012 C 
ENDBRANCH   3   5
ENDBRANCH   1   3
BRANCH   1   7
ATOM      7  C   UNL     1      13.605 -31.886  23.749  1.00  0.00     0.038 C 
BRANCH   7   8
ATOM      8  C   UNL     1      14.897 -32.384  23.157  1.00  0.00    -0.034 C 
ATOM      9  C   UNL     1      16.084 -31.912  23.549  1.00  0.00     0.004 C 
ENDBRANCH   7   8
ENDBRANCH   1   7
TORSDOF 4
ENDMDL
MODEL 6
REMARK VINA RESULT:    -4.034      1.480      4.490
REMARK INTER + INTRA:          -5.180
REMARK INTER:                  -4.935
REMARK INTRA:                  -0.245
REMARK UNBOUND:                -0.203
REMARK SMILES C=CC[C@H](C)C(=O)CC
REMARK SMILES IDX 4 1 5 2 6 3 7 4 8 5 9 6 3 7 2 8 1 9
REMARK H PARENT
REMARK Flexibility Score: inf
ROOT
ATOM      1  C   UNL     1      13.705 -30.896  21.054  1.00  0.00     0.057 C 
ATOM      2  C   UNL     1      15.136 -30.776  21.595  1.00  0.00     0.016 C 
ENDROOT
BRANCH   1   3
ATOM      3  C   UNL     1      12.710 -30.658  22.171  1.00  0.00     0.135 C 
ATOM      4  O   UNL     1      11.511 -30.685  21.930  1.00  0.00    -0.299 OA
BRANCH   3   5
ATOM      5  C   UNL     1      13.168 -30.396  23.581  1.00  0.00     0.072 C 
ATOM      6  C   UNL     1      12.630 -29.060  24.084  1.00  0.00     0.012 C 
ENDBRANCH   3   5
ENDBRANCH   1   3
BRANCH   1   7
ATOM      7  C   UNL     1      13.452 -32.273  20.410  1.00  0.00     0.038 C 
BRANCH   7   8
ATOM      8  C   UNL     1      14.455 -33.295  20.875  1.00  0.00    -0.034 C 
ATOM      9  C   UNL     1      14.880 -34.282  20.082  1.00  0.00     0.004 C 
ENDBRANCH   7   8
ENDBRANCH   1   7
TORSDOF 4
ENDMDL
MODEL 7
REMARK VINA RESULT:    -3.989      1.533      2.005
REMARK INTER + INTRA:          -5.125
REMARK INTER:                  -4.917
REMARK INTRA:                  -0.208
REMARK UNBOUND:                -0.203
REMARK SMILES C=CC[C@H](C)C(=O)CC
REMARK SMILES IDX 4 1 5 2 6 3 7 4 8 5 9 6 3 7 2 8 1 9
REMARK H PARENT
REMARK Flexibility Score: inf
ROOT
ATOM      1  C   UNL     1      13.447 -30.155  22.797  1.00  0.00     0.057 C 
ATOM      2  C   UNL     1      12.442 -30.899  21.907  1.00  0.00     0.016 C 
ENDROOT
BRANCH   1   3
ATOM      3  C   UNL     1      14.489 -31.122  23.318  1.00  0.00     0.135 C 
ATOM      4  O   UNL     1      15.667 -30.792  23.338  1.00  0.00    -0.299 OA
BRANCH   3   5
ATOM      5  C   UNL     1      14.103 -32.488  23.821  1.00  0.00     0.072 C 
ATOM      6  C   UNL     1      14.851 -33.576  23.059  1.00  0.00     0.012 C 
ENDBRANCH   3   5
ENDBRANCH   1   3
BRANCH   1   7
ATOM      7  C   UNL     1      12.752 -29.447  23.976  1.00  0.00     0.038 C 
BRANCH   7   8
ATOM      8  C   UNL     1      12.439 -28.009  23.652  1.00  0.00    -0.034 C 
ATOM      9  C   UNL     1      11.235 -27.627  23.219  1.00  0.00     0.004 C 
ENDBRANCH   7   8
ENDBRANCH   1   7
TORSDOF 4
ENDMDL
MODEL 8
REMARK VINA RESULT:    -3.975      1.868      3.938
REMARK INTER + INTRA:          -5.108
REMARK INTER:                  -4.769
REMARK INTRA:                  -0.339
REMARK UNBOUND:                -0.203
REMARK SMILES C=CC[C@H](C)C(=O)CC
REMARK SMILES IDX 4 1 5 2 6 3 7 4 8 5 9 6 3 7 2 8 1 9
REMARK H PARENT
REMARK Flexibility Score: inf
ROOT
ATOM      1  C   UNL     1      13.589 -30.359  22.908  1.00  0.00     0.057 C 
ATOM      2  C   UNL     1      13.586 -31.781  23.486  1.00  0.00     0.016 C 
ENDROOT
BRANCH   1   3
ATOM      3  C   UNL     1      12.167 -29.877  22.719  1.00  0.00     0.135 C 
ATOM      4  O   UNL     1      11.412 -30.490  21.977  1.00  0.00    -0.299 OA
BRANCH   3   5
ATOM      5  C   UNL     1      11.656 -28.655  23.436  1.00  0.00     0.072 C 
ATOM      6  C   UNL     1      12.757 -28.025  24.282  1.00  0.00     0.012 C 
ENDBRANCH   3   5
ENDBRANCH   1   3
BRANCH   1   7
ATOM      7  C   UNL     1      14.350 -30.289  21.569  1.00  0.00     0.038 C 
BRANCH   7   8
ATOM      8  C   UNL     1      15.595 -29.450  21.683  1.00  0.00    -0.034 C 
ATOM      9  C   UNL     1      16.777 -29.978  22.014  1.00  0.00     0.004 C 
ENDBRANCH   7   8
ENDBRANCH   1   7
TORSDOF 4
ENDMDL
MODEL 9
REMARK VINA RESULT:    -3.901      1.289      2.034
REMARK INTER + INTRA:          -5.016
REMARK INTER:                  -4.631
REMARK INTRA:                  -0.385
REMARK UNBOUND:                -0.203
REMARK SMILES C=CC[C@H](C)C(=O)CC
REMARK SMILES IDX 4 1 5 2 6 3 7 4 8 5 9 6 3 7 2 8 1 9
REMARK H PARENT
REMARK Flexibility Score: inf
ROOT
ATOM      1  C   UNL     1      13.981 -30.459  21.400  1.00  0.00     0.057 C 
ATOM      2  C   UNL     1      12.586 -31.088  21.280  1.00  0.00     0.016 C 
ENDROOT
BRANCH   1   3
ATOM      3  C   UNL     1      15.012 -31.536  21.664  1.00  0.00     0.135 C 
ATOM      4  O   UNL     1      16.193 -31.314  21.436  1.00  0.00    -0.299 OA
BRANCH   3   5
ATOM      5  C   UNL     1      14.612 -32.881  22.211  1.00  0.00     0.072 C 
ATOM      6  C   UNL     1      14.750 -32.910  23.729  1.00  0.00     0.012 C 
ENDBRANCH   3   5
ENDBRANCH   1   3
BRANCH   1   7
ATOM      7  C   UNL     1      14.035 -29.397  22.515  1.00  0.00     0.038 C 
BRANCH   7   8
ATOM      8  C   UNL     1      12.964 -29.625  23.550  1.00  0.00    -0.034 C 
ATOM      9  C   UNL     1      12.315 -28.614  24.132  1.00  0.00     0.004 C 
ENDBRANCH   7   8
ENDBRANCH   1   7
TORSDOF 4
ENDMDL
