MODEL 1
REMARK VINA RESULT:    -5.035      0.000      0.000
REMARK INTER + INTRA:          -5.183
REMARK INTER:                  -5.183
REMARK INTRA:                   0.000
REMARK UNBOUND:                 0.000
REMARK SMILES Cc1ccccc1O
REMARK SMILES IDX 1 1 2 2 3 3 4 4 5 5 6 6 7 7 8 8
REMARK H PARENT 8 9
REMARK Flexibility Score: inf
ROOT
ATOM      1  C   UNL     1      38.554   5.542 102.961  1.00  0.00     0.048 C 
ATOM      2  C   UNL     1      38.526   4.087 103.338  1.00  0.00    -0.009 A 
ATOM      3  C   UNL     1      37.829   3.162 102.542  1.00  0.00     0.007 A 
ATOM      4  C   UNL     1      37.803   1.809 102.894  1.00  0.00     0.001 A 
ATOM      5  C   UNL     1      38.472   1.370 104.038  1.00  0.00     0.004 A 
ATOM      6  C   UNL     1      39.167   2.281 104.836  1.00  0.00     0.046 A 
ATOM      7  C   UNL     1      39.199   3.641 104.492  1.00  0.00     0.118 A 
ENDROOT
BRANCH   7   8
ATOM      8  O   UNL     1      39.895   4.548 105.291  1.00  0.00    -0.508 OA
ATOM      9  H   UNL     1      40.811   4.893 105.026  1.00  0.00     0.293 HD
ENDBRANCH   7   8
TORSDOF 1
ENDMDL
MODEL 2
REMARK VINA RESULT:    -4.862      0.733      2.527
REMARK INTER + INTRA:          -5.004
REMARK INTER:                  -5.004
REMARK INTRA:                   0.000
REMARK UNBOUND:                 0.000
REMARK SMILES Cc1ccccc1O
REMARK SMILES IDX 1 1 2 2 3 3 4 4 5 5 6 6 7 7 8 8
REMARK H PARENT 8 9
REMARK Flexibility Score: inf
ROOT
ATOM      1  C   UNL     1      39.397   1.516 105.511  1.00  0.00     0.048 C 
ATOM      2  C   UNL     1      38.961   2.542 104.503  1.00  0.00    -0.009 A 
ATOM      3  C   UNL     1      38.190   2.160 103.392  1.00  0.00     0.007 A 
ATOM      4  C   UNL     1      37.785   3.115 102.454  1.00  0.00     0.001 A 
ATOM      5  C   UNL     1      38.143   4.454 102.619  1.00  0.00     0.004 A 
ATOM      6  C   UNL     1      38.909   4.844 103.720  1.00  0.00     0.046 A 
ATOM      7  C   UNL     1      39.322   3.894 104.666  1.00  0.00     0.118 A 
ENDROOT
BRANCH   7   8
ATOM      8  O   UNL     1      40.086   4.286 105.765  1.00  0.00    -0.508 OA
ATOM      9  H   UNL     1      39.863   5.122 106.294  1.00  0.00     0.293 HD
ENDBRANCH   7   8
TORSDOF 1
ENDMDL
MODEL 3
REMARK VINA RESULT:    -4.675     10.051     11.014
REMARK INTER + INTRA:          -4.812
REMARK INTER:                  -4.812
REMARK INTRA:                   0.000
REMARK UNBOUND:                 0.000
REMARK SMILES Cc1ccccc1O
REMARK SMILES IDX 1 1 2 2 3 3 4 4 5 5 6 6 7 7 8 8
REMARK H PARENT 8 9
REMARK Flexibility Score: inf
ROOT
ATOM      1  C   UNL     1      37.246  -6.492 101.212  1.00  0.00     0.048 C 
ATOM      2  C   UNL     1      37.382  -6.869 102.660  1.00  0.00    -0.009 A 
ATOM      3  C   UNL     1      37.088  -5.935 103.667  1.00  0.00     0.007 A 
ATOM      4  C   UNL     1      37.216  -6.286 105.015  1.00  0.00     0.001 A 
ATOM      5  C   UNL     1      37.636  -7.570 105.366  1.00  0.00     0.004 A 
ATOM      6  C   UNL     1      37.932  -8.507 104.373  1.00  0.00     0.046 A 
ATOM      7  C   UNL     1      37.807  -8.164 103.018  1.00  0.00     0.118 A 
ENDROOT
BRANCH   7   8
ATOM      8  O   UNL     1      38.103  -9.101 102.029  1.00  0.00    -0.508 OA
ATOM      9  H   UNL     1      38.069 -10.097 102.216  1.00  0.00     0.293 HD
ENDBRANCH   7   8
TORSDOF 1
ENDMDL
MODEL 4
REMARK VINA RESULT:    -4.661      4.048      5.453
REMARK INTER + INTRA:          -4.797
REMARK INTER:                  -4.797
REMARK INTRA:                   0.000
REMARK UNBOUND:                 0.000
REMARK SMILES Cc1ccccc1O
REMARK SMILES IDX 1 1 2 2 3 3 4 4 5 5 6 6 7 7 8 8
REMARK H PARENT 8 9
REMARK Flexibility Score: inf
ROOT
ATOM      1  C   UNL     1      38.105   0.817 110.627  1.00  0.00     0.048 C 
ATOM      2  C   UNL     1      38.375   1.078 109.172  1.00  0.00    -0.009 A 
ATOM      3  C   UNL     1      37.852   0.220 108.189  1.00  0.00     0.007 A 
ATOM      4  C   UNL     1      38.104   0.463 106.835  1.00  0.00     0.001 A 
ATOM      5  C   UNL     1      38.876   1.562 106.453  1.00  0.00     0.004 A 
ATOM      6  C   UNL     1      39.401   2.420 107.421  1.00  0.00     0.046 A 
ATOM      7  C   UNL     1      39.155   2.184 108.783  1.00  0.00     0.118 A 
ENDROOT
BRANCH   7   8
ATOM      8  O   UNL     1      39.679   3.044 109.747  1.00  0.00    -0.508 OA
ATOM      9  H   UNL     1      40.650   3.336 109.726  1.00  0.00     0.293 HD
ENDBRANCH   7   8
TORSDOF 1
ENDMDL
MODEL 5
REMARK VINA RESULT:    -4.578      1.403      2.911
REMARK INTER + INTRA:          -4.712
REMARK INTER:                  -4.712
REMARK INTRA:                   0.000
REMARK UNBOUND:                 0.000
REMARK SMILES Cc1ccccc1O
REMARK SMILES IDX 1 1 2 2 3 3 4 4 5 5 6 6 7 7 8 8
REMARK H PARENT 8 9
REMARK Flexibility Score: inf
ROOT
ATOM      1  C   UNL     1      39.487   2.330 107.703  1.00  0.00     0.048 C 
ATOM      2  C   UNL     1      39.211   2.224 106.230  1.00  0.00    -0.009 A 
ATOM      3  C   UNL     1      38.618   1.065 105.701  1.00  0.00     0.007 A 
ATOM      4  C   UNL     1      38.362   0.967 104.330  1.00  0.00     0.001 A 
ATOM      5  C   UNL     1      38.694   2.022 103.478  1.00  0.00     0.004 A 
ATOM      6  C   UNL     1      39.284   3.179 103.993  1.00  0.00     0.046 A 
ATOM      7  C   UNL     1      39.546   3.287 105.368  1.00  0.00     0.118 A 
ENDROOT
BRANCH   7   8
ATOM      8  O   UNL     1      40.134   4.443 105.879  1.00  0.00    -0.508 OA
ATOM      9  H   UNL     1      40.193   4.611 106.877  1.00  0.00     0.293 HD
ENDBRANCH   7   8
TORSDOF 1
ENDMDL
MODEL 6
REMARK VINA RESULT:    -4.543     10.469     11.673
REMARK INTER + INTRA:          -4.676
REMARK INTER:                  -4.676
REMARK INTRA:                   0.000
REMARK UNBOUND:                 0.000
REMARK SMILES Cc1ccccc1O
REMARK SMILES IDX 1 1 2 2 3 3 4 4 5 5 6 6 7 7 8 8
REMARK H PARENT 8 9
REMARK Flexibility Score: inf
ROOT
ATOM      1  C   UNL     1      37.696  -7.815 107.000  1.00  0.00     0.048 C 
ATOM      2  C   UNL     1      37.661  -7.712 105.502  1.00  0.00    -0.009 A 
ATOM      3  C   UNL     1      37.466  -6.467 104.881  1.00  0.00     0.007 A 
ATOM      4  C   UNL     1      37.432  -6.372 103.486  1.00  0.00     0.001 A 
ATOM      5  C   UNL     1      37.594  -7.516 102.702  1.00  0.00     0.004 A 
ATOM      6  C   UNL     1      37.788  -8.759 103.309  1.00  0.00     0.046 A 
ATOM      7  C   UNL     1      37.822  -8.865 104.708  1.00  0.00     0.118 A 
ENDROOT
BRANCH   7   8
ATOM      8  O   UNL     1      38.017 -10.107 105.311  1.00  0.00    -0.508 OA
ATOM      9  H   UNL     1      37.472 -10.918 105.042  1.00  0.00     0.293 HD
ENDBRANCH   7   8
TORSDOF 1
ENDMDL
MODEL 7
REMARK VINA RESULT:    -4.536      9.575     11.054
REMARK INTER + INTRA:          -4.669
REMARK INTER:                  -4.669
REMARK INTRA:                   0.000
REMARK UNBOUND:                 0.000
REMARK SMILES Cc1ccccc1O
REMARK SMILES IDX 1 1 2 2 3 3 4 4 5 5 6 6 7 7 8 8
REMARK H PARENT 8 9
REMARK Flexibility Score: inf
ROOT
ATOM      1  C   UNL     1      38.069  -8.742 105.039  1.00  0.00     0.048 C 
ATOM      2  C   UNL     1      37.698  -7.624 104.105  1.00  0.00    -0.009 A 
ATOM      3  C   UNL     1      37.355  -6.360 104.615  1.00  0.00     0.007 A 
ATOM      4  C   UNL     1      37.009  -5.320 103.746  1.00  0.00     0.001 A 
ATOM      5  C   UNL     1      37.003  -5.533 102.366  1.00  0.00     0.004 A 
ATOM      6  C   UNL     1      37.342  -6.786 101.849  1.00  0.00     0.046 A 
ATOM      7  C   UNL     1      37.690  -7.836 102.713  1.00  0.00     0.118 A 
ENDROOT
BRANCH   7   8
ATOM      8  O   UNL     1      38.028  -9.086 102.194  1.00  0.00    -0.508 OA
ATOM      9  H   UNL     1      37.681  -9.943 102.608  1.00  0.00     0.293 HD
ENDBRANCH   7   8
TORSDOF 1
ENDMDL
MODEL 8
REMARK VINA RESULT:    -4.482      3.993      5.001
REMARK INTER + INTRA:          -4.613
REMARK INTER:                  -4.613
REMARK INTRA:                   0.000
REMARK UNBOUND:                 0.000
REMARK SMILES Cc1ccccc1O
REMARK SMILES IDX 1 1 2 2 3 3 4 4 5 5 6 6 7 7 8 8
REMARK H PARENT 8 9
REMARK Flexibility Score: inf
ROOT
ATOM      1  C   UNL     1      39.630   2.746 106.595  1.00  0.00     0.048 C 
ATOM      2  C   UNL     1      38.955   1.796 107.543  1.00  0.00    -0.009 A 
ATOM      3  C   UNL     1      38.290   0.658 107.053  1.00  0.00     0.007 A 
ATOM      4  C   UNL     1      37.662  -0.225 107.936  1.00  0.00     0.001 A 
ATOM      5  C   UNL     1      37.692   0.018 109.311  1.00  0.00     0.004 A 
ATOM      6  C   UNL     1      38.350   1.146 109.808  1.00  0.00     0.046 A 
ATOM      7  C   UNL     1      38.983   2.039 108.930  1.00  0.00     0.118 A 
ENDROOT
BRANCH   7   8
ATOM      8  O   UNL     1      39.640   3.163 109.430  1.00  0.00    -0.508 OA
ATOM      9  H   UNL     1      39.281   4.098 109.276  1.00  0.00     0.293 HD
ENDBRANCH   7   8
TORSDOF 1
ENDMDL
MODEL 9
REMARK VINA RESULT:    -4.417      8.802      9.704
REMARK INTER + INTRA:          -4.546
REMARK INTER:                  -4.546
REMARK INTRA:                   0.000
REMARK UNBOUND:                 0.000
REMARK SMILES Cc1ccccc1O
REMARK SMILES IDX 1 1 2 2 3 3 4 4 5 5 6 6 7 7 8 8
REMARK H PARENT 8 9
REMARK Flexibility Score: inf
ROOT
ATOM      1  C   UNL     1      36.489  -4.045 100.370  1.00  0.00     0.048 C 
ATOM      2  C   UNL     1      36.821  -5.003 101.479  1.00  0.00    -0.009 A 
ATOM      3  C   UNL     1      36.742  -4.590 102.820  1.00  0.00     0.007 A 
ATOM      4  C   UNL     1      37.051  -5.482 103.852  1.00  0.00     0.001 A 
ATOM      5  C   UNL     1      37.440  -6.789 103.554  1.00  0.00     0.004 A 
ATOM      6  C   UNL     1      37.522  -7.210 102.225  1.00  0.00     0.046 A 
ATOM      7  C   UNL     1      37.215  -6.323 101.183  1.00  0.00     0.118 A 
ENDROOT
BRANCH   7   8
ATOM      8  O   UNL     1      37.297  -6.746  99.856  1.00  0.00    -0.508 OA
ATOM      9  H   UNL     1      37.858  -7.547  99.590  1.00  0.00     0.293 HD
ENDBRANCH   7   8
TORSDOF 1
ENDMDL
