MODEL 1
REMARK VINA RESULT:    -0.921      0.000      0.000
REMARK INTER + INTRA:          -2.471
REMARK INTER:                  -1.620
REMARK INTRA:                  -0.851
REMARK UNBOUND:                -0.851
REMARK SMILES CCCCCCCCCCCCCCC(=O)[O-]
REMARK SMILES IDX 9 1 10 2 11 3 12 4 13 5 14 6 15 7 16 8 17 9 8 10 7 11 6 12
REMARK SMILES IDX 5 13 4 14 3 15 2 16 1 17
REMARK H PARENT
REMARK Flexibility Score: inf
ROOT
ATOM      1  C   UNL     1       4.197  44.770  10.924  1.00  0.00     0.000 C 
ENDROOT
BRANCH   1   2
ATOM      2  C   UNL     1       5.271  44.084  10.062  1.00  0.00     0.000 C 
BRANCH   2   3
ATOM      3  C   UNL     1       6.525  44.953   9.878  1.00  0.00     0.000 C 
BRANCH   3   4
ATOM      4  C   UNL     1       7.773  44.339  10.528  1.00  0.00     0.000 C 
BRANCH   4   5
ATOM      5  C   UNL     1       7.528  42.873  10.913  1.00  0.00     0.006 C 
BRANCH   5   6
ATOM      6  C   UNL     1       8.163  42.511  12.262  1.00  0.00     0.053 C 
BRANCH   6   7
ATOM      7  C   UNL     1       7.132  42.368  13.340  1.00  0.00     0.041 C 
ATOM      8  O   UNL     1       7.155  41.373  14.112  1.00  0.00    -0.550 OA
ATOM      9  O   UNL     1       6.125  43.316  13.470  1.00  0.00    -0.550 OA
ENDBRANCH   6   7
ENDBRANCH   5   6
ENDBRANCH   4   5
ENDBRANCH   3   4
ENDBRANCH   2   3
ENDBRANCH   1   2
BRANCH   1  10
ATOM     10  C   UNL     1       3.286  43.762  11.644  1.00  0.00     0.000 C 
BRANCH  10  11
ATOM     11  C   UNL     1       2.340  43.026  10.679  1.00  0.00    -0.000 C 
BRANCH  11  12
ATOM     12  C   UNL     1       0.894  42.972  11.198  1.00  0.00    -0.000 C 
BRANCH  12  13
ATOM     13  C   UNL     1       0.659  43.907  12.398  1.00  0.00    -0.000 C 
BRANCH  13  14
ATOM     14  C   UNL     1      -0.515  43.454  13.281  1.00  0.00    -0.000 C 
BRANCH  14  15
ATOM     15  C   UNL     1      -0.960  44.541  14.274  1.00  0.00    -0.000 C 
BRANCH  15  16
ATOM     16  C   UNL     1      -2.309  44.217  14.936  1.00  0.00    -0.003 C 
ATOM     17  C   UNL     1      -2.761  42.778  14.686  1.00  0.00     0.004 C 
ENDBRANCH  15  16
ENDBRANCH  14  15
ENDBRANCH  13  14
ENDBRANCH  12  13
ENDBRANCH  11  12
ENDBRANCH  10  11
ENDBRANCH   1  10
TORSDOF 13
ENDMDL
MODEL 2
REMARK VINA RESULT:    -0.750      3.263      7.544
REMARK INTER + INTRA:          -2.172
REMARK INTER:                  -1.422
REMARK INTRA:                  -0.750
REMARK UNBOUND:                -0.851
REMARK SMILES CCCCCCCCCCCCCCC(=O)[O-]
REMARK SMILES IDX 9 1 10 2 11 3 12 4 13 5 14 6 15 7 16 8 17 9 8 10 7 11 6 12
REMARK SMILES IDX 5 13 4 14 3 15 2 16 1 17
REMARK H PARENT
REMARK Flexibility Score: inf
ROOT
ATOM      1  C   UNL     1       3.050  43.696  11.116  1.00  0.00     0.000 C 
ENDROOT
BRANCH   1   2
ATOM      2  C   UNL     1       1.799  42.965  10.600  1.00  0.00     0.000 C 
BRANCH   2   3
ATOM      3  C   UNL     1       0.554  43.246  11.456  1.00  0.00     0.000 C 
BRANCH   3   4
ATOM      4  C   UNL     1       0.901  43.813  12.840  1.00  0.00     0.000 C 
BRANCH   4   5
ATOM      5  C   UNL     1      -0.194  44.772  13.331  1.00  0.00     0.006 C 
BRANCH   5   6
ATOM      6  C   UNL     1      -0.658  44.444  14.758  1.00  0.00     0.053 C 
BRANCH   6   7
ATOM      7  C   UNL     1      -2.107  44.065  14.796  1.00  0.00     0.041 C 
ATOM      8  O   UNL     1      -2.466  42.900  14.483  1.00  0.00    -0.550 OA
ATOM      9  O   UNL     1      -3.063  45.009  15.148  1.00  0.00    -0.550 OA
ENDBRANCH   6   7
ENDBRANCH   5   6
ENDBRANCH   4   5
ENDBRANCH   3   4
ENDBRANCH   2   3
ENDBRANCH   1   2
BRANCH   1  10
ATOM     10  C   UNL     1       4.191  43.713  10.086  1.00  0.00     0.000 C 
BRANCH  10  11
ATOM     11  C   UNL     1       4.815  45.110   9.920  1.00  0.00    -0.000 C 
BRANCH  11  12
ATOM     12  C   UNL     1       6.319  45.125  10.236  1.00  0.00    -0.000 C 
BRANCH  12  13
ATOM     13  C   UNL     1       6.994  43.766   9.975  1.00  0.00    -0.000 C 
BRANCH  13  14
ATOM     14  C   UNL     1       7.973  43.366  11.091  1.00  0.00    -0.000 C 
BRANCH  14  15
ATOM     15  C   UNL     1       7.507  42.121  11.865  1.00  0.00    -0.000 C 
BRANCH  15  16
ATOM     16  C   UNL     1       6.950  42.467  13.256  1.00  0.00    -0.003 C 
ATOM     17  C   UNL     1       5.916  43.593  13.217  1.00  0.00     0.004 C 
ENDBRANCH  15  16
ENDBRANCH  14  15
ENDBRANCH  13  14
ENDBRANCH  12  13
ENDBRANCH  11  12
ENDBRANCH  10  11
ENDBRANCH   1  10
TORSDOF 13
ENDMDL
MODEL 3
REMARK VINA RESULT:    -0.471      0.686      1.162
REMARK INTER + INTRA:          -1.680
REMARK INTER:                  -0.961
REMARK INTRA:                  -0.719
REMARK UNBOUND:                -0.851
REMARK SMILES CCCCCCCCCCCCCCC(=O)[O-]
REMARK SMILES IDX 9 1 10 2 11 3 12 4 13 5 14 6 15 7 16 8 17 9 8 10 7 11 6 12
REMARK SMILES IDX 5 13 4 14 3 15 2 16 1 17
REMARK H PARENT
REMARK Flexibility Score: inf
ROOT
ATOM      1  C   UNL     1       3.767  43.986  11.916  1.00  0.00     0.000 C 
ENDROOT
BRANCH   1   2
ATOM      2  C   UNL     1       4.605  45.091  11.250  1.00  0.00     0.000 C 
BRANCH   2   3
ATOM      3  C   UNL     1       5.149  44.673   9.875  1.00  0.00     0.000 C 
BRANCH   3   4
ATOM      4  C   UNL     1       6.654  44.366   9.900  1.00  0.00     0.000 C 
BRANCH   4   5
ATOM      5  C   UNL     1       6.929  43.023  10.593  1.00  0.00     0.006 C 
BRANCH   5   6
ATOM      6  C   UNL     1       7.804  43.182  11.843  1.00  0.00     0.053 C 
BRANCH   6   7
ATOM      7  C   UNL     1       7.190  42.517  13.037  1.00  0.00     0.041 C 
ATOM      8  O   UNL     1       7.645  41.420  13.456  1.00  0.00    -0.550 OA
ATOM      9  O   UNL     1       6.095  43.093  13.668  1.00  0.00    -0.550 OA
ENDBRANCH   6   7
ENDBRANCH   5   6
ENDBRANCH   4   5
ENDBRANCH   3   4
ENDBRANCH   2   3
ENDBRANCH   1   2
BRANCH   1  10
ATOM     10  C   UNL     1       3.030  43.106  10.893  1.00  0.00     0.000 C 
BRANCH  10  11
ATOM     11  C   UNL     1       1.500  43.200  11.027  1.00  0.00    -0.000 C 
BRANCH  11  12
ATOM     12  C   UNL     1       1.065  44.126  12.174  1.00  0.00    -0.000 C 
BRANCH  12  13
ATOM     13  C   UNL     1      -0.201  43.626  12.893  1.00  0.00    -0.000 C 
BRANCH  13  14
ATOM     14  C   UNL     1      -0.618  44.535  14.061  1.00  0.00    -0.000 C 
BRANCH  14  15
ATOM     15  C   UNL     1      -1.894  44.043  14.764  1.00  0.00    -0.000 C 
BRANCH  15  16
ATOM     16  C   UNL     1      -1.924  42.515  14.927  1.00  0.00    -0.003 C 
ATOM     17  C   UNL     1      -3.224  41.891  14.422  1.00  0.00     0.004 C 
ENDBRANCH  15  16
ENDBRANCH  14  15
ENDBRANCH  13  14
ENDBRANCH  12  13
ENDBRANCH  11  12
ENDBRANCH  10  11
ENDBRANCH   1  10
TORSDOF 13
ENDMDL
MODEL 4
REMARK VINA RESULT:    -0.429      3.437      7.715
REMARK INTER + INTRA:          -1.606
REMARK INTER:                  -1.356
REMARK INTRA:                  -0.250
REMARK UNBOUND:                -0.851
REMARK SMILES CCCCCCCCCCCCCCC(=O)[O-]
REMARK SMILES IDX 9 1 10 2 11 3 12 4 13 5 14 6 15 7 16 8 17 9 8 10 7 11 6 12
REMARK SMILES IDX 5 13 4 14 3 15 2 16 1 17
REMARK H PARENT
REMARK Flexibility Score: inf
ROOT
ATOM      1  C   UNL     1       1.604  42.497  10.100  1.00  0.00     0.000 C 
ENDROOT
BRANCH   1   2
ATOM      2  C   UNL     1       0.757  43.207  11.170  1.00  0.00     0.000 C 
BRANCH   2   3
ATOM      3  C   UNL     1       1.602  43.727  12.344  1.00  0.00     0.000 C 
BRANCH   3   4
ATOM      4  C   UNL     1       0.830  44.699  13.248  1.00  0.00     0.000 C 
BRANCH   4   5
ATOM      5  C   UNL     1      -0.548  44.129  13.617  1.00  0.00     0.006 C 
BRANCH   5   6
ATOM      6  C   UNL     1      -1.352  45.083  14.510  1.00  0.00     0.053 C 
BRANCH   6   7
ATOM      7  C   UNL     1      -2.620  44.450  14.997  1.00  0.00     0.041 C 
ATOM      8  O   UNL     1      -3.432  45.112  15.695  1.00  0.00    -0.550 OA
ATOM      9  O   UNL     1      -2.888  43.118  14.707  1.00  0.00    -0.550 OA
ENDBRANCH   6   7
ENDBRANCH   5   6
ENDBRANCH   4   5
ENDBRANCH   3   4
ENDBRANCH   2   3
ENDBRANCH   1   2
BRANCH   1  10
ATOM     10  C   UNL     1       3.080  42.927  10.133  1.00  0.00     0.000 C 
BRANCH  10  11
ATOM     11  C   UNL     1       3.258  44.443   9.936  1.00  0.00    -0.000 C 
BRANCH  11  12
ATOM     12  C   UNL     1       4.455  45.002  10.723  1.00  0.00    -0.000 C 
BRANCH  12  13
ATOM     13  C   UNL     1       5.801  44.439  10.233  1.00  0.00    -0.000 C 
BRANCH  13  14
ATOM     14  C   UNL     1       6.946  44.691  11.229  1.00  0.00    -0.000 C 
BRANCH  14  15
ATOM     15  C   UNL     1       7.948  43.525  11.282  1.00  0.00    -0.000 C 
BRANCH  15  16
ATOM     16  C   UNL     1       7.539  42.443  12.294  1.00  0.00    -0.003 C 
ATOM     17  C   UNL     1       6.442  42.911  13.251  1.00  0.00     0.004 C 
ENDBRANCH  15  16
ENDBRANCH  14  15
ENDBRANCH  13  14
ENDBRANCH  12  13
ENDBRANCH  11  12
ENDBRANCH  10  11
ENDBRANCH   1  10
TORSDOF 13
ENDMDL
MODEL 5
REMARK VINA RESULT:    -0.133      1.312      2.095
REMARK INTER + INTRA:          -1.085
REMARK INTER:                  -1.199
REMARK INTRA:                   0.114
REMARK UNBOUND:                -0.851
REMARK SMILES CCCCCCCCCCCCCCC(=O)[O-]
REMARK SMILES IDX 9 1 10 2 11 3 12 4 13 5 14 6 15 7 16 8 17 9 8 10 7 11 6 12
REMARK SMILES IDX 5 13 4 14 3 15 2 16 1 17
REMARK H PARENT
REMARK Flexibility Score: inf
ROOT
ATOM      1  C   UNL     1       2.682  44.190  10.079  1.00  0.00     0.000 C 
ENDROOT
BRANCH   1   2
ATOM      2  C   UNL     1       4.137  44.073  10.563  1.00  0.00     0.000 C 
BRANCH   2   3
ATOM      3  C   UNL     1       4.308  44.500  12.030  1.00  0.00     0.000 C 
BRANCH   3   4
ATOM      4  C   UNL     1       5.770  44.801  12.394  1.00  0.00     0.000 C 
BRANCH   4   5
ATOM      5  C   UNL     1       6.641  44.899  11.133  1.00  0.00     0.006 C 
BRANCH   5   6
ATOM      6  C   UNL     1       7.879  43.994  11.209  1.00  0.00     0.053 C 
BRANCH   6   7
ATOM      7  C   UNL     1       7.521  42.600  11.624  1.00  0.00     0.041 C 
ATOM      8  O   UNL     1       7.169  41.752  10.763  1.00  0.00    -0.550 OA
ATOM      9  O   UNL     1       7.546  42.247  12.968  1.00  0.00    -0.550 OA
ENDBRANCH   6   7
ENDBRANCH   5   6
ENDBRANCH   4   5
ENDBRANCH   3   4
ENDBRANCH   2   3
ENDBRANCH   1   2
BRANCH   1  10
ATOM     10  C   UNL     1       1.730  43.246  10.831  1.00  0.00     0.000 C 
BRANCH  10  11
ATOM     11  C   UNL     1       1.570  43.626  12.313  1.00  0.00    -0.000 C 
BRANCH  11  12
ATOM     12  C   UNL     1       0.135  44.055  12.660  1.00  0.00    -0.000 C 
BRANCH  12  13
ATOM     13  C   UNL     1      -0.047  44.363  14.157  1.00  0.00    -0.000 C 
BRANCH  13  14
ATOM     14  C   UNL     1      -1.350  45.125  14.451  1.00  0.00    -0.000 C 
BRANCH  14  15
ATOM     15  C   UNL     1      -2.535  44.182  14.720  1.00  0.00    -0.000 C 
BRANCH  15  16
ATOM     16  C   UNL     1      -2.113  42.704  14.762  1.00  0.00    -0.003 C 
ATOM     17  C   UNL     1      -3.291  41.746  14.581  1.00  0.00     0.004 C 
ENDBRANCH  15  16
ENDBRANCH  14  15
ENDBRANCH  13  14
ENDBRANCH  12  13
ENDBRANCH  11  12
ENDBRANCH  10  11
ENDBRANCH   1  10
TORSDOF 13
ENDMDL
MODEL 6
REMARK VINA RESULT:     0.235      3.214      7.613
REMARK INTER + INTRA:          -0.437
REMARK INTER:                   0.405
REMARK INTRA:                  -0.842
REMARK UNBOUND:                -0.851
REMARK SMILES CCCCCCCCCCCCCCC(=O)[O-]
REMARK SMILES IDX 9 1 10 2 11 3 12 4 13 5 14 6 15 7 16 8 17 9 8 10 7 11 6 12
REMARK SMILES IDX 5 13 4 14 3 15 2 16 1 17
REMARK H PARENT
REMARK Flexibility Score: inf
ROOT
ATOM      1  C   UNL     1       2.003  43.725  10.605  1.00  0.00     0.000 C 
ENDROOT
BRANCH   1   2
ATOM      2  C   UNL     1       1.852  43.629  12.133  1.00  0.00     0.000 C 
BRANCH   2   3
ATOM      3  C   UNL     1       0.382  43.578  12.580  1.00  0.00     0.000 C 
BRANCH   3   4
ATOM      4  C   UNL     1      -0.038  44.818  13.382  1.00  0.00     0.000 C 
BRANCH   4   5
ATOM      5  C   UNL     1      -0.679  44.417  14.719  1.00  0.00     0.006 C 
BRANCH   5   6
ATOM      6  C   UNL     1      -2.168  44.075  14.572  1.00  0.00     0.053 C 
BRANCH   6   7
ATOM      7  C   UNL     1      -2.419  42.607  14.737  1.00  0.00     0.041 C 
ATOM      8  O   UNL     1      -3.464  42.086  14.269  1.00  0.00    -0.550 OA
ATOM      9  O   UNL     1      -1.512  41.822  15.438  1.00  0.00    -0.550 OA
ENDBRANCH   6   7
ENDBRANCH   5   6
ENDBRANCH   4   5
ENDBRANCH   3   4
ENDBRANCH   2   3
ENDBRANCH   1   2
BRANCH   1  10
ATOM     10  C   UNL     1       3.234  42.966  10.084  1.00  0.00     0.000 C 
BRANCH  10  11
ATOM     11  C   UNL     1       4.468  43.874   9.937  1.00  0.00    -0.000 C 
BRANCH  11  12
ATOM     12  C   UNL     1       4.459  45.046  10.932  1.00  0.00    -0.000 C 
BRANCH  12  13
ATOM     13  C   UNL     1       5.572  44.934  11.990  1.00  0.00    -0.000 C 
BRANCH  13  14
ATOM     14  C   UNL     1       5.392  43.716  12.912  1.00  0.00    -0.000 C 
BRANCH  14  15
ATOM     15  C   UNL     1       6.706  42.952  13.143  1.00  0.00    -0.000 C 
BRANCH  15  16
ATOM     16  C   UNL     1       7.641  43.009  11.924  1.00  0.00    -0.003 C 
ATOM     17  C   UNL     1       7.436  41.836  10.965  1.00  0.00     0.004 C 
ENDBRANCH  15  16
ENDBRANCH  14  15
ENDBRANCH  13  14
ENDBRANCH  12  13
ENDBRANCH  11  12
ENDBRANCH  10  11
ENDBRANCH   1  10
TORSDOF 13
ENDMDL
MODEL 7
REMARK VINA RESULT:     0.394      3.324      6.855
REMARK INTER + INTRA:          -0.158
REMARK INTER:                  -2.154
REMARK INTRA:                   1.996
REMARK UNBOUND:                -0.851
REMARK SMILES CCCCCCCCCCCCCCC(=O)[O-]
REMARK SMILES IDX 9 1 10 2 11 3 12 4 13 5 14 6 15 7 16 8 17 9 8 10 7 11 6 12
REMARK SMILES IDX 5 13 4 14 3 15 2 16 1 17
REMARK H PARENT
REMARK Flexibility Score: inf
ROOT
ATOM      1  C   UNL     1       5.441  42.872  13.805  1.00  0.00     0.000 C 
ENDROOT
BRANCH   1   2
ATOM      2  C   UNL     1       5.474  44.140  12.936  1.00  0.00     0.000 C 
BRANCH   2   3
ATOM      3  C   UNL     1       4.137  44.407  12.227  1.00  0.00     0.000 C 
BRANCH   3   4
ATOM      4  C   UNL     1       4.318  45.000  10.822  1.00  0.00     0.000 C 
BRANCH   4   5
ATOM      5  C   UNL     1       3.135  44.631   9.914  1.00  0.00     0.006 C 
BRANCH   5   6
ATOM      6  C   UNL     1       2.760  43.147  10.020  1.00  0.00     0.053 C 
BRANCH   6   7
ATOM      7  C   UNL     1       1.443  42.956  10.708  1.00  0.00     0.041 C 
ATOM      8  O   UNL     1       1.172  43.606  11.751  1.00  0.00    -0.550 OA
ATOM      9  O   UNL     1       0.527  42.035  10.214  1.00  0.00    -0.550 OA
ENDBRANCH   6   7
ENDBRANCH   5   6
ENDBRANCH   4   5
ENDBRANCH   3   4
ENDBRANCH   2   3
ENDBRANCH   1   2
BRANCH   1  10
ATOM     10  C   UNL     1       6.842  42.290  14.056  1.00  0.00     0.000 C 
BRANCH  10  11
ATOM     11  C   UNL     1       7.630  42.065  12.753  1.00  0.00    -0.000 C 
BRANCH  11  12
ATOM     12  C   UNL     1       8.340  43.339  12.266  1.00  0.00    -0.000 C 
BRANCH  12  13
ATOM     13  C   UNL     1       8.346  43.466  10.732  1.00  0.00    -0.000 C 
BRANCH  13  14
ATOM     14  C   UNL     1       6.929  43.533  10.138  1.00  0.00    -0.000 C 
BRANCH  14  15
ATOM     15  C   UNL     1       6.333  42.140   9.876  1.00  0.00    -0.000 C 
BRANCH  15  16
ATOM     16  C   UNL     1       7.020  41.041  10.703  1.00  0.00    -0.003 C 
ATOM     17  C   UNL     1       7.356  39.800   9.877  1.00  0.00     0.004 C 
ENDBRANCH  15  16
ENDBRANCH  14  15
ENDBRANCH  13  14
ENDBRANCH  12  13
ENDBRANCH  11  12
ENDBRANCH  10  11
ENDBRANCH   1  10
TORSDOF 13
ENDMDL
MODEL 8
REMARK VINA RESULT:     0.485      3.193      7.656
REMARK INTER + INTRA:           0.002
REMARK INTER:                   0.928
REMARK INTRA:                  -0.926
REMARK UNBOUND:                -0.851
REMARK SMILES CCCCCCCCCCCCCCC(=O)[O-]
REMARK SMILES IDX 9 1 10 2 11 3 12 4 13 5 14 6 15 7 16 8 17 9 8 10 7 11 6 12
REMARK SMILES IDX 5 13 4 14 3 15 2 16 1 17
REMARK H PARENT
REMARK Flexibility Score: inf
ROOT
ATOM      1  C   UNL     1       3.221  44.021   9.875  1.00  0.00     0.000 C 
ENDROOT
BRANCH   1   2
ATOM      2  C   UNL     1       2.574  42.933  10.750  1.00  0.00     0.000 C 
BRANCH   2   3
ATOM      3  C   UNL     1       1.283  43.413  11.432  1.00  0.00     0.000 C 
BRANCH   3   4
ATOM      4  C   UNL     1       0.101  42.461  11.203  1.00  0.00     0.000 C 
BRANCH   4   5
ATOM      5  C   UNL     1      -0.873  42.499  12.391  1.00  0.00     0.006 C 
BRANCH   5   6
ATOM      6  C   UNL     1      -0.518  43.600  13.399  1.00  0.00     0.053 C 
BRANCH   6   7
ATOM      7  C   UNL     1      -1.606  43.795  14.412  1.00  0.00     0.041 C 
ATOM      8  O   UNL     1      -2.076  44.943  14.623  1.00  0.00    -0.550 OA
ATOM      9  O   UNL     1      -2.076  42.713  15.145  1.00  0.00    -0.550 OA
ENDBRANCH   6   7
ENDBRANCH   5   6
ENDBRANCH   4   5
ENDBRANCH   3   4
ENDBRANCH   2   3
ENDBRANCH   1   2
BRANCH   1  10
ATOM     10  C   UNL     1       4.618  44.426  10.373  1.00  0.00     0.000 C 
BRANCH  10  11
ATOM     11  C   UNL     1       4.578  45.122  11.745  1.00  0.00    -0.000 C 
BRANCH  11  12
ATOM     12  C   UNL     1       5.843  44.858  12.577  1.00  0.00    -0.000 C 
BRANCH  12  13
ATOM     13  C   UNL     1       5.836  43.470  13.244  1.00  0.00    -0.000 C 
BRANCH  13  14
ATOM     14  C   UNL     1       7.020  42.594  12.802  1.00  0.00    -0.000 C 
BRANCH  14  15
ATOM     15  C   UNL     1       8.119  43.403  12.094  1.00  0.00    -0.000 C 
BRANCH  15  16
ATOM     16  C   UNL     1       8.024  43.311  10.563  1.00  0.00    -0.003 C 
ATOM     17  C   UNL     1       8.152  44.672   9.878  1.00  0.00     0.004 C 
ENDBRANCH  15  16
ENDBRANCH  14  15
ENDBRANCH  13  14
ENDBRANCH  12  13
ENDBRANCH  11  12
ENDBRANCH  10  11
ENDBRANCH   1  10
TORSDOF 13
ENDMDL
