MODEL 1
REMARK VINA RESULT:    -7.788      0.000      0.000
REMARK INTER + INTRA:         -14.541
REMARK INTER:                 -12.796
REMARK INTRA:                  -1.746
REMARK UNBOUND:                -1.746
REMARK SMILES COc1ccc([C@H]2CC(=O)c3c(O)cc(O[C@@H]4O[C@H](CO[C@@H]5O[C@H](C)[C@H](O)[C@@H](O)[C@@H]5O)[C@@H](O)[C@@H](O)[C@@H]4O)cc3O2)cc1O
REMARK SMILES IDX 19 1 32 2 34 3 36 4 17 5 18 6 20 7 21 8 22 9 25 10 24 11
REMARK SMILES IDX 26 12 23 13 28 14 30 15 27 16 29 18 31 20 33 22 35 24 16 26
REMARK SMILES IDX 15 27 14 28 38 29 12 30 39 31 11 32 40 33 9 34 7 35 10 36
REMARK SMILES IDX 8 37 13 38 6 40 41 41 5 42 42 43 4 44 3 45 43 46 2 48 1 49
REMARK SMILES IDX 37 50
REMARK H PARENT 27 17 29 19 31 21 33 23 35 25 13 39 43 47 37 51
REMARK Flexibility Score: inf
ROOT
ATOM      1  C   UNL     1       1.268   4.859 -26.059  1.00  0.00     0.180 C 
ATOM      2  C   UNL     1       0.226   5.953 -26.488  1.00  0.00     0.177 C 
ATOM      3  C   UNL     1       0.743   7.375 -26.249  1.00  0.00     0.180 C 
ATOM      4  C   UNL     1       2.258   7.434 -26.094  1.00  0.00     0.214 C 
ATOM      5  C   UNL     1       2.667   6.474 -24.937  1.00  0.00     0.339 C 
ATOM      6  O   UNL     1       1.970   5.220 -24.887  1.00  0.00    -0.332 OA
ENDROOT
BRANCH   1   7
ATOM      7  C   UNL     1       2.172   4.238 -27.165  1.00  0.00     0.198 C 
BRANCH   7   8
ATOM      8  O   UNL     1       1.584   3.165 -27.935  1.00  0.00    -0.347 OA
BRANCH   8   9
ATOM      9  C   UNL     1       0.775   2.312 -27.097  1.00  0.00     0.281 C 
ATOM     10  C   UNL     1       1.138  -1.356 -26.421  1.00  0.00     0.041 C 
ATOM     11  C   UNL     1       0.427   0.052 -26.497  1.00  0.00     0.150 C 
ATOM     12  C   UNL     1      -1.040  -0.087 -27.047  1.00  0.00     0.174 C 
ATOM     13  O   UNL     1       1.228   0.991 -27.263  1.00  0.00    -0.344 OA
ATOM     14  C   UNL     1      -1.382   1.128 -27.898  1.00  0.00     0.179 C 
ATOM     15  C   UNL     1      -0.792   2.427 -27.296  1.00  0.00     0.202 C 
BRANCH  12  16
ATOM     16  O   UNL     1      -1.223  -1.256 -27.850  1.00  0.00    -0.388 OA
ATOM     17  H   UNL     1      -1.959  -1.035 -28.495  1.00  0.00     0.211 HD
ENDBRANCH  12  16
BRANCH  14  18
ATOM     18  O   UNL     1      -2.780   1.275 -28.021  1.00  0.00    -0.387 OA
ATOM     19  H   UNL     1      -3.204   0.396 -27.814  1.00  0.00     0.211 HD
ENDBRANCH  14  18
BRANCH  15  20
ATOM     20  O   UNL     1      -1.191   3.431 -28.124  1.00  0.00    -0.385 OA
ATOM     21  H   UNL     1      -1.447   3.024 -28.983  1.00  0.00     0.211 HD
ENDBRANCH  15  20
ENDBRANCH   8   9
ENDBRANCH   7   8
ENDBRANCH   1   7
BRANCH   2  22
ATOM     22  O   UNL     1      -1.006   5.697 -25.785  1.00  0.00    -0.387 OA
ATOM     23  H   UNL     1      -1.441   6.582 -25.638  1.00  0.00     0.211 HD
ENDBRANCH   2  22
BRANCH   3  24
ATOM     24  O   UNL     1       0.134   7.901 -25.065  1.00  0.00    -0.387 OA
ATOM     25  H   UNL     1      -0.841   7.574 -25.051  1.00  0.00     0.211 HD
ENDBRANCH   3  24
BRANCH   5  26
ATOM     26  O   UNL     1       4.081   6.241 -24.832  1.00  0.00    -0.462 OA
BRANCH  26  27
ATOM     27  C   UNL     1       4.666   4.977 -25.070  1.00  0.00     0.130 A 
ATOM     28  C   UNL     1       5.169   4.713 -26.353  1.00  0.00     0.093 A 
ATOM     29  C   UNL     1       4.604   3.953 -24.149  1.00  0.00     0.094 A 
ATOM     30  C   UNL     1       5.320   3.383 -26.796  1.00  0.00     0.133 A 
ATOM     31  C   UNL     1       4.748   2.634 -24.547  1.00  0.00     0.138 A 
ATOM     32  C   UNL     1       5.079   2.330 -25.899  1.00  0.00     0.102 A 
ATOM     33  O   UNL     1       4.431   1.612 -23.649  1.00  0.00    -0.484 OA
ATOM     34  C   UNL     1       4.997   0.905 -26.299  1.00  0.00     0.174 C 
ATOM     35  C   UNL     1       4.690   0.241 -23.971  1.00  0.00     0.211 C 
ATOM     36  O   UNL     1       5.622   0.481 -27.312  1.00  0.00    -0.294 OA
ATOM     37  C   UNL     1       4.248  -0.055 -25.417  1.00  0.00     0.131 C 
BRANCH  30  38
ATOM     38  O   UNL     1       5.663   3.154 -28.124  1.00  0.00    -0.507 OA
ATOM     39  H   UNL     1       5.454   2.341 -28.645  1.00  0.00     0.293 HD
ENDBRANCH  30  38
BRANCH  35  40
ATOM     40  C   UNL     1       4.140  -0.747 -22.935  1.00  0.00    -0.003 A 
ATOM     41  C   UNL     1       4.421  -2.094 -23.085  1.00  0.00     0.057 A 
ATOM     42  C   UNL     1       2.947  -0.404 -22.236  1.00  0.00     0.011 A 
ATOM     43  C   UNL     1       3.427  -3.057 -22.942  1.00  0.00     0.158 A 
ATOM     44  C   UNL     1       1.943  -1.369 -22.047  1.00  0.00     0.051 A 
ATOM     45  C   UNL     1       2.166  -2.661 -22.501  1.00  0.00     0.160 A 
BRANCH  43  46
ATOM     46  O   UNL     1       3.709  -4.375 -23.225  1.00  0.00    -0.504 OA
ATOM     47  H   UNL     1       3.758  -4.718 -24.179  1.00  0.00     0.293 HD
ENDBRANCH  43  46
BRANCH  45  48
ATOM     48  O   UNL     1       1.111  -3.554 -22.525  1.00  0.00    -0.493 OA
ATOM     49  C   UNL     1      -0.126  -3.257 -23.117  1.00  0.00     0.278 C 
ENDBRANCH  45  48
ENDBRANCH  35  40
ENDBRANCH  26  27
ENDBRANCH   5  26
BRANCH   4  50
ATOM     50  O   UNL     1       2.977   7.175 -27.283  1.00  0.00    -0.384 OA
ATOM     51  H   UNL     1       3.753   7.807 -27.371  1.00  0.00     0.211 HD
ENDBRANCH   4  50
TORSDOF 15
ENDMDL
MODEL 2
REMARK VINA RESULT:    -6.961      1.850      5.395
REMARK INTER + INTRA:         -13.182
REMARK INTER:                 -10.564
REMARK INTRA:                  -2.618
REMARK UNBOUND:                -1.746
REMARK SMILES COc1ccc([C@H]2CC(=O)c3c(O)cc(O[C@@H]4O[C@H](CO[C@@H]5O[C@H](C)[C@H](O)[C@@H](O)[C@@H]5O)[C@@H](O)[C@@H](O)[C@@H]4O)cc3O2)cc1O
REMARK SMILES IDX 19 1 32 2 34 3 36 4 17 5 18 6 20 7 21 8 22 9 25 10 24 11
REMARK SMILES IDX 26 12 23 13 28 14 30 15 27 16 29 18 31 20 33 22 35 24 16 26
REMARK SMILES IDX 15 27 14 28 38 29 12 30 39 31 11 32 40 33 9 34 7 35 10 36
REMARK SMILES IDX 8 37 13 38 6 40 41 41 5 42 42 43 4 44 3 45 43 46 2 48 1 49
REMARK SMILES IDX 37 50
REMARK H PARENT 27 17 29 19 31 21 33 23 35 25 13 39 43 47 37 51
REMARK Flexibility Score: inf
ROOT
ATOM      1  C   UNL     1       2.296   6.878 -26.965  1.00  0.00     0.180 C 
ATOM      2  C   UNL     1       1.371   7.232 -25.747  1.00  0.00     0.177 C 
ATOM      3  C   UNL     1       0.424   6.085 -25.382  1.00  0.00     0.180 C 
ATOM      4  C   UNL     1       0.877   4.743 -25.943  1.00  0.00     0.214 C 
ATOM      5  C   UNL     1       1.032   4.889 -27.487  1.00  0.00     0.339 C 
ATOM      6  O   UNL     1       1.620   6.116 -27.945  1.00  0.00    -0.332 OA
ENDROOT
BRANCH   1   7
ATOM      7  C   UNL     1       3.739   6.374 -26.665  1.00  0.00     0.198 C 
BRANCH   7   8
ATOM      8  O   UNL     1       4.266   6.705 -25.360  1.00  0.00    -0.347 OA
BRANCH   8   9
ATOM      9  C   UNL     1       5.119   5.651 -24.864  1.00  0.00     0.281 C 
ATOM     10  C   UNL     1       5.239   2.045 -25.876  1.00  0.00     0.041 C 
ATOM     11  C   UNL     1       5.475   3.316 -24.969  1.00  0.00     0.150 C 
ATOM     12  C   UNL     1       5.187   2.992 -23.458  1.00  0.00     0.174 C 
ATOM     13  O   UNL     1       4.705   4.446 -25.459  1.00  0.00    -0.344 OA
ATOM     14  C   UNL     1       4.576   4.213 -22.784  1.00  0.00     0.179 C 
ATOM     15  C   UNL     1       5.224   5.525 -23.289  1.00  0.00     0.202 C 
BRANCH  12  16
ATOM     16  O   UNL     1       4.286   1.895 -23.288  1.00  0.00    -0.388 OA
ATOM     17  H   UNL     1       3.390   2.223 -23.597  1.00  0.00     0.211 HD
ENDBRANCH  12  16
BRANCH  14  18
ATOM     18  O   UNL     1       4.728   4.138 -21.383  1.00  0.00    -0.387 OA
ATOM     19  H   UNL     1       5.085   5.013 -21.062  1.00  0.00     0.211 HD
ENDBRANCH  14  18
BRANCH  15  20
ATOM     20  O   UNL     1       4.619   6.526 -22.594  1.00  0.00    -0.385 OA
ATOM     21  H   UNL     1       4.929   6.470 -21.661  1.00  0.00     0.211 HD
ENDBRANCH  15  20
ENDBRANCH   8   9
ENDBRANCH   7   8
ENDBRANCH   1   7
BRANCH   2  22
ATOM     22  O   UNL     1       0.659   8.445 -26.063  1.00  0.00    -0.387 OA
ATOM     23  H   UNL     1       0.119   8.256 -26.880  1.00  0.00     0.211 HD
ENDBRANCH   2  22
BRANCH   3  24
ATOM     24  O   UNL     1      -0.885   6.381 -25.884  1.00  0.00    -0.387 OA
ATOM     25  H   UNL     1      -1.556   6.160 -25.138  1.00  0.00     0.211 HD
ENDBRANCH   3  24
BRANCH   5  26
ATOM     26  O   UNL     1       1.683   3.778 -28.125  1.00  0.00    -0.462 OA
BRANCH  26  27
ATOM     27  C   UNL     1       1.313   2.436 -27.881  1.00  0.00     0.130 A 
ATOM     28  C   UNL     1      -0.033   2.080 -28.054  1.00  0.00     0.093 A 
ATOM     29  C   UNL     1       2.183   1.523 -27.325  1.00  0.00     0.094 A 
ATOM     30  C   UNL     1      -0.557   0.946 -27.400  1.00  0.00     0.133 A 
ATOM     31  C   UNL     1       1.706   0.396 -26.675  1.00  0.00     0.138 A 
ATOM     32  C   UNL     1       0.310   0.110 -26.679  1.00  0.00     0.102 A 
ATOM     33  O   UNL     1       2.584  -0.373 -25.906  1.00  0.00    -0.484 OA
ATOM     34  C   UNL     1      -0.147  -0.979 -25.783  1.00  0.00     0.174 C 
ATOM     35  C   UNL     1       2.165  -1.614 -25.329  1.00  0.00     0.211 C 
ATOM     36  O   UNL     1      -1.248  -1.565 -25.986  1.00  0.00    -0.294 OA
ATOM     37  C   UNL     1       0.772  -1.457 -24.692  1.00  0.00     0.131 C 
BRANCH  30  38
ATOM     38  O   UNL     1      -1.926   0.713 -27.457  1.00  0.00    -0.507 OA
ATOM     39  H   UNL     1      -2.629   1.293 -27.077  1.00  0.00     0.293 HD
ENDBRANCH  30  38
BRANCH  35  40
ATOM     40  C   UNL     1       3.211  -2.240 -24.398  1.00  0.00    -0.003 A 
ATOM     41  C   UNL     1       3.907  -1.417 -23.529  1.00  0.00     0.057 A 
ATOM     42  C   UNL     1       3.851  -3.445 -24.809  1.00  0.00     0.011 A 
ATOM     43  C   UNL     1       5.287  -1.528 -23.384  1.00  0.00     0.158 A 
ATOM     44  C   UNL     1       5.237  -3.595 -24.639  1.00  0.00     0.051 A 
ATOM     45  C   UNL     1       5.948  -2.578 -24.018  1.00  0.00     0.160 A 
BRANCH  43  46
ATOM     46  O   UNL     1       5.966  -0.610 -22.613  1.00  0.00    -0.504 OA
ATOM     47  H   UNL     1       6.159  -0.777 -21.631  1.00  0.00     0.293 HD
ENDBRANCH  43  46
BRANCH  45  48
ATOM     48  O   UNL     1       7.329  -2.610 -24.047  1.00  0.00    -0.493 OA
ATOM     49  C   UNL     1       8.055  -3.619 -24.697  1.00  0.00     0.278 C 
ENDBRANCH  45  48
ENDBRANCH  35  40
ENDBRANCH  26  27
ENDBRANCH   5  26
BRANCH   4  50
ATOM     50  O   UNL     1       2.041   4.220 -25.337  1.00  0.00    -0.384 OA
ATOM     51  H   UNL     1       2.390   4.854 -24.639  1.00  0.00     0.211 HD
ENDBRANCH   4  50
TORSDOF 15
ENDMDL
MODEL 3
REMARK VINA RESULT:    -6.752      1.791      5.372
REMARK INTER + INTRA:         -12.840
REMARK INTER:                 -10.295
REMARK INTRA:                  -2.545
REMARK UNBOUND:                -1.746
REMARK SMILES COc1ccc([C@H]2CC(=O)c3c(O)cc(O[C@@H]4O[C@H](CO[C@@H]5O[C@H](C)[C@H](O)[C@@H](O)[C@@H]5O)[C@@H](O)[C@@H](O)[C@@H]4O)cc3O2)cc1O
REMARK SMILES IDX 19 1 32 2 34 3 36 4 17 5 18 6 20 7 21 8 22 9 25 10 24 11
REMARK SMILES IDX 26 12 23 13 28 14 30 15 27 16 29 18 31 20 33 22 35 24 16 26
REMARK SMILES IDX 15 27 14 28 38 29 12 30 39 31 11 32 40 33 9 34 7 35 10 36
REMARK SMILES IDX 8 37 13 38 6 40 41 41 5 42 42 43 4 44 3 45 43 46 2 48 1 49
REMARK SMILES IDX 37 50
REMARK H PARENT 27 17 29 19 31 21 33 23 35 25 13 39 43 47 37 51
REMARK Flexibility Score: inf
ROOT
ATOM      1  C   UNL     1       3.569   6.497 -26.317  1.00  0.00     0.180 C 
ATOM      2  C   UNL     1       3.541   8.038 -26.620  1.00  0.00     0.177 C 
ATOM      3  C   UNL     1       2.114   8.582 -26.740  1.00  0.00     0.180 C 
ATOM      4  C   UNL     1       1.077   7.663 -26.107  1.00  0.00     0.214 C 
ATOM      5  C   UNL     1       1.210   6.255 -26.762  1.00  0.00     0.339 C 
ATOM      6  O   UNL     1       2.549   5.799 -27.002  1.00  0.00    -0.332 OA
ENDROOT
BRANCH   1   7
ATOM      7  C   UNL     1       3.750   6.048 -24.836  1.00  0.00     0.198 C 
BRANCH   7   8
ATOM      8  O   UNL     1       5.114   5.930 -24.373  1.00  0.00    -0.347 OA
BRANCH   8   9
ATOM      9  C   UNL     1       5.516   4.545 -24.298  1.00  0.00     0.281 C 
ATOM     10  C   UNL     1       4.779   1.745 -26.676  1.00  0.00     0.041 C 
ATOM     11  C   UNL     1       5.196   2.437 -25.320  1.00  0.00     0.150 C 
ATOM     12  C   UNL     1       4.545   1.705 -24.090  1.00  0.00     0.174 C 
ATOM     13  O   UNL     1       4.892   3.858 -25.354  1.00  0.00    -0.344 OA
ATOM     14  C   UNL     1       4.197   2.726 -23.016  1.00  0.00     0.179 C 
ATOM     15  C   UNL     1       5.279   3.827 -22.906  1.00  0.00     0.202 C 
BRANCH  12  16
ATOM     16  O   UNL     1       3.351   0.998 -24.434  1.00  0.00    -0.388 OA
ATOM     17  H   UNL     1       2.957   0.684 -23.566  1.00  0.00     0.211 HD
ENDBRANCH  12  16
BRANCH  14  18
ATOM     18  O   UNL     1       4.052   2.100 -21.760  1.00  0.00    -0.387 OA
ATOM     19  H   UNL     1       4.852   2.325 -21.206  1.00  0.00     0.211 HD
ENDBRANCH  14  18
BRANCH  15  20
ATOM     20  O   UNL     1       4.869   4.649 -21.902  1.00  0.00    -0.385 OA
ATOM     21  H   UNL     1       3.962   4.368 -21.639  1.00  0.00     0.211 HD
ENDBRANCH  15  20
ENDBRANCH   8   9
ENDBRANCH   7   8
ENDBRANCH   1   7
BRANCH   2  22
ATOM     22  O   UNL     1       4.314   8.272 -27.814  1.00  0.00    -0.387 OA
ATOM     23  H   UNL     1       3.678   8.605 -28.507  1.00  0.00     0.211 HD
ENDBRANCH   2  22
BRANCH   3  24
ATOM     24  O   UNL     1       1.796   8.760 -28.124  1.00  0.00    -0.387 OA
ATOM     25  H   UNL     1       1.064   8.078 -28.360  1.00  0.00     0.211 HD
ENDBRANCH   3  24
BRANCH   5  26
ATOM     26  O   UNL     1       0.461   5.221 -26.101  1.00  0.00    -0.462 OA
BRANCH  26  27
ATOM     27  C   UNL     1       0.155   3.988 -26.719  1.00  0.00     0.130 A 
ATOM     28  C   UNL     1      -1.165   3.770 -27.140  1.00  0.00     0.093 A 
ATOM     29  C   UNL     1       1.056   2.945 -26.764  1.00  0.00     0.094 A 
ATOM     30  C   UNL     1      -1.647   2.456 -27.315  1.00  0.00     0.133 A 
ATOM     31  C   UNL     1       0.620   1.641 -26.934  1.00  0.00     0.138 A 
ATOM     32  C   UNL     1      -0.758   1.377 -27.182  1.00  0.00     0.102 A 
ATOM     33  O   UNL     1       1.515   0.589 -26.723  1.00  0.00    -0.484 OA
ATOM     34  C   UNL     1      -1.184  -0.042 -27.130  1.00  0.00     0.174 C 
ATOM     35  C   UNL     1       1.145  -0.763 -27.015  1.00  0.00     0.211 C 
ATOM     36  O   UNL     1      -2.246  -0.420 -27.700  1.00  0.00    -0.294 OA
ATOM     37  C   UNL     1      -0.272  -1.050 -26.485  1.00  0.00     0.131 C 
BRANCH  30  38
ATOM     38  O   UNL     1      -3.000   2.268 -27.573  1.00  0.00    -0.507 OA
ATOM     39  H   UNL     1      -3.666   2.982 -27.723  1.00  0.00     0.293 HD
ENDBRANCH  30  38
BRANCH  35  40
ATOM     40  C   UNL     1       2.195  -1.793 -26.580  1.00  0.00    -0.003 A 
ATOM     41  C   UNL     1       2.076  -2.378 -25.331  1.00  0.00     0.057 A 
ATOM     42  C   UNL     1       3.503  -1.707 -27.138  1.00  0.00     0.011 A 
ATOM     43  C   UNL     1       3.176  -2.499 -24.486  1.00  0.00     0.158 A 
ATOM     44  C   UNL     1       4.629  -1.862 -26.312  1.00  0.00     0.051 A 
ATOM     45  C   UNL     1       4.437  -2.156 -24.969  1.00  0.00     0.160 A 
BRANCH  43  46
ATOM     46  O   UNL     1       3.000  -2.965 -23.202  1.00  0.00    -0.504 OA
ATOM     47  H   UNL     1       3.656  -2.747 -22.460  1.00  0.00     0.293 HD
ENDBRANCH  43  46
BRANCH  45  48
ATOM     48  O   UNL     1       5.515  -2.088 -24.108  1.00  0.00    -0.493 OA
ATOM     49  C   UNL     1       6.586  -2.992 -24.153  1.00  0.00     0.278 C 
ENDBRANCH  45  48
ENDBRANCH  35  40
ENDBRANCH  26  27
ENDBRANCH   5  26
BRANCH   4  50
ATOM     50  O   UNL     1       1.133   7.603 -24.696  1.00  0.00    -0.384 OA
ATOM     51  H   UNL     1       1.117   8.528 -24.303  1.00  0.00     0.211 HD
ENDBRANCH   4  50
TORSDOF 15
ENDMDL
MODEL 4
REMARK VINA RESULT:    -6.693      1.885      8.514
REMARK INTER + INTRA:         -12.742
REMARK INTER:                 -10.610
REMARK INTRA:                  -2.132
REMARK UNBOUND:                -1.746
REMARK SMILES COc1ccc([C@H]2CC(=O)c3c(O)cc(O[C@@H]4O[C@H](CO[C@@H]5O[C@H](C)[C@H](O)[C@@H](O)[C@@H]5O)[C@@H](O)[C@@H](O)[C@@H]4O)cc3O2)cc1O
REMARK SMILES IDX 19 1 32 2 34 3 36 4 17 5 18 6 20 7 21 8 22 9 25 10 24 11
REMARK SMILES IDX 26 12 23 13 28 14 30 15 27 16 29 18 31 20 33 22 35 24 16 26
REMARK SMILES IDX 15 27 14 28 38 29 12 30 39 31 11 32 40 33 9 34 7 35 10 36
REMARK SMILES IDX 8 37 13 38 6 40 41 41 5 42 42 43 4 44 3 45 43 46 2 48 1 49
REMARK SMILES IDX 37 50
REMARK H PARENT 27 17 29 19 31 21 33 23 35 25 13 39 43 47 37 51
REMARK Flexibility Score: inf
ROOT
ATOM      1  C   UNL     1       3.466  -2.006 -24.157  1.00  0.00     0.180 C 
ATOM      2  C   UNL     1       4.894  -2.501 -23.729  1.00  0.00     0.177 C 
ATOM      3  C   UNL     1       5.855  -2.604 -24.918  1.00  0.00     0.180 C 
ATOM      4  C   UNL     1       5.390  -1.799 -26.125  1.00  0.00     0.214 C 
ATOM      5  C   UNL     1       3.956  -2.276 -26.505  1.00  0.00     0.339 C 
ATOM      6  O   UNL     1       3.069  -2.535 -25.406  1.00  0.00    -0.332 OA
ENDROOT
BRANCH   1   7
ATOM      7  C   UNL     1       3.136  -0.493 -23.983  1.00  0.00     0.198 C 
BRANCH   7   8
ATOM      8  O   UNL     1       4.241   0.356 -23.604  1.00  0.00    -0.347 OA
BRANCH   8   9
ATOM      9  C   UNL     1       3.909   1.749 -23.786  1.00  0.00     0.281 C 
ATOM     10  C   UNL     1       5.192   4.163 -26.349  1.00  0.00     0.041 C 
ATOM     11  C   UNL     1       4.513   3.681 -25.007  1.00  0.00     0.150 C 
ATOM     12  C   UNL     1       4.983   4.560 -23.790  1.00  0.00     0.174 C 
ATOM     13  O   UNL     1       4.740   2.262 -24.797  1.00  0.00    -0.344 OA
ATOM     14  C   UNL     1       5.087   3.690 -22.545  1.00  0.00     0.179 C 
ATOM     15  C   UNL     1       3.943   2.648 -22.482  1.00  0.00     0.202 C 
BRANCH  12  16
ATOM     16  O   UNL     1       6.255   5.174 -24.009  1.00  0.00    -0.388 OA
ATOM     17  H   UNL     1       6.592   5.441 -23.102  1.00  0.00     0.211 HD
ENDBRANCH  12  16
BRANCH  14  18
ATOM     18  O   UNL     1       5.049   4.481 -21.378  1.00  0.00    -0.387 OA
ATOM     19  H   UNL     1       5.211   3.886 -20.593  1.00  0.00     0.211 HD
ENDBRANCH  14  18
BRANCH  15  20
ATOM     20  O   UNL     1       4.131   1.964 -21.321  1.00  0.00    -0.385 OA
ATOM     21  H   UNL     1       3.389   2.196 -20.716  1.00  0.00     0.211 HD
ENDBRANCH  15  20
ENDBRANCH   8   9
ENDBRANCH   7   8
ENDBRANCH   1   7
BRANCH   2  22
ATOM     22  O   UNL     1       4.743  -3.759 -23.042  1.00  0.00    -0.387 OA
ATOM     23  H   UNL     1       4.637  -3.546 -22.073  1.00  0.00     0.211 HD
ENDBRANCH   2  22
BRANCH   3  24
ATOM     24  O   UNL     1       5.984  -3.979 -25.297  1.00  0.00    -0.387 OA
ATOM     25  H   UNL     1       5.652  -4.547 -24.508  1.00  0.00     0.211 HD
ENDBRANCH   3  24
BRANCH   5  26
ATOM     26  O   UNL     1       3.292  -1.445 -27.472  1.00  0.00    -0.462 OA
BRANCH  26  27
ATOM     27  C   UNL     1       2.155  -0.668 -27.157  1.00  0.00     0.130 A 
ATOM     28  C   UNL     1       0.892  -1.269 -27.269  1.00  0.00     0.093 A 
ATOM     29  C   UNL     1       2.234   0.686 -26.914  1.00  0.00     0.094 A 
ATOM     30  C   UNL     1      -0.260  -0.474 -27.438  1.00  0.00     0.133 A 
ATOM     31  C   UNL     1       1.123   1.500 -27.069  1.00  0.00     0.138 A 
ATOM     32  C   UNL     1      -0.145   0.923 -27.368  1.00  0.00     0.102 A 
ATOM     33  O   UNL     1       1.287   2.887 -27.066  1.00  0.00    -0.484 OA
ATOM     34  C   UNL     1      -1.231   1.862 -27.738  1.00  0.00     0.174 C 
ATOM     35  C   UNL     1       0.155   3.763 -27.089  1.00  0.00     0.211 C 
ATOM     36  O   UNL     1      -2.443   1.519 -27.639  1.00  0.00    -0.294 OA
ATOM     37  C   UNL     1      -0.873   3.271 -28.125  1.00  0.00     0.131 C 
BRANCH  30  38
ATOM     38  O   UNL     1      -1.472  -1.100 -27.710  1.00  0.00    -0.507 OA
ATOM     39  H   UNL     1      -1.767  -1.972 -27.350  1.00  0.00     0.293 HD
ENDBRANCH  30  38
BRANCH  35  40
ATOM     40  C   UNL     1       0.528   5.243 -27.235  1.00  0.00    -0.003 A 
ATOM     41  C   UNL     1       1.667   5.576 -27.948  1.00  0.00     0.057 A 
ATOM     42  C   UNL     1       0.103   6.154 -26.225  1.00  0.00     0.011 A 
ATOM     43  C   UNL     1       2.577   6.507 -27.456  1.00  0.00     0.158 A 
ATOM     44  C   UNL     1       0.991   7.127 -25.738  1.00  0.00     0.051 A 
ATOM     45  C   UNL     1       2.257   7.215 -26.299  1.00  0.00     0.160 A 
BRANCH  43  46
ATOM     46  O   UNL     1       3.763   6.719 -28.125  1.00  0.00    -0.504 OA
ATOM     47  H   UNL     1       3.885   7.500 -28.761  1.00  0.00     0.293 HD
ENDBRANCH  43  46
BRANCH  45  48
ATOM     48  O   UNL     1       3.209   8.006 -25.684  1.00  0.00    -0.493 OA
ATOM     49  C   UNL     1       4.131   7.506 -24.753  1.00  0.00     0.278 C 
ENDBRANCH  45  48
ENDBRANCH  35  40
ENDBRANCH  26  27
ENDBRANCH   5  26
BRANCH   4  50
ATOM     50  O   UNL     1       5.459  -0.398 -25.953  1.00  0.00    -0.384 OA
ATOM     51  H   UNL     1       4.704  -0.076 -25.372  1.00  0.00     0.211 HD
ENDBRANCH   4  50
TORSDOF 15
ENDMDL
MODEL 5
REMARK VINA RESULT:    -6.574      2.148      8.080
REMARK INTER + INTRA:         -12.547
REMARK INTER:                 -11.821
REMARK INTRA:                  -0.726
REMARK UNBOUND:                -1.746
REMARK SMILES COc1ccc([C@H]2CC(=O)c3c(O)cc(O[C@@H]4O[C@H](CO[C@@H]5O[C@H](C)[C@H](O)[C@@H](O)[C@@H]5O)[C@@H](O)[C@@H](O)[C@@H]4O)cc3O2)cc1O
REMARK SMILES IDX 19 1 32 2 34 3 36 4 17 5 18 6 20 7 21 8 22 9 25 10 24 11
REMARK SMILES IDX 26 12 23 13 28 14 30 15 27 16 29 18 31 20 33 22 35 24 16 26
REMARK SMILES IDX 15 27 14 28 38 29 12 30 39 31 11 32 40 33 9 34 7 35 10 36
REMARK SMILES IDX 8 37 13 38 6 40 41 41 5 42 42 43 4 44 3 45 43 46 2 48 1 49
REMARK SMILES IDX 37 50
REMARK H PARENT 27 17 29 19 31 21 33 23 35 25 13 39 43 47 37 51
REMARK Flexibility Score: inf
ROOT
ATOM      1  C   UNL     1       3.467  -1.509 -25.384  1.00  0.00     0.180 C 
ATOM      2  C   UNL     1       4.193  -2.799 -24.861  1.00  0.00     0.177 C 
ATOM      3  C   UNL     1       4.955  -2.549 -23.556  1.00  0.00     0.180 C 
ATOM      4  C   UNL     1       4.487  -1.294 -22.829  1.00  0.00     0.214 C 
ATOM      5  C   UNL     1       4.617  -0.089 -23.809  1.00  0.00     0.339 C 
ATOM      6  O   UNL     1       4.231  -0.341 -25.168  1.00  0.00    -0.332 OA
ENDROOT
BRANCH   1   7
ATOM      7  C   UNL     1       1.953  -1.338 -25.054  1.00  0.00     0.198 C 
BRANCH   7   8
ATOM      8  O   UNL     1       1.030  -1.921 -26.001  1.00  0.00    -0.347 OA
BRANCH   8   9
ATOM      9  C   UNL     1       0.795  -1.027 -27.111  1.00  0.00     0.281 C 
ATOM     10  C   UNL     1       2.550   2.169 -27.974  1.00  0.00     0.041 C 
ATOM     11  C   UNL     1       1.403   1.084 -27.984  1.00  0.00     0.150 C 
ATOM     12  C   UNL     1      -0.014   1.761 -27.900  1.00  0.00     0.174 C 
ATOM     13  O   UNL     1       1.618   0.100 -26.938  1.00  0.00    -0.344 OA
ATOM     14  C   UNL     1      -0.950   0.883 -27.082  1.00  0.00     0.179 C 
ATOM     15  C   UNL     1      -0.714  -0.620 -27.368  1.00  0.00     0.202 C 
BRANCH  12  16
ATOM     16  O   UNL     1       0.025   3.055 -27.292  1.00  0.00    -0.388 OA
ATOM     17  H   UNL     1      -0.867   3.475 -27.481  1.00  0.00     0.211 HD
ENDBRANCH  12  16
BRANCH  14  18
ATOM     18  O   UNL     1      -2.298   1.195 -27.360  1.00  0.00    -0.387 OA
ATOM     19  H   UNL     1      -2.475   2.123 -27.038  1.00  0.00     0.211 HD
ENDBRANCH  14  18
BRANCH  15  20
ATOM     20  O   UNL     1      -1.624  -1.288 -26.607  1.00  0.00    -0.385 OA
ATOM     21  H   UNL     1      -1.246  -2.174 -26.401  1.00  0.00     0.211 HD
ENDBRANCH  15  20
ENDBRANCH   8   9
ENDBRANCH   7   8
ENDBRANCH   1   7
BRANCH   2  22
ATOM     22  O   UNL     1       5.056  -3.283 -25.909  1.00  0.00    -0.387 OA
ATOM     23  H   UNL     1       4.477  -3.446 -26.705  1.00  0.00     0.211 HD
ENDBRANCH   2  22
BRANCH   3  24
ATOM     24  O   UNL     1       6.352  -2.425 -23.846  1.00  0.00    -0.387 OA
ATOM     25  H   UNL     1       6.577  -1.422 -23.842  1.00  0.00     0.211 HD
ENDBRANCH   3  24
BRANCH   5  26
ATOM     26  O   UNL     1       3.989   1.120 -23.347  1.00  0.00    -0.462 OA
BRANCH  26  27
ATOM     27  C   UNL     1       4.558   2.398 -23.546  1.00  0.00     0.130 A 
ATOM     28  C   UNL     1       5.174   3.024 -22.452  1.00  0.00     0.093 A 
ATOM     29  C   UNL     1       4.378   3.109 -24.713  1.00  0.00     0.094 A 
ATOM     30  C   UNL     1       5.329   4.425 -22.431  1.00  0.00     0.133 A 
ATOM     31  C   UNL     1       4.522   4.487 -24.731  1.00  0.00     0.138 A 
ATOM     32  C   UNL     1       4.974   5.171 -23.566  1.00  0.00     0.102 A 
ATOM     33  O   UNL     1       4.090   5.204 -25.850  1.00  0.00    -0.484 OA
ATOM     34  C   UNL     1       4.890   6.651 -23.589  1.00  0.00     0.174 C 
ATOM     35  C   UNL     1       4.340   6.609 -25.967  1.00  0.00     0.211 C 
ATOM     36  O   UNL     1       5.598   7.351 -22.812  1.00  0.00    -0.294 OA
ATOM     37  C   UNL     1       4.032   7.314 -24.632  1.00  0.00     0.131 C 
BRANCH  30  38
ATOM     38  O   UNL     1       5.792   5.030 -21.268  1.00  0.00    -0.507 OA
ATOM     39  H   UNL     1       6.630   4.809 -20.793  1.00  0.00     0.293 HD
ENDBRANCH  30  38
BRANCH  35  40
ATOM     40  C   UNL     1       3.665   7.253 -27.184  1.00  0.00    -0.003 A 
ATOM     41  C   UNL     1       4.052   8.527 -27.564  1.00  0.00     0.057 A 
ATOM     42  C   UNL     1       2.341   6.847 -27.520  1.00  0.00     0.011 A 
ATOM     43  C   UNL     1       3.110   9.501 -27.878  1.00  0.00     0.158 A 
ATOM     44  C   UNL     1       1.382   7.809 -27.876  1.00  0.00     0.051 A 
ATOM     45  C   UNL     1       1.766   9.140 -27.947  1.00  0.00     0.160 A 
BRANCH  43  46
ATOM     46  O   UNL     1       3.522  10.792 -28.125  1.00  0.00    -0.504 OA
ATOM     47  H   UNL     1       3.079  11.589 -27.680  1.00  0.00     0.293 HD
ENDBRANCH  43  46
BRANCH  45  48
ATOM     48  O   UNL     1       0.792  10.113 -28.072  1.00  0.00    -0.493 OA
ATOM     49  C   UNL     1       0.950  11.419 -27.586  1.00  0.00     0.278 C 
ENDBRANCH  45  48
ENDBRANCH  35  40
ENDBRANCH  26  27
ENDBRANCH   5  26
BRANCH   4  50
ATOM     50  O   UNL     1       3.193  -1.391 -22.271  1.00  0.00    -0.384 OA
ATOM     51  H   UNL     1       2.915  -0.513 -21.869  1.00  0.00     0.211 HD
ENDBRANCH   4  50
TORSDOF 15
ENDMDL
MODEL 6
REMARK VINA RESULT:    -6.187      2.243      7.907
REMARK INTER + INTRA:         -11.910
REMARK INTER:                 -10.696
REMARK INTRA:                  -1.214
REMARK UNBOUND:                -1.746
REMARK SMILES COc1ccc([C@H]2CC(=O)c3c(O)cc(O[C@@H]4O[C@H](CO[C@@H]5O[C@H](C)[C@H](O)[C@@H](O)[C@@H]5O)[C@@H](O)[C@@H](O)[C@@H]4O)cc3O2)cc1O
REMARK SMILES IDX 19 1 32 2 34 3 36 4 17 5 18 6 20 7 21 8 22 9 25 10 24 11
REMARK SMILES IDX 26 12 23 13 28 14 30 15 27 16 29 18 31 20 33 22 35 24 16 26
REMARK SMILES IDX 15 27 14 28 38 29 12 30 39 31 11 32 40 33 9 34 7 35 10 36
REMARK SMILES IDX 8 37 13 38 6 40 41 41 5 42 42 43 4 44 3 45 43 46 2 48 1 49
REMARK SMILES IDX 37 50
REMARK H PARENT 27 17 29 19 31 21 33 23 35 25 13 39 43 47 37 51
REMARK Flexibility Score: inf
ROOT
ATOM      1  C   UNL     1       3.032  -0.262 -24.059  1.00  0.00     0.180 C 
ATOM      2  C   UNL     1       3.065  -1.053 -22.703  1.00  0.00     0.177 C 
ATOM      3  C   UNL     1       3.619  -2.471 -22.869  1.00  0.00     0.180 C 
ATOM      4  C   UNL     1       4.418  -2.646 -24.154  1.00  0.00     0.214 C 
ATOM      5  C   UNL     1       3.507  -2.243 -25.353  1.00  0.00     0.339 C 
ATOM      6  O   UNL     1       2.680  -1.087 -25.151  1.00  0.00    -0.332 OA
ENDROOT
BRANCH   1   7
ATOM      7  C   UNL     1       4.209   0.713 -24.365  1.00  0.00     0.198 C 
BRANCH   7   8
ATOM      8  O   UNL     1       3.868   2.116 -24.425  1.00  0.00    -0.347 OA
BRANCH   8   9
ATOM      9  C   UNL     1       4.330   2.812 -23.248  1.00  0.00     0.281 C 
ATOM     10  C   UNL     1       3.073   6.009 -21.752  1.00  0.00     0.041 C 
ATOM     11  C   UNL     1       4.078   4.824 -22.033  1.00  0.00     0.150 C 
ATOM     12  C   UNL     1       5.546   5.360 -22.208  1.00  0.00     0.174 C 
ATOM     13  O   UNL     1       3.631   4.028 -23.164  1.00  0.00    -0.344 OA
ATOM     14  C   UNL     1       6.273   4.520 -23.249  1.00  0.00     0.179 C 
ATOM     15  C   UNL     1       5.896   3.022 -23.135  1.00  0.00     0.202 C 
BRANCH  12  16
ATOM     16  O   UNL     1       5.591   6.725 -22.631  1.00  0.00    -0.388 OA
ATOM     17  H   UNL     1       4.659   6.954 -22.925  1.00  0.00     0.211 HD
ENDBRANCH  12  16
BRANCH  14  18
ATOM     18  O   UNL     1       7.671   4.651 -23.108  1.00  0.00    -0.387 OA
ATOM     19  H   UNL     1       7.936   5.547 -23.459  1.00  0.00     0.211 HD
ENDBRANCH  14  18
BRANCH  15  20
ATOM     20  O   UNL     1       6.629   2.384 -24.088  1.00  0.00    -0.385 OA
ATOM     21  H   UNL     1       6.781   1.462 -23.778  1.00  0.00     0.211 HD
ENDBRANCH  15  20
ENDBRANCH   8   9
ENDBRANCH   7   8
ENDBRANCH   1   7
BRANCH   2  22
ATOM     22  O   UNL     1       1.732  -1.051 -22.153  1.00  0.00    -0.387 OA
ATOM     23  H   UNL     1       1.721  -1.734 -21.426  1.00  0.00     0.211 HD
ENDBRANCH   2  22
BRANCH   3  24
ATOM     24  O   UNL     1       2.531  -3.402 -22.867  1.00  0.00    -0.387 OA
ATOM     25  H   UNL     1       1.974  -3.220 -22.023  1.00  0.00     0.211 HD
ENDBRANCH   3  24
BRANCH   5  26
ATOM     26  O   UNL     1       4.197  -2.127 -26.608  1.00  0.00    -0.462 OA
BRANCH  26  27
ATOM     27  C   UNL     1       4.444  -0.882 -27.230  1.00  0.00     0.130 A 
ATOM     28  C   UNL     1       5.775  -0.453 -27.342  1.00  0.00     0.093 A 
ATOM     29  C   UNL     1       3.428  -0.016 -27.570  1.00  0.00     0.094 A 
ATOM     30  C   UNL     1       6.068   0.918 -27.498  1.00  0.00     0.133 A 
ATOM     31  C   UNL     1       3.677   1.338 -27.732  1.00  0.00     0.138 A 
ATOM     32  C   UNL     1       5.012   1.829 -27.665  1.00  0.00     0.102 A 
ATOM     33  O   UNL     1       2.600   2.224 -27.822  1.00  0.00    -0.484 OA
ATOM     34  C   UNL     1       5.178   3.302 -27.625  1.00  0.00     0.174 C 
ATOM     35  C   UNL     1       2.808   3.608 -28.123  1.00  0.00     0.211 C 
ATOM     36  O   UNL     1       6.273   3.838 -27.953  1.00  0.00    -0.294 OA
ATOM     37  C   UNL     1       3.986   4.158 -27.296  1.00  0.00     0.131 C 
BRANCH  30  38
ATOM     38  O   UNL     1       7.394   1.330 -27.441  1.00  0.00    -0.507 OA
ATOM     39  H   UNL     1       8.025   1.150 -26.703  1.00  0.00     0.293 HD
ENDBRANCH  30  38
BRANCH  35  40
ATOM     40  C   UNL     1       1.533   4.454 -28.032  1.00  0.00    -0.003 A 
ATOM     41  C   UNL     1       1.621   5.740 -27.526  1.00  0.00     0.057 A 
ATOM     42  C   UNL     1       0.282   3.785 -27.896  1.00  0.00     0.011 A 
ATOM     43  C   UNL     1       0.707   6.207 -26.586  1.00  0.00     0.158 A 
ATOM     44  C   UNL     1      -0.671   4.259 -26.980  1.00  0.00     0.051 A 
ATOM     45  C   UNL     1      -0.391   5.413 -26.263  1.00  0.00     0.160 A 
BRANCH  43  46
ATOM     46  O   UNL     1       0.899   7.442 -26.006  1.00  0.00    -0.504 OA
ATOM     47  H   UNL     1       0.704   8.303 -26.506  1.00  0.00     0.293 HD
ENDBRANCH  43  46
BRANCH  45  48
ATOM     48  O   UNL     1      -1.211   5.761 -25.206  1.00  0.00    -0.493 OA
ATOM     49  C   UNL     1      -2.350   5.025 -24.850  1.00  0.00     0.278 C 
ENDBRANCH  45  48
ENDBRANCH  35  40
ENDBRANCH  26  27
ENDBRANCH   5  26
BRANCH   4  50
ATOM     50  O   UNL     1       5.655  -1.962 -24.170  1.00  0.00    -0.384 OA
ATOM     51  H   UNL     1       6.395  -2.579 -24.459  1.00  0.00     0.211 HD
ENDBRANCH   4  50
TORSDOF 15
ENDMDL
MODEL 7
REMARK VINA RESULT:    -5.970      1.856      3.428
REMARK INTER + INTRA:         -11.554
REMARK INTER:                  -9.820
REMARK INTRA:                  -1.734
REMARK UNBOUND:                -1.746
REMARK SMILES COc1ccc([C@H]2CC(=O)c3c(O)cc(O[C@@H]4O[C@H](CO[C@@H]5O[C@H](C)[C@H](O)[C@@H](O)[C@@H]5O)[C@@H](O)[C@@H](O)[C@@H]4O)cc3O2)cc1O
REMARK SMILES IDX 19 1 32 2 34 3 36 4 17 5 18 6 20 7 21 8 22 9 25 10 24 11
REMARK SMILES IDX 26 12 23 13 28 14 30 15 27 16 29 18 31 20 33 22 35 24 16 26
REMARK SMILES IDX 15 27 14 28 38 29 12 30 39 31 11 32 40 33 9 34 7 35 10 36
REMARK SMILES IDX 8 37 13 38 6 40 41 41 5 42 42 43 4 44 3 45 43 46 2 48 1 49
REMARK SMILES IDX 37 50
REMARK H PARENT 27 17 29 19 31 21 33 23 35 25 13 39 43 47 37 51
REMARK Flexibility Score: inf
ROOT
ATOM      1  C   UNL     1       1.140   3.783 -26.919  1.00  0.00     0.180 C 
ATOM      2  C   UNL     1      -0.267   3.997 -27.583  1.00  0.00     0.177 C 
ATOM      3  C   UNL     1      -0.829   5.397 -27.318  1.00  0.00     0.180 C 
ATOM      4  C   UNL     1       0.242   6.392 -26.890  1.00  0.00     0.214 C 
ATOM      5  C   UNL     1       0.965   5.818 -25.634  1.00  0.00     0.339 C 
ATOM      6  O   UNL     1       1.235   4.408 -25.655  1.00  0.00    -0.332 OA
ENDROOT
BRANCH   1   7
ATOM      7  C   UNL     1       2.404   3.973 -27.809  1.00  0.00     0.198 C 
BRANCH   7   8
ATOM      8  O   UNL     1       3.517   3.097 -27.522  1.00  0.00    -0.347 OA
BRANCH   8   9
ATOM      9  C   UNL     1       3.294   1.781 -28.073  1.00  0.00     0.281 C 
ATOM     10  C   UNL     1       0.202  -0.332 -27.953  1.00  0.00     0.041 C 
ATOM     11  C   UNL     1       1.735   0.005 -28.125  1.00  0.00     0.150 C 
ATOM     12  C   UNL     1       2.633  -1.082 -27.427  1.00  0.00     0.174 C 
ATOM     13  O   UNL     1       2.021   1.352 -27.662  1.00  0.00    -0.344 OA
ATOM     14  C   UNL     1       3.870  -0.418 -26.838  1.00  0.00     0.179 C 
ATOM     15  C   UNL     1       4.410   0.700 -27.763  1.00  0.00     0.202 C 
BRANCH  12  16
ATOM     16  O   UNL     1       1.953  -1.768 -26.372  1.00  0.00    -0.388 OA
ATOM     17  H   UNL     1       1.072  -2.057 -26.755  1.00  0.00     0.211 HD
ENDBRANCH  12  16
BRANCH  14  18
ATOM     18  O   UNL     1       4.892  -1.367 -26.624  1.00  0.00    -0.387 OA
ATOM     19  H   UNL     1       5.481  -1.029 -25.893  1.00  0.00     0.211 HD
ENDBRANCH  14  18
BRANCH  15  20
ATOM     20  O   UNL     1       5.521   1.186 -27.145  1.00  0.00    -0.385 OA
ATOM     21  H   UNL     1       5.298   2.077 -26.790  1.00  0.00     0.211 HD
ENDBRANCH  15  20
ENDBRANCH   8   9
ENDBRANCH   7   8
ENDBRANCH   1   7
BRANCH   2  22
ATOM     22  O   UNL     1      -1.148   2.959 -27.109  1.00  0.00    -0.387 OA
ATOM     23  H   UNL     1      -1.931   3.415 -26.693  1.00  0.00     0.211 HD
ENDBRANCH   2  22
BRANCH   3  24
ATOM     24  O   UNL     1      -1.825   5.315 -26.293  1.00  0.00    -0.387 OA
ATOM     25  H   UNL     1      -2.599   5.932 -26.569  1.00  0.00     0.211 HD
ENDBRANCH   3  24
BRANCH   5  26
ATOM     26  O   UNL     1       2.156   6.530 -25.259  1.00  0.00    -0.462 OA
BRANCH  26  27
ATOM     27  C   UNL     1       3.098   6.010 -24.343  1.00  0.00     0.130 A 
ATOM     28  C   UNL     1       4.307   6.702 -24.174  1.00  0.00     0.093 A 
ATOM     29  C   UNL     1       2.943   4.775 -23.750  1.00  0.00     0.094 A 
ATOM     30  C   UNL     1       5.444   6.034 -23.676  1.00  0.00     0.133 A 
ATOM     31  C   UNL     1       4.037   4.089 -23.248  1.00  0.00     0.138 A 
ATOM     32  C   UNL     1       5.321   4.706 -23.236  1.00  0.00     0.102 A 
ATOM     33  O   UNL     1       3.894   2.746 -22.887  1.00  0.00    -0.484 OA
ATOM     34  C   UNL     1       6.473   3.838 -22.895  1.00  0.00     0.174 C 
ATOM     35  C   UNL     1       4.959   2.039 -22.243  1.00  0.00     0.211 C 
ATOM     36  O   UNL     1       7.557   4.336 -22.480  1.00  0.00    -0.294 OA
ATOM     37  C   UNL     1       6.296   2.345 -22.943  1.00  0.00     0.131 C 
BRANCH  30  38
ATOM     38  O   UNL     1       6.665   6.700 -23.674  1.00  0.00    -0.507 OA
ATOM     39  H   UNL     1       6.839   7.588 -23.279  1.00  0.00     0.293 HD
ENDBRANCH  30  38
BRANCH  35  40
ATOM     40  C   UNL     1       4.678   0.542 -22.060  1.00  0.00    -0.003 A 
ATOM     41  C   UNL     1       5.575  -0.373 -22.585  1.00  0.00     0.057 A 
ATOM     42  C   UNL     1       3.326   0.118 -21.913  1.00  0.00     0.011 A 
ATOM     43  C   UNL     1       5.136  -1.478 -23.306  1.00  0.00     0.158 A 
ATOM     44  C   UNL     1       2.868  -1.017 -22.603  1.00  0.00     0.051 A 
ATOM     45  C   UNL     1       3.769  -1.738 -23.375  1.00  0.00     0.160 A 
BRANCH  43  46
ATOM     46  O   UNL     1       6.056  -2.297 -23.925  1.00  0.00    -0.504 OA
ATOM     47  H   UNL     1       5.901  -3.294 -24.026  1.00  0.00     0.293 HD
ENDBRANCH  43  46
BRANCH  45  48
ATOM     48  O   UNL     1       3.290  -2.712 -24.229  1.00  0.00    -0.493 OA
ATOM     49  C   UNL     1       2.925  -3.995 -23.796  1.00  0.00     0.278 C 
ENDBRANCH  45  48
ENDBRANCH  35  40
ENDBRANCH  26  27
ENDBRANCH   5  26
BRANCH   4  50
ATOM     50  O   UNL     1       1.150   6.749 -27.912  1.00  0.00    -0.384 OA
ATOM     51  H   UNL     1       1.433   5.936 -28.432  1.00  0.00     0.211 HD
ENDBRANCH   4  50
TORSDOF 15
ENDMDL
MODEL 8
REMARK VINA RESULT:    -5.739      1.650      5.489
REMARK INTER + INTRA:         -11.175
REMARK INTER:                 -11.393
REMARK INTRA:                   0.218
REMARK UNBOUND:                -1.746
REMARK SMILES COc1ccc([C@H]2CC(=O)c3c(O)cc(O[C@@H]4O[C@H](CO[C@@H]5O[C@H](C)[C@H](O)[C@@H](O)[C@@H]5O)[C@@H](O)[C@@H](O)[C@@H]4O)cc3O2)cc1O
REMARK SMILES IDX 19 1 32 2 34 3 36 4 17 5 18 6 20 7 21 8 22 9 25 10 24 11
REMARK SMILES IDX 26 12 23 13 28 14 30 15 27 16 29 18 31 20 33 22 35 24 16 26
REMARK SMILES IDX 15 27 14 28 38 29 12 30 39 31 11 32 40 33 9 34 7 35 10 36
REMARK SMILES IDX 8 37 13 38 6 40 41 41 5 42 42 43 4 44 3 45 43 46 2 48 1 49
REMARK SMILES IDX 37 50
REMARK H PARENT 27 17 29 19 31 21 33 23 35 25 13 39 43 47 37 51
REMARK Flexibility Score: inf
ROOT
ATOM      1  C   UNL     1       5.358   3.937 -23.666  1.00  0.00     0.180 C 
ATOM      2  C   UNL     1       4.528   4.430 -22.428  1.00  0.00     0.177 C 
ATOM      3  C   UNL     1       3.568   5.569 -22.787  1.00  0.00     0.180 C 
ATOM      4  C   UNL     1       3.294   5.660 -24.283  1.00  0.00     0.214 C 
ATOM      5  C   UNL     1       4.659   5.808 -25.020  1.00  0.00     0.339 C 
ATOM      6  O   UNL     1       5.734   5.001 -24.516  1.00  0.00    -0.332 OA
ENDROOT
BRANCH   1   7
ATOM      7  C   UNL     1       4.854   2.674 -24.428  1.00  0.00     0.198 C 
BRANCH   7   8
ATOM      8  O   UNL     1       5.329   1.403 -23.930  1.00  0.00    -0.347 OA
BRANCH   8   9
ATOM      9  C   UNL     1       4.348   0.366 -24.142  1.00  0.00     0.281 C 
ATOM     10  C   UNL     1       2.873  -2.028 -21.665  1.00  0.00     0.041 C 
ATOM     11  C   UNL     1       3.277  -1.454 -23.080  1.00  0.00     0.150 C 
ATOM     12  C   UNL     1       3.824  -2.594 -24.015  1.00  0.00     0.174 C 
ATOM     13  O   UNL     1       4.207  -0.347 -22.939  1.00  0.00    -0.344 OA
ATOM     14  C   UNL     1       4.930  -2.038 -24.901  1.00  0.00     0.179 C 
ATOM     15  C   UNL     1       4.612  -0.598 -25.371  1.00  0.00     0.202 C 
BRANCH  12  16
ATOM     16  O   UNL     1       4.356  -3.702 -23.285  1.00  0.00    -0.388 OA
ATOM     17  H   UNL     1       5.330  -3.503 -23.151  1.00  0.00     0.211 HD
ENDBRANCH  12  16
BRANCH  14  18
ATOM     18  O   UNL     1       5.122  -2.857 -26.034  1.00  0.00    -0.387 OA
ATOM     19  H   UNL     1       6.017  -2.646 -26.422  1.00  0.00     0.211 HD
ENDBRANCH  14  18
BRANCH  15  20
ATOM     20  O   UNL     1       5.651  -0.233 -26.171  1.00  0.00    -0.385 OA
ATOM     21  H   UNL     1       6.273   0.300 -25.626  1.00  0.00     0.211 HD
ENDBRANCH  15  20
ENDBRANCH   8   9
ENDBRANCH   7   8
ENDBRANCH   1   7
BRANCH   2  22
ATOM     22  O   UNL     1       5.454   4.807 -21.390  1.00  0.00    -0.387 OA
ATOM     23  H   UNL     1       5.105   4.419 -20.540  1.00  0.00     0.211 HD
ENDBRANCH   2  22
BRANCH   3  24
ATOM     24  O   UNL     1       4.126   6.809 -22.340  1.00  0.00    -0.387 OA
ATOM     25  H   UNL     1       5.125   6.801 -22.581  1.00  0.00     0.211 HD
ENDBRANCH   3  24
BRANCH   5  26
ATOM     26  O   UNL     1       4.580   5.665 -26.448  1.00  0.00    -0.462 OA
BRANCH  26  27
ATOM     27  C   UNL     1       3.417   5.203 -27.105  1.00  0.00     0.130 A 
ATOM     28  C   UNL     1       2.425   6.141 -27.429  1.00  0.00     0.093 A 
ATOM     29  C   UNL     1       3.156   3.861 -27.279  1.00  0.00     0.094 A 
ATOM     30  C   UNL     1       1.094   5.724 -27.634  1.00  0.00     0.133 A 
ATOM     31  C   UNL     1       1.860   3.413 -27.483  1.00  0.00     0.138 A 
ATOM     32  C   UNL     1       0.798   4.351 -27.632  1.00  0.00     0.102 A 
ATOM     33  O   UNL     1       1.590   2.045 -27.403  1.00  0.00    -0.484 OA
ATOM     34  C   UNL     1      -0.579   3.803 -27.623  1.00  0.00     0.174 C 
ATOM     35  C   UNL     1       0.297   1.528 -27.736  1.00  0.00     0.211 C 
ATOM     36  O   UNL     1      -1.538   4.455 -28.124  1.00  0.00    -0.294 OA
ATOM     37  C   UNL     1      -0.802   2.406 -27.110  1.00  0.00     0.131 C 
BRANCH  30  38
ATOM     38  O   UNL     1       0.107   6.690 -27.791  1.00  0.00    -0.507 OA
ATOM     39  H   UNL     1       0.235   7.592 -28.171  1.00  0.00     0.293 HD
ENDBRANCH  30  38
BRANCH  35  40
ATOM     40  C   UNL     1       0.142   0.030 -27.445  1.00  0.00    -0.003 A 
ATOM     41  C   UNL     1      -1.133  -0.491 -27.297  1.00  0.00     0.057 A 
ATOM     42  C   UNL     1       1.203  -0.645 -26.776  1.00  0.00     0.011 A 
ATOM     43  C   UNL     1      -1.440  -1.354 -26.250  1.00  0.00     0.158 A 
ATOM     44  C   UNL     1       0.916  -1.549 -25.740  1.00  0.00     0.051 A 
ATOM     45  C   UNL     1      -0.411  -1.807 -25.428  1.00  0.00     0.160 A 
BRANCH  43  46
ATOM     46  O   UNL     1      -2.745  -1.750 -26.055  1.00  0.00    -0.504 OA
ATOM     47  H   UNL     1      -3.515  -1.090 -26.091  1.00  0.00     0.293 HD
ENDBRANCH  43  46
BRANCH  45  48
ATOM     48  O   UNL     1      -0.704  -2.512 -24.275  1.00  0.00    -0.493 OA
ATOM     49  C   UNL     1       0.207  -3.385 -23.662  1.00  0.00     0.278 C 
ENDBRANCH  45  48
ENDBRANCH  35  40
ENDBRANCH  26  27
ENDBRANCH   5  26
BRANCH   4  50
ATOM     50  O   UNL     1       2.520   4.597 -24.801  1.00  0.00    -0.384 OA
ATOM     51  H   UNL     1       1.596   4.916 -25.038  1.00  0.00     0.211 HD
ENDBRANCH   4  50
TORSDOF 15
ENDMDL
MODEL 9
REMARK VINA RESULT:    -5.349      1.862      3.241
REMARK INTER + INTRA:         -10.534
REMARK INTER:                  -8.186
REMARK INTRA:                  -2.348
REMARK UNBOUND:                -1.746
REMARK SMILES COc1ccc([C@H]2CC(=O)c3c(O)cc(O[C@@H]4O[C@H](CO[C@@H]5O[C@H](C)[C@H](O)[C@@H](O)[C@@H]5O)[C@@H](O)[C@@H](O)[C@@H]4O)cc3O2)cc1O
REMARK SMILES IDX 19 1 32 2 34 3 36 4 17 5 18 6 20 7 21 8 22 9 25 10 24 11
REMARK SMILES IDX 26 12 23 13 28 14 30 15 27 16 29 18 31 20 33 22 35 24 16 26
REMARK SMILES IDX 15 27 14 28 38 29 12 30 39 31 11 32 40 33 9 34 7 35 10 36
REMARK SMILES IDX 8 37 13 38 6 40 41 41 5 42 42 43 4 44 3 45 43 46 2 48 1 49
REMARK SMILES IDX 37 50
REMARK H PARENT 27 17 29 19 31 21 33 23 35 25 13 39 43 47 37 51
REMARK Flexibility Score: inf
ROOT
ATOM      1  C   UNL     1       0.852   4.500 -26.940  1.00  0.00     0.180 C 
ATOM      2  C   UNL     1       0.062   5.801 -27.324  1.00  0.00     0.177 C 
ATOM      3  C   UNL     1       0.818   7.076 -26.937  1.00  0.00     0.180 C 
ATOM      4  C   UNL     1       2.304   6.834 -26.703  1.00  0.00     0.214 C 
ATOM      5  C   UNL     1       2.451   5.729 -25.615  1.00  0.00     0.339 C 
ATOM      6  O   UNL     1       1.532   4.631 -25.708  1.00  0.00    -0.332 OA
ENDROOT
BRANCH   1   7
ATOM      7  C   UNL     1       1.695   3.803 -28.050  1.00  0.00     0.198 C 
BRANCH   7   8
ATOM      8  O   UNL     1       1.577   2.365 -28.125  1.00  0.00    -0.347 OA
BRANCH   8   9
ATOM      9  C   UNL     1       2.544   1.721 -27.268  1.00  0.00     0.281 C 
ATOM     10  C   UNL     1       6.285   1.920 -27.370  1.00  0.00     0.041 C 
ATOM     11  C   UNL     1       4.863   1.339 -27.006  1.00  0.00     0.150 C 
ATOM     12  C   UNL     1       4.836  -0.225 -27.164  1.00  0.00     0.174 C 
ATOM     13  O   UNL     1       3.824   2.000 -27.778  1.00  0.00    -0.344 OA
ATOM     14  C   UNL     1       3.467  -0.662 -27.666  1.00  0.00     0.179 C 
ATOM     15  C   UNL     1       2.332   0.171 -27.022  1.00  0.00     0.202 C 
BRANCH  12  16
ATOM     16  O   UNL     1       5.819  -0.706 -28.084  1.00  0.00    -0.388 OA
ATOM     17  H   UNL     1       6.498  -1.197 -27.530  1.00  0.00     0.211 HD
ENDBRANCH  12  16
BRANCH  14  18
ATOM     18  O   UNL     1       3.245  -2.028 -27.388  1.00  0.00    -0.387 OA
ATOM     19  H   UNL     1       2.260  -2.190 -27.390  1.00  0.00     0.211 HD
ENDBRANCH  14  18
BRANCH  15  20
ATOM     20  O   UNL     1       1.173  -0.334 -27.524  1.00  0.00    -0.385 OA
ATOM     21  H   UNL     1       1.177  -0.179 -28.497  1.00  0.00     0.211 HD
ENDBRANCH  15  20
ENDBRANCH   8   9
ENDBRANCH   7   8
ENDBRANCH   1   7
BRANCH   2  22
ATOM     22  O   UNL     1      -1.239   5.733 -26.707  1.00  0.00    -0.387 OA
ATOM     23  H   UNL     1      -1.854   6.277 -27.273  1.00  0.00     0.211 HD
ENDBRANCH   2  22
BRANCH   3  24
ATOM     24  O   UNL     1       0.242   7.618 -25.744  1.00  0.00    -0.387 OA
ATOM     25  H   UNL     1      -0.332   6.879 -25.318  1.00  0.00     0.211 HD
ENDBRANCH   3  24
BRANCH   5  26
ATOM     26  O   UNL     1       3.788   5.224 -25.461  1.00  0.00    -0.462 OA
BRANCH  26  27
ATOM     27  C   UNL     1       4.153   4.335 -24.424  1.00  0.00     0.130 A 
ATOM     28  C   UNL     1       5.344   4.587 -23.727  1.00  0.00     0.093 A 
ATOM     29  C   UNL     1       3.478   3.155 -24.196  1.00  0.00     0.094 A 
ATOM     30  C   UNL     1       6.001   3.543 -23.044  1.00  0.00     0.133 A 
ATOM     31  C   UNL     1       4.090   2.107 -23.528  1.00  0.00     0.138 A 
ATOM     32  C   UNL     1       5.388   2.282 -22.967  1.00  0.00     0.102 A 
ATOM     33  O   UNL     1       3.485   0.848 -23.533  1.00  0.00    -0.484 OA
ATOM     34  C   UNL     1       6.066   1.062 -22.468  1.00  0.00     0.174 C 
ATOM     35  C   UNL     1       4.013  -0.227 -22.748  1.00  0.00     0.211 C 
ATOM     36  O   UNL     1       7.005   1.143 -21.626  1.00  0.00    -0.294 OA
ATOM     37  C   UNL     1       5.545  -0.284 -22.892  1.00  0.00     0.131 C 
BRANCH  30  38
ATOM     38  O   UNL     1       7.259   3.784 -22.502  1.00  0.00    -0.507 OA
ATOM     39  H   UNL     1       8.058   4.079 -23.002  1.00  0.00     0.293 HD
ENDBRANCH  30  38
BRANCH  35  40
ATOM     40  C   UNL     1       3.312  -1.568 -22.995  1.00  0.00    -0.003 A 
ATOM     41  C   UNL     1       2.690  -1.780 -24.214  1.00  0.00     0.057 A 
ATOM     42  C   UNL     1       2.811  -2.290 -21.873  1.00  0.00     0.011 A 
ATOM     43  C   UNL     1       1.412  -2.327 -24.283  1.00  0.00     0.158 A 
ATOM     44  C   UNL     1       1.539  -2.882 -21.932  1.00  0.00     0.051 A 
ATOM     45  C   UNL     1       0.817  -2.797 -23.115  1.00  0.00     0.160 A 
BRANCH  43  46
ATOM     46  O   UNL     1       0.770  -2.403 -25.500  1.00  0.00    -0.504 OA
ATOM     47  H   UNL     1       1.079  -1.866 -26.302  1.00  0.00     0.293 HD
ENDBRANCH  43  46
BRANCH  45  48
ATOM     48  O   UNL     1      -0.513  -3.173 -23.116  1.00  0.00    -0.493 OA
ATOM     49  C   UNL     1      -0.960  -4.394 -23.642  1.00  0.00     0.278 C 
ENDBRANCH  45  48
ENDBRANCH  35  40
ENDBRANCH  26  27
ENDBRANCH   5  26
BRANCH   4  50
ATOM     50  O   UNL     1       3.038   6.533 -27.873  1.00  0.00    -0.384 OA
ATOM     51  H   UNL     1       2.925   7.261 -28.557  1.00  0.00     0.211 HD
ENDBRANCH   4  50
TORSDOF 15
ENDMDL
