MODEL 1
REMARK VINA RESULT:    -4.974      0.000      0.000
REMARK INTER + INTRA:          -5.355
REMARK INTER:                  -5.265
REMARK INTRA:                  -0.090
REMARK UNBOUND:                -0.090
REMARK SMILES C=C(C)[C@@H]1CC=C(C)C(=O)C1
REMARK SMILES IDX 8 1 7 2 6 3 5 4 4 5 11 6 9 7 10 8 2 9 1 10 3 11
REMARK H PARENT
REMARK Flexibility Score: inf
ROOT
ATOM      1  C   UNL     1      20.295  -0.197   7.684  1.00  0.00     0.048 C 
ATOM      2  C   UNL     1      21.389  -1.218   7.824  1.00  0.00    -0.012 C 
ATOM      3  C   UNL     1      22.663  -0.872   7.572  1.00  0.00    -0.019 C 
ATOM      4  C   UNL     1      23.800  -1.850   7.714  1.00  0.00     0.036 C 
ATOM      5  C   UNL     1      23.346  -3.282   7.373  1.00  0.00     0.025 C 
ATOM      6  C   UNL     1      22.126  -3.675   8.228  1.00  0.00     0.089 C 
ATOM      7  C   UNL     1      21.048  -2.632   8.122  1.00  0.00     0.158 C 
ATOM      8  O   UNL     1      19.850  -2.965   8.325  1.00  0.00    -0.295 OA
ENDROOT
BRANCH   5   9
ATOM      9  C   UNL     1      24.483  -4.284   7.522  1.00  0.00    -0.077 C 
ATOM     10  C   UNL     1      25.411  -4.437   6.561  1.00  0.00     0.008 C 
ATOM     11  C   UNL     1      24.585  -5.131   8.765  1.00  0.00     0.039 C 
ENDBRANCH   5   9
TORSDOF 1
ENDMDL
MODEL 2
REMARK VINA RESULT:    -4.881      2.332      3.315
REMARK INTER + INTRA:          -5.256
REMARK INTER:                  -5.159
REMARK INTRA:                  -0.097
REMARK UNBOUND:                -0.090
REMARK SMILES C=C(C)[C@@H]1CC=C(C)C(=O)C1
REMARK SMILES IDX 8 1 7 2 6 3 5 4 4 5 11 6 9 7 10 8 2 9 1 10 3 11
REMARK H PARENT
REMARK Flexibility Score: inf
ROOT
ATOM      1  C   UNL     1      23.695  -0.697   7.369  1.00  0.00     0.048 C 
ATOM      2  C   UNL     1      23.572  -2.161   7.690  1.00  0.00    -0.012 C 
ATOM      3  C   UNL     1      22.539  -2.599   8.430  1.00  0.00    -0.019 C 
ATOM      4  C   UNL     1      22.357  -4.057   8.765  1.00  0.00     0.036 C 
ATOM      5  C   UNL     1      23.717  -4.766   8.908  1.00  0.00     0.025 C 
ATOM      6  C   UNL     1      24.565  -4.559   7.639  1.00  0.00     0.089 C 
ATOM      7  C   UNL     1      24.653  -3.098   7.293  1.00  0.00     0.158 C 
ATOM      8  O   UNL     1      25.640  -2.683   6.629  1.00  0.00    -0.295 OA
ENDROOT
BRANCH   5   9
ATOM      9  C   UNL     1      23.550  -6.243   9.237  1.00  0.00    -0.077 C 
ATOM     10  C   UNL     1      24.193  -7.193   8.535  1.00  0.00     0.008 C 
ATOM     11  C   UNL     1      22.648  -6.669  10.367  1.00  0.00     0.039 C 
ENDBRANCH   5   9
TORSDOF 1
ENDMDL
MODEL 3
REMARK VINA RESULT:    -4.801      1.628      2.745
REMARK INTER + INTRA:          -5.171
REMARK INTER:                  -5.079
REMARK INTRA:                  -0.092
REMARK UNBOUND:                -0.090
REMARK SMILES C=C(C)[C@@H]1CC=C(C)C(=O)C1
REMARK SMILES IDX 8 1 7 2 6 3 5 4 4 5 11 6 9 7 10 8 2 9 1 10 3 11
REMARK H PARENT
REMARK Flexibility Score: inf
ROOT
ATOM      1  C   UNL     1      23.714  -1.170   6.611  1.00  0.00     0.048 C 
ATOM      2  C   UNL     1      23.692  -2.451   7.398  1.00  0.00    -0.012 C 
ATOM      3  C   UNL     1      24.739  -3.291   7.337  1.00  0.00    -0.019 C 
ATOM      4  C   UNL     1      24.778  -4.579   8.119  1.00  0.00     0.036 C 
ATOM      5  C   UNL     1      23.365  -5.173   8.277  1.00  0.00     0.025 C 
ATOM      6  C   UNL     1      22.415  -4.136   8.905  1.00  0.00     0.089 C 
ATOM      7  C   UNL     1      22.469  -2.841   8.142  1.00  0.00     0.158 C 
ATOM      8  O   UNL     1      21.472  -2.070   8.173  1.00  0.00    -0.295 OA
ENDROOT
BRANCH   5   9
ATOM      9  C   UNL     1      23.387  -6.470   9.075  1.00  0.00    -0.077 C 
ATOM     10  C   UNL     1      24.068  -7.546   8.641  1.00  0.00     0.008 C 
ATOM     11  C   UNL     1      22.637  -6.569  10.378  1.00  0.00     0.039 C 
ENDBRANCH   5   9
TORSDOF 1
ENDMDL
MODEL 4
REMARK VINA RESULT:    -4.792      1.429      1.860
REMARK INTER + INTRA:          -5.161
REMARK INTER:                  -5.065
REMARK INTRA:                  -0.096
REMARK UNBOUND:                -0.090
REMARK SMILES C=C(C)[C@@H]1CC=C(C)C(=O)C1
REMARK SMILES IDX 8 1 7 2 6 3 5 4 4 5 11 6 9 7 10 8 2 9 1 10 3 11
REMARK H PARENT
REMARK Flexibility Score: inf
ROOT
ATOM      1  C   UNL     1      21.286  -1.524   6.212  1.00  0.00     0.048 C 
ATOM      2  C   UNL     1      22.200  -2.571   6.789  1.00  0.00    -0.012 C 
ATOM      3  C   UNL     1      23.356  -2.865   6.169  1.00  0.00    -0.019 C 
ATOM      4  C   UNL     1      24.315  -3.891   6.714  1.00  0.00     0.036 C 
ATOM      5  C   UNL     1      23.564  -5.021   7.442  1.00  0.00     0.025 C 
ATOM      6  C   UNL     1      22.650  -4.437   8.537  1.00  0.00     0.089 C 
ATOM      7  C   UNL     1      21.767  -3.360   7.969  1.00  0.00     0.158 C 
ATOM      8  O   UNL     1      20.667  -3.110   8.531  1.00  0.00    -0.295 OA
ENDROOT
BRANCH   5   9
ATOM      9  C   UNL     1      24.522  -6.061   8.007  1.00  0.00    -0.077 C 
ATOM     10  C   UNL     1      25.836  -6.029   7.721  1.00  0.00     0.008 C 
ATOM     11  C   UNL     1      24.006  -7.157   8.904  1.00  0.00     0.039 C 
ENDBRANCH   5   9
TORSDOF 1
ENDMDL
MODEL 5
REMARK VINA RESULT:    -4.783      2.340      4.586
REMARK INTER + INTRA:          -5.153
REMARK INTER:                  -5.059
REMARK INTRA:                  -0.094
REMARK UNBOUND:                -0.090
REMARK SMILES C=C(C)[C@@H]1CC=C(C)C(=O)C1
REMARK SMILES IDX 8 1 7 2 6 3 5 4 4 5 11 6 9 7 10 8 2 9 1 10 3 11
REMARK H PARENT
REMARK Flexibility Score: inf
ROOT
ATOM      1  C   UNL     1      23.835  -7.387   8.737  1.00  0.00     0.048 C 
ATOM      2  C   UNL     1      23.633  -6.008   8.171  1.00  0.00    -0.012 C 
ATOM      3  C   UNL     1      23.551  -4.951   8.997  1.00  0.00    -0.019 C 
ATOM      4  C   UNL     1      23.367  -3.547   8.482  1.00  0.00     0.036 C 
ATOM      5  C   UNL     1      22.530  -3.536   7.189  1.00  0.00     0.025 C 
ATOM      6  C   UNL     1      23.160  -4.467   6.135  1.00  0.00     0.089 C 
ATOM      7  C   UNL     1      23.402  -5.834   6.715  1.00  0.00     0.158 C 
ATOM      8  O   UNL     1      23.444  -6.829   5.942  1.00  0.00    -0.295 OA
ENDROOT
BRANCH   5   9
ATOM      9  C   UNL     1      22.344  -2.124   6.651  1.00  0.00    -0.077 C 
ATOM     10  C   UNL     1      23.317  -1.202   6.756  1.00  0.00     0.008 C 
ATOM     11  C   UNL     1      21.049  -1.732   5.985  1.00  0.00     0.039 C 
ENDBRANCH   5   9
TORSDOF 1
ENDMDL
MODEL 6
REMARK VINA RESULT:    -4.734      2.358      3.955
REMARK INTER + INTRA:          -5.100
REMARK INTER:                  -5.003
REMARK INTRA:                  -0.098
REMARK UNBOUND:                -0.090
REMARK SMILES C=C(C)[C@@H]1CC=C(C)C(=O)C1
REMARK SMILES IDX 8 1 7 2 6 3 5 4 4 5 11 6 9 7 10 8 2 9 1 10 3 11
REMARK H PARENT
REMARK Flexibility Score: inf
ROOT
ATOM      1  C   UNL     1      24.449  -2.484   6.835  1.00  0.00     0.048 C 
ATOM      2  C   UNL     1      24.332  -3.787   7.577  1.00  0.00    -0.012 C 
ATOM      3  C   UNL     1      25.195  -4.784   7.317  1.00  0.00    -0.019 C 
ATOM      4  C   UNL     1      25.135  -6.103   8.043  1.00  0.00     0.036 C 
ATOM      5  C   UNL     1      23.685  -6.464   8.416  1.00  0.00     0.025 C 
ATOM      6  C   UNL     1      23.040  -5.322   9.224  1.00  0.00     0.089 C 
ATOM      7  C   UNL     1      23.194  -4.012   8.502  1.00  0.00     0.158 C 
ATOM      8  O   UNL     1      22.363  -3.089   8.722  1.00  0.00    -0.295 OA
ENDROOT
BRANCH   5   9
ATOM      9  C   UNL     1      23.609  -7.791   9.160  1.00  0.00    -0.077 C 
ATOM     10  C   UNL     1      22.702  -7.997  10.131  1.00  0.00     0.008 C 
ATOM     11  C   UNL     1      24.563  -8.906   8.816  1.00  0.00     0.039 C 
ENDBRANCH   5   9
TORSDOF 1
ENDMDL
MODEL 7
REMARK VINA RESULT:    -4.546      1.926      4.425
REMARK INTER + INTRA:          -4.902
REMARK INTER:                  -4.813
REMARK INTRA:                  -0.089
REMARK UNBOUND:                -0.090
REMARK SMILES C=C(C)[C@@H]1CC=C(C)C(=O)C1
REMARK SMILES IDX 8 1 7 2 6 3 5 4 4 5 11 6 9 7 10 8 2 9 1 10 3 11
REMARK H PARENT
REMARK Flexibility Score: inf
ROOT
ATOM      1  C   UNL     1      24.719  -7.299   8.386  1.00  0.00     0.048 C 
ATOM      2  C   UNL     1      24.153  -5.967   7.979  1.00  0.00    -0.012 C 
ATOM      3  C   UNL     1      24.587  -5.370   6.855  1.00  0.00    -0.019 C 
ATOM      4  C   UNL     1      24.041  -4.045   6.392  1.00  0.00     0.036 C 
ATOM      5  C   UNL     1      23.648  -3.159   7.590  1.00  0.00     0.025 C 
ATOM      6  C   UNL     1      22.664  -3.907   8.509  1.00  0.00     0.089 C 
ATOM      7  C   UNL     1      23.211  -5.258   8.881  1.00  0.00     0.158 C 
ATOM      8  O   UNL     1      22.830  -5.800   9.953  1.00  0.00    -0.295 OA
ENDROOT
BRANCH   5   9
ATOM      9  C   UNL     1      23.084  -1.818   7.137  1.00  0.00    -0.077 C 
ATOM     10  C   UNL     1      23.674  -0.660   7.481  1.00  0.00     0.008 C 
ATOM     11  C   UNL     1      21.841  -1.770   6.286  1.00  0.00     0.039 C 
ENDBRANCH   5   9
TORSDOF 1
ENDMDL
MODEL 8
REMARK VINA RESULT:    -4.528      3.151      5.937
REMARK INTER + INTRA:          -4.883
REMARK INTER:                  -4.786
REMARK INTRA:                  -0.097
REMARK UNBOUND:                -0.090
REMARK SMILES C=C(C)[C@@H]1CC=C(C)C(=O)C1
REMARK SMILES IDX 8 1 7 2 6 3 5 4 4 5 11 6 9 7 10 8 2 9 1 10 3 11
REMARK H PARENT
REMARK Flexibility Score: inf
ROOT
ATOM      1  C   UNL     1      25.503  -9.920   8.815  1.00  0.00     0.048 C 
ATOM      2  C   UNL     1      25.125  -8.503   8.480  1.00  0.00    -0.012 C 
ATOM      3  C   UNL     1      25.997  -7.715   7.827  1.00  0.00    -0.019 C 
ATOM      4  C   UNL     1      25.663  -6.294   7.451  1.00  0.00     0.036 C 
ATOM      5  C   UNL     1      24.728  -5.651   8.492  1.00  0.00     0.025 C 
ATOM      6  C   UNL     1      23.468  -6.515   8.686  1.00  0.00     0.089 C 
ATOM      7  C   UNL     1      23.845  -7.941   8.979  1.00  0.00     0.158 C 
ATOM      8  O   UNL     1      23.041  -8.669   9.622  1.00  0.00    -0.295 OA
ENDROOT
BRANCH   5   9
ATOM      9  C   UNL     1      24.374  -4.217   8.120  1.00  0.00    -0.077 C 
ATOM     10  C   UNL     1      23.414  -3.541   8.776  1.00  0.00     0.008 C 
ATOM     11  C   UNL     1      25.103  -3.526   6.996  1.00  0.00     0.039 C 
ENDBRANCH   5   9
TORSDOF 1
ENDMDL
MODEL 9
REMARK VINA RESULT:    -4.512      2.186      4.417
REMARK INTER + INTRA:          -4.865
REMARK INTER:                  -4.767
REMARK INTRA:                  -0.098
REMARK UNBOUND:                -0.090
REMARK SMILES C=C(C)[C@@H]1CC=C(C)C(=O)C1
REMARK SMILES IDX 8 1 7 2 6 3 5 4 4 5 11 6 9 7 10 8 2 9 1 10 3 11
REMARK H PARENT
REMARK Flexibility Score: inf
ROOT
ATOM      1  C   UNL     1      26.844  -2.522   6.012  1.00  0.00     0.048 C 
ATOM      2  C   UNL     1      25.374  -2.380   6.294  1.00  0.00    -0.012 C 
ATOM      3  C   UNL     1      24.829  -1.156   6.404  1.00  0.00    -0.019 C 
ATOM      4  C   UNL     1      23.359  -0.957   6.668  1.00  0.00     0.036 C 
ATOM      5  C   UNL     1      22.793  -2.094   7.539  1.00  0.00     0.025 C 
ATOM      6  C   UNL     1      23.090  -3.461   6.894  1.00  0.00     0.089 C 
ATOM      7  C   UNL     1      24.554  -3.586   6.572  1.00  0.00     0.158 C 
ATOM      8  O   UNL     1      25.071  -4.734   6.504  1.00  0.00    -0.295 OA
ENDROOT
BRANCH   5   9
ATOM      9  C   UNL     1      21.305  -1.911   7.806  1.00  0.00    -0.077 C 
ATOM     10  C   UNL     1      20.522  -2.951   8.147  1.00  0.00     0.008 C 
ATOM     11  C   UNL     1      20.678  -0.546   7.688  1.00  0.00     0.039 C 
ENDBRANCH   5   9
TORSDOF 1
ENDMDL
