MODEL 1
REMARK VINA RESULT:    -4.817      0.000      0.000
REMARK INTER + INTRA:          -5.603
REMARK INTER:                  -5.521
REMARK INTRA:                  -0.082
REMARK UNBOUND:                -0.082
REMARK SMILES COc1cc(C(=O)[O-])ccc1O
REMARK SMILES IDX 5 1 9 2 4 3 10 4 3 5 11 6 6 7 7 8 8 9 2 10 1 11 12 12
REMARK H PARENT 12 13
REMARK Flexibility Score: inf
ROOT
ATOM      1  C   UNL     1      27.163 -25.631  22.398  1.00  0.00     0.001 A 
ATOM      2  C   UNL     1      27.634 -26.823  22.971  1.00  0.00     0.014 A 
ATOM      3  C   UNL     1      25.882 -25.163  22.748  1.00  0.00     0.060 A 
ATOM      4  C   UNL     1      26.843 -27.534  23.875  1.00  0.00     0.051 A 
ATOM      5  C   UNL     1      25.081 -25.877  23.661  1.00  0.00     0.161 A 
ATOM      6  C   UNL     1      25.570 -27.065  24.222  1.00  0.00     0.157 A 
ENDROOT
BRANCH   1   7
ATOM      7  C   UNL     1      28.006 -24.882  21.440  1.00  0.00     0.072 C 
ATOM      8  O   UNL     1      27.495 -24.340  20.423  1.00  0.00    -0.545 OA
ATOM      9  O   UNL     1      29.376 -24.767  21.647  1.00  0.00    -0.545 OA
ENDBRANCH   1   7
BRANCH   5  10
ATOM     10  O   UNL     1      23.800 -25.441  24.034  1.00  0.00    -0.493 OA
ATOM     11  C   UNL     1      23.385 -24.079  24.051  1.00  0.00     0.278 C 
ENDBRANCH   5  10
BRANCH   6  12
ATOM     12  O   UNL     1      24.781 -27.776  25.125  1.00  0.00    -0.504 OA
ATOM     13  H   UNL     1      25.138 -28.064  26.029  1.00  0.00     0.293 HD
ENDBRANCH   6  12
TORSDOF 3
ENDMDL
MODEL 2
REMARK VINA RESULT:    -4.600      2.181      5.275
REMARK INTER + INTRA:          -5.353
REMARK INTER:                  -5.251
REMARK INTRA:                  -0.103
REMARK UNBOUND:                -0.082
REMARK SMILES COc1cc(C(=O)[O-])ccc1O
REMARK SMILES IDX 5 1 9 2 4 3 10 4 3 5 11 6 6 7 7 8 8 9 2 10 1 11 12 12
REMARK H PARENT 12 13
REMARK Flexibility Score: inf
ROOT
ATOM      1  C   UNL     1      27.497 -26.159  22.731  1.00  0.00     0.001 A 
ATOM      2  C   UNL     1      27.621 -25.169  21.743  1.00  0.00     0.014 A 
ATOM      3  C   UNL     1      28.644 -26.570  23.436  1.00  0.00     0.060 A 
ATOM      4  C   UNL     1      28.866 -24.601  21.464  1.00  0.00     0.051 A 
ATOM      5  C   UNL     1      29.901 -25.999  23.158  1.00  0.00     0.161 A 
ATOM      6  C   UNL     1      30.004 -25.012  22.167  1.00  0.00     0.157 A 
ENDROOT
BRANCH   1   7
ATOM      7  C   UNL     1      26.175 -26.757  23.023  1.00  0.00     0.072 C 
ATOM      8  O   UNL     1      25.269 -26.769  22.146  1.00  0.00    -0.545 OA
ATOM      9  O   UNL     1      25.914 -27.313  24.269  1.00  0.00    -0.545 OA
ENDBRANCH   1   7
BRANCH   5  10
ATOM     10  O   UNL     1      31.067 -26.383  23.840  1.00  0.00    -0.493 OA
ATOM     11  C   UNL     1      31.802 -27.573  23.571  1.00  0.00     0.278 C 
ENDBRANCH   5  10
BRANCH   6  12
ATOM     12  O   UNL     1      31.246 -24.444  21.887  1.00  0.00    -0.504 OA
ATOM     13  H   UNL     1      31.434 -23.986  21.002  1.00  0.00     0.293 HD
ENDBRANCH   6  12
TORSDOF 3
ENDMDL
MODEL 3
REMARK VINA RESULT:    -4.521      2.371      3.443
REMARK INTER + INTRA:          -5.263
REMARK INTER:                  -5.221
REMARK INTRA:                  -0.042
REMARK UNBOUND:                -0.082
REMARK SMILES COc1cc(C(=O)[O-])ccc1O
REMARK SMILES IDX 5 1 9 2 4 3 10 4 3 5 11 6 6 7 7 8 8 9 2 10 1 11 12 12
REMARK H PARENT 12 13
REMARK Flexibility Score: inf
ROOT
ATOM      1  C   UNL     1      29.487 -25.109  22.504  1.00  0.00     0.001 A 
ATOM      2  C   UNL     1      28.656 -24.631  21.479  1.00  0.00     0.014 A 
ATOM      3  C   UNL     1      29.019 -26.137  23.342  1.00  0.00     0.060 A 
ATOM      4  C   UNL     1      27.380 -25.169  21.295  1.00  0.00     0.051 A 
ATOM      5  C   UNL     1      27.734 -26.684  23.159  1.00  0.00     0.161 A 
ATOM      6  C   UNL     1      26.918 -26.193  22.130  1.00  0.00     0.157 A 
ENDROOT
BRANCH   1   7
ATOM      7  C   UNL     1      30.839 -24.534  22.695  1.00  0.00     0.072 C 
ATOM      8  O   UNL     1      31.771 -24.809  21.893  1.00  0.00    -0.545 OA
ATOM      9  O   UNL     1      31.098 -23.684  23.763  1.00  0.00    -0.545 OA
ENDBRANCH   1   7
BRANCH   5  10
ATOM     10  O   UNL     1      27.232 -27.711  23.975  1.00  0.00    -0.493 OA
ATOM     11  C   UNL     1      26.418 -27.501  25.125  1.00  0.00     0.278 C 
ENDBRANCH   5  10
BRANCH   6  12
ATOM     12  O   UNL     1      25.645 -26.729  21.945  1.00  0.00    -0.504 OA
ATOM     13  H   UNL     1      25.247 -26.845  21.020  1.00  0.00     0.293 HD
ENDBRANCH   6  12
TORSDOF 3
ENDMDL
MODEL 4
REMARK VINA RESULT:    -4.429      1.278      1.418
REMARK INTER + INTRA:          -5.158
REMARK INTER:                  -5.083
REMARK INTRA:                  -0.075
REMARK UNBOUND:                -0.082
REMARK SMILES COc1cc(C(=O)[O-])ccc1O
REMARK SMILES IDX 5 1 9 2 4 3 10 4 3 5 11 6 6 7 7 8 8 9 2 10 1 11 12 12
REMARK H PARENT 12 13
REMARK Flexibility Score: inf
ROOT
ATOM      1  C   UNL     1      26.883 -25.100  22.221  1.00  0.00     0.001 A 
ATOM      2  C   UNL     1      26.523 -26.450  22.361  1.00  0.00     0.014 A 
ATOM      3  C   UNL     1      26.289 -24.142  23.064  1.00  0.00     0.060 A 
ATOM      4  C   UNL     1      25.588 -26.836  23.324  1.00  0.00     0.051 A 
ATOM      5  C   UNL     1      25.346 -24.527  24.037  1.00  0.00     0.161 A 
ATOM      6  C   UNL     1      24.999 -25.881  24.161  1.00  0.00     0.157 A 
ENDROOT
BRANCH   1   7
ATOM      7  C   UNL     1      27.875 -24.697  21.199  1.00  0.00     0.072 C 
ATOM      8  O   UNL     1      27.502 -24.347  20.046  1.00  0.00    -0.545 OA
ATOM      9  O   UNL     1      29.233 -24.701  21.495  1.00  0.00    -0.545 OA
ENDBRANCH   1   7
BRANCH   5  10
ATOM     10  O   UNL     1      24.732 -23.601  24.895  1.00  0.00    -0.493 OA
ATOM     11  C   UNL     1      24.902 -22.189  24.810  1.00  0.00     0.278 C 
ENDBRANCH   5  10
BRANCH   6  12
ATOM     12  O   UNL     1      24.066 -26.267  25.121  1.00  0.00    -0.504 OA
ATOM     13  H   UNL     1      24.255 -26.174  26.113  1.00  0.00     0.293 HD
ENDBRANCH   6  12
TORSDOF 3
ENDMDL
MODEL 5
REMARK VINA RESULT:    -4.011      1.685      2.924
REMARK INTER + INTRA:          -4.679
REMARK INTER:                  -4.587
REMARK INTRA:                  -0.091
REMARK UNBOUND:                -0.082
REMARK SMILES COc1cc(C(=O)[O-])ccc1O
REMARK SMILES IDX 5 1 9 2 4 3 10 4 3 5 11 6 6 7 7 8 8 9 2 10 1 11 12 12
REMARK H PARENT 12 13
REMARK Flexibility Score: inf
ROOT
ATOM      1  C   UNL     1      28.015 -24.788  22.962  1.00  0.00     0.001 A 
ATOM      2  C   UNL     1      27.806 -23.401  22.942  1.00  0.00     0.014 A 
ATOM      3  C   UNL     1      26.940 -25.639  23.281  1.00  0.00     0.060 A 
ATOM      4  C   UNL     1      26.547 -22.872  23.234  1.00  0.00     0.051 A 
ATOM      5  C   UNL     1      25.668 -25.109  23.575  1.00  0.00     0.161 A 
ATOM      6  C   UNL     1      25.479 -23.720  23.549  1.00  0.00     0.157 A 
ENDROOT
BRANCH   1   7
ATOM      7  C   UNL     1      29.352 -25.344  22.652  1.00  0.00     0.072 C 
ATOM      8  O   UNL     1      30.127 -24.745  21.858  1.00  0.00    -0.545 OA
ATOM      9  O   UNL     1      29.771 -26.536  23.231  1.00  0.00    -0.545 OA
ENDBRANCH   1   7
BRANCH   5  10
ATOM     10  O   UNL     1      24.572 -25.926  23.897  1.00  0.00    -0.493 OA
ATOM     11  C   UNL     1      24.589 -26.940  24.896  1.00  0.00     0.278 C 
ENDBRANCH   5  10
BRANCH   6  12
ATOM     12  O   UNL     1      24.223 -23.191  23.840  1.00  0.00    -0.504 OA
ATOM     13  H   UNL     1      23.635 -22.791  23.118  1.00  0.00     0.293 HD
ENDBRANCH   6  12
TORSDOF 3
ENDMDL
MODEL 6
REMARK VINA RESULT:    -3.980      2.755      4.380
REMARK INTER + INTRA:          -4.643
REMARK INTER:                  -4.551
REMARK INTRA:                  -0.092
REMARK UNBOUND:                -0.082
REMARK SMILES COc1cc(C(=O)[O-])ccc1O
REMARK SMILES IDX 5 1 9 2 4 3 10 4 3 5 11 6 6 7 7 8 8 9 2 10 1 11 12 12
REMARK H PARENT 12 13
REMARK Flexibility Score: inf
ROOT
ATOM      1  C   UNL     1      28.143 -25.590  22.449  1.00  0.00     0.001 A 
ATOM      2  C   UNL     1      27.247 -26.647  22.675  1.00  0.00     0.014 A 
ATOM      3  C   UNL     1      29.468 -25.706  22.908  1.00  0.00     0.060 A 
ATOM      4  C   UNL     1      27.666 -27.797  23.348  1.00  0.00     0.051 A 
ATOM      5  C   UNL     1      29.895 -26.864  23.586  1.00  0.00     0.161 A 
ATOM      6  C   UNL     1      28.985 -27.909  23.803  1.00  0.00     0.157 A 
ENDROOT
BRANCH   1   7
ATOM      7  C   UNL     1      27.693 -24.374  21.735  1.00  0.00     0.072 C 
ATOM      8  O   UNL     1      27.528 -24.388  20.486  1.00  0.00    -0.545 OA
ATOM      9  O   UNL     1      27.449 -23.197  22.434  1.00  0.00    -0.545 OA
ENDBRANCH   1   7
BRANCH   5  10
ATOM     10  O   UNL     1      31.209 -27.015  24.059  1.00  0.00    -0.493 OA
ATOM     11  C   UNL     1      32.367 -27.020  23.231  1.00  0.00     0.278 C 
ENDBRANCH   5  10
BRANCH   6  12
ATOM     12  O   UNL     1      29.402 -29.057  24.474  1.00  0.00    -0.504 OA
ATOM     13  H   UNL     1      29.859 -29.820  23.987  1.00  0.00     0.293 HD
ENDBRANCH   6  12
TORSDOF 3
ENDMDL
MODEL 7
REMARK VINA RESULT:    -3.815     11.544     12.093
REMARK INTER + INTRA:          -4.454
REMARK INTER:                  -4.369
REMARK INTRA:                  -0.085
REMARK UNBOUND:                -0.082
REMARK SMILES COc1cc(C(=O)[O-])ccc1O
REMARK SMILES IDX 5 1 9 2 4 3 10 4 3 5 11 6 6 7 7 8 8 9 2 10 1 11 12 12
REMARK H PARENT 12 13
REMARK Flexibility Score: inf
ROOT
ATOM      1  C   UNL     1      23.071 -29.875  13.168  1.00  0.00     0.001 A 
ATOM      2  C   UNL     1      22.078 -29.561  12.228  1.00  0.00     0.014 A 
ATOM      3  C   UNL     1      23.144 -31.185  13.676  1.00  0.00     0.060 A 
ATOM      4  C   UNL     1      21.174 -30.537  11.802  1.00  0.00     0.051 A 
ATOM      5  C   UNL     1      22.235 -32.173  13.249  1.00  0.00     0.161 A 
ATOM      6  C   UNL     1      21.249 -31.840  12.309  1.00  0.00     0.157 A 
ENDROOT
BRANCH   1   7
ATOM      7  C   UNL     1      24.027 -28.836  13.615  1.00  0.00     0.072 C 
ATOM      8  O   UNL     1      23.773 -27.614  13.442  1.00  0.00    -0.545 OA
ATOM      9  O   UNL     1      25.220 -29.196  14.232  1.00  0.00    -0.545 OA
ENDBRANCH   1   7
BRANCH   5  10
ATOM     10  O   UNL     1      22.276 -33.490  13.733  1.00  0.00    -0.493 OA
ATOM     11  C   UNL     1      22.688 -33.853  15.047  1.00  0.00     0.278 C 
ENDBRANCH   5  10
BRANCH   6  12
ATOM     12  O   UNL     1      20.346 -32.812  11.883  1.00  0.00    -0.504 OA
ATOM     13  H   UNL     1      20.626 -33.559  11.257  1.00  0.00     0.293 HD
ENDBRANCH   6  12
TORSDOF 3
ENDMDL
MODEL 8
REMARK VINA RESULT:    -3.697      9.603     11.460
REMARK INTER + INTRA:          -4.319
REMARK INTER:                  -4.224
REMARK INTRA:                  -0.095
REMARK UNBOUND:                -0.082
REMARK SMILES COc1cc(C(=O)[O-])ccc1O
REMARK SMILES IDX 5 1 9 2 4 3 10 4 3 5 11 6 6 7 7 8 8 9 2 10 1 11 12 12
REMARK H PARENT 12 13
REMARK Flexibility Score: inf
ROOT
ATOM      1  C   UNL     1      35.315 -20.583  17.249  1.00  0.00     0.001 A 
ATOM      2  C   UNL     1      35.390 -21.314  16.053  1.00  0.00     0.014 A 
ATOM      3  C   UNL     1      34.940 -21.243  18.434  1.00  0.00     0.060 A 
ATOM      4  C   UNL     1      35.096 -22.679  16.041  1.00  0.00     0.051 A 
ATOM      5  C   UNL     1      34.643 -22.620  18.425  1.00  0.00     0.161 A 
ATOM      6  C   UNL     1      34.724 -23.333  17.221  1.00  0.00     0.157 A 
ENDROOT
BRANCH   1   7
ATOM      7  C   UNL     1      35.629 -19.136  17.256  1.00  0.00     0.072 C 
ATOM      8  O   UNL     1      35.863 -18.536  18.340  1.00  0.00    -0.545 OA
ATOM      9  O   UNL     1      35.667 -18.417  16.067  1.00  0.00    -0.545 OA
ENDBRANCH   1   7
BRANCH   5  10
ATOM     10  O   UNL     1      34.265 -23.313  19.587  1.00  0.00    -0.493 OA
ATOM     11  C   UNL     1      35.037 -23.360  20.783  1.00  0.00     0.278 C 
ENDBRANCH   5  10
BRANCH   6  12
ATOM     12  O   UNL     1      34.430 -24.696  17.207  1.00  0.00    -0.504 OA
ATOM     13  H   UNL     1      35.114 -25.383  16.910  1.00  0.00     0.293 HD
ENDBRANCH   6  12
TORSDOF 3
ENDMDL
MODEL 9
REMARK VINA RESULT:    -3.631     11.818     12.222
REMARK INTER + INTRA:          -4.244
REMARK INTER:                  -4.140
REMARK INTRA:                  -0.104
REMARK UNBOUND:                -0.082
REMARK SMILES COc1cc(C(=O)[O-])ccc1O
REMARK SMILES IDX 5 1 9 2 4 3 10 4 3 5 11 6 6 7 7 8 8 9 2 10 1 11 12 12
REMARK H PARENT 12 13
REMARK Flexibility Score: inf
ROOT
ATOM      1  C   UNL     1      23.151 -29.887  13.167  1.00  0.00     0.001 A 
ATOM      2  C   UNL     1      23.373 -31.228  13.518  1.00  0.00     0.014 A 
ATOM      3  C   UNL     1      22.040 -29.564  12.366  1.00  0.00     0.060 A 
ATOM      4  C   UNL     1      22.503 -32.227  13.078  1.00  0.00     0.051 A 
ATOM      5  C   UNL     1      21.159 -30.570  11.920  1.00  0.00     0.161 A 
ATOM      6  C   UNL     1      21.398 -31.903  12.282  1.00  0.00     0.157 A 
ENDROOT
BRANCH   1   7
ATOM      7  C   UNL     1      24.077 -28.831  13.637  1.00  0.00     0.072 C 
ATOM      8  O   UNL     1      23.817 -27.615  13.434  1.00  0.00    -0.545 OA
ATOM      9  O   UNL     1      25.247 -29.168  14.306  1.00  0.00    -0.545 OA
ENDBRANCH   1   7
BRANCH   5  10
ATOM     10  O   UNL     1      20.041 -30.286  11.120  1.00  0.00    -0.493 OA
ATOM     11  C   UNL     1      18.816 -29.748  11.609  1.00  0.00     0.278 C 
ENDBRANCH   5  10
BRANCH   6  12
ATOM     12  O   UNL     1      20.531 -32.902  11.843  1.00  0.00    -0.504 OA
ATOM     13  H   UNL     1      19.562 -32.931  12.141  1.00  0.00     0.293 HD
ENDBRANCH   6  12
TORSDOF 3
ENDMDL
