MODEL 1
REMARK VINA RESULT:    -3.658      0.000      0.000
REMARK INTER + INTRA:          -3.883
REMARK INTER:                  -4.513
REMARK INTRA:                   0.630
REMARK UNBOUND:                 0.630
REMARK SMILES C=C1[C@H]2CC[C@@H]3[C@H]2C(C)(C)CCC[C@]13C
REMARK SMILES IDX 14 1 6 2 7 3 3 4 2 5 1 6 4 7 5 8 15 9 8 10 9 11 10 12 11 13
REMARK SMILES IDX 13 15 12 16
REMARK H PARENT
REMARK Flexibility Score: 80.00
ROOT
ATOM      1  C   UNL     1      30.171  10.270  32.994  1.00  0.00    -0.008 C 
ATOM      2  C   UNL     1      31.132  10.852  34.105  1.00  0.00     0.003 C 
ATOM      3  C   UNL     1      31.803   9.610  34.729  1.00  0.00     0.006 C 
ATOM      4  C   UNL     1      32.252   9.051  33.379  1.00  0.00     0.019 C 
ATOM      5  C   UNL     1      30.970   9.055  32.594  1.00  0.00    -0.068 C 
ATOM      6  C   UNL     1      30.650   8.173  31.639  1.00  0.00     0.009 C 
ATOM      7  C   UNL     1      33.101  10.228  32.842  1.00  0.00     0.008 C 
ATOM      8  C   UNL     1      32.387  11.470  33.431  1.00  0.00     0.005 C 
ATOM      9  C   UNL     1      29.977  11.222  31.782  1.00  0.00     0.016 C 
ENDROOT
BRANCH   3  10
ATOM     10  C   UNL     1      30.985   8.689  35.733  1.00  0.00    -0.032 C 
ATOM     11  C   UNL     1      31.254   7.185  35.473  1.00  0.00     0.011 C 
ATOM     12  C   UNL     1      31.500   8.978  37.171  1.00  0.00     0.011 C 
BRANCH  10  13
ATOM     13  C   UNL     1      29.455   8.969  35.783  1.00  0.00     0.007 CG0
ATOM     14  G   UNL     1      28.692   8.733  34.482  1.00  0.00     0.000 G0
ENDBRANCH  10  13
ENDBRANCH   3  10
BRANCH   1  15
ATOM     15  C   UNL     1      28.761   9.923  33.541  1.00  0.00     0.011 C 
BRANCH  15  16
ATOM     16  C   UNL     1      28.686   8.729  34.488  1.00  0.00     0.001 CG0
ATOM     17  G   UNL     1      29.452   8.966  35.787  1.00  0.00     0.000 G0
ENDBRANCH  15  16
ENDBRANCH   1  15
TORSDOF 0
ENDMDL
MODEL 2
REMARK VINA RESULT:    -3.542      1.357      4.055
REMARK INTER + INTRA:          -3.740
REMARK INTER:                  -4.376
REMARK INTRA:                   0.635
REMARK UNBOUND:                 0.630
REMARK SMILES C=C1[C@H]2CC[C@@H]3[C@H]2C(C)(C)CCC[C@]13C
REMARK SMILES IDX 14 1 6 2 7 3 3 4 2 5 1 6 4 7 5 8 15 9 8 10 9 11 10 12 11 13
REMARK SMILES IDX 13 15 12 16
REMARK H PARENT
REMARK Flexibility Score: 80.00
ROOT
ATOM      1  C   UNL     1      29.743   8.727  36.314  1.00  0.00    -0.008 C 
ATOM      2  C   UNL     1      29.606   7.504  35.323  1.00  0.00     0.003 C 
ATOM      3  C   UNL     1      30.862   7.585  34.429  1.00  0.00     0.006 C 
ATOM      4  C   UNL     1      31.823   7.656  35.615  1.00  0.00     0.019 C 
ATOM      5  C   UNL     1      31.246   8.785  36.422  1.00  0.00    -0.068 C 
ATOM      6  C   UNL     1      31.955   9.632  37.178  1.00  0.00     0.009 C 
ATOM      7  C   UNL     1      31.463   6.350  36.363  1.00  0.00     0.008 C 
ATOM      8  C   UNL     1      29.949   6.189  36.074  1.00  0.00     0.005 C 
ATOM      9  C   UNL     1      29.102   8.471  37.706  1.00  0.00     0.016 C 
ENDROOT
BRANCH   3  10
ATOM     10  C   UNL     1      30.945   8.678  33.278  1.00  0.00    -0.032 C 
ATOM     11  C   UNL     1      32.353   9.322  33.206  1.00  0.00     0.011 C 
ATOM     12  C   UNL     1      30.730   7.954  31.919  1.00  0.00     0.011 C 
BRANCH  10  13
ATOM     13  C   UNL     1      29.845   9.776  33.334  1.00  0.00     0.007 CG0
ATOM     14  G   UNL     1      29.852  10.663  34.577  1.00  0.00     0.000 G0
ENDBRANCH  10  13
ENDBRANCH   3  10
BRANCH   1  15
ATOM     15  C   UNL     1      29.118  10.030  35.749  1.00  0.00     0.011 C 
BRANCH  15  16
ATOM     16  C   UNL     1      29.848  10.665  34.570  1.00  0.00     0.001 CG0
ATOM     17  G   UNL     1      29.851   9.768  33.334  1.00  0.00     0.000 G0
ENDBRANCH  15  16
ENDBRANCH   1  15
TORSDOF 0
ENDMDL
MODEL 3
REMARK VINA RESULT:    -3.510      1.281      3.306
REMARK INTER + INTRA:          -3.701
REMARK INTER:                  -4.328
REMARK INTRA:                   0.626
REMARK UNBOUND:                 0.630
REMARK SMILES C=C1[C@H]2CC[C@@H]3[C@H]2C(C)(C)CCC[C@]13C
REMARK SMILES IDX 14 1 6 2 7 3 3 4 2 5 1 6 4 7 5 8 15 9 8 10 9 11 10 12 11 13
REMARK SMILES IDX 13 15 12 16
REMARK H PARENT
REMARK Flexibility Score: 80.00
ROOT
ATOM      1  C   UNL     1      30.596   7.918  34.666  1.00  0.00    -0.008 C 
ATOM      2  C   UNL     1      30.320   8.801  33.385  1.00  0.00     0.003 C 
ATOM      3  C   UNL     1      30.013  10.207  33.941  1.00  0.00     0.006 C 
ATOM      4  C   UNL     1      31.283  10.258  34.790  1.00  0.00     0.019 C 
ATOM      5  C   UNL     1      31.197   8.971  35.563  1.00  0.00    -0.068 C 
ATOM      6  C   UNL     1      31.665   8.785  36.803  1.00  0.00     0.009 C 
ATOM      7  C   UNL     1      32.369  10.051  33.708  1.00  0.00     0.008 C 
ATOM      8  C   UNL     1      31.667   9.127  32.682  1.00  0.00     0.005 C 
ATOM      9  C   UNL     1      31.609   6.766  34.418  1.00  0.00     0.016 C 
ENDROOT
BRANCH   3  10
ATOM     10  C   UNL     1      28.602  10.503  34.610  1.00  0.00    -0.032 C 
ATOM     11  C   UNL     1      28.747  11.376  35.882  1.00  0.00     0.011 C 
ATOM     12  C   UNL     1      27.765  11.341  33.604  1.00  0.00     0.011 C 
BRANCH  10  13
ATOM     13  C   UNL     1      27.740   9.243  34.909  1.00  0.00     0.007 CG0
ATOM     14  G   UNL     1      28.335   8.250  35.905  1.00  0.00     0.000 G0
ENDBRANCH  10  13
ENDBRANCH   3  10
BRANCH   1  15
ATOM     15  C   UNL     1      29.306   7.282  35.247  1.00  0.00     0.011 C 
BRANCH  15  16
ATOM     16  C   UNL     1      28.323   8.246  35.905  1.00  0.00     0.001 CG0
ATOM     17  G   UNL     1      27.731   9.243  34.911  1.00  0.00     0.000 G0
ENDBRANCH  15  16
ENDBRANCH   1  15
TORSDOF 0
ENDMDL
MODEL 4
REMARK VINA RESULT:    -3.495      1.560      3.983
REMARK INTER + INTRA:          -3.682
REMARK INTER:                  -4.319
REMARK INTRA:                   0.637
REMARK UNBOUND:                 0.630
REMARK SMILES C=C1[C@H]2CC[C@@H]3[C@H]2C(C)(C)CCC[C@]13C
REMARK SMILES IDX 14 1 6 2 7 3 3 4 2 5 1 6 4 7 5 8 15 9 8 10 9 11 10 12 11 13
REMARK SMILES IDX 13 15 12 16
REMARK H PARENT
REMARK Flexibility Score: 80.00
ROOT
ATOM      1  C   UNL     1      30.461   7.814  36.250  1.00  0.00    -0.008 C 
ATOM      2  C   UNL     1      31.654   8.850  36.268  1.00  0.00     0.003 C 
ATOM      3  C   UNL     1      31.300   9.870  35.166  1.00  0.00     0.006 C 
ATOM      4  C   UNL     1      29.898  10.129  35.717  1.00  0.00     0.019 C 
ATOM      5  C   UNL     1      29.343   8.737  35.835  1.00  0.00    -0.068 C 
ATOM      6  C   UNL     1      28.055   8.407  35.686  1.00  0.00     0.009 C 
ATOM      7  C   UNL     1      30.230  10.596  37.154  1.00  0.00     0.008 C 
ATOM      8  C   UNL     1      31.506   9.788  37.498  1.00  0.00     0.005 C 
ATOM      9  C   UNL     1      30.166   7.186  37.640  1.00  0.00     0.016 C 
ENDROOT
BRANCH   3  10
ATOM     10  C   UNL     1      31.489   9.480  33.637  1.00  0.00    -0.032 C 
ATOM     11  C   UNL     1      30.304   9.979  32.772  1.00  0.00     0.011 C 
ATOM     12  C   UNL     1      32.751  10.219  33.109  1.00  0.00     0.011 C 
BRANCH  10  13
ATOM     13  C   UNL     1      31.759   7.970  33.372  1.00  0.00     0.007 CG0
ATOM     14  G   UNL     1      30.640   7.014  33.777  1.00  0.00     0.000 G0
ENDBRANCH  10  13
ENDBRANCH   3  10
BRANCH   1  15
ATOM     15  C   UNL     1      30.694   6.647  35.255  1.00  0.00     0.011 C 
BRANCH  15  16
ATOM     16  C   UNL     1      30.651   7.013  33.774  1.00  0.00     0.001 CG0
ATOM     17  G   UNL     1      31.768   7.976  33.379  1.00  0.00     0.000 G0
ENDBRANCH  15  16
ENDBRANCH   1  15
TORSDOF 0
ENDMDL
MODEL 5
REMARK VINA RESULT:    -3.431      1.596      3.008
REMARK INTER + INTRA:          -3.603
REMARK INTER:                  -4.233
REMARK INTRA:                   0.629
REMARK UNBOUND:                 0.630
REMARK SMILES C=C1[C@H]2CC[C@@H]3[C@H]2C(C)(C)CCC[C@]13C
REMARK SMILES IDX 14 1 6 2 7 3 3 4 2 5 1 6 4 7 5 8 15 9 8 10 9 11 10 12 11 13
REMARK SMILES IDX 13 15 12 16
REMARK H PARENT
REMARK Flexibility Score: 80.00
ROOT
ATOM      1  C   UNL     1      31.381   9.271  33.975  1.00  0.00    -0.008 C 
ATOM      2  C   UNL     1      31.794   7.752  34.111  1.00  0.00     0.003 C 
ATOM      3  C   UNL     1      30.611   7.092  34.850  1.00  0.00     0.006 C 
ATOM      4  C   UNL     1      29.568   7.639  33.876  1.00  0.00     0.019 C 
ATOM      5  C   UNL     1      29.886   9.108  33.865  1.00  0.00    -0.068 C 
ATOM      6  C   UNL     1      28.991  10.089  33.692  1.00  0.00     0.009 C 
ATOM      7  C   UNL     1      30.088   7.066  32.536  1.00  0.00     0.008 C 
ATOM      8  C   UNL     1      31.624   7.046  32.738  1.00  0.00     0.005 C 
ATOM      9  C   UNL     1      31.953   9.957  32.704  1.00  0.00     0.016 C 
ENDROOT
BRANCH   3  10
ATOM     10  C   UNL     1      30.429   7.318  36.412  1.00  0.00    -0.032 C 
ATOM     11  C   UNL     1      28.941   7.535  36.786  1.00  0.00     0.011 C 
ATOM     12  C   UNL     1      30.871   6.015  37.136  1.00  0.00     0.011 C 
BRANCH  10  13
ATOM     13  C   UNL     1      31.314   8.444  37.021  1.00  0.00     0.007 CG0
ATOM     14  G   UNL     1      31.052   9.853  36.496  1.00  0.00     0.000 G0
ENDBRANCH  10  13
ENDBRANCH   3  10
BRANCH   1  15
ATOM     15  C   UNL     1      31.817  10.124  35.196  1.00  0.00     0.011 C 
BRANCH  15  16
ATOM     16  C   UNL     1      31.074   9.850  36.501  1.00  0.00     0.001 CG0
ATOM     17  G   UNL     1      31.318   8.437  37.025  1.00  0.00     0.000 G0
ENDBRANCH  15  16
ENDBRANCH   1  15
TORSDOF 0
ENDMDL
MODEL 6
REMARK VINA RESULT:    -3.408      6.107      8.374
REMARK INTER + INTRA:          -3.575
REMARK INTER:                  -4.213
REMARK INTRA:                   0.638
REMARK UNBOUND:                 0.630
REMARK SMILES C=C1[C@H]2CC[C@@H]3[C@H]2C(C)(C)CCC[C@]13C
REMARK SMILES IDX 14 1 6 2 7 3 3 4 2 5 1 6 4 7 5 8 15 9 8 10 9 11 10 12 11 13
REMARK SMILES IDX 13 15 12 16
REMARK H PARENT
REMARK Flexibility Score: 80.00
ROOT
ATOM      1  C   UNL     1      30.408   9.796  25.339  1.00  0.00    -0.008 C 
ATOM      2  C   UNL     1      30.536   9.128  26.765  1.00  0.00     0.003 C 
ATOM      3  C   UNL     1      29.177   9.399  27.444  1.00  0.00     0.006 C 
ATOM      4  C   UNL     1      28.368   8.835  26.276  1.00  0.00     0.019 C 
ATOM      5  C   UNL     1      28.931   9.595  25.107  1.00  0.00    -0.068 C 
ATOM      6  C   UNL     1      28.245   9.943  24.012  1.00  0.00     0.009 C 
ATOM      7  C   UNL     1      28.941   7.401  26.187  1.00  0.00     0.008 C 
ATOM      8  C   UNL     1      30.415   7.586  26.626  1.00  0.00     0.005 C 
ATOM      9  C   UNL     1      31.238   9.075  24.241  1.00  0.00     0.016 C 
ENDROOT
BRANCH   3  10
ATOM     10  C   UNL     1      28.848  10.848  28.007  1.00  0.00    -0.032 C 
ATOM     11  C   UNL     1      27.388  11.263  27.693  1.00  0.00     0.011 C 
ATOM     12  C   UNL     1      28.957  10.792  29.557  1.00  0.00     0.011 C 
BRANCH  10  13
ATOM     13  C   UNL     1      29.839  11.964  27.568  1.00  0.00     0.007 CG0
ATOM     14  G   UNL     1      29.897  12.250  26.069  1.00  0.00     0.000 G0
ENDBRANCH  10  13
ENDBRANCH   3  10
BRANCH   1  15
ATOM     15  C   UNL     1      30.831  11.289  25.334  1.00  0.00     0.011 C 
BRANCH  15  16
ATOM     16  C   UNL     1      29.899  12.250  26.066  1.00  0.00     0.001 CG0
ATOM     17  G   UNL     1      29.848  11.982  27.568  1.00  0.00     0.000 G0
ENDBRANCH  15  16
ENDBRANCH   1  15
TORSDOF 0
ENDMDL
MODEL 7
REMARK VINA RESULT:    -3.387      1.772      3.086
REMARK INTER + INTRA:          -3.549
REMARK INTER:                  -4.184
REMARK INTRA:                   0.635
REMARK UNBOUND:                 0.630
REMARK SMILES C=C1[C@H]2CC[C@@H]3[C@H]2C(C)(C)CCC[C@]13C
REMARK SMILES IDX 14 1 6 2 7 3 3 4 2 5 1 6 4 7 5 8 15 9 8 10 9 11 10 12 11 13
REMARK SMILES IDX 13 15 12 16
REMARK H PARENT
REMARK Flexibility Score: 80.00
ROOT
ATOM      1  C   UNL     1      30.497  10.018  32.383  1.00  0.00    -0.008 C 
ATOM      2  C   UNL     1      29.390   9.500  33.384  1.00  0.00     0.003 C 
ATOM      3  C   UNL     1      30.130   8.506  34.303  1.00  0.00     0.006 C 
ATOM      4  C   UNL     1      31.239   9.500  34.651  1.00  0.00     0.019 C 
ATOM      5  C   UNL     1      31.699   9.947  33.292  1.00  0.00    -0.068 C 
ATOM      6  C   UNL     1      32.950  10.308  32.983  1.00  0.00     0.009 C 
ATOM      7  C   UNL     1      30.413  10.666  35.244  1.00  0.00     0.008 C 
ATOM      8  C   UNL     1      29.091  10.601  34.439  1.00  0.00     0.005 C 
ATOM      9  C   UNL     1      30.262  11.475  31.898  1.00  0.00     0.016 C 
ENDROOT
BRANCH   3  10
ATOM     10  C   UNL     1      30.506   7.059  33.765  1.00  0.00    -0.032 C 
ATOM     11  C   UNL     1      31.929   6.638  34.211  1.00  0.00     0.011 C 
ATOM     12  C   UNL     1      29.529   6.041  34.416  1.00  0.00     0.011 C 
BRANCH  10  13
ATOM     13  C   UNL     1      30.335   6.865  32.230  1.00  0.00     0.007 CG0
ATOM     14  G   UNL     1      31.226   7.733  31.346  1.00  0.00     0.000 G0
ENDBRANCH  10  13
ENDBRANCH   3  10
BRANCH   1  15
ATOM     15  C   UNL     1      30.630   9.126  31.121  1.00  0.00     0.011 C 
BRANCH  15  16
ATOM     16  C   UNL     1      31.219   7.736  31.344  1.00  0.00     0.001 CG0
ATOM     17  G   UNL     1      30.331   6.861  32.225  1.00  0.00     0.000 G0
ENDBRANCH  15  16
ENDBRANCH   1  15
TORSDOF 0
ENDMDL
MODEL 8
REMARK VINA RESULT:    -3.372      2.167      3.993
REMARK INTER + INTRA:          -3.531
REMARK INTER:                  -4.155
REMARK INTRA:                   0.624
REMARK UNBOUND:                 0.630
REMARK SMILES C=C1[C@H]2CC[C@@H]3[C@H]2C(C)(C)CCC[C@]13C
REMARK SMILES IDX 14 1 6 2 7 3 3 4 2 5 1 6 4 7 5 8 15 9 8 10 9 11 10 12 11 13
REMARK SMILES IDX 13 15 12 16
REMARK H PARENT
REMARK Flexibility Score: 80.00
ROOT
ATOM      1  C   UNL     1      30.814   8.595  35.432  1.00  0.00    -0.008 C 
ATOM      2  C   UNL     1      31.511   7.852  36.640  1.00  0.00     0.003 C 
ATOM      3  C   UNL     1      30.427   7.791  37.736  1.00  0.00     0.006 C 
ATOM      4  C   UNL     1      29.381   7.175  36.807  1.00  0.00     0.019 C 
ATOM      5  C   UNL     1      29.397   8.124  35.641  1.00  0.00    -0.068 C 
ATOM      6  C   UNL     1      28.341   8.417  34.873  1.00  0.00     0.009 C 
ATOM      7  C   UNL     1      30.117   5.895  36.344  1.00  0.00     0.008 C 
ATOM      8  C   UNL     1      31.602   6.333  36.329  1.00  0.00     0.005 C 
ATOM      9  C   UNL     1      31.342   8.146  34.041  1.00  0.00     0.016 C 
ENDROOT
BRANCH   3  10
ATOM     10  C   UNL     1      30.072   9.095  38.572  1.00  0.00    -0.032 C 
ATOM     11  C   UNL     1      28.544   9.231  38.793  1.00  0.00     0.011 C 
ATOM     12  C   UNL     1      30.700   8.939  39.985  1.00  0.00     0.011 C 
BRANCH  10  13
ATOM     13  C   UNL     1      30.661  10.419  38.006  1.00  0.00     0.007 CG0
ATOM     14  G   UNL     1      30.177  10.821  36.615  1.00  0.00     0.000 G0
ENDBRANCH  10  13
ENDBRANCH   3  10
BRANCH   1  15
ATOM     15  C   UNL     1      30.965  10.138  35.508  1.00  0.00     0.011 C 
BRANCH  15  16
ATOM     16  C   UNL     1      30.187  10.831  36.622  1.00  0.00     0.001 CG0
ATOM     17  G   UNL     1      30.668  10.421  38.012  1.00  0.00     0.000 G0
ENDBRANCH  15  16
ENDBRANCH   1  15
TORSDOF 0
ENDMDL
MODEL 9
REMARK VINA RESULT:    -3.310      8.865     11.046
REMARK INTER + INTRA:          -3.454
REMARK INTER:                  -4.080
REMARK INTRA:                   0.626
REMARK UNBOUND:                 0.630
REMARK SMILES C=C1[C@H]2CC[C@@H]3[C@H]2C(C)(C)CCC[C@]13C
REMARK SMILES IDX 14 1 6 2 7 3 3 4 2 5 1 6 4 7 5 8 15 9 8 10 9 11 10 12 11 13
REMARK SMILES IDX 13 15 12 16
REMARK H PARENT
REMARK Flexibility Score: 80.00
ROOT
ATOM      1  C   UNL     1      31.062   9.899  22.223  1.00  0.00    -0.008 C 
ATOM      2  C   UNL     1      31.187   8.565  23.061  1.00  0.00     0.003 C 
ATOM      3  C   UNL     1      29.899   8.516  23.909  1.00  0.00     0.006 C 
ATOM      4  C   UNL     1      28.979   8.719  22.705  1.00  0.00     0.019 C 
ATOM      5  C   UNL     1      29.563   9.948  22.066  1.00  0.00    -0.068 C 
ATOM      6  C   UNL     1      28.865  10.872  21.394  1.00  0.00     0.009 C 
ATOM      7  C   UNL     1      29.391   7.522  21.816  1.00  0.00     0.008 C 
ATOM      8  C   UNL     1      30.896   7.348  22.140  1.00  0.00     0.005 C 
ATOM      9  C   UNL     1      31.757   9.826  20.836  1.00  0.00     0.016 C 
ENDROOT
BRANCH   3  10
ATOM     10  C   UNL     1      29.754   9.456  25.182  1.00  0.00    -0.032 C 
ATOM     11  C   UNL     1      28.330  10.060  25.284  1.00  0.00     0.011 C 
ATOM     12  C   UNL     1      29.941   8.575  26.449  1.00  0.00     0.011 C 
BRANCH  10  13
ATOM     13  C   UNL     1      30.830  10.574  25.300  1.00  0.00     0.007 CG0
ATOM     14  G   UNL     1      30.844  11.605  24.174  1.00  0.00     0.000 G0
ENDBRANCH  10  13
ENDBRANCH   3  10
BRANCH   1  15
ATOM     15  C   UNL     1      31.641  11.131  22.967  1.00  0.00     0.011 C 
BRANCH  15  16
ATOM     16  C   UNL     1      30.852  11.611  24.182  1.00  0.00     0.001 CG0
ATOM     17  G   UNL     1      30.828  10.578  25.306  1.00  0.00     0.000 G0
ENDBRANCH  15  16
ENDBRANCH   1  15
TORSDOF 0
ENDMDL
