MODEL 1
REMARK VINA RESULT:    -5.342      0.000      0.000
REMARK INTER + INTRA:          -6.023
REMARK INTER:                  -5.654
REMARK INTRA:                  -0.369
REMARK UNBOUND:                -0.369
REMARK SMILES CC1=CC[C@]23[C@@H]([C@@H](C(C)C)CC[C@@H]2C)[C@@H]13
REMARK SMILES IDX 14 1 13 2 12 3 11 4 7 5 6 6 5 7 15 8 2 9 3 10 4 11 1 12 8 13
REMARK SMILES IDX 9 14 10 15
REMARK H PARENT
REMARK Flexibility Score: inf
ROOT
ATOM      1  C   UNL     1      32.121  28.338  11.499  1.00  0.00     0.008 C 
ATOM      2  C   UNL     1      31.014  27.451  12.080  1.00  0.00    -0.007 C 
ATOM      3  C   UNL     1      29.616  27.870  11.529  1.00  0.00     0.004 C 
ATOM      4  C   UNL     1      28.454  26.901  11.917  1.00  0.00     0.004 C 
ATOM      5  C   UNL     1      28.827  25.381  11.889  1.00  0.00    -0.004 C 
ATOM      6  C   UNL     1      30.156  25.283  12.650  1.00  0.00     0.007 C 
ATOM      7  C   UNL     1      31.231  25.965  11.729  1.00  0.00    -0.013 C 
ATOM      8  C   UNL     1      31.503  24.657  12.465  1.00  0.00     0.025 C 
ATOM      9  C   UNL     1      31.593  23.615  11.406  1.00  0.00    -0.073 C 
ATOM     10  C   UNL     1      31.509  24.122  10.187  1.00  0.00    -0.027 C 
ATOM     11  C   UNL     1      31.344  25.599  10.220  1.00  0.00     0.035 C 
ATOM     12  C   UNL     1      31.768  22.155  11.687  1.00  0.00     0.039 C 
ENDROOT
BRANCH   5  13
ATOM     13  C   UNL     1      27.747  24.504  12.586  1.00  0.00    -0.014 C 
ATOM     14  C   UNL     1      28.395  23.496  13.552  1.00  0.00     0.007 C 
ATOM     15  C   UNL     1      26.885  23.742  11.566  1.00  0.00     0.007 C 
ENDBRANCH   5  13
TORSDOF 1
ENDMDL
MODEL 2
REMARK VINA RESULT:    -5.065      1.414      3.317
REMARK INTER + INTRA:          -5.730
REMARK INTER:                  -5.264
REMARK INTRA:                  -0.466
REMARK UNBOUND:                -0.369
REMARK SMILES CC1=CC[C@]23[C@@H]([C@@H](C(C)C)CC[C@@H]2C)[C@@H]13
REMARK SMILES IDX 14 1 13 2 12 3 11 4 7 5 6 6 5 7 15 8 2 9 3 10 4 11 1 12 8 13
REMARK SMILES IDX 9 14 10 15
REMARK H PARENT
REMARK Flexibility Score: inf
ROOT
ATOM      1  C   UNL     1      31.376  27.423  10.103  1.00  0.00     0.008 C 
ATOM      2  C   UNL     1      31.436  26.147  10.949  1.00  0.00    -0.007 C 
ATOM      3  C   UNL     1      32.125  26.418  12.323  1.00  0.00     0.004 C 
ATOM      4  C   UNL     1      32.057  25.221  13.324  1.00  0.00     0.004 C 
ATOM      5  C   UNL     1      30.701  24.440  13.327  1.00  0.00    -0.004 C 
ATOM      6  C   UNL     1      30.387  24.182  11.846  1.00  0.00     0.007 C 
ATOM      7  C   UNL     1      30.028  25.583  11.232  1.00  0.00    -0.013 C 
ATOM      8  C   UNL     1      29.227  24.326  10.912  1.00  0.00     0.025 C 
ATOM      9  C   UNL     1      27.899  24.525  11.554  1.00  0.00    -0.073 C 
ATOM     10  C   UNL     1      27.777  25.720  12.107  1.00  0.00    -0.027 C 
ATOM     11  C   UNL     1      29.011  26.531  11.934  1.00  0.00     0.035 C 
ATOM     12  C   UNL     1      26.816  23.491  11.564  1.00  0.00     0.039 C 
ENDROOT
BRANCH   5  13
ATOM     13  C   UNL     1      30.810  23.089  14.091  1.00  0.00    -0.014 C 
ATOM     14  C   UNL     1      32.097  22.338  13.705  1.00  0.00     0.007 C 
ATOM     15  C   UNL     1      29.598  22.182  13.822  1.00  0.00     0.007 C 
ENDBRANCH   5  13
TORSDOF 1
ENDMDL
MODEL 3
REMARK VINA RESULT:    -5.034      1.319      3.852
REMARK INTER + INTRA:          -5.697
REMARK INTER:                  -5.172
REMARK INTRA:                  -0.525
REMARK UNBOUND:                -0.369
REMARK SMILES CC1=CC[C@]23[C@@H]([C@@H](C(C)C)CC[C@@H]2C)[C@@H]13
REMARK SMILES IDX 14 1 13 2 12 3 11 4 7 5 6 6 5 7 15 8 2 9 3 10 4 11 1 12 8 13
REMARK SMILES IDX 9 14 10 15
REMARK H PARENT
REMARK Flexibility Score: inf
ROOT
ATOM      1  C   UNL     1      32.112  21.084  13.174  1.00  0.00     0.008 C 
ATOM      2  C   UNL     1      30.839  21.854  12.808  1.00  0.00    -0.007 C 
ATOM      3  C   UNL     1      29.889  21.981  14.039  1.00  0.00     0.004 C 
ATOM      4  C   UNL     1      28.658  22.914  13.808  1.00  0.00     0.004 C 
ATOM      5  C   UNL     1      28.956  24.206  12.978  1.00  0.00    -0.004 C 
ATOM      6  C   UNL     1      29.753  23.720  11.758  1.00  0.00     0.007 C 
ATOM      7  C   UNL     1      31.157  23.279  12.310  1.00  0.00    -0.013 C 
ATOM      8  C   UNL     1      31.005  24.089  11.027  1.00  0.00     0.025 C 
ATOM      9  C   UNL     1      31.564  25.434  11.337  1.00  0.00    -0.073 C 
ATOM     10  C   UNL     1      32.091  25.498  12.549  1.00  0.00    -0.027 C 
ATOM     11  C   UNL     1      31.971  24.200  13.266  1.00  0.00     0.035 C 
ATOM     12  C   UNL     1      31.544  26.585  10.380  1.00  0.00     0.039 C 
ENDROOT
BRANCH   5  13
ATOM     13  C   UNL     1      27.651  24.913  12.513  1.00  0.00    -0.014 C 
ATOM     14  C   UNL     1      26.855  24.022  11.543  1.00  0.00     0.007 C 
ATOM     15  C   UNL     1      27.943  26.262  11.834  1.00  0.00     0.007 C 
ENDBRANCH   5  13
TORSDOF 1
ENDMDL
MODEL 4
REMARK VINA RESULT:    -4.600      1.267      3.987
REMARK INTER + INTRA:          -5.238
REMARK INTER:                  -4.982
REMARK INTRA:                  -0.256
REMARK UNBOUND:                -0.369
REMARK SMILES CC1=CC[C@]23[C@@H]([C@@H](C(C)C)CC[C@@H]2C)[C@@H]13
REMARK SMILES IDX 14 1 13 2 12 3 11 4 7 5 6 6 5 7 15 8 2 9 3 10 4 11 1 12 8 13
REMARK SMILES IDX 9 14 10 15
REMARK H PARENT
REMARK Flexibility Score: inf
ROOT
ATOM      1  C   UNL     1      26.540  23.749  11.626  1.00  0.00     0.008 C 
ATOM      2  C   UNL     1      27.918  24.379  11.399  1.00  0.00    -0.007 C 
ATOM      3  C   UNL     1      27.945  25.859  11.892  1.00  0.00     0.004 C 
ATOM      4  C   UNL     1      29.361  26.518  11.877  1.00  0.00     0.004 C 
ATOM      5  C   UNL     1      30.530  25.577  12.320  1.00  0.00    -0.004 C 
ATOM      6  C   UNL     1      30.313  24.274  11.537  1.00  0.00     0.007 C 
ATOM      7  C   UNL     1      29.027  23.613  12.150  1.00  0.00    -0.013 C 
ATOM      8  C   UNL     1      30.274  22.804  11.809  1.00  0.00     0.025 C 
ATOM      9  C   UNL     1      30.839  22.371  13.116  1.00  0.00    -0.073 C 
ATOM     10  C   UNL     1      30.075  22.720  14.139  1.00  0.00    -0.027 C 
ATOM     11  C   UNL     1      28.862  23.453  13.690  1.00  0.00     0.035 C 
ATOM     12  C   UNL     1      32.123  21.617  13.259  1.00  0.00     0.039 C 
ENDROOT
BRANCH   5  13
ATOM     13  C   UNL     1      31.923  26.179  11.977  1.00  0.00    -0.014 C 
ATOM     14  C   UNL     1      32.109  27.554  12.642  1.00  0.00     0.007 C 
ATOM     15  C   UNL     1      32.125  26.322  10.459  1.00  0.00     0.007 C 
ENDBRANCH   5  13
TORSDOF 1
ENDMDL
MODEL 5
REMARK VINA RESULT:    -3.891      1.261      3.687
REMARK INTER + INTRA:          -4.487
REMARK INTER:                  -4.128
REMARK INTRA:                  -0.360
REMARK UNBOUND:                -0.369
REMARK SMILES CC1=CC[C@]23[C@@H]([C@@H](C(C)C)CC[C@@H]2C)[C@@H]13
REMARK SMILES IDX 14 1 13 2 12 3 11 4 7 5 6 6 5 7 15 8 2 9 3 10 4 11 1 12 8 13
REMARK SMILES IDX 9 14 10 15
REMARK H PARENT
REMARK Flexibility Score: inf
ROOT
ATOM      1  C   UNL     1      32.125  27.315   9.600  1.00  0.00     0.008 C 
ATOM      2  C   UNL     1      31.126  26.343  10.237  1.00  0.00    -0.007 C 
ATOM      3  C   UNL     1      31.820  25.452  11.312  1.00  0.00     0.004 C 
ATOM      4  C   UNL     1      30.839  24.567  12.146  1.00  0.00     0.004 C 
ATOM      5  C   UNL     1      29.490  25.260  12.530  1.00  0.00    -0.004 C 
ATOM      6  C   UNL     1      28.984  25.897  11.227  1.00  0.00     0.007 C 
ATOM      7  C   UNL     1      29.963  27.089  10.923  1.00  0.00    -0.013 C 
ATOM      8  C   UNL     1      28.451  27.217  10.766  1.00  0.00     0.025 C 
ATOM      9  C   UNL     1      28.016  28.151  11.841  1.00  0.00    -0.073 C 
ATOM     10  C   UNL     1      29.035  28.647  12.524  1.00  0.00    -0.027 C 
ATOM     11  C   UNL     1      30.334  28.125  12.025  1.00  0.00     0.035 C 
ATOM     12  C   UNL     1      26.586  28.500  12.112  1.00  0.00     0.039 C 
ENDROOT
BRANCH   5  13
ATOM     13  C   UNL     1      28.444  24.241  13.065  1.00  0.00    -0.014 C 
ATOM     14  C   UNL     1      29.097  22.877  13.349  1.00  0.00     0.007 C 
ATOM     15  C   UNL     1      27.279  24.047  12.079  1.00  0.00     0.007 C 
ENDBRANCH   5  13
TORSDOF 1
ENDMDL
MODEL 6
REMARK VINA RESULT:    -3.836      1.221      3.948
REMARK INTER + INTRA:          -4.430
REMARK INTER:                  -4.124
REMARK INTRA:                  -0.305
REMARK UNBOUND:                -0.369
REMARK SMILES CC1=CC[C@]23[C@@H]([C@@H](C(C)C)CC[C@@H]2C)[C@@H]13
REMARK SMILES IDX 14 1 13 2 12 3 11 4 7 5 6 6 5 7 15 8 2 9 3 10 4 11 1 12 8 13
REMARK SMILES IDX 9 14 10 15
REMARK H PARENT
REMARK Flexibility Score: inf
ROOT
ATOM      1  C   UNL     1      32.125  22.634  10.399  1.00  0.00     0.008 C 
ATOM      2  C   UNL     1      31.729  23.966  11.046  1.00  0.00    -0.007 C 
ATOM      3  C   UNL     1      31.919  25.150  10.048  1.00  0.00     0.004 C 
ATOM      4  C   UNL     1      31.360  26.517  10.556  1.00  0.00     0.004 C 
ATOM      5  C   UNL     1      30.005  26.426  11.335  1.00  0.00    -0.004 C 
ATOM      6  C   UNL     1      30.202  25.286  12.346  1.00  0.00     0.007 C 
ATOM      7  C   UNL     1      30.254  23.964  11.498  1.00  0.00    -0.013 C 
ATOM      8  C   UNL     1      29.471  24.064  12.803  1.00  0.00     0.025 C 
ATOM      9  C   UNL     1      28.036  23.984  12.414  1.00  0.00    -0.073 C 
ATOM     10  C   UNL     1      27.873  23.764  11.120  1.00  0.00    -0.027 C 
ATOM     11  C   UNL     1      29.178  23.662  10.414  1.00  0.00     0.035 C 
ATOM     12  C   UNL     1      26.902  24.126  13.381  1.00  0.00     0.039 C 
ENDROOT
BRANCH   5  13
ATOM     13  C   UNL     1      29.674  27.749  12.083  1.00  0.00    -0.014 C 
ATOM     14  C   UNL     1      28.280  28.271  11.691  1.00  0.00     0.007 C 
ATOM     15  C   UNL     1      30.719  28.842  11.800  1.00  0.00     0.007 C 
ENDBRANCH   5  13
TORSDOF 1
ENDMDL
MODEL 7
REMARK VINA RESULT:    -3.664      1.067      3.568
REMARK INTER + INTRA:          -4.247
REMARK INTER:                  -3.914
REMARK INTRA:                  -0.333
REMARK UNBOUND:                -0.369
REMARK SMILES CC1=CC[C@]23[C@@H]([C@@H](C(C)C)CC[C@@H]2C)[C@@H]13
REMARK SMILES IDX 14 1 13 2 12 3 11 4 7 5 6 6 5 7 15 8 2 9 3 10 4 11 1 12 8 13
REMARK SMILES IDX 9 14 10 15
REMARK H PARENT
REMARK Flexibility Score: inf
ROOT
ATOM      1  C   UNL     1      32.123  23.927   9.091  1.00  0.00     0.008 C 
ATOM      2  C   UNL     1      30.976  23.817  10.101  1.00  0.00    -0.007 C 
ATOM      3  C   UNL     1      31.317  22.792  11.226  1.00  0.00     0.004 C 
ATOM      4  C   UNL     1      30.288  22.758  12.401  1.00  0.00     0.004 C 
ATOM      5  C   UNL     1      29.731  24.156  12.829  1.00  0.00    -0.004 C 
ATOM      6  C   UNL     1      29.331  24.845  11.516  1.00  0.00     0.007 C 
ATOM      7  C   UNL     1      30.677  25.172  10.775  1.00  0.00    -0.013 C 
ATOM      8  C   UNL     1      29.525  26.169  10.849  1.00  0.00     0.025 C 
ATOM      9  C   UNL     1      30.008  27.272  11.725  1.00  0.00    -0.073 C 
ATOM     10  C   UNL     1      31.271  27.115  12.088  1.00  0.00    -0.027 C 
ATOM     11  C   UNL     1      31.854  25.872  11.517  1.00  0.00     0.035 C 
ATOM     12  C   UNL     1      29.164  28.435  12.143  1.00  0.00     0.039 C 
ENDROOT
BRANCH   5  13
ATOM     13  C   UNL     1      28.493  24.027  13.762  1.00  0.00    -0.014 C 
ATOM     14  C   UNL     1      28.547  22.721  14.575  1.00  0.00     0.007 C 
ATOM     15  C   UNL     1      27.174  24.074  12.971  1.00  0.00     0.007 C 
ENDBRANCH   5  13
TORSDOF 1
ENDMDL
MODEL 8
REMARK VINA RESULT:    -3.059      1.364      3.796
REMARK INTER + INTRA:          -3.607
REMARK INTER:                  -3.214
REMARK INTRA:                  -0.392
REMARK UNBOUND:                -0.369
REMARK SMILES CC1=CC[C@]23[C@@H]([C@@H](C(C)C)CC[C@@H]2C)[C@@H]13
REMARK SMILES IDX 14 1 13 2 12 3 11 4 7 5 6 6 5 7 15 8 2 9 3 10 4 11 1 12 8 13
REMARK SMILES IDX 9 14 10 15
REMARK H PARENT
REMARK Flexibility Score: inf
ROOT
ATOM      1  C   UNL     1      31.796  23.041  14.196  1.00  0.00     0.008 C 
ATOM      2  C   UNL     1      31.122  24.362  13.808  1.00  0.00    -0.007 C 
ATOM      3  C   UNL     1      32.125  25.309  13.081  1.00  0.00     0.004 C 
ATOM      4  C   UNL     1      31.475  26.597  12.481  1.00  0.00     0.004 C 
ATOM      5  C   UNL     1      30.067  26.383  11.831  1.00  0.00    -0.004 C 
ATOM      6  C   UNL     1      29.273  25.566  12.861  1.00  0.00     0.007 C 
ATOM      7  C   UNL     1      29.922  24.135  12.866  1.00  0.00    -0.013 C 
ATOM      8  C   UNL     1      28.411  24.344  12.887  1.00  0.00     0.025 C 
ATOM      9  C   UNL     1      27.924  23.866  11.564  1.00  0.00    -0.073 C 
ATOM     10  C   UNL     1      28.888  23.336  10.830  1.00  0.00    -0.027 C 
ATOM     11  C   UNL     1      30.196  23.372  11.536  1.00  0.00     0.035 C 
ATOM     12  C   UNL     1      26.499  23.963  11.117  1.00  0.00     0.039 C 
ENDROOT
BRANCH   5  13
ATOM     13  C   UNL     1      29.345  27.732  11.551  1.00  0.00    -0.014 C 
ATOM     14  C   UNL     1      29.956  28.870  12.388  1.00  0.00     0.007 C 
ATOM     15  C   UNL     1      27.838  27.645  11.844  1.00  0.00     0.007 C 
ENDBRANCH   5  13
TORSDOF 1
ENDMDL
MODEL 9
REMARK VINA RESULT:    -2.546      1.303      4.717
REMARK INTER + INTRA:          -3.064
REMARK INTER:                  -2.581
REMARK INTRA:                  -0.483
REMARK UNBOUND:                -0.369
REMARK SMILES CC1=CC[C@]23[C@@H]([C@@H](C(C)C)CC[C@@H]2C)[C@@H]13
REMARK SMILES IDX 14 1 13 2 12 3 11 4 7 5 6 6 5 7 15 8 2 9 3 10 4 11 1 12 8 13
REMARK SMILES IDX 9 14 10 15
REMARK H PARENT
REMARK Flexibility Score: inf
ROOT
ATOM      1  C   UNL     1      29.548  21.741  13.734  1.00  0.00     0.008 C 
ATOM      2  C   UNL     1      30.346  22.974  13.294  1.00  0.00    -0.007 C 
ATOM      3  C   UNL     1      31.400  22.599  12.208  1.00  0.00     0.004 C 
ATOM      4  C   UNL     1      32.125  23.823  11.564  1.00  0.00     0.004 C 
ATOM      5  C   UNL     1      31.211  25.066  11.300  1.00  0.00    -0.004 C 
ATOM      6  C   UNL     1      30.431  25.272  12.606  1.00  0.00     0.007 C 
ATOM      7  C   UNL     1      29.429  24.065  12.704  1.00  0.00    -0.013 C 
ATOM      8  C   UNL     1      29.015  25.495  13.034  1.00  0.00     0.025 C 
ATOM      9  C   UNL     1      28.067  25.894  11.958  1.00  0.00    -0.073 C 
ATOM     10  C   UNL     1      27.802  24.904  11.123  1.00  0.00    -0.027 C 
ATOM     11  C   UNL     1      28.533  23.664  11.495  1.00  0.00     0.035 C 
ATOM     12  C   UNL     1      27.471  27.262  11.839  1.00  0.00     0.039 C 
ENDROOT
BRANCH   5  13
ATOM     13  C   UNL     1      32.041  26.339  10.969  1.00  0.00    -0.014 C 
ATOM     14  C   UNL     1      32.123  27.277  12.186  1.00  0.00     0.007 C 
ATOM     15  C   UNL     1      31.451  27.112   9.777  1.00  0.00     0.007 C 
ENDBRANCH   5  13
TORSDOF 1
ENDMDL
