MODEL 1
REMARK VINA RESULT:    -4.735      0.000      0.000
REMARK INTER + INTRA:          -5.357
REMARK INTER:                  -5.289
REMARK INTRA:                  -0.068
REMARK UNBOUND:                -0.068
REMARK SMILES COc1cc2ccc(=O)oc2c(O)c1O
REMARK SMILES IDX 3 1 14 2 12 3 11 4 5 5 4 6 6 7 7 8 8 9 9 10 10 11 2 12 1 13
REMARK SMILES IDX 15 14 13 16
REMARK H PARENT 15 15 13 17
REMARK Flexibility Score: inf
ROOT
ATOM      1  C   UNL     1      -5.007  87.534  -8.275  1.00  0.00     0.165 A 
ATOM      2  C   UNL     1      -3.725  87.256  -7.764  1.00  0.00     0.204 A 
ATOM      3  C   UNL     1      -3.149  85.989  -7.940  1.00  0.00     0.205 A 
ATOM      4  C   UNL     1      -3.851  84.988  -8.629  1.00  0.00     0.184 A 
ATOM      5  C   UNL     1      -5.136  85.262  -9.143  1.00  0.00     0.025 A 
ATOM      6  C   UNL     1      -5.709  86.527  -8.967  1.00  0.00     0.062 A 
ATOM      7  C   UNL     1      -5.813  84.245  -9.827  1.00  0.00     0.020 A 
ATOM      8  C   UNL     1      -5.206  83.000  -9.979  1.00  0.00     0.094 A 
ATOM      9  C   UNL     1      -3.930  82.800  -9.445  1.00  0.00     0.336 A 
ATOM     10  O   UNL     1      -3.364  81.682  -9.571  1.00  0.00    -0.246 OA
ATOM     11  O   UNL     1      -3.308  83.783  -8.800  1.00  0.00    -0.419 OA
ENDROOT
BRANCH   1  12
ATOM     12  O   UNL     1      -5.550  88.814  -8.079  1.00  0.00    -0.493 OA
ATOM     13  C   UNL     1      -5.698  89.796  -9.099  1.00  0.00     0.278 C 
ENDBRANCH   1  12
BRANCH   2  14
ATOM     14  O   UNL     1      -3.004  88.233  -7.075  1.00  0.00    -0.502 OA
ATOM     15  H   UNL     1      -2.140  88.622  -7.434  1.00  0.00     0.293 HD
ENDBRANCH   2  14
BRANCH   3  16
ATOM     16  O   UNL     1      -1.875  85.744  -7.422  1.00  0.00    -0.502 OA
ATOM     17  H   UNL     1      -1.033  86.036  -7.903  1.00  0.00     0.293 HD
ENDBRANCH   3  16
TORSDOF 3
ENDMDL
MODEL 2
REMARK VINA RESULT:    -4.705      1.945      5.630
REMARK INTER + INTRA:          -5.323
REMARK INTER:                  -5.268
REMARK INTRA:                  -0.056
REMARK UNBOUND:                -0.068
REMARK SMILES COc1cc2ccc(=O)oc2c(O)c1O
REMARK SMILES IDX 3 1 14 2 12 3 11 4 5 5 4 6 6 7 7 8 8 9 9 10 10 11 2 12 1 13
REMARK SMILES IDX 15 14 13 16
REMARK H PARENT 15 15 13 17
REMARK Flexibility Score: inf
ROOT
ATOM      1  C   UNL     1      -2.987  82.649  -8.019  1.00  0.00     0.165 A 
ATOM      2  C   UNL     1      -3.723  83.287  -9.036  1.00  0.00     0.204 A 
ATOM      3  C   UNL     1      -3.933  84.673  -8.998  1.00  0.00     0.205 A 
ATOM      4  C   UNL     1      -3.410  85.434  -7.941  1.00  0.00     0.184 A 
ATOM      5  C   UNL     1      -2.673  84.799  -6.919  1.00  0.00     0.025 A 
ATOM      6  C   UNL     1      -2.464  83.415  -6.960  1.00  0.00     0.062 A 
ATOM      7  C   UNL     1      -2.163  85.581  -5.877  1.00  0.00     0.020 A 
ATOM      8  C   UNL     1      -2.395  86.956  -5.875  1.00  0.00     0.094 A 
ATOM      9  C   UNL     1      -3.133  87.518  -6.921  1.00  0.00     0.336 A 
ATOM     10  O   UNL     1      -3.354  88.757  -6.938  1.00  0.00    -0.246 OA
ATOM     11  O   UNL     1      -3.607  86.752  -7.899  1.00  0.00    -0.419 OA
ENDROOT
BRANCH   1  12
ATOM     12  O   UNL     1      -2.798  81.259  -8.093  1.00  0.00    -0.493 OA
ATOM     13  C   UNL     1      -2.973  80.359  -7.004  1.00  0.00     0.278 C 
ENDBRANCH   1  12
BRANCH   2  14
ATOM     14  O   UNL     1      -4.254  82.556 -10.100  1.00  0.00    -0.502 OA
ATOM     15  H   UNL     1      -5.182  82.149 -10.067  1.00  0.00     0.293 HD
ENDBRANCH   2  14
BRANCH   3  16
ATOM     16  O   UNL     1      -4.665  85.278 -10.022  1.00  0.00    -0.502 OA
ATOM     17  H   UNL     1      -4.793  84.839 -10.925  1.00  0.00     0.293 HD
ENDBRANCH   3  16
TORSDOF 3
ENDMDL
MODEL 3
REMARK VINA RESULT:    -4.526      9.910     11.691
REMARK INTER + INTRA:          -5.123
REMARK INTER:                  -5.060
REMARK INTRA:                  -0.062
REMARK UNBOUND:                -0.068
REMARK SMILES COc1cc2ccc(=O)oc2c(O)c1O
REMARK SMILES IDX 3 1 14 2 12 3 11 4 5 5 4 6 6 7 7 8 8 9 9 10 10 11 2 12 1 13
REMARK SMILES IDX 15 14 13 16
REMARK H PARENT 15 15 13 17
REMARK Flexibility Score: inf
ROOT
ATOM      1  C   UNL     1      -3.336  93.171 -19.037  1.00  0.00     0.165 A 
ATOM      2  C   UNL     1      -4.493  92.590 -19.590  1.00  0.00     0.204 A 
ATOM      3  C   UNL     1      -5.266  91.692 -18.839  1.00  0.00     0.205 A 
ATOM      4  C   UNL     1      -4.887  91.365 -17.528  1.00  0.00     0.184 A 
ATOM      5  C   UNL     1      -3.728  91.944 -16.969  1.00  0.00     0.025 A 
ATOM      6  C   UNL     1      -2.959  92.841 -17.720  1.00  0.00     0.062 A 
ATOM      7  C   UNL     1      -3.374  91.602 -15.659  1.00  0.00     0.020 A 
ATOM      8  C   UNL     1      -4.168  90.704 -14.947  1.00  0.00     0.094 A 
ATOM      9  C   UNL     1      -5.303  90.169 -15.564  1.00  0.00     0.336 A 
ATOM     10  O   UNL     1      -6.034  89.357 -14.938  1.00  0.00    -0.246 OA
ATOM     11  O   UNL     1      -5.618  90.512 -16.810  1.00  0.00    -0.419 OA
ENDROOT
BRANCH   1  12
ATOM     12  O   UNL     1      -2.589  94.066 -19.819  1.00  0.00    -0.493 OA
ATOM     13  C   UNL     1      -2.762  95.479 -19.820  1.00  0.00     0.278 C 
ENDBRANCH   1  12
BRANCH   2  14
ATOM     14  O   UNL     1      -4.894  92.897 -20.891  1.00  0.00    -0.502 OA
ATOM     15  H   UNL     1      -5.049  93.850 -21.199  1.00  0.00     0.293 HD
ENDBRANCH   2  14
BRANCH   3  16
ATOM     16  O   UNL     1      -6.409  91.133 -19.414  1.00  0.00    -0.502 OA
ATOM     17  H   UNL     1      -6.379  90.631 -20.293  1.00  0.00     0.293 HD
ENDBRANCH   3  16
TORSDOF 3
ENDMDL
MODEL 4
REMARK VINA RESULT:    -4.488      8.410     10.036
REMARK INTER + INTRA:          -5.081
REMARK INTER:                  -5.016
REMARK INTRA:                  -0.065
REMARK UNBOUND:                -0.068
REMARK SMILES COc1cc2ccc(=O)oc2c(O)c1O
REMARK SMILES IDX 3 1 14 2 12 3 11 4 5 5 4 6 6 7 7 8 8 9 9 10 10 11 2 12 1 13
REMARK SMILES IDX 15 14 13 16
REMARK H PARENT 15 15 13 17
REMARK Flexibility Score: inf
ROOT
ATOM      1  C   UNL     1      -5.441  90.694 -14.738  1.00  0.00     0.165 A 
ATOM      2  C   UNL     1      -4.035  90.656 -14.681  1.00  0.00     0.204 A 
ATOM      3  C   UNL     1      -3.269  90.922 -15.825  1.00  0.00     0.205 A 
ATOM      4  C   UNL     1      -3.903  91.229 -17.039  1.00  0.00     0.184 A 
ATOM      5  C   UNL     1      -5.313  91.268 -17.102  1.00  0.00     0.025 A 
ATOM      6  C   UNL     1      -6.075  91.003 -15.958  1.00  0.00     0.062 A 
ATOM      7  C   UNL     1      -5.919  91.577 -18.325  1.00  0.00     0.020 A 
ATOM      8  C   UNL     1      -5.122  91.835 -19.439  1.00  0.00     0.094 A 
ATOM      9  C   UNL     1      -3.731  91.779 -19.304  1.00  0.00     0.336 A 
ATOM     10  O   UNL     1      -2.994  92.008 -20.298  1.00  0.00    -0.246 OA
ATOM     11  O   UNL     1      -3.180  91.484 -18.129  1.00  0.00    -0.419 OA
ENDROOT
BRANCH   1  12
ATOM     12  O   UNL     1      -6.173  90.422 -13.572  1.00  0.00    -0.493 OA
ATOM     13  C   UNL     1      -7.041  89.306 -13.402  1.00  0.00     0.278 C 
ENDBRANCH   1  12
BRANCH   2  14
ATOM     14  O   UNL     1      -3.378  90.354 -13.487  1.00  0.00    -0.502 OA
ATOM     15  H   UNL     1      -3.736  90.644 -12.584  1.00  0.00     0.293 HD
ENDBRANCH   2  14
BRANCH   3  16
ATOM     16  O   UNL     1      -1.876  90.878 -15.736  1.00  0.00    -0.502 OA
ATOM     17  H   UNL     1      -1.309  90.376 -16.408  1.00  0.00     0.293 HD
ENDBRANCH   3  16
TORSDOF 3
ENDMDL
MODEL 5
REMARK VINA RESULT:    -4.440      1.790      4.535
REMARK INTER + INTRA:          -5.027
REMARK INTER:                  -4.960
REMARK INTRA:                  -0.067
REMARK UNBOUND:                -0.068
REMARK SMILES COc1cc2ccc(=O)oc2c(O)c1O
REMARK SMILES IDX 3 1 14 2 12 3 11 4 5 5 4 6 6 7 7 8 8 9 9 10 10 11 2 12 1 13
REMARK SMILES IDX 15 14 13 16
REMARK H PARENT 15 15 13 17
REMARK Flexibility Score: inf
ROOT
ATOM      1  C   UNL     1      -6.579  84.412  -9.458  1.00  0.00     0.165 A 
ATOM      2  C   UNL     1      -5.370  83.712  -9.638  1.00  0.00     0.204 A 
ATOM      3  C   UNL     1      -4.172  84.216  -9.111  1.00  0.00     0.205 A 
ATOM      4  C   UNL     1      -4.171  85.426  -8.400  1.00  0.00     0.184 A 
ATOM      5  C   UNL     1      -5.380  86.132  -8.217  1.00  0.00     0.025 A 
ATOM      6  C   UNL     1      -6.574  85.626  -8.743  1.00  0.00     0.062 A 
ATOM      7  C   UNL     1      -5.350  87.335  -7.504  1.00  0.00     0.020 A 
ATOM      8  C   UNL     1      -4.139  87.802  -6.997  1.00  0.00     0.094 A 
ATOM      9  C   UNL     1      -2.980  87.050  -7.215  1.00  0.00     0.336 A 
ATOM     10  O   UNL     1      -1.876  87.454  -6.766  1.00  0.00    -0.246 OA
ATOM     11  O   UNL     1      -3.036  85.909  -7.896  1.00  0.00    -0.419 OA
ENDROOT
BRANCH   1  12
ATOM     12  O   UNL     1      -7.757  83.876 -10.000  1.00  0.00    -0.493 OA
ATOM     13  C   UNL     1      -8.684  83.067  -9.283  1.00  0.00     0.278 C 
ENDBRANCH   1  12
BRANCH   2  14
ATOM     14  O   UNL     1      -5.341  82.507 -10.340  1.00  0.00    -0.502 OA
ATOM     15  H   UNL     1      -5.556  82.452 -11.330  1.00  0.00     0.293 HD
ENDBRANCH   2  14
BRANCH   3  16
ATOM     16  O   UNL     1      -2.989  83.499  -9.304  1.00  0.00    -0.502 OA
ATOM     17  H   UNL     1      -2.650  83.258 -10.227  1.00  0.00     0.293 HD
ENDBRANCH   3  16
TORSDOF 3
ENDMDL
MODEL 6
REMARK VINA RESULT:    -4.294      1.606      5.420
REMARK INTER + INTRA:          -4.864
REMARK INTER:                  -4.800
REMARK INTRA:                  -0.064
REMARK UNBOUND:                -0.068
REMARK SMILES COc1cc2ccc(=O)oc2c(O)c1O
REMARK SMILES IDX 3 1 14 2 12 3 11 4 5 5 4 6 6 7 7 8 8 9 9 10 10 11 2 12 1 13
REMARK SMILES IDX 15 14 13 16
REMARK H PARENT 15 15 13 17
REMARK Flexibility Score: inf
ROOT
ATOM      1  C   UNL     1      -3.657  83.518  -8.900  1.00  0.00     0.165 A 
ATOM      2  C   UNL     1      -4.867  83.692  -9.597  1.00  0.00     0.204 A 
ATOM      3  C   UNL     1      -5.515  84.936  -9.597  1.00  0.00     0.205 A 
ATOM      4  C   UNL     1      -4.957  86.018  -8.898  1.00  0.00     0.184 A 
ATOM      5  C   UNL     1      -3.744  85.849  -8.198  1.00  0.00     0.025 A 
ATOM      6  C   UNL     1      -3.099  84.606  -8.200  1.00  0.00     0.062 A 
ATOM      7  C   UNL     1      -3.209  86.944  -7.510  1.00  0.00     0.020 A 
ATOM      8  C   UNL     1      -3.884  88.164  -7.534  1.00  0.00     0.094 A 
ATOM      9  C   UNL     1      -5.082  88.260  -8.250  1.00  0.00     0.336 A 
ATOM     10  O   UNL     1      -5.706  89.352  -8.284  1.00  0.00    -0.246 OA
ATOM     11  O   UNL     1      -5.567  87.203  -8.895  1.00  0.00    -0.419 OA
ENDROOT
BRANCH   1  12
ATOM     12  O   UNL     1      -3.038  82.257  -8.924  1.00  0.00    -0.493 OA
ATOM     13  C   UNL     1      -2.826  81.438  -7.779  1.00  0.00     0.278 C 
ENDBRANCH   1  12
BRANCH   2  14
ATOM     14  O   UNL     1      -5.445  82.634 -10.301  1.00  0.00    -0.502 OA
ATOM     15  H   UNL     1      -5.463  81.688  -9.936  1.00  0.00     0.293 HD
ENDBRANCH   2  14
BRANCH   3  16
ATOM     16  O   UNL     1      -6.714  85.079 -10.299  1.00  0.00    -0.502 OA
ATOM     17  H   UNL     1      -7.124  85.986 -10.484  1.00  0.00     0.293 HD
ENDBRANCH   3  16
TORSDOF 3
ENDMDL
MODEL 7
REMARK VINA RESULT:    -4.236      6.158      8.327
REMARK INTER + INTRA:          -4.799
REMARK INTER:                  -4.730
REMARK INTRA:                  -0.069
REMARK UNBOUND:                -0.068
REMARK SMILES COc1cc2ccc(=O)oc2c(O)c1O
REMARK SMILES IDX 3 1 14 2 12 3 11 4 5 5 4 6 6 7 7 8 8 9 9 10 10 11 2 12 1 13
REMARK SMILES IDX 15 14 13 16
REMARK H PARENT 15 15 13 17
REMARK Flexibility Score: inf
ROOT
ATOM      1  C   UNL     1      -5.992  89.623 -12.798  1.00  0.00     0.165 A 
ATOM      2  C   UNL     1      -5.212  90.630 -12.196  1.00  0.00     0.204 A 
ATOM      3  C   UNL     1      -4.433  91.490 -12.982  1.00  0.00     0.205 A 
ATOM      4  C   UNL     1      -4.425  91.352 -14.379  1.00  0.00     0.184 A 
ATOM      5  C   UNL     1      -5.204  90.345 -14.987  1.00  0.00     0.025 A 
ATOM      6  C   UNL     1      -5.982  89.487 -14.200  1.00  0.00     0.062 A 
ATOM      7  C   UNL     1      -5.178  90.229 -16.381  1.00  0.00     0.020 A 
ATOM      8  C   UNL     1      -4.389  91.104 -17.127  1.00  0.00     0.094 A 
ATOM      9  C   UNL     1      -3.643  92.079 -16.458  1.00  0.00     0.336 A 
ATOM     10  O   UNL     1      -2.925  92.879 -17.112  1.00  0.00    -0.246 OA
ATOM     11  O   UNL     1      -3.686  92.168 -15.131  1.00  0.00    -0.419 OA
ENDROOT
BRANCH   1  12
ATOM     12  O   UNL     1      -6.759  88.781 -11.977  1.00  0.00    -0.493 OA
ATOM     13  C   UNL     1      -8.154  88.934 -11.739  1.00  0.00     0.278 C 
ENDBRANCH   1  12
BRANCH   2  14
ATOM     14  O   UNL     1      -5.201  90.790 -10.809  1.00  0.00    -0.502 OA
ATOM     15  H   UNL     1      -5.169  90.001 -10.173  1.00  0.00     0.293 HD
ENDBRANCH   2  14
BRANCH   3  16
ATOM     16  O   UNL     1      -3.671  92.480 -12.357  1.00  0.00    -0.502 OA
ATOM     17  H   UNL     1      -2.673  92.382 -12.215  1.00  0.00     0.293 HD
ENDBRANCH   3  16
TORSDOF 3
ENDMDL
MODEL 8
REMARK VINA RESULT:    -4.205      6.244      8.690
REMARK INTER + INTRA:          -4.765
REMARK INTER:                  -4.697
REMARK INTRA:                  -0.068
REMARK UNBOUND:                -0.068
REMARK SMILES COc1cc2ccc(=O)oc2c(O)c1O
REMARK SMILES IDX 3 1 14 2 12 3 11 4 5 5 4 6 6 7 7 8 8 9 9 10 10 11 2 12 1 13
REMARK SMILES IDX 15 14 13 16
REMARK H PARENT 15 15 13 17
REMARK Flexibility Score: inf
ROOT
ATOM      1  C   UNL     1      -3.979  91.857 -15.766  1.00  0.00     0.165 A 
ATOM      2  C   UNL     1      -4.579  90.586 -15.844  1.00  0.00     0.204 A 
ATOM      3  C   UNL     1      -5.109  89.979 -14.696  1.00  0.00     0.205 A 
ATOM      4  C   UNL     1      -5.043  90.638 -13.459  1.00  0.00     0.184 A 
ATOM      5  C   UNL     1      -4.442  91.912 -13.376  1.00  0.00     0.025 A 
ATOM      6  C   UNL     1      -3.914  92.516 -14.523  1.00  0.00     0.062 A 
ATOM      7  C   UNL     1      -4.391  92.547 -12.130  1.00  0.00     0.020 A 
ATOM      8  C   UNL     1      -4.928  91.910 -11.013  1.00  0.00     0.094 A 
ATOM      9  C   UNL     1      -5.509  90.647 -11.169  1.00  0.00     0.336 A 
ATOM     10  O   UNL     1      -6.000  90.055 -10.173  1.00  0.00    -0.246 OA
ATOM     11  O   UNL     1      -5.546  90.066 -12.365  1.00  0.00    -0.419 OA
ENDROOT
BRANCH   1  12
ATOM     12  O   UNL     1      -3.459  92.433 -16.937  1.00  0.00    -0.493 OA
ATOM     13  C   UNL     1      -2.094  92.369 -17.334  1.00  0.00     0.278 C 
ENDBRANCH   1  12
BRANCH   2  14
ATOM     14  O   UNL     1      -4.658  89.907 -17.061  1.00  0.00    -0.502 OA
ATOM     15  H   UNL     1      -5.400  90.081 -17.730  1.00  0.00     0.293 HD
ENDBRANCH   2  14
BRANCH   3  16
ATOM     16  O   UNL     1      -5.699  88.718 -14.805  1.00  0.00    -0.502 OA
ATOM     17  H   UNL     1      -6.640  88.592 -15.157  1.00  0.00     0.293 HD
ENDBRANCH   3  16
TORSDOF 3
ENDMDL
MODEL 9
REMARK VINA RESULT:    -4.133      7.597      8.904
REMARK INTER + INTRA:          -4.685
REMARK INTER:                  -4.620
REMARK INTRA:                  -0.064
REMARK UNBOUND:                -0.068
REMARK SMILES COc1cc2ccc(=O)oc2c(O)c1O
REMARK SMILES IDX 3 1 14 2 12 3 11 4 5 5 4 6 6 7 7 8 8 9 9 10 10 11 2 12 1 13
REMARK SMILES IDX 15 14 13 16
REMARK H PARENT 15 15 13 17
REMARK Flexibility Score: inf
ROOT
ATOM      1  C   UNL     1     -13.090  84.580  -9.770  1.00  0.00     0.165 A 
ATOM      2  C   UNL     1     -13.325  83.290 -10.283  1.00  0.00     0.204 A 
ATOM      3  C   UNL     1     -12.671  82.177  -9.737  1.00  0.00     0.205 A 
ATOM      4  C   UNL     1     -11.774  82.343  -8.670  1.00  0.00     0.184 A 
ATOM      5  C   UNL     1     -11.534  83.634  -8.152  1.00  0.00     0.025 A 
ATOM      6  C   UNL     1     -12.188  84.744  -8.699  1.00  0.00     0.062 A 
ATOM      7  C   UNL     1     -10.634  83.771  -7.089  1.00  0.00     0.020 A 
ATOM      8  C   UNL     1     -10.004  82.639  -6.574  1.00  0.00     0.094 A 
ATOM      9  C   UNL     1     -10.290  81.391  -7.136  1.00  0.00     0.336 A 
ATOM     10  O   UNL     1      -9.732  80.357  -6.686  1.00  0.00    -0.246 OA
ATOM     11  O   UNL     1     -11.150  81.289  -8.146  1.00  0.00    -0.419 OA
ENDROOT
BRANCH   1  12
ATOM     12  O   UNL     1     -13.764  85.670 -10.343  1.00  0.00    -0.493 OA
ATOM     13  C   UNL     1     -14.701  86.494  -9.659  1.00  0.00     0.278 C 
ENDBRANCH   1  12
BRANCH   2  14
ATOM     14  O   UNL     1     -14.213  83.096 -11.343  1.00  0.00    -0.502 OA
ATOM     15  H   UNL     1     -14.047  83.481 -12.266  1.00  0.00     0.293 HD
ENDBRANCH   2  14
BRANCH   3  16
ATOM     16  O   UNL     1     -12.926  80.910 -10.266  1.00  0.00    -0.502 OA
ATOM     17  H   UNL     1     -13.680  80.742 -10.921  1.00  0.00     0.293 HD
ENDBRANCH   3  16
TORSDOF 3
ENDMDL
