MODEL 1
REMARK VINA RESULT:    -5.486      0.000      0.000
REMARK INTER + INTRA:          -6.803
REMARK INTER:                  -6.608
REMARK INTRA:                  -0.195
REMARK UNBOUND:                -0.195
REMARK SMILES O=c1c(O)c(-c2ccc(O)c(O)c2)oc2cc(O)cc(O)c12
REMARK SMILES IDX 5 1 3 2 2 3 1 4 22 5 20 6 19 7 17 8 16 9 15 10 14 11 6 12
REMARK SMILES IDX 7 13 8 14 9 15 13 16 11 17 10 18 12 20 4 22 21 24 18 26
REMARK H PARENT 10 19 12 21 4 23 21 25 18 27
REMARK Flexibility Score: inf
ROOT
ATOM      1  C   UNL     1      73.658  71.592  25.659  1.00  0.00     0.180 A 
ATOM      2  C   UNL     1      74.912  72.115  26.028  1.00  0.00     0.208 A 
ATOM      3  C   UNL     1      75.620  71.508  27.076  1.00  0.00     0.238 A 
ATOM      4  O   UNL     1      76.739  71.974  27.422  1.00  0.00    -0.285 OA
ATOM      5  C   UNL     1      75.075  70.380  27.723  1.00  0.00     0.111 A 
ATOM      6  C   UNL     1      75.725  69.706  28.785  1.00  0.00     0.134 A 
ATOM      7  C   UNL     1      75.122  68.584  29.371  1.00  0.00     0.093 A 
ATOM      8  C   UNL     1      73.884  68.123  28.917  1.00  0.00     0.123 A 
ATOM      9  C   UNL     1      73.236  68.784  27.869  1.00  0.00     0.094 A 
ATOM     10  C   UNL     1      73.821  69.905  27.273  1.00  0.00     0.146 A 
ATOM     11  O   UNL     1      73.182  70.517  26.282  1.00  0.00    -0.452 OA
ENDROOT
BRANCH   1  12
ATOM     12  C   UNL     1      72.843  72.189  24.577  1.00  0.00     0.025 A 
ATOM     13  C   UNL     1      71.656  72.865  24.900  1.00  0.00     0.016 A 
ATOM     14  C   UNL     1      70.882  73.454  23.897  1.00  0.00     0.051 A 
ATOM     15  C   UNL     1      71.288  73.390  22.561  1.00  0.00     0.157 A 
ATOM     16  C   UNL     1      73.261  72.144  23.235  1.00  0.00     0.062 A 
ATOM     17  C   UNL     1      72.485  72.736  22.227  1.00  0.00     0.158 A 
BRANCH  15  18
ATOM     18  O   UNL     1      70.493  73.984  21.581  1.00  0.00    -0.504 OA
ATOM     19  H   UNL     1      70.890  74.493  20.801  1.00  0.00     0.293 HD
ENDBRANCH  15  18
BRANCH  17  20
ATOM     20  O   UNL     1      72.904  72.681  20.898  1.00  0.00    -0.504 OA
ATOM     21  H   UNL     1      73.613  73.309  20.538  1.00  0.00     0.293 HD
ENDBRANCH  17  20
ENDBRANCH   1  12
BRANCH   2  22
ATOM     22  O   UNL     1      75.453  73.205  25.339  1.00  0.00    -0.502 OA
ATOM     23  H   UNL     1      75.863  73.999  25.815  1.00  0.00     0.293 HD
ENDBRANCH   2  22
BRANCH   6  24
ATOM     24  O   UNL     1      76.963  70.141  29.261  1.00  0.00    -0.507 OA
ATOM     25  H   UNL     1      77.719  69.495  29.453  1.00  0.00     0.293 HD
ENDBRANCH   6  24
BRANCH   8  26
ATOM     26  O   UNL     1      73.306  67.006  29.516  1.00  0.00    -0.508 OA
ATOM     27  H   UNL     1      72.684  67.093  30.311  1.00  0.00     0.293 HD
ENDBRANCH   8  26
TORSDOF 6
ENDMDL
MODEL 2
REMARK VINA RESULT:    -5.333      1.687      2.245
REMARK INTER + INTRA:          -6.620
REMARK INTER:                  -6.396
REMARK INTRA:                  -0.223
REMARK UNBOUND:                -0.195
REMARK SMILES O=c1c(O)c(-c2ccc(O)c(O)c2)oc2cc(O)cc(O)c12
REMARK SMILES IDX 5 1 3 2 2 3 1 4 22 5 20 6 19 7 17 8 16 9 15 10 14 11 6 12
REMARK SMILES IDX 7 13 8 14 9 15 13 16 11 17 10 18 12 20 4 22 21 24 18 26
REMARK H PARENT 10 19 12 21 4 23 21 25 18 27
REMARK Flexibility Score: inf
ROOT
ATOM      1  C   UNL     1      73.737  73.097  25.886  1.00  0.00     0.180 A 
ATOM      2  C   UNL     1      74.245  74.234  26.544  1.00  0.00     0.208 A 
ATOM      3  C   UNL     1      75.135  74.058  27.614  1.00  0.00     0.238 A 
ATOM      4  O   UNL     1      75.588  75.068  28.217  1.00  0.00    -0.285 OA
ATOM      5  C   UNL     1      75.518  72.755  27.995  1.00  0.00     0.111 A 
ATOM      6  C   UNL     1      76.413  72.491  29.060  1.00  0.00     0.134 A 
ATOM      7  C   UNL     1      76.752  71.166  29.372  1.00  0.00     0.093 A 
ATOM      8  C   UNL     1      76.216  70.103  28.642  1.00  0.00     0.123 A 
ATOM      9  C   UNL     1      75.330  70.357  27.590  1.00  0.00     0.094 A 
ATOM     10  C   UNL     1      74.979  71.670  27.264  1.00  0.00     0.146 A 
ATOM     11  O   UNL     1      74.132  71.884  26.263  1.00  0.00    -0.452 OA
ENDROOT
BRANCH   1  12
ATOM     12  C   UNL     1      72.780  73.200  24.762  1.00  0.00     0.025 A 
ATOM     13  C   UNL     1      71.467  73.628  25.010  1.00  0.00     0.016 A 
ATOM     14  C   UNL     1      70.552  73.753  23.962  1.00  0.00     0.051 A 
ATOM     15  C   UNL     1      70.938  73.466  22.649  1.00  0.00     0.157 A 
ATOM     16  C   UNL     1      73.172  72.932  23.438  1.00  0.00     0.062 A 
ATOM     17  C   UNL     1      72.255  73.057  22.383  1.00  0.00     0.158 A 
BRANCH  15  18
ATOM     18  O   UNL     1      70.002  73.596  21.623  1.00  0.00    -0.504 OA
ATOM     19  H   UNL     1      69.004  73.553  21.796  1.00  0.00     0.293 HD
ENDBRANCH  15  18
BRANCH  17  20
ATOM     20  O   UNL     1      72.651  72.783  21.075  1.00  0.00    -0.504 OA
ATOM     21  H   UNL     1      72.201  72.062  20.524  1.00  0.00     0.293 HD
ENDBRANCH  17  20
ENDBRANCH   1  12
BRANCH   2  22
ATOM     22  O   UNL     1      73.888  75.515  26.115  1.00  0.00    -0.502 OA
ATOM     23  H   UNL     1      74.008  76.335  26.697  1.00  0.00     0.293 HD
ENDBRANCH   2  22
BRANCH   6  24
ATOM     24  O   UNL     1      76.967  73.531  29.807  1.00  0.00    -0.507 OA
ATOM     25  H   UNL     1      77.952  73.552  30.046  1.00  0.00     0.293 HD
ENDBRANCH   6  24
BRANCH   8  26
ATOM     26  O   UNL     1      76.568  68.797  28.972  1.00  0.00    -0.508 OA
ATOM     27  H   UNL     1      76.117  68.302  29.733  1.00  0.00     0.293 HD
ENDBRANCH   8  26
TORSDOF 6
ENDMDL
MODEL 3
REMARK VINA RESULT:    -5.312      1.730      2.574
REMARK INTER + INTRA:          -6.593
REMARK INTER:                  -6.363
REMARK INTRA:                  -0.231
REMARK UNBOUND:                -0.195
REMARK SMILES O=c1c(O)c(-c2ccc(O)c(O)c2)oc2cc(O)cc(O)c12
REMARK SMILES IDX 5 1 3 2 2 3 1 4 22 5 20 6 19 7 17 8 16 9 15 10 14 11 6 12
REMARK SMILES IDX 7 13 8 14 9 15 13 16 11 17 10 18 12 20 4 22 21 24 18 26
REMARK H PARENT 10 19 12 21 4 23 21 25 18 27
REMARK Flexibility Score: inf
ROOT
ATOM      1  C   UNL     1      73.733  73.077  25.909  1.00  0.00     0.180 A 
ATOM      2  C   UNL     1      74.350  74.165  26.557  1.00  0.00     0.208 A 
ATOM      3  C   UNL     1      75.245  73.910  27.606  1.00  0.00     0.238 A 
ATOM      4  O   UNL     1      75.796  74.877  28.201  1.00  0.00    -0.285 OA
ATOM      5  C   UNL     1      75.525  72.579  27.977  1.00  0.00     0.111 A 
ATOM      6  C   UNL     1      76.419  72.237  29.020  1.00  0.00     0.134 A 
ATOM      7  C   UNL     1      76.652  70.887  29.323  1.00  0.00     0.093 A 
ATOM      8  C   UNL     1      76.011  69.875  28.603  1.00  0.00     0.123 A 
ATOM      9  C   UNL     1      75.126  70.207  27.572  1.00  0.00     0.094 A 
ATOM     10  C   UNL     1      74.880  71.546  27.257  1.00  0.00     0.146 A 
ATOM     11  O   UNL     1      74.032  71.834  26.276  1.00  0.00    -0.452 OA
ENDROOT
BRANCH   1  12
ATOM     12  C   UNL     1      72.762  73.264  24.807  1.00  0.00     0.025 A 
ATOM     13  C   UNL     1      73.090  72.824  23.516  1.00  0.00     0.016 A 
ATOM     14  C   UNL     1      72.182  72.972  22.465  1.00  0.00     0.051 A 
ATOM     15  C   UNL     1      70.927  73.547  22.690  1.00  0.00     0.157 A 
ATOM     16  C   UNL     1      71.492  73.823  25.037  1.00  0.00     0.062 A 
ATOM     17  C   UNL     1      70.577  73.971  23.983  1.00  0.00     0.158 A 
BRANCH  15  18
ATOM     18  O   UNL     1      70.042  73.684  21.621  1.00  0.00    -0.504 OA
ATOM     19  H   UNL     1      69.850  72.924  20.980  1.00  0.00     0.293 HD
ENDBRANCH  15  18
BRANCH  17  20
ATOM     20  O   UNL     1      69.323  74.532  24.218  1.00  0.00    -0.504 OA
ATOM     21  H   UNL     1      69.022  75.378  23.747  1.00  0.00     0.293 HD
ENDBRANCH  17  20
ENDBRANCH   1  12
BRANCH   2  22
ATOM     22  O   UNL     1      74.092  75.473  26.139  1.00  0.00    -0.502 OA
ATOM     23  H   UNL     1      73.262  75.722  25.614  1.00  0.00     0.293 HD
ENDBRANCH   2  22
BRANCH   6  24
ATOM     24  O   UNL     1      77.075  73.223  29.757  1.00  0.00    -0.507 OA
ATOM     25  H   UNL     1      76.648  73.659  30.566  1.00  0.00     0.293 HD
ENDBRANCH   6  24
BRANCH   8  26
ATOM     26  O   UNL     1      76.260  68.543  28.923  1.00  0.00    -0.508 OA
ATOM     27  H   UNL     1      76.650  67.898  28.245  1.00  0.00     0.293 HD
ENDBRANCH   8  26
TORSDOF 6
ENDMDL
MODEL 4
REMARK VINA RESULT:    -5.298      1.684      6.901
REMARK INTER + INTRA:          -6.577
REMARK INTER:                  -6.281
REMARK INTRA:                  -0.296
REMARK UNBOUND:                -0.195
REMARK SMILES O=c1c(O)c(-c2ccc(O)c(O)c2)oc2cc(O)cc(O)c12
REMARK SMILES IDX 5 1 3 2 2 3 1 4 22 5 20 6 19 7 17 8 16 9 15 10 14 11 6 12
REMARK SMILES IDX 7 13 8 14 9 15 13 16 11 17 10 18 12 20 4 22 21 24 18 26
REMARK H PARENT 10 19 12 21 4 23 21 25 18 27
REMARK Flexibility Score: inf
ROOT
ATOM      1  C   UNL     1      74.620  71.890  25.485  1.00  0.00     0.180 A 
ATOM      2  C   UNL     1      74.944  71.734  24.123  1.00  0.00     0.208 A 
ATOM      3  C   UNL     1      74.026  72.164  23.154  1.00  0.00     0.238 A 
ATOM      4  O   UNL     1      74.300  72.020  21.931  1.00  0.00    -0.285 OA
ATOM      5  C   UNL     1      72.812  72.757  23.558  1.00  0.00     0.111 A 
ATOM      6  C   UNL     1      71.835  73.221  22.645  1.00  0.00     0.134 A 
ATOM      7  C   UNL     1      70.656  73.809  23.125  1.00  0.00     0.093 A 
ATOM      8  C   UNL     1      70.436  73.944  24.499  1.00  0.00     0.123 A 
ATOM      9  C   UNL     1      71.398  73.487  25.406  1.00  0.00     0.094 A 
ATOM     10  C   UNL     1      72.578  72.897  24.946  1.00  0.00     0.146 A 
ATOM     11  O   UNL     1      73.473  72.467  25.829  1.00  0.00    -0.452 OA
ENDROOT
BRANCH   1  12
ATOM     12  C   UNL     1      75.528  71.444  26.566  1.00  0.00     0.025 A 
ATOM     13  C   UNL     1      76.598  72.266  26.952  1.00  0.00     0.016 A 
ATOM     14  C   UNL     1      77.455  71.875  27.984  1.00  0.00     0.051 A 
ATOM     15  C   UNL     1      77.248  70.666  28.656  1.00  0.00     0.157 A 
ATOM     16  C   UNL     1      75.309  70.238  27.257  1.00  0.00     0.062 A 
ATOM     17  C   UNL     1      76.167  69.844  28.294  1.00  0.00     0.158 A 
BRANCH  15  18
ATOM     18  O   UNL     1      78.122  70.301  29.679  1.00  0.00    -0.504 OA
ATOM     19  H   UNL     1      79.119  70.206  29.527  1.00  0.00     0.293 HD
ENDBRANCH  15  18
BRANCH  17  20
ATOM     20  O   UNL     1      75.946  68.645  28.969  1.00  0.00    -0.504 OA
ATOM     21  H   UNL     1      76.115  68.556  29.965  1.00  0.00     0.293 HD
ENDBRANCH  17  20
ENDBRANCH   1  12
BRANCH   2  22
ATOM     22  O   UNL     1      76.175  71.187  23.749  1.00  0.00    -0.502 OA
ATOM     23  H   UNL     1      76.795  70.742  24.414  1.00  0.00     0.293 HD
ENDBRANCH   2  22
BRANCH   6  24
ATOM     24  O   UNL     1      72.024  73.102  21.267  1.00  0.00    -0.507 OA
ATOM     25  H   UNL     1      71.390  72.568  20.685  1.00  0.00     0.293 HD
ENDBRANCH   6  24
BRANCH   8  26
ATOM     26  O   UNL     1      69.257  74.532  24.951  1.00  0.00    -0.508 OA
ATOM     27  H   UNL     1      68.686  74.094  25.664  1.00  0.00     0.293 HD
ENDBRANCH   8  26
TORSDOF 6
ENDMDL
MODEL 5
REMARK VINA RESULT:    -5.241      1.855      7.438
REMARK INTER + INTRA:          -6.508
REMARK INTER:                  -6.527
REMARK INTRA:                   0.019
REMARK UNBOUND:                -0.195
REMARK SMILES O=c1c(O)c(-c2ccc(O)c(O)c2)oc2cc(O)cc(O)c12
REMARK SMILES IDX 5 1 3 2 2 3 1 4 22 5 20 6 19 7 17 8 16 9 15 10 14 11 6 12
REMARK SMILES IDX 7 13 8 14 9 15 13 16 11 17 10 18 12 20 4 22 21 24 18 26
REMARK H PARENT 10 19 12 21 4 23 21 25 18 27
REMARK Flexibility Score: inf
ROOT
ATOM      1  C   UNL     1      74.141  71.822  25.276  1.00  0.00     0.180 A 
ATOM      2  C   UNL     1      72.769  71.524  25.168  1.00  0.00     0.208 A 
ATOM      3  C   UNL     1      71.975  72.283  24.295  1.00  0.00     0.238 A 
ATOM      4  O   UNL     1      70.743  72.032  24.198  1.00  0.00    -0.285 OA
ATOM      5  C   UNL     1      72.566  73.311  23.532  1.00  0.00     0.111 A 
ATOM      6  C   UNL     1      71.838  74.120  22.627  1.00  0.00     0.134 A 
ATOM      7  C   UNL     1      72.501  75.117  21.896  1.00  0.00     0.093 A 
ATOM      8  C   UNL     1      73.874  75.321  22.052  1.00  0.00     0.123 A 
ATOM      9  C   UNL     1      74.599  74.526  22.946  1.00  0.00     0.094 A 
ATOM     10  C   UNL     1      73.956  73.528  23.684  1.00  0.00     0.146 A 
ATOM     11  O   UNL     1      74.667  72.790  24.530  1.00  0.00    -0.452 OA
ENDROOT
BRANCH   1  12
ATOM     12  C   UNL     1      75.039  71.080  26.188  1.00  0.00     0.025 A 
ATOM     13  C   UNL     1      76.302  70.671  25.733  1.00  0.00     0.016 A 
ATOM     14  C   UNL     1      77.174  69.987  26.584  1.00  0.00     0.051 A 
ATOM     15  C   UNL     1      76.806  69.714  27.904  1.00  0.00     0.157 A 
ATOM     16  C   UNL     1      74.678  70.822  27.523  1.00  0.00     0.062 A 
ATOM     17  C   UNL     1      75.553  70.137  28.379  1.00  0.00     0.158 A 
BRANCH  15  18
ATOM     18  O   UNL     1      77.696  69.027  28.729  1.00  0.00    -0.504 OA
ATOM     19  H   UNL     1      77.391  68.286  29.350  1.00  0.00     0.293 HD
ENDBRANCH  15  18
BRANCH  17  20
ATOM     20  O   UNL     1      75.184  69.881  29.699  1.00  0.00    -0.504 OA
ATOM     21  H   UNL     1      75.037  70.632  30.365  1.00  0.00     0.293 HD
ENDBRANCH  17  20
ENDBRANCH   1  12
BRANCH   2  22
ATOM     22  O   UNL     1      72.217  70.468  25.899  1.00  0.00    -0.502 OA
ATOM     23  H   UNL     1      72.749  69.641  26.143  1.00  0.00     0.293 HD
ENDBRANCH   2  22
BRANCH   6  24
ATOM     24  O   UNL     1      70.466  73.941  22.447  1.00  0.00    -0.507 OA
ATOM     25  H   UNL     1      70.057  73.021  22.338  1.00  0.00     0.293 HD
ENDBRANCH   6  24
BRANCH   8  26
ATOM     26  O   UNL     1      74.509  76.318  21.315  1.00  0.00    -0.508 OA
ATOM     27  H   UNL     1      74.232  76.531  20.364  1.00  0.00     0.293 HD
ENDBRANCH   8  26
TORSDOF 6
ENDMDL
MODEL 6
REMARK VINA RESULT:    -5.089      1.911      7.141
REMARK INTER + INTRA:          -6.326
REMARK INTER:                  -6.015
REMARK INTRA:                  -0.311
REMARK UNBOUND:                -0.195
REMARK SMILES O=c1c(O)c(-c2ccc(O)c(O)c2)oc2cc(O)cc(O)c12
REMARK SMILES IDX 5 1 3 2 2 3 1 4 22 5 20 6 19 7 17 8 16 9 15 10 14 11 6 12
REMARK SMILES IDX 7 13 8 14 9 15 13 16 11 17 10 18 12 20 4 22 21 24 18 26
REMARK H PARENT 10 19 12 21 4 23 21 25 18 27
REMARK Flexibility Score: inf
ROOT
ATOM      1  C   UNL     1      74.966  72.212  25.681  1.00  0.00     0.180 A 
ATOM      2  C   UNL     1      74.301  73.373  26.118  1.00  0.00     0.208 A 
ATOM      3  C   UNL     1      73.574  74.130  25.186  1.00  0.00     0.238 A 
ATOM      4  O   UNL     1      72.983  75.178  25.563  1.00  0.00    -0.285 OA
ATOM      5  C   UNL     1      73.509  73.706  23.843  1.00  0.00     0.111 A 
ATOM      6  C   UNL     1      72.795  74.409  22.842  1.00  0.00     0.134 A 
ATOM      7  C   UNL     1      72.770  73.917  21.529  1.00  0.00     0.093 A 
ATOM      8  C   UNL     1      73.441  72.737  21.198  1.00  0.00     0.123 A 
ATOM      9  C   UNL     1      74.149  72.039  22.182  1.00  0.00     0.094 A 
ATOM     10  C   UNL     1      74.187  72.514  23.495  1.00  0.00     0.146 A 
ATOM     11  O   UNL     1      74.870  71.834  24.409  1.00  0.00    -0.452 OA
ENDROOT
BRANCH   1  12
ATOM     12  C   UNL     1      75.768  71.372  26.599  1.00  0.00     0.025 A 
ATOM     13  C   UNL     1      77.151  71.588  26.703  1.00  0.00     0.016 A 
ATOM     14  C   UNL     1      77.924  70.821  27.578  1.00  0.00     0.051 A 
ATOM     15  C   UNL     1      77.327  69.838  28.373  1.00  0.00     0.157 A 
ATOM     16  C   UNL     1      75.166  70.397  27.415  1.00  0.00     0.062 A 
ATOM     17  C   UNL     1      75.940  69.626  28.295  1.00  0.00     0.158 A 
BRANCH  15  18
ATOM     18  O   UNL     1      78.125  69.086  29.235  1.00  0.00    -0.504 OA
ATOM     19  H   UNL     1      78.062  69.175  30.242  1.00  0.00     0.293 HD
ENDBRANCH  15  18
BRANCH  17  20
ATOM     20  O   UNL     1      75.336  68.658  29.095  1.00  0.00    -0.504 OA
ATOM     21  H   UNL     1      74.333  68.637  29.238  1.00  0.00     0.293 HD
ENDBRANCH  17  20
ENDBRANCH   1  12
BRANCH   2  22
ATOM     22  O   UNL     1      74.341  73.746  27.464  1.00  0.00    -0.502 OA
ATOM     23  H   UNL     1      74.391  73.066  28.214  1.00  0.00     0.293 HD
ENDBRANCH   2  22
BRANCH   6  24
ATOM     24  O   UNL     1      72.113  75.589  23.141  1.00  0.00    -0.507 OA
ATOM     25  H   UNL     1      71.907  75.860  24.096  1.00  0.00     0.293 HD
ENDBRANCH   6  24
BRANCH   8  26
ATOM     26  O   UNL     1      73.401  72.269  19.887  1.00  0.00    -0.508 OA
ATOM     27  H   UNL     1      74.099  72.542  19.205  1.00  0.00     0.293 HD
ENDBRANCH   8  26
TORSDOF 6
ENDMDL
MODEL 7
REMARK VINA RESULT:    -4.891      2.075      7.086
REMARK INTER + INTRA:          -6.086
REMARK INTER:                  -5.775
REMARK INTRA:                  -0.311
REMARK UNBOUND:                -0.195
REMARK SMILES O=c1c(O)c(-c2ccc(O)c(O)c2)oc2cc(O)cc(O)c12
REMARK SMILES IDX 5 1 3 2 2 3 1 4 22 5 20 6 19 7 17 8 16 9 15 10 14 11 6 12
REMARK SMILES IDX 7 13 8 14 9 15 13 16 11 17 10 18 12 20 4 22 21 24 18 26
REMARK H PARENT 10 19 12 21 4 23 21 25 18 27
REMARK Flexibility Score: inf
ROOT
ATOM      1  C   UNL     1      75.150  72.684  25.311  1.00  0.00     0.180 A 
ATOM      2  C   UNL     1      75.889  73.849  25.030  1.00  0.00     0.208 A 
ATOM      3  C   UNL     1      75.372  74.776  24.112  1.00  0.00     0.238 A 
ATOM      4  O   UNL     1      76.029  75.818  23.845  1.00  0.00    -0.285 OA
ATOM      5  C   UNL     1      74.121  74.534  23.507  1.00  0.00     0.111 A 
ATOM      6  C   UNL     1      73.528  75.419  22.575  1.00  0.00     0.134 A 
ATOM      7  C   UNL     1      72.275  75.112  22.024  1.00  0.00     0.093 A 
ATOM      8  C   UNL     1      71.605  73.941  22.387  1.00  0.00     0.123 A 
ATOM      9  C   UNL     1      72.187  73.062  23.306  1.00  0.00     0.094 A 
ATOM     10  C   UNL     1      73.435  73.350  23.865  1.00  0.00     0.146 A 
ATOM     11  O   UNL     1      73.967  72.496  24.732  1.00  0.00    -0.452 OA
ENDROOT
BRANCH   1  12
ATOM     12  C   UNL     1      75.637  71.650  26.252  1.00  0.00     0.025 A 
ATOM     13  C   UNL     1      76.554  70.686  25.805  1.00  0.00     0.016 A 
ATOM     14  C   UNL     1      77.043  69.714  26.681  1.00  0.00     0.051 A 
ATOM     15  C   UNL     1      76.637  69.699  28.019  1.00  0.00     0.157 A 
ATOM     16  C   UNL     1      75.246  71.646  27.603  1.00  0.00     0.062 A 
ATOM     17  C   UNL     1      75.737  70.672  28.485  1.00  0.00     0.158 A 
BRANCH  15  18
ATOM     18  O   UNL     1      77.140  68.714  28.869  1.00  0.00    -0.504 OA
ATOM     19  H   UNL     1      77.221  67.746  28.582  1.00  0.00     0.293 HD
ENDBRANCH  15  18
BRANCH  17  20
ATOM     20  O   UNL     1      75.339  70.672  29.821  1.00  0.00    -0.504 OA
ATOM     21  H   UNL     1      75.776  71.279  30.505  1.00  0.00     0.293 HD
ENDBRANCH  17  20
ENDBRANCH   1  12
BRANCH   2  22
ATOM     22  O   UNL     1      77.103  74.089  25.680  1.00  0.00    -0.502 OA
ATOM     23  H   UNL     1      77.917  73.502  25.541  1.00  0.00     0.293 HD
ENDBRANCH   2  22
BRANCH   6  24
ATOM     24  O   UNL     1      74.170  76.598  22.194  1.00  0.00    -0.507 OA
ATOM     25  H   UNL     1      74.725  76.654  21.347  1.00  0.00     0.293 HD
ENDBRANCH   6  24
BRANCH   8  26
ATOM     26  O   UNL     1      70.362  73.659  21.825  1.00  0.00    -0.508 OA
ATOM     27  H   UNL     1      69.919  72.756  21.945  1.00  0.00     0.293 HD
ENDBRANCH   8  26
TORSDOF 6
ENDMDL
MODEL 8
REMARK VINA RESULT:    -4.792      2.020      6.914
REMARK INTER + INTRA:          -5.968
REMARK INTER:                  -5.667
REMARK INTRA:                  -0.301
REMARK UNBOUND:                -0.195
REMARK SMILES O=c1c(O)c(-c2ccc(O)c(O)c2)oc2cc(O)cc(O)c12
REMARK SMILES IDX 5 1 3 2 2 3 1 4 22 5 20 6 19 7 17 8 16 9 15 10 14 11 6 12
REMARK SMILES IDX 7 13 8 14 9 15 13 16 11 17 10 18 12 20 4 22 21 24 18 26
REMARK H PARENT 10 19 12 21 4 23 21 25 18 27
REMARK Flexibility Score: inf
ROOT
ATOM      1  C   UNL     1      74.566  72.098  25.562  1.00  0.00     0.180 A 
ATOM      2  C   UNL     1      74.928  71.920  24.213  1.00  0.00     0.208 A 
ATOM      3  C   UNL     1      74.021  72.299  23.212  1.00  0.00     0.238 A 
ATOM      4  O   UNL     1      74.330  72.135  22.000  1.00  0.00    -0.285 OA
ATOM      5  C   UNL     1      72.781  72.865  23.573  1.00  0.00     0.111 A 
ATOM      6  C   UNL     1      71.812  73.277  22.626  1.00  0.00     0.134 A 
ATOM      7  C   UNL     1      70.605  73.840  23.064  1.00  0.00     0.093 A 
ATOM      8  C   UNL     1      70.348  74.000  24.428  1.00  0.00     0.123 A 
ATOM      9  C   UNL     1      71.300  73.594  25.369  1.00  0.00     0.094 A 
ATOM     10  C   UNL     1      72.509  73.029  24.951  1.00  0.00     0.146 A 
ATOM     11  O   UNL     1      73.394  72.648  25.865  1.00  0.00    -0.452 OA
ENDROOT
BRANCH   1  12
ATOM     12  C   UNL     1      75.460  71.705  26.675  1.00  0.00     0.025 A 
ATOM     13  C   UNL     1      75.528  70.359  27.065  1.00  0.00     0.016 A 
ATOM     14  C   UNL     1      76.380  69.962  28.098  1.00  0.00     0.051 A 
ATOM     15  C   UNL     1      77.188  70.900  28.748  1.00  0.00     0.157 A 
ATOM     16  C   UNL     1      76.289  72.644  27.316  1.00  0.00     0.062 A 
ATOM     17  C   UNL     1      77.147  72.248  28.353  1.00  0.00     0.158 A 
BRANCH  15  18
ATOM     18  O   UNL     1      78.026  70.476  29.778  1.00  0.00    -0.504 OA
ATOM     19  H   UNL     1      78.561  69.618  29.718  1.00  0.00     0.293 HD
ENDBRANCH  15  18
BRANCH  17  20
ATOM     20  O   UNL     1      77.960  73.186  28.986  1.00  0.00    -0.504 OA
ATOM     21  H   UNL     1      77.592  73.823  29.685  1.00  0.00     0.293 HD
ENDBRANCH  17  20
ENDBRANCH   1  12
BRANCH   2  22
ATOM     22  O   UNL     1      76.183  71.403  23.881  1.00  0.00    -0.502 OA
ATOM     23  H   UNL     1      76.318  70.433  23.619  1.00  0.00     0.293 HD
ENDBRANCH   2  22
BRANCH   6  24
ATOM     24  O   UNL     1      72.039  73.131  21.257  1.00  0.00    -0.507 OA
ATOM     25  H   UNL     1      71.580  72.410  20.712  1.00  0.00     0.293 HD
ENDBRANCH   6  24
BRANCH   8  26
ATOM     26  O   UNL     1      69.142  74.562  24.838  1.00  0.00    -0.508 OA
ATOM     27  H   UNL     1      69.096  75.211  25.615  1.00  0.00     0.293 HD
ENDBRANCH   8  26
TORSDOF 6
ENDMDL
MODEL 9
REMARK VINA RESULT:    -3.989      2.728      4.117
REMARK INTER + INTRA:          -5.000
REMARK INTER:                  -4.725
REMARK INTRA:                  -0.275
REMARK UNBOUND:                -0.195
REMARK SMILES O=c1c(O)c(-c2ccc(O)c(O)c2)oc2cc(O)cc(O)c12
REMARK SMILES IDX 5 1 3 2 2 3 1 4 22 5 20 6 19 7 17 8 16 9 15 10 14 11 6 12
REMARK SMILES IDX 7 13 8 14 9 15 13 16 11 17 10 18 12 20 4 22 21 24 18 26
REMARK H PARENT 10 19 12 21 4 23 21 25 18 27
REMARK Flexibility Score: inf
ROOT
ATOM      1  C   UNL     1      73.957  72.361  23.996  1.00  0.00     0.180 A 
ATOM      2  C   UNL     1      74.455  72.068  22.712  1.00  0.00     0.208 A 
ATOM      3  C   UNL     1      75.646  71.336  22.596  1.00  0.00     0.238 A 
ATOM      4  O   UNL     1      76.108  71.078  21.452  1.00  0.00    -0.285 OA
ATOM      5  C   UNL     1      76.308  70.893  23.760  1.00  0.00     0.111 A 
ATOM      6  C   UNL     1      77.510  70.147  23.731  1.00  0.00     0.134 A 
ATOM      7  C   UNL     1      78.103  69.734  24.934  1.00  0.00     0.093 A 
ATOM      8  C   UNL     1      77.517  70.051  26.162  1.00  0.00     0.123 A 
ATOM      9  C   UNL     1      76.329  70.789  26.197  1.00  0.00     0.094 A 
ATOM     10  C   UNL     1      75.724  71.211  25.010  1.00  0.00     0.146 A 
ATOM     11  O   UNL     1      74.599  71.914  25.071  1.00  0.00    -0.452 OA
ENDROOT
BRANCH   1  12
ATOM     12  C   UNL     1      72.717  73.144  24.200  1.00  0.00     0.025 A 
ATOM     13  C   UNL     1      71.559  72.497  24.660  1.00  0.00     0.016 A 
ATOM     14  C   UNL     1      70.384  73.220  24.879  1.00  0.00     0.051 A 
ATOM     15  C   UNL     1      70.351  74.600  24.658  1.00  0.00     0.157 A 
ATOM     16  C   UNL     1      72.688  74.536  23.998  1.00  0.00     0.062 A 
ATOM     17  C   UNL     1      71.509  75.264  24.219  1.00  0.00     0.158 A 
BRANCH  15  18
ATOM     18  O   UNL     1      69.163  75.295  24.882  1.00  0.00    -0.504 OA
ATOM     19  H   UNL     1      68.837  75.517  25.816  1.00  0.00     0.293 HD
ENDBRANCH  15  18
BRANCH  17  20
ATOM     20  O   UNL     1      71.488  76.642  24.011  1.00  0.00    -0.504 OA
ATOM     21  H   UNL     1      72.326  77.155  23.764  1.00  0.00     0.293 HD
ENDBRANCH  17  20
ENDBRANCH   1  12
BRANCH   2  22
ATOM     22  O   UNL     1      73.755  72.477  21.573  1.00  0.00    -0.502 OA
ATOM     23  H   UNL     1      74.174  73.059  20.858  1.00  0.00     0.293 HD
ENDBRANCH   2  22
BRANCH   6  24
ATOM     24  O   UNL     1      78.120  69.814  22.521  1.00  0.00    -0.507 OA
ATOM     25  H   UNL     1      79.126  69.718  22.438  1.00  0.00     0.293 HD
ENDBRANCH   6  24
BRANCH   8  26
ATOM     26  O   UNL     1      78.125  69.629  27.342  1.00  0.00    -0.508 OA
ATOM     27  H   UNL     1      78.915  68.994  27.333  1.00  0.00     0.293 HD
ENDBRANCH   8  26
TORSDOF 6
ENDMDL
