MODEL 1
REMARK VINA RESULT:    -3.281      0.000      0.000
REMARK INTER + INTRA:          -3.568
REMARK INTER:                  -3.473
REMARK INTRA:                  -0.096
REMARK UNBOUND:                -0.096
REMARK SMILES C=C(C)[C@H]1CC=C(C)C(=O)C1
REMARK SMILES IDX 8 1 7 2 6 3 5 4 4 5 11 6 9 7 10 8 2 9 1 10 3 11
REMARK H PARENT
REMARK Flexibility Score: inf
ROOT
ATOM      1  C   UNL     1      -5.937   3.553   9.081  1.00  0.00     0.048 C 
ATOM      2  C   UNL     1      -4.929   4.668   9.122  1.00  0.00    -0.012 C 
ATOM      3  C   UNL     1      -5.039   5.634  10.050  1.00  0.00    -0.019 C 
ATOM      4  C   UNL     1      -4.069   6.783  10.125  1.00  0.00     0.036 C 
ATOM      5  C   UNL     1      -2.659   6.349   9.680  1.00  0.00     0.025 C 
ATOM      6  C   UNL     1      -2.713   5.721   8.275  1.00  0.00     0.089 C 
ATOM      7  C   UNL     1      -3.751   4.633   8.221  1.00  0.00     0.158 C 
ATOM      8  O   UNL     1      -3.628   3.709   7.373  1.00  0.00    -0.295 OA
ENDROOT
BRANCH   5   9
ATOM      9  C   UNL     1      -1.669   7.505   9.740  1.00  0.00    -0.077 C 
ATOM     10  C   UNL     1      -0.368   7.327   9.455  1.00  0.00     0.008 C 
ATOM     11  C   UNL     1      -2.140   8.884  10.125  1.00  0.00     0.039 C 
ENDBRANCH   5   9
TORSDOF 1
ENDMDL
MODEL 2
REMARK VINA RESULT:    -1.254     23.251     24.167
REMARK INTER + INTRA:          -1.423
REMARK INTER:                  -1.327
REMARK INTRA:                  -0.096
REMARK UNBOUND:                -0.096
REMARK SMILES C=C(C)[C@H]1CC=C(C)C(=O)C1
REMARK SMILES IDX 8 1 7 2 6 3 5 4 4 5 11 6 9 7 10 8 2 9 1 10 3 11
REMARK H PARENT
REMARK Flexibility Score: inf
ROOT
ATOM      1  C   UNL     1      -1.899  -8.475  -8.971  1.00  0.00     0.048 C 
ATOM      2  C   UNL     1      -3.349  -8.619  -9.344  1.00  0.00    -0.012 C 
ATOM      3  C   UNL     1      -3.968  -9.800  -9.174  1.00  0.00    -0.019 C 
ATOM      4  C   UNL     1      -5.412 -10.006  -9.548  1.00  0.00     0.036 C 
ATOM      5  C   UNL     1      -6.226  -8.714  -9.345  1.00  0.00     0.025 C 
ATOM      6  C   UNL     1      -5.583  -7.549 -10.120  1.00  0.00     0.089 C 
ATOM      7  C   UNL     1      -4.122  -7.431  -9.780  1.00  0.00     0.158 C 
ATOM      8  O   UNL     1      -3.552  -6.314  -9.905  1.00  0.00    -0.295 OA
ENDROOT
BRANCH   5   9
ATOM      9  C   UNL     1      -7.688  -8.904  -9.728  1.00  0.00    -0.077 C 
ATOM     10  C   UNL     1      -8.247 -10.125  -9.768  1.00  0.00     0.008 C 
ATOM     11  C   UNL     1      -8.540  -7.709 -10.072  1.00  0.00     0.039 C 
ENDBRANCH   5   9
TORSDOF 1
ENDMDL
MODEL 3
REMARK VINA RESULT:    -1.202      1.324      4.391
REMARK INTER + INTRA:          -1.368
REMARK INTER:                  -1.271
REMARK INTRA:                  -0.097
REMARK UNBOUND:                -0.096
REMARK SMILES C=C(C)[C@H]1CC=C(C)C(=O)C1
REMARK SMILES IDX 8 1 7 2 6 3 5 4 4 5 11 6 9 7 10 8 2 9 1 10 3 11
REMARK H PARENT
REMARK Flexibility Score: inf
ROOT
ATOM      1  C   UNL     1      -1.619   7.487   8.624  1.00  0.00     0.048 C 
ATOM      2  C   UNL     1      -2.626   6.376   8.746  1.00  0.00    -0.012 C 
ATOM      3  C   UNL     1      -3.166   6.092   9.943  1.00  0.00    -0.019 C 
ATOM      4  C   UNL     1      -4.163   4.978  10.125  1.00  0.00     0.036 C 
ATOM      5  C   UNL     1      -5.035   4.804   8.867  1.00  0.00     0.025 C 
ATOM      6  C   UNL     1      -4.146   4.595   7.626  1.00  0.00     0.089 C 
ATOM      7  C   UNL     1      -3.111   5.682   7.527  1.00  0.00     0.158 C 
ATOM      8  O   UNL     1      -2.632   5.973   6.398  1.00  0.00    -0.295 OA
ENDROOT
BRANCH   5   9
ATOM      9  C   UNL     1      -6.043   3.675   9.032  1.00  0.00    -0.077 C 
ATOM     10  C   UNL     1      -5.997   2.577   8.258  1.00  0.00     0.008 C 
ATOM     11  C   UNL     1      -7.120   3.771  10.082  1.00  0.00     0.039 C 
ENDBRANCH   5   9
TORSDOF 1
ENDMDL
MODEL 4
REMARK VINA RESULT:    -1.123      1.390      2.288
REMARK INTER + INTRA:          -1.284
REMARK INTER:                  -1.187
REMARK INTRA:                  -0.097
REMARK UNBOUND:                -0.096
REMARK SMILES C=C(C)[C@H]1CC=C(C)C(=O)C1
REMARK SMILES IDX 8 1 7 2 6 3 5 4 4 5 11 6 9 7 10 8 2 9 1 10 3 11
REMARK H PARENT
REMARK Flexibility Score: inf
ROOT
ATOM      1  C   UNL     1      -5.612   3.000   8.034  1.00  0.00     0.048 C 
ATOM      2  C   UNL     1      -4.674   4.038   8.586  1.00  0.00    -0.012 C 
ATOM      3  C   UNL     1      -3.430   4.147   8.088  1.00  0.00    -0.019 C 
ATOM      4  C   UNL     1      -2.444   5.156   8.616  1.00  0.00     0.036 C 
ATOM      5  C   UNL     1      -3.160   6.435   9.088  1.00  0.00     0.025 C 
ATOM      6  C   UNL     1      -4.249   6.088  10.121  1.00  0.00     0.089 C 
ATOM      7  C   UNL     1      -5.162   5.018   9.587  1.00  0.00     0.158 C 
ATOM      8  O   UNL     1      -6.340   4.941  10.028  1.00  0.00    -0.295 OA
ENDROOT
BRANCH   5   9
ATOM      9  C   UNL     1      -2.176   7.462   9.634  1.00  0.00    -0.077 C 
ATOM     10  C   UNL     1      -2.596   8.640  10.125  1.00  0.00     0.008 C 
ATOM     11  C   UNL     1      -0.699   7.166   9.633  1.00  0.00     0.039 C 
ENDBRANCH   5   9
TORSDOF 1
ENDMDL
MODEL 5
REMARK VINA RESULT:    -0.967      1.752      4.796
REMARK INTER + INTRA:          -1.119
REMARK INTER:                  -1.023
REMARK INTRA:                  -0.096
REMARK UNBOUND:                -0.096
REMARK SMILES C=C(C)[C@H]1CC=C(C)C(=O)C1
REMARK SMILES IDX 8 1 7 2 6 3 5 4 4 5 11 6 9 7 10 8 2 9 1 10 3 11
REMARK H PARENT
REMARK Flexibility Score: inf
ROOT
ATOM      1  C   UNL     1      -1.392   7.063   8.999  1.00  0.00     0.048 C 
ATOM      2  C   UNL     1      -2.629   6.216   8.868  1.00  0.00    -0.012 C 
ATOM      3  C   UNL     1      -2.558   5.021   8.258  1.00  0.00    -0.019 C 
ATOM      4  C   UNL     1      -3.767   4.141   8.083  1.00  0.00     0.036 C 
ATOM      5  C   UNL     1      -4.749   4.308   9.258  1.00  0.00     0.025 C 
ATOM      6  C   UNL     1      -5.127   5.791   9.432  1.00  0.00     0.089 C 
ATOM      7  C   UNL     1      -3.891   6.645   9.520  1.00  0.00     0.158 C 
ATOM      8  O   UNL     1      -3.949   7.749  10.125  1.00  0.00    -0.295 OA
ENDROOT
BRANCH   5   9
ATOM      9  C   UNL     1      -5.983   3.431   9.090  1.00  0.00    -0.077 C 
ATOM     10  C   UNL     1      -5.986   2.382   8.250  1.00  0.00     0.008 C 
ATOM     11  C   UNL     1      -7.235   3.729   9.874  1.00  0.00     0.039 C 
ENDBRANCH   5   9
TORSDOF 1
ENDMDL
MODEL 6
REMARK VINA RESULT:    -0.618     10.288     11.326
REMARK INTER + INTRA:          -0.750
REMARK INTER:                  -0.652
REMARK INTRA:                  -0.098
REMARK UNBOUND:                -0.096
REMARK SMILES C=C(C)[C@H]1CC=C(C)C(=O)C1
REMARK SMILES IDX 8 1 7 2 6 3 5 4 4 5 11 6 9 7 10 8 2 9 1 10 3 11
REMARK H PARENT
REMARK Flexibility Score: inf
ROOT
ATOM      1  C   UNL     1      -5.660  10.023  -0.796  1.00  0.00     0.048 C 
ATOM      2  C   UNL     1      -4.373   9.296  -1.074  1.00  0.00    -0.012 C 
ATOM      3  C   UNL     1      -4.046   8.978  -2.338  1.00  0.00    -0.019 C 
ATOM      4  C   UNL     1      -2.779   8.233  -2.671  1.00  0.00     0.036 C 
ATOM      5  C   UNL     1      -1.649   8.595  -1.688  1.00  0.00     0.025 C 
ATOM      6  C   UNL     1      -2.105   8.351  -0.237  1.00  0.00     0.089 C 
ATOM      7  C   UNL     1      -3.414   9.043   0.029  1.00  0.00     0.158 C 
ATOM      8  O   UNL     1      -3.704   9.374   1.210  1.00  0.00    -0.295 OA
ENDROOT
BRANCH   5   9
ATOM      9  C   UNL     1      -0.364   7.842  -2.006  1.00  0.00    -0.077 C 
ATOM     10  C   UNL     1       0.627   7.738  -1.105  1.00  0.00     0.008 C 
ATOM     11  C   UNL     1      -0.183   7.193  -3.354  1.00  0.00     0.039 C 
ENDBRANCH   5   9
TORSDOF 1
ENDMDL
MODEL 7
REMARK VINA RESULT:    -0.372      1.386      1.811
REMARK INTER + INTRA:          -0.489
REMARK INTER:                  -0.398
REMARK INTRA:                  -0.091
REMARK UNBOUND:                -0.096
REMARK SMILES C=C(C)[C@H]1CC=C(C)C(=O)C1
REMARK SMILES IDX 8 1 7 2 6 3 5 4 4 5 11 6 9 7 10 8 2 9 1 10 3 11
REMARK H PARENT
REMARK Flexibility Score: inf
ROOT
ATOM      1  C   UNL     1      -4.475   2.248   6.849  1.00  0.00     0.048 C 
ATOM      2  C   UNL     1      -4.160   3.547   7.538  1.00  0.00    -0.012 C 
ATOM      3  C   UNL     1      -4.509   3.723   8.824  1.00  0.00    -0.019 C 
ATOM      4  C   UNL     1      -4.234   5.010   9.556  1.00  0.00     0.036 C 
ATOM      5  C   UNL     1      -2.938   5.670   9.050  1.00  0.00     0.025 C 
ATOM      6  C   UNL     1      -3.001   5.870   7.524  1.00  0.00     0.089 C 
ATOM      7  C   UNL     1      -3.358   4.580   6.837  1.00  0.00     0.158 C 
ATOM      8  O   UNL     1      -2.999   4.401   5.642  1.00  0.00    -0.295 OA
ENDROOT
BRANCH   5   9
ATOM      9  C   UNL     1      -2.653   6.979   9.775  1.00  0.00    -0.077 C 
ATOM     10  C   UNL     1      -1.402   7.331  10.116  1.00  0.00     0.008 C 
ATOM     11  C   UNL     1      -3.784   7.911  10.125  1.00  0.00     0.039 C 
ENDBRANCH   5   9
TORSDOF 1
ENDMDL
MODEL 8
REMARK VINA RESULT:    -0.343      3.791      6.864
REMARK INTER + INTRA:          -0.459
REMARK INTER:                  -0.362
REMARK INTRA:                  -0.096
REMARK UNBOUND:                -0.096
REMARK SMILES C=C(C)[C@H]1CC=C(C)C(=O)C1
REMARK SMILES IDX 8 1 7 2 6 3 5 4 4 5 11 6 9 7 10 8 2 9 1 10 3 11
REMARK H PARENT
REMARK Flexibility Score: inf
ROOT
ATOM      1  C   UNL     1       4.949   8.879  10.113  1.00  0.00     0.048 C 
ATOM      2  C   UNL     1       3.454   8.711  10.125  1.00  0.00    -0.012 C 
ATOM      3  C   UNL     1       2.660   9.795  10.088  1.00  0.00    -0.019 C 
ATOM      4  C   UNL     1       1.158   9.686  10.117  1.00  0.00     0.036 C 
ATOM      5  C   UNL     1       0.682   8.403   9.409  1.00  0.00     0.025 C 
ATOM      6  C   UNL     1       1.369   7.169  10.022  1.00  0.00     0.089 C 
ATOM      7  C   UNL     1       2.862   7.353  10.050  1.00  0.00     0.158 C 
ATOM      8  O   UNL     1       3.606   6.336  10.047  1.00  0.00    -0.295 OA
ENDROOT
BRANCH   5   9
ATOM      9  C   UNL     1      -0.834   8.274   9.438  1.00  0.00    -0.077 C 
ATOM     10  C   UNL     1      -1.616   9.294   9.832  1.00  0.00     0.008 C 
ATOM     11  C   UNL     1      -1.491   6.984   9.019  1.00  0.00     0.039 C 
ENDBRANCH   5   9
TORSDOF 1
ENDMDL
