MODEL 1
REMARK VINA RESULT:    -4.446      0.000      0.000
REMARK INTER + INTRA:          -6.711
REMARK INTER:                  -6.005
REMARK INTRA:                  -0.706
REMARK UNBOUND:                -0.706
REMARK SMILES CC(=O)CCC=C(C)CCC=C(C)C
REMARK SMILES IDX 7 1 6 2 8 3 9 4 10 5 11 6 13 7 12 8 14 9 5 10 4 11 2 12 3 13
REMARK SMILES IDX 1 14
REMARK H PARENT
REMARK Flexibility Score: inf
ROOT
ATOM      1  C   UNL     1      54.622  69.098  34.312  1.00  0.00    -0.077 C 
ATOM      2  C   UNL     1      53.841  68.072  33.901  1.00  0.00    -0.028 C 
ATOM      3  C   UNL     1      54.783  69.439  35.774  1.00  0.00     0.039 C 
ENDROOT
BRANCH   1   4
ATOM      4  C   UNL     1      55.332  69.938  33.274  1.00  0.00     0.034 C 
BRANCH   4   5
ATOM      5  C   UNL     1      54.373  70.961  32.654  1.00  0.00     0.032 C 
BRANCH   5   6
ATOM      6  C   UNL     1      54.569  71.042  31.160  1.00  0.00    -0.028 C 
ATOM      7  C   UNL     1      52.647  69.513  30.666  1.00  0.00     0.039 C 
ATOM      8  C   UNL     1      53.786  70.416  30.254  1.00  0.00    -0.080 C 
ATOM      9  C   UNL     1      54.080  70.619  28.789  1.00  0.00     0.039 C 
ENDBRANCH   5   6
ENDBRANCH   4   5
ENDBRANCH   1   4
BRANCH   2  10
ATOM     10  C   UNL     1      53.115  67.128  34.827  1.00  0.00     0.035 C 
BRANCH  10  11
ATOM     11  C   UNL     1      53.434  65.672  34.474  1.00  0.00     0.079 C 
BRANCH  11  12
ATOM     12  C   UNL     1      54.123  64.985  35.625  1.00  0.00     0.130 C 
ATOM     13  O   UNL     1      55.292  64.648  35.510  1.00  0.00    -0.300 OA
ATOM     14  C   UNL     1      53.401  64.693  36.906  1.00  0.00     0.087 C 
ENDBRANCH  11  12
ENDBRANCH  10  11
ENDBRANCH   2  10
TORSDOF 6
ENDMDL
MODEL 2
REMARK VINA RESULT:    -4.429     14.260     15.896
REMARK INTER + INTRA:          -6.688
REMARK INTER:                  -5.866
REMARK INTRA:                  -0.823
REMARK UNBOUND:                -0.706
REMARK SMILES CC(=O)CCC=C(C)CCC=C(C)C
REMARK SMILES IDX 7 1 6 2 8 3 9 4 10 5 11 6 13 7 12 8 14 9 5 10 4 11 2 12 3 13
REMARK SMILES IDX 1 14
REMARK H PARENT
REMARK Flexibility Score: inf
ROOT
ATOM      1  C   UNL     1      68.717  68.731  31.973  1.00  0.00    -0.077 C 
ATOM      2  C   UNL     1      68.631  69.697  31.030  1.00  0.00    -0.028 C 
ATOM      3  C   UNL     1      69.888  68.649  32.924  1.00  0.00     0.039 C 
ENDROOT
BRANCH   1   4
ATOM      4  C   UNL     1      67.621  67.692  32.058  1.00  0.00     0.034 C 
BRANCH   4   5
ATOM      5  C   UNL     1      67.917  66.512  31.125  1.00  0.00     0.032 C 
BRANCH   5   6
ATOM      6  C   UNL     1      66.969  66.508  29.951  1.00  0.00    -0.028 C 
ATOM      7  C   UNL     1      68.710  67.313  28.340  1.00  0.00     0.039 C 
ATOM      8  C   UNL     1      67.318  66.842  28.688  1.00  0.00    -0.080 C 
ATOM      9  C   UNL     1      66.271  66.755  27.608  1.00  0.00     0.039 C 
ENDBRANCH   5   6
ENDBRANCH   4   5
ENDBRANCH   1   4
BRANCH   2  10
ATOM     10  C   UNL     1      69.626  70.818  30.864  1.00  0.00     0.035 C 
BRANCH  10  11
ATOM     11  C   UNL     1      69.186  71.772  29.749  1.00  0.00     0.079 C 
BRANCH  11  12
ATOM     12  C   UNL     1      69.965  71.509  28.486  1.00  0.00     0.130 C 
ATOM     13  O   UNL     1      71.001  70.863  28.543  1.00  0.00    -0.300 OA
ATOM     14  C   UNL     1      69.503  72.034  27.159  1.00  0.00     0.087 C 
ENDBRANCH  11  12
ENDBRANCH  10  11
ENDBRANCH   2  10
TORSDOF 6
ENDMDL
MODEL 3
REMARK VINA RESULT:    -4.384     14.205     16.089
REMARK INTER + INTRA:          -6.627
REMARK INTER:                  -5.961
REMARK INTRA:                  -0.666
REMARK UNBOUND:                -0.706
REMARK SMILES CC(=O)CCC=C(C)CCC=C(C)C
REMARK SMILES IDX 7 1 6 2 8 3 9 4 10 5 11 6 13 7 12 8 14 9 5 10 4 11 2 12 3 13
REMARK SMILES IDX 1 14
REMARK H PARENT
REMARK Flexibility Score: inf
ROOT
ATOM      1  C   UNL     1      67.894  67.207  28.268  1.00  0.00    -0.077 C 
ATOM      2  C   UNL     1      68.883  68.130  28.289  1.00  0.00    -0.028 C 
ATOM      3  C   UNL     1      66.857  67.176  27.170  1.00  0.00     0.039 C 
ENDROOT
BRANCH   1   4
ATOM      4  C   UNL     1      67.814  66.194  29.389  1.00  0.00     0.034 C 
BRANCH   4   5
ATOM      5  C   UNL     1      66.617  66.487  30.302  1.00  0.00     0.032 C 
BRANCH   5   6
ATOM      6  C   UNL     1      66.972  66.235  31.746  1.00  0.00    -0.028 C 
ATOM      7  C   UNL     1      67.869  68.549  32.093  1.00  0.00     0.039 C 
ATOM      8  C   UNL     1      67.512  67.160  32.571  1.00  0.00    -0.080 C 
ATOM      9  C   UNL     1      67.780  66.776  34.003  1.00  0.00     0.039 C 
ENDBRANCH   5   6
ENDBRANCH   4   5
ENDBRANCH   1   4
BRANCH   2  10
ATOM     10  C   UNL     1      69.107  69.165  27.215  1.00  0.00     0.035 C 
BRANCH  10  11
ATOM     11  C   UNL     1      70.274  70.086  27.586  1.00  0.00     0.079 C 
BRANCH  11  12
ATOM     12  C   UNL     1      69.777  71.472  27.905  1.00  0.00     0.130 C 
ATOM     13  O   UNL     1      69.674  72.294  27.006  1.00  0.00    -0.300 OA
ATOM     14  C   UNL     1      69.418  71.871  29.305  1.00  0.00     0.087 C 
ENDBRANCH  11  12
ENDBRANCH  10  11
ENDBRANCH   2  10
TORSDOF 6
ENDMDL
MODEL 4
REMARK VINA RESULT:    -4.362      2.644      6.663
REMARK INTER + INTRA:          -6.599
REMARK INTER:                  -6.095
REMARK INTRA:                  -0.503
REMARK UNBOUND:                -0.706
REMARK SMILES CC(=O)CCC=C(C)CCC=C(C)C
REMARK SMILES IDX 7 1 6 2 8 3 9 4 10 5 11 6 13 7 12 8 14 9 5 10 4 11 2 12 3 13
REMARK SMILES IDX 1 14
REMARK H PARENT
REMARK Flexibility Score: inf
ROOT
ATOM      1  C   UNL     1      54.942  69.429  33.945  1.00  0.00    -0.077 C 
ATOM      2  C   UNL     1      53.969  70.114  33.301  1.00  0.00    -0.028 C 
ATOM      3  C   UNL     1      56.406  69.651  33.644  1.00  0.00     0.039 C 
ENDROOT
BRANCH   1   4
ATOM      4  C   UNL     1      54.549  68.395  34.977  1.00  0.00     0.034 C 
BRANCH   4   5
ATOM      5  C   UNL     1      53.928  67.164  34.306  1.00  0.00     0.032 C 
BRANCH   5   6
ATOM      6  C   UNL     1      53.048  66.414  35.274  1.00  0.00    -0.028 C 
ATOM      7  C   UNL     1      54.532  64.395  35.303  1.00  0.00     0.039 C 
ATOM      8  C   UNL     1      53.319  65.178  35.750  1.00  0.00    -0.080 C 
ATOM      9  C   UNL     1      52.365  64.566  36.743  1.00  0.00     0.039 C 
ENDBRANCH   5   6
ENDBRANCH   4   5
ENDBRANCH   1   4
BRANCH   2  10
ATOM     10  C   UNL     1      54.220  71.201  32.286  1.00  0.00     0.035 C 
BRANCH  10  11
ATOM     11  C   UNL     1      53.776  70.751  30.891  1.00  0.00     0.079 C 
BRANCH  11  12
ATOM     12  C   UNL     1      54.680  71.329  29.833  1.00  0.00     0.130 C 
ATOM     13  O   UNL     1      54.803  70.747  28.765  1.00  0.00    -0.300 OA
ATOM     14  C   UNL     1      55.443  72.598  30.065  1.00  0.00     0.087 C 
ENDBRANCH  11  12
ENDBRANCH  10  11
ENDBRANCH   2  10
TORSDOF 6
ENDMDL
MODEL 5
REMARK VINA RESULT:    -4.328      2.710      6.332
REMARK INTER + INTRA:          -6.553
REMARK INTER:                  -5.870
REMARK INTRA:                  -0.683
REMARK UNBOUND:                -0.706
REMARK SMILES CC(=O)CCC=C(C)CCC=C(C)C
REMARK SMILES IDX 7 1 6 2 8 3 9 4 10 5 11 6 13 7 12 8 14 9 5 10 4 11 2 12 3 13
REMARK SMILES IDX 1 14
REMARK H PARENT
REMARK Flexibility Score: inf
ROOT
ATOM      1  C   UNL     1      54.310  70.178  32.951  1.00  0.00    -0.077 C 
ATOM      2  C   UNL     1      55.020  71.010  32.153  1.00  0.00    -0.028 C 
ATOM      3  C   UNL     1      52.812  70.037  32.821  1.00  0.00     0.039 C 
ENDROOT
BRANCH   1   4
ATOM      4  C   UNL     1      55.038  69.388  34.016  1.00  0.00     0.034 C 
BRANCH   4   5
ATOM      5  C   UNL     1      54.059  68.508  34.803  1.00  0.00     0.032 C 
BRANCH   5   6
ATOM      6  C   UNL     1      54.246  67.054  34.449  1.00  0.00    -0.028 C 
ATOM      7  C   UNL     1      52.242  66.315  35.759  1.00  0.00     0.039 C 
ATOM      8  C   UNL     1      53.422  66.060  34.852  1.00  0.00    -0.080 C 
ATOM      9  C   UNL     1      53.713  64.655  34.389  1.00  0.00     0.039 C 
ENDBRANCH   5   6
ENDBRANCH   4   5
ENDBRANCH   1   4
BRANCH   2  10
ATOM     10  C   UNL     1      54.431  71.819  31.025  1.00  0.00     0.035 C 
BRANCH  10  11
ATOM     11  C   UNL     1      55.171  71.537  29.713  1.00  0.00     0.079 C 
BRANCH  11  12
ATOM     12  C   UNL     1      54.428  70.515  28.892  1.00  0.00     0.130 C 
ATOM     13  O   UNL     1      55.036  69.856  28.061  1.00  0.00    -0.300 OA
ATOM     14  C   UNL     1      52.955  70.296  29.064  1.00  0.00     0.087 C 
ENDBRANCH  11  12
ENDBRANCH  10  11
ENDBRANCH   2  10
TORSDOF 6
ENDMDL
MODEL 6
REMARK VINA RESULT:    -4.319      1.243      1.555
REMARK INTER + INTRA:          -6.540
REMARK INTER:                  -6.108
REMARK INTRA:                  -0.431
REMARK UNBOUND:                -0.706
REMARK SMILES CC(=O)CCC=C(C)CCC=C(C)C
REMARK SMILES IDX 7 1 6 2 8 3 9 4 10 5 11 6 13 7 12 8 14 9 5 10 4 11 2 12 3 13
REMARK SMILES IDX 1 14
REMARK H PARENT
REMARK Flexibility Score: inf
ROOT
ATOM      1  C   UNL     1      54.577  69.499  33.438  1.00  0.00    -0.077 C 
ATOM      2  C   UNL     1      53.744  68.589  33.992  1.00  0.00    -0.028 C 
ATOM      3  C   UNL     1      56.053  69.525  33.755  1.00  0.00     0.039 C 
ENDROOT
BRANCH   1   4
ATOM      4  C   UNL     1      54.006  70.533  32.492  1.00  0.00     0.034 C 
BRANCH   4   5
ATOM      5  C   UNL     1      55.127  71.261  31.741  1.00  0.00     0.032 C 
BRANCH   5   6
ATOM      6  C   UNL     1      54.557  72.188  30.697  1.00  0.00    -0.028 C 
ATOM      7  C   UNL     1      54.776  70.505  28.855  1.00  0.00     0.039 C 
ATOM      8  C   UNL     1      54.371  71.854  29.401  1.00  0.00    -0.080 C 
ATOM      9  C   UNL     1      53.755  72.874  28.478  1.00  0.00     0.039 C 
ENDBRANCH   5   6
ENDBRANCH   4   5
ENDBRANCH   1   4
BRANCH   2  10
ATOM     10  C   UNL     1      54.185  67.478  34.911  1.00  0.00     0.035 C 
BRANCH  10  11
ATOM     11  C   UNL     1      53.855  66.110  34.305  1.00  0.00     0.079 C 
BRANCH  11  12
ATOM     12  C   UNL     1      54.088  65.012  35.310  1.00  0.00     0.130 C 
ATOM     13  O   UNL     1      55.193  64.886  35.817  1.00  0.00    -0.300 OA
ATOM     14  C   UNL     1      52.994  64.060  35.694  1.00  0.00     0.087 C 
ENDBRANCH  11  12
ENDBRANCH  10  11
ENDBRANCH   2  10
TORSDOF 6
ENDMDL
MODEL 7
REMARK VINA RESULT:    -4.304     13.956     15.072
REMARK INTER + INTRA:          -6.520
REMARK INTER:                  -5.595
REMARK INTRA:                  -0.925
REMARK UNBOUND:                -0.706
REMARK SMILES CC(=O)CCC=C(C)CCC=C(C)C
REMARK SMILES IDX 7 1 6 2 8 3 9 4 10 5 11 6 13 7 12 8 14 9 5 10 4 11 2 12 3 13
REMARK SMILES IDX 1 14
REMARK H PARENT
REMARK Flexibility Score: inf
ROOT
ATOM      1  C   UNL     1      67.643  66.926  27.850  1.00  0.00    -0.077 C 
ATOM      2  C   UNL     1      67.929  66.709  29.155  1.00  0.00    -0.028 C 
ATOM      3  C   UNL     1      66.225  66.899  27.331  1.00  0.00     0.039 C 
ENDROOT
BRANCH   1   4
ATOM      4  C   UNL     1      68.779  67.179  26.884  1.00  0.00     0.034 C 
BRANCH   4   5
ATOM      5  C   UNL     1      69.917  67.944  27.570  1.00  0.00     0.032 C 
BRANCH   5   6
ATOM      6  C   UNL     1      69.822  69.421  27.276  1.00  0.00    -0.028 C 
ATOM      7  C   UNL     1      69.494  70.040  29.681  1.00  0.00     0.039 C 
ATOM      8  C   UNL     1      69.657  70.377  28.218  1.00  0.00    -0.080 C 
ATOM      9  C   UNL     1      69.616  71.818  27.778  1.00  0.00     0.039 C 
ENDBRANCH   5   6
ENDBRANCH   4   5
ENDBRANCH   1   4
BRANCH   2  10
ATOM     10  C   UNL     1      66.894  66.491  30.230  1.00  0.00     0.035 C 
BRANCH  10  11
ATOM     11  C   UNL     1      67.542  65.923  31.497  1.00  0.00     0.079 C 
BRANCH  11  12
ATOM     12  C   UNL     1      67.409  66.893  32.643  1.00  0.00     0.130 C 
ATOM     13  O   UNL     1      66.946  66.506  33.705  1.00  0.00    -0.300 OA
ATOM     14  C   UNL     1      67.824  68.327  32.504  1.00  0.00     0.087 C 
ENDBRANCH  11  12
ENDBRANCH  10  11
ENDBRANCH   2  10
TORSDOF 6
ENDMDL
MODEL 8
REMARK VINA RESULT:    -4.199     14.137     15.164
REMARK INTER + INTRA:          -6.378
REMARK INTER:                  -5.298
REMARK INTRA:                  -1.079
REMARK UNBOUND:                -0.706
REMARK SMILES CC(=O)CCC=C(C)CCC=C(C)C
REMARK SMILES IDX 7 1 6 2 8 3 9 4 10 5 11 6 13 7 12 8 14 9 5 10 4 11 2 12 3 13
REMARK SMILES IDX 1 14
REMARK H PARENT
REMARK Flexibility Score: inf
ROOT
ATOM      1  C   UNL     1      68.786  67.728  29.803  1.00  0.00    -0.077 C 
ATOM      2  C   UNL     1      68.787  68.267  31.044  1.00  0.00    -0.028 C 
ATOM      3  C   UNL     1      67.562  67.056  29.227  1.00  0.00     0.039 C 
ENDROOT
BRANCH   1   4
ATOM      4  C   UNL     1      70.056  67.779  28.982  1.00  0.00     0.034 C 
BRANCH   4   5
ATOM      5  C   UNL     1      70.767  69.125  29.165  1.00  0.00     0.032 C 
BRANCH   5   6
ATOM      6  C   UNL     1      70.399  70.080  28.056  1.00  0.00    -0.028 C 
ATOM      7  C   UNL     1      69.315  71.717  29.611  1.00  0.00     0.039 C 
ATOM      8  C   UNL     1      69.768  71.260  28.245  1.00  0.00    -0.080 C 
ATOM      9  C   UNL     1      69.497  72.129  27.043  1.00  0.00     0.039 C 
ENDBRANCH   5   6
ENDBRANCH   4   5
ENDBRANCH   1   4
BRANCH   2  10
ATOM     10  C   UNL     1      67.582  68.325  31.950  1.00  0.00     0.035 C 
BRANCH  10  11
ATOM     11  C   UNL     1      67.717  67.318  33.096  1.00  0.00     0.079 C 
BRANCH  11  12
ATOM     12  C   UNL     1      67.309  65.939  32.645  1.00  0.00     0.130 C 
ATOM     13  O   UNL     1      66.151  65.735  32.314  1.00  0.00    -0.300 OA
ATOM     14  C   UNL     1      68.292  64.807  32.606  1.00  0.00     0.087 C 
ENDBRANCH  11  12
ENDBRANCH  10  11
ENDBRANCH   2  10
TORSDOF 6
ENDMDL
MODEL 9
REMARK VINA RESULT:    -4.195     14.750     16.251
REMARK INTER + INTRA:          -6.372
REMARK INTER:                  -5.205
REMARK INTRA:                  -1.168
REMARK UNBOUND:                -0.706
REMARK SMILES CC(=O)CCC=C(C)CCC=C(C)C
REMARK SMILES IDX 7 1 6 2 8 3 9 4 10 5 11 6 13 7 12 8 14 9 5 10 4 11 2 12 3 13
REMARK SMILES IDX 1 14
REMARK H PARENT
REMARK Flexibility Score: inf
ROOT
ATOM      1  C   UNL     1      70.139  70.325  27.748  1.00  0.00    -0.077 C 
ATOM      2  C   UNL     1      69.068  69.518  27.571  1.00  0.00    -0.028 C 
ATOM      3  C   UNL     1      71.551  69.837  27.524  1.00  0.00     0.039 C 
ENDROOT
BRANCH   1   4
ATOM      4  C   UNL     1      69.915  71.749  28.207  1.00  0.00     0.034 C 
BRANCH   4   5
ATOM      5  C   UNL     1      69.142  71.778  29.531  1.00  0.00     0.032 C 
BRANCH   5   6
ATOM      6  C   UNL     1      70.026  71.350  30.676  1.00  0.00    -0.028 C 
ATOM      7  C   UNL     1      68.564  69.408  31.285  1.00  0.00     0.039 C 
ATOM      8  C   UNL     1      69.792  70.272  31.457  1.00  0.00    -0.080 C 
ATOM      9  C   UNL     1      70.784  69.943  32.543  1.00  0.00     0.039 C 
ENDBRANCH   5   6
ENDBRANCH   4   5
ENDBRANCH   1   4
BRANCH   2  10
ATOM     10  C   UNL     1      69.145  68.096  27.074  1.00  0.00     0.035 C 
BRANCH  10  11
ATOM     11  C   UNL     1      68.883  67.109  28.216  1.00  0.00     0.079 C 
BRANCH  11  12
ATOM     12  C   UNL     1      67.403  66.915  28.422  1.00  0.00     0.130 C 
ATOM     13  O   UNL     1      66.974  66.721  29.550  1.00  0.00    -0.300 OA
ATOM     14  C   UNL     1      66.443  66.941  27.270  1.00  0.00     0.087 C 
ENDBRANCH  11  12
ENDBRANCH  10  11
ENDBRANCH   2  10
TORSDOF 6
ENDMDL
