MODEL 1
REMARK VINA RESULT:    -3.444      0.000      0.000
REMARK INTER + INTRA:          -5.732
REMARK INTER:                  -5.257
REMARK INTRA:                  -0.475
REMARK UNBOUND:                -0.475
REMARK SMILES CC1=CCC[C@H](C)C(=O)C[C@H](C(C)C)C(=O)C1
REMARK SMILES IDX 8 1 9 2 6 3 7 4 5 5 4 6 3 7 2 8 1 9 10 11 11 12 15 13 16 14
REMARK SMILES IDX 17 15 12 17 13 18 14 19
REMARK H PARENT
REMARK Flexibility Score: 70.00
ROOT
ATOM      1  C   UNL     1      10.706  81.446 -18.096  1.00  0.00     0.136 C 
ATOM      2  O   UNL     1       9.512  81.242 -17.923  1.00  0.00    -0.299 OA
ENDROOT
BRANCH   1   3
ATOM      3  C   UNL     1      11.169  82.874 -18.306  1.00  0.00     0.053 C 
ATOM      4  C   UNL     1      12.579  83.052 -17.726  1.00  0.00     0.016 C 
BRANCH   3   5
ATOM      5  C   UNL     1      11.130  83.245 -19.823  1.00  0.00     0.015 C 
BRANCH   5   6
ATOM      6  C   UNL     1      12.467  82.982 -20.551  1.00  0.00     0.028 C 
BRANCH   6   7
ATOM      7  C   UNL     1      12.351  82.084 -21.765  1.00  0.00    -0.028 C 
ATOM      8  C   UNL     1      12.578  80.745 -21.810  1.00  0.00    -0.070 CG0
ATOM      9  C   UNL     1      12.269  80.034 -23.105  1.00  0.00     0.039 C 
ATOM     10  G   UNL     1      13.204  79.944 -20.677  1.00  0.00     0.000 G0
ENDBRANCH   6   7
ENDBRANCH   5   6
ENDBRANCH   3   5
ENDBRANCH   1   3
BRANCH   1  11
ATOM     11  C   UNL     1      11.625  80.239 -18.109  1.00  0.00     0.087 C 
BRANCH  11  12
ATOM     12  C   UNL     1      11.279  79.057 -19.065  1.00  0.00     0.066 C 
BRANCH  12  13
ATOM     13  C   UNL     1      12.343  78.805 -20.131  1.00  0.00     0.140 C 
ATOM     14  O   UNL     1      12.570  77.650 -20.463  1.00  0.00    -0.299 OA
BRANCH  13  15
ATOM     15  C   UNL     1      13.223  79.910 -20.673  1.00  0.00     0.106 CG0
ATOM     16  G   UNL     1      12.583  80.732 -21.784  1.00  0.00     0.000 G0
ENDBRANCH  13  15
ENDBRANCH  12  13
BRANCH  12  17
ATOM     17  C   UNL     1      11.003  77.743 -18.259  1.00  0.00    -0.006 C 
ATOM     18  C   UNL     1       9.514  77.587 -17.894  1.00  0.00     0.008 C 
ATOM     19  C   UNL     1      11.837  77.665 -16.966  1.00  0.00     0.008 C 
ENDBRANCH  12  17
ENDBRANCH  11  12
ENDBRANCH   1  11
TORSDOF 1
ENDMDL
MODEL 2
REMARK VINA RESULT:    -2.987      6.203      8.894
REMARK INTER + INTRA:          -5.033
REMARK INTER:                  -4.601
REMARK INTRA:                  -0.432
REMARK UNBOUND:                -0.475
REMARK SMILES CC1=CCC[C@H](C)C(=O)C[C@H](C(C)C)C(=O)C1
REMARK SMILES IDX 8 1 9 2 6 3 7 4 5 5 4 6 3 7 2 8 1 9 10 11 11 12 15 13 16 14
REMARK SMILES IDX 17 15 12 17 13 18 14 19
REMARK H PARENT
REMARK Flexibility Score: 70.00
ROOT
ATOM      1  C   UNL     1      14.564  76.125 -24.689  1.00  0.00     0.136 C 
ATOM      2  O   UNL     1      15.673  76.603 -24.493  1.00  0.00    -0.299 OA
ENDROOT
BRANCH   1   3
ATOM      3  C   UNL     1      14.452  74.626 -24.890  1.00  0.00     0.053 C 
ATOM      4  C   UNL     1      13.448  74.042 -23.886  1.00  0.00     0.016 C 
BRANCH   3   5
ATOM      5  C   UNL     1      14.035  74.301 -26.360  1.00  0.00     0.015 C 
BRANCH   5   6
ATOM      6  C   UNL     1      12.610  73.717 -26.477  1.00  0.00     0.028 C 
BRANCH   6   7
ATOM      7  C   UNL     1      11.812  74.246 -27.650  1.00  0.00    -0.028 C 
ATOM      8  C   UNL     1      11.207  75.459 -27.742  1.00  0.00    -0.070 CG0
ATOM      9  C   UNL     1      10.579  75.821 -29.064  1.00  0.00     0.039 C 
ATOM     10  G   UNL     1      11.047  76.425 -26.576  1.00  0.00     0.000 G0
ENDBRANCH   6   7
ENDBRANCH   5   6
ENDBRANCH   3   5
ENDBRANCH   1   3
BRANCH   1  11
ATOM     11  C   UNL     1      13.389  77.084 -24.738  1.00  0.00     0.087 C 
BRANCH  11  12
ATOM     12  C   UNL     1      13.175  77.925 -26.034  1.00  0.00     0.066 C 
BRANCH  12  13
ATOM     13  C   UNL     1      11.801  77.723 -26.670  1.00  0.00     0.140 C 
ATOM     14  O   UNL     1      11.249  78.689 -27.178  1.00  0.00    -0.299 OA
BRANCH  13  15
ATOM     15  C   UNL     1      11.042  76.419 -26.559  1.00  0.00     0.106 CG0
ATOM     16  G   UNL     1      11.206  75.495 -27.758  1.00  0.00     0.000 G0
ENDBRANCH  13  15
ENDBRANCH  12  13
BRANCH  12  17
ATOM     17  C   UNL     1      13.426  79.447 -25.766  1.00  0.00    -0.006 C 
ATOM     18  C   UNL     1      14.722  79.949 -26.430  1.00  0.00     0.008 C 
ATOM     19  C   UNL     1      13.488  79.771 -24.261  1.00  0.00     0.008 C 
ENDBRANCH  12  17
ENDBRANCH  11  12
ENDBRANCH   1  11
TORSDOF 1
ENDMDL
MODEL 3
REMARK VINA RESULT:    -2.961      9.649     11.375
REMARK INTER + INTRA:          -4.995
REMARK INTER:                  -5.213
REMARK INTRA:                   0.218
REMARK UNBOUND:                -0.475
REMARK SMILES CC1=CCC[C@H](C)C(=O)C[C@H](C(C)C)C(=O)C1
REMARK SMILES IDX 8 1 9 2 6 3 7 4 5 5 4 6 3 7 2 8 1 9 10 11 11 12 15 13 16 14
REMARK SMILES IDX 17 15 12 17 13 18 14 19
REMARK H PARENT
REMARK Flexibility Score: 70.00
ROOT
ATOM      1  C   UNL     1       2.963  76.834 -18.609  1.00  0.00     0.136 C 
ATOM      2  O   UNL     1       4.062  76.952 -19.135  1.00  0.00    -0.299 OA
ENDROOT
BRANCH   1   3
ATOM      3  C   UNL     1       2.655  77.679 -17.389  1.00  0.00     0.053 C 
ATOM      4  C   UNL     1       3.794  77.551 -16.368  1.00  0.00     0.016 C 
BRANCH   3   5
ATOM      5  C   UNL     1       2.427  79.169 -17.798  1.00  0.00     0.015 C 
BRANCH   5   6
ATOM      6  C   UNL     1       1.044  79.424 -18.437  1.00  0.00     0.028 C 
BRANCH   6   7
ATOM      7  C   UNL     1       1.096  80.082 -19.799  1.00  0.00    -0.028 C 
ATOM      8  C   UNL     1       0.436  79.687 -20.919  1.00  0.00    -0.070 CG0
ATOM      9  C   UNL     1       0.537  80.578 -22.133  1.00  0.00     0.039 C 
ATOM     10  G   UNL     1      -0.315  78.369 -21.050  1.00  0.00     0.000 G0
ENDBRANCH   6   7
ENDBRANCH   5   6
ENDBRANCH   3   5
ENDBRANCH   1   3
BRANCH   1  11
ATOM     11  C   UNL     1       2.005  75.826 -19.215  1.00  0.00     0.087 C 
BRANCH  11  12
ATOM     12  C   UNL     1       0.576  76.310 -19.612  1.00  0.00     0.066 C 
BRANCH  12  13
ATOM     13  C   UNL     1       0.546  77.122 -20.904  1.00  0.00     0.140 C 
ATOM     14  O   UNL     1       1.341  76.836 -21.789  1.00  0.00    -0.299 OA
BRANCH  13  15
ATOM     15  C   UNL     1      -0.319  78.353 -21.067  1.00  0.00     0.106 CG0
ATOM     16  G   UNL     1       0.429  79.670 -20.908  1.00  0.00     0.000 G0
ENDBRANCH  13  15
ENDBRANCH  12  13
BRANCH  12  17
ATOM     17  C   UNL     1      -0.419  75.105 -19.710  1.00  0.00    -0.006 C 
ATOM     18  C   UNL     1      -0.131  74.024 -18.650  1.00  0.00     0.008 C 
ATOM     19  C   UNL     1      -0.401  74.445 -21.102  1.00  0.00     0.008 C 
ENDBRANCH  12  17
ENDBRANCH  11  12
ENDBRANCH   1  11
TORSDOF 1
ENDMDL
MODEL 4
REMARK VINA RESULT:    -2.939     10.379     12.293
REMARK INTER + INTRA:          -4.960
REMARK INTER:                  -4.987
REMARK INTRA:                   0.026
REMARK UNBOUND:                -0.475
REMARK SMILES CC1=CCC[C@H](C)C(=O)C[C@H](C(C)C)C(=O)C1
REMARK SMILES IDX 8 1 9 2 6 3 7 4 5 5 4 6 3 7 2 8 1 9 10 11 11 12 15 13 16 14
REMARK SMILES IDX 17 15 12 17 13 18 14 19
REMARK H PARENT
REMARK Flexibility Score: 70.00
ROOT
ATOM      1  C   UNL     1      -0.062  79.089 -20.703  1.00  0.00     0.136 C 
ATOM      2  O   UNL     1      -0.323  79.889 -19.816  1.00  0.00    -0.299 OA
ENDROOT
BRANCH   1   3
ATOM      3  C   UNL     1      -0.931  79.083 -21.946  1.00  0.00     0.053 C 
ATOM      4  C   UNL     1      -1.215  80.526 -22.386  1.00  0.00     0.016 C 
BRANCH   3   5
ATOM      5  C   UNL     1      -0.246  78.268 -23.089  1.00  0.00     0.015 C 
BRANCH   5   6
ATOM      6  C   UNL     1      -0.886  76.881 -23.319  1.00  0.00     0.028 C 
BRANCH   6   7
ATOM      7  C   UNL     1       0.028  75.713 -23.014  1.00  0.00    -0.028 C 
ATOM      8  C   UNL     1       0.147  75.062 -21.828  1.00  0.00    -0.070 CG0
ATOM      9  C   UNL     1       1.027  73.837 -21.794  1.00  0.00     0.039 C 
ATOM     10  G   UNL     1      -0.475  75.541 -20.522  1.00  0.00     0.000 G0
ENDBRANCH   6   7
ENDBRANCH   5   6
ENDBRANCH   3   5
ENDBRANCH   1   3
BRANCH   1  11
ATOM     11  C   UNL     1       1.104  78.147 -20.472  1.00  0.00     0.087 C 
BRANCH  11  12
ATOM     12  C   UNL     1       1.096  77.261 -19.188  1.00  0.00     0.066 C 
BRANCH  12  13
ATOM     13  C   UNL     1       0.549  75.855 -19.422  1.00  0.00     0.140 C 
ATOM     14  O   UNL     1       1.037  74.930 -18.789  1.00  0.00    -0.299 OA
BRANCH  13  15
ATOM     15  C   UNL     1      -0.458  75.549 -20.508  1.00  0.00     0.106 CG0
ATOM     16  G   UNL     1       0.156  75.041 -21.806  1.00  0.00     0.000 G0
ENDBRANCH  13  15
ENDBRANCH  12  13
BRANCH  12  17
ATOM     17  C   UNL     1       2.524  77.184 -18.549  1.00  0.00    -0.006 C 
ATOM     18  C   UNL     1       2.615  77.979 -17.232  1.00  0.00     0.008 C 
ATOM     19  C   UNL     1       3.620  77.691 -19.505  1.00  0.00     0.008 C 
ENDBRANCH  12  17
ENDBRANCH  11  12
ENDBRANCH   1  11
TORSDOF 1
ENDMDL
MODEL 5
REMARK VINA RESULT:    -2.826      5.602      7.802
REMARK INTER + INTRA:          -4.788
REMARK INTER:                  -4.333
REMARK INTRA:                  -0.455
REMARK UNBOUND:                -0.475
REMARK SMILES CC1=CCC[C@H](C)C(=O)C[C@H](C(C)C)C(=O)C1
REMARK SMILES IDX 8 1 9 2 6 3 7 4 5 5 4 6 3 7 2 8 1 9 10 11 11 12 15 13 16 14
REMARK SMILES IDX 17 15 12 17 13 18 14 19
REMARK H PARENT
REMARK Flexibility Score: 70.00
ROOT
ATOM      1  C   UNL     1       4.433  76.790 -17.338  1.00  0.00     0.136 C 
ATOM      2  O   UNL     1       4.520  75.827 -18.087  1.00  0.00    -0.299 OA
ENDROOT
BRANCH   1   3
ATOM      3  C   UNL     1       3.085  77.468 -17.191  1.00  0.00     0.053 C 
ATOM      4  C   UNL     1       2.880  77.905 -15.734  1.00  0.00     0.016 C 
BRANCH   3   5
ATOM      5  C   UNL     1       2.974  78.683 -18.166  1.00  0.00     0.015 C 
BRANCH   5   6
ATOM      6  C   UNL     1       2.946  80.048 -17.443  1.00  0.00     0.028 C 
BRANCH   6   7
ATOM      7  C   UNL     1       3.961  81.048 -17.956  1.00  0.00    -0.028 C 
ATOM      8  C   UNL     1       5.256  81.165 -17.565  1.00  0.00    -0.070 CG0
ATOM      9  C   UNL     1       6.119  82.151 -18.313  1.00  0.00     0.039 C 
ATOM     10  G   UNL     1       5.859  80.437 -16.371  1.00  0.00     0.000 G0
ENDBRANCH   6   7
ENDBRANCH   5   6
ENDBRANCH   3   5
ENDBRANCH   1   3
BRANCH   1  11
ATOM     11  C   UNL     1       5.698  77.242 -16.633  1.00  0.00     0.087 C 
BRANCH  11  12
ATOM     12  C   UNL     1       6.711  78.125 -17.425  1.00  0.00     0.066 C 
BRANCH  12  13
ATOM     13  C   UNL     1       6.981  79.478 -16.769  1.00  0.00     0.140 C 
ATOM     14  O   UNL     1       8.128  79.745 -16.441  1.00  0.00    -0.299 OA
BRANCH  13  15
ATOM     15  C   UNL     1       5.868  80.424 -16.378  1.00  0.00     0.106 CG0
ATOM     16  G   UNL     1       5.233  81.162 -17.550  1.00  0.00     0.000 G0
ENDBRANCH  13  15
ENDBRANCH  12  13
BRANCH  12  17
ATOM     17  C   UNL     1       8.058  77.362 -17.660  1.00  0.00    -0.006 C 
ATOM     18  C   UNL     1       8.306  77.066 -19.152  1.00  0.00     0.008 C 
ATOM     19  C   UNL     1       8.122  76.036 -16.879  1.00  0.00     0.008 C 
ENDBRANCH  12  17
ENDBRANCH  11  12
ENDBRANCH   1  11
TORSDOF 1
ENDMDL
MODEL 6
REMARK VINA RESULT:    -2.822     10.528     12.113
REMARK INTER + INTRA:          -4.783
REMARK INTER:                  -4.502
REMARK INTRA:                  -0.281
REMARK UNBOUND:                -0.475
REMARK SMILES CC1=CCC[C@H](C)C(=O)C[C@H](C(C)C)C(=O)C1
REMARK SMILES IDX 8 1 9 2 6 3 7 4 5 5 4 6 3 7 2 8 1 9 10 11 11 12 15 13 16 14
REMARK SMILES IDX 17 15 12 17 13 18 14 19
REMARK H PARENT
REMARK Flexibility Score: 70.00
ROOT
ATOM      1  C   UNL     1       8.413  74.570 -29.022  1.00  0.00     0.136 C 
ATOM      2  O   UNL     1       8.018  74.352 -27.885  1.00  0.00    -0.299 OA
ENDROOT
BRANCH   1   3
ATOM      3  C   UNL     1       9.870  74.299 -29.342  1.00  0.00     0.053 C 
ATOM      4  C   UNL     1      10.061  74.223 -30.864  1.00  0.00     0.016 C 
BRANCH   3   5
ATOM      5  C   UNL     1      10.783  75.398 -28.712  1.00  0.00     0.015 C 
BRANCH   5   6
ATOM      6  C   UNL     1      11.314  76.418 -29.744  1.00  0.00     0.028 C 
BRANCH   6   7
ATOM      7  C   UNL     1      10.775  77.822 -29.569  1.00  0.00    -0.028 C 
ATOM      8  C   UNL     1       9.737  78.385 -30.242  1.00  0.00    -0.070 CG0
ATOM      9  C   UNL     1       9.291  79.758 -29.804  1.00  0.00     0.039 C 
ATOM     10  G   UNL     1       9.064  77.758 -31.456  1.00  0.00     0.000 G0
ENDBRANCH   6   7
ENDBRANCH   5   6
ENDBRANCH   3   5
ENDBRANCH   1   3
BRANCH   1  11
ATOM     11  C   UNL     1       7.408  75.121 -30.016  1.00  0.00     0.087 C 
BRANCH  11  12
ATOM     12  C   UNL     1       7.123  76.655 -30.006  1.00  0.00     0.066 C 
BRANCH  12  13
ATOM     13  C   UNL     1       7.615  77.374 -31.260  1.00  0.00     0.140 C 
ATOM     14  O   UNL     1       6.829  77.533 -32.183  1.00  0.00    -0.299 OA
BRANCH  13  15
ATOM     15  C   UNL     1       9.065  77.755 -31.457  1.00  0.00     0.106 CG0
ATOM     16  G   UNL     1       9.727  78.360 -30.226  1.00  0.00     0.000 G0
ENDBRANCH  13  15
ENDBRANCH  12  13
BRANCH  12  17
ATOM     17  C   UNL     1       5.599  76.942 -29.783  1.00  0.00    -0.006 C 
ATOM     18  C   UNL     1       5.310  77.487 -28.371  1.00  0.00     0.008 C 
ATOM     19  C   UNL     1       4.730  75.692 -30.015  1.00  0.00     0.008 C 
ENDBRANCH  12  17
ENDBRANCH  11  12
ENDBRANCH   1  11
TORSDOF 1
ENDMDL
MODEL 7
REMARK VINA RESULT:    -2.808      2.839      5.773
REMARK INTER + INTRA:          -4.760
REMARK INTER:                  -4.464
REMARK INTRA:                  -0.296
REMARK UNBOUND:                -0.475
REMARK SMILES CC1=CCC[C@H](C)C(=O)C[C@H](C(C)C)C(=O)C1
REMARK SMILES IDX 8 1 9 2 6 3 7 4 5 5 4 6 3 7 2 8 1 9 10 11 11 12 15 13 16 14
REMARK SMILES IDX 17 15 12 17 13 18 14 19
REMARK H PARENT
REMARK Flexibility Score: 70.00
ROOT
ATOM      1  C   UNL     1      12.176  75.792 -21.746  1.00  0.00     0.136 C 
ATOM      2  O   UNL     1      11.224  75.755 -22.514  1.00  0.00    -0.299 OA
ENDROOT
BRANCH   1   3
ATOM      3  C   UNL     1      12.005  75.203 -20.359  1.00  0.00     0.053 C 
ATOM      4  C   UNL     1      13.361  74.707 -19.836  1.00  0.00     0.016 C 
BRANCH   3   5
ATOM      5  C   UNL     1      11.376  76.254 -19.391  1.00  0.00     0.015 C 
BRANCH   5   6
ATOM      6  C   UNL     1      12.338  77.408 -19.030  1.00  0.00     0.028 C 
BRANCH   6   7
ATOM      7  C   UNL     1      11.880  78.773 -19.496  1.00  0.00    -0.028 C 
ATOM      8  C   UNL     1      12.430  79.521 -20.488  1.00  0.00    -0.070 CG0
ATOM      9  C   UNL     1      11.720  80.797 -20.869  1.00  0.00     0.039 C 
ATOM     10  G   UNL     1      13.754  79.199 -21.169  1.00  0.00     0.000 G0
ENDBRANCH   6   7
ENDBRANCH   5   6
ENDBRANCH   3   5
ENDBRANCH   1   3
BRANCH   1  11
ATOM     11  C   UNL     1      13.449  76.451 -22.243  1.00  0.00     0.087 C 
BRANCH  11  12
ATOM     12  C   UNL     1      13.324  77.618 -23.270  1.00  0.00     0.066 C 
BRANCH  12  13
ATOM     13  C   UNL     1      13.650  78.987 -22.678  1.00  0.00     0.140 C 
ATOM     14  O   UNL     1      13.952  79.893 -23.441  1.00  0.00    -0.299 OA
BRANCH  13  15
ATOM     15  C   UNL     1      13.761  79.218 -21.187  1.00  0.00     0.106 CG0
ATOM     16  G   UNL     1      12.435  79.514 -20.498  1.00  0.00     0.000 G0
ENDBRANCH  13  15
ENDBRANCH  12  13
BRANCH  12  17
ATOM     17  C   UNL     1      14.210  77.353 -24.534  1.00  0.00    -0.006 C 
ATOM     18  C   UNL     1      13.416  77.509 -25.845  1.00  0.00     0.008 C 
ATOM     19  C   UNL     1      14.853  75.953 -24.512  1.00  0.00     0.008 C 
ENDBRANCH  12  17
ENDBRANCH  11  12
ENDBRANCH   1  11
TORSDOF 1
ENDMDL
MODEL 8
REMARK VINA RESULT:    -2.796      2.733      5.276
REMARK INTER + INTRA:          -4.742
REMARK INTER:                  -4.545
REMARK INTRA:                  -0.197
REMARK UNBOUND:                -0.475
REMARK SMILES CC1=CCC[C@H](C)C(=O)C[C@H](C(C)C)C(=O)C1
REMARK SMILES IDX 8 1 9 2 6 3 7 4 5 5 4 6 3 7 2 8 1 9 10 11 11 12 15 13 16 14
REMARK SMILES IDX 17 15 12 17 13 18 14 19
REMARK H PARENT
REMARK Flexibility Score: 70.00
ROOT
ATOM      1  C   UNL     1      12.657  76.334 -19.315  1.00  0.00     0.136 C 
ATOM      2  O   UNL     1      13.368  75.354 -19.492  1.00  0.00    -0.299 OA
ENDROOT
BRANCH   1   3
ATOM      3  C   UNL     1      11.553  76.245 -18.280  1.00  0.00     0.053 C 
ATOM      4  C   UNL     1      11.303  74.776 -17.914  1.00  0.00     0.016 C 
BRANCH   3   5
ATOM      5  C   UNL     1      11.916  77.089 -17.017  1.00  0.00     0.015 C 
BRANCH   5   6
ATOM      6  C   UNL     1      11.485  78.569 -17.123  1.00  0.00     0.028 C 
BRANCH   6   7
ATOM      7  C   UNL     1      10.102  78.776 -17.702  1.00  0.00    -0.028 C 
ATOM      8  C   UNL     1       9.799  79.152 -18.972  1.00  0.00    -0.070 CG0
ATOM      9  C   UNL     1       8.342  79.166 -19.362  1.00  0.00     0.039 C 
ATOM     10  G   UNL     1      10.824  79.642 -19.987  1.00  0.00     0.000 G0
ENDBRANCH   6   7
ENDBRANCH   5   6
ENDBRANCH   3   5
ENDBRANCH   1   3
BRANCH   1  11
ATOM     11  C   UNL     1      12.930  77.558 -20.170  1.00  0.00     0.087 C 
BRANCH  11  12
ATOM     12  C   UNL     1      12.055  77.780 -21.442  1.00  0.00     0.066 C 
BRANCH  12  13
ATOM     13  C   UNL     1      10.942  78.807 -21.243  1.00  0.00     0.140 C 
ATOM     14  O   UNL     1      10.191  79.038 -22.180  1.00  0.00    -0.299 OA
BRANCH  13  15
ATOM     15  C   UNL     1      10.833  79.649 -19.991  1.00  0.00     0.106 CG0
ATOM     16  G   UNL     1       9.791  79.159 -18.995  1.00  0.00     0.000 G0
ENDBRANCH  13  15
ENDBRANCH  12  13
BRANCH  12  17
ATOM     17  C   UNL     1      12.940  78.177 -22.671  1.00  0.00    -0.006 C 
ATOM     18  C   UNL     1      13.901  77.046 -23.086  1.00  0.00     0.008 C 
ATOM     19  C   UNL     1      13.766  79.451 -22.409  1.00  0.00     0.008 C 
ENDBRANCH  12  17
ENDBRANCH  11  12
ENDBRANCH   1  11
TORSDOF 1
ENDMDL
MODEL 9
REMARK VINA RESULT:    -2.793      1.887      4.169
REMARK INTER + INTRA:          -4.737
REMARK INTER:                  -4.252
REMARK INTRA:                  -0.485
REMARK UNBOUND:                -0.475
REMARK SMILES CC1=CCC[C@H](C)C(=O)C[C@H](C(C)C)C(=O)C1
REMARK SMILES IDX 8 1 9 2 6 3 7 4 5 5 4 6 3 7 2 8 1 9 10 11 11 12 15 13 16 14
REMARK SMILES IDX 17 15 12 17 13 18 14 19
REMARK H PARENT
REMARK Flexibility Score: 70.00
ROOT
ATOM      1  C   UNL     1      10.384  79.214 -17.547  1.00  0.00     0.136 C 
ATOM      2  O   UNL     1       9.430  78.993 -16.813  1.00  0.00    -0.299 OA
ENDROOT
BRANCH   1   3
ATOM      3  C   UNL     1      11.603  78.320 -17.433  1.00  0.00     0.053 C 
ATOM      4  C   UNL     1      12.099  78.302 -15.980  1.00  0.00     0.016 C 
BRANCH   3   5
ATOM      5  C   UNL     1      11.274  76.878 -17.936  1.00  0.00     0.015 C 
BRANCH   5   6
ATOM      6  C   UNL     1      10.530  76.857 -19.290  1.00  0.00     0.028 C 
BRANCH   6   7
ATOM      7  C   UNL     1      11.436  76.916 -20.501  1.00  0.00    -0.028 C 
ATOM      8  C   UNL     1      11.634  77.985 -21.317  1.00  0.00    -0.070 CG0
ATOM      9  C   UNL     1      12.689  77.852 -22.388  1.00  0.00     0.039 C 
ATOM     10  G   UNL     1      10.802  79.260 -21.275  1.00  0.00     0.000 G0
ENDBRANCH   6   7
ENDBRANCH   5   6
ENDBRANCH   3   5
ENDBRANCH   1   3
BRANCH   1  11
ATOM     11  C   UNL     1      10.272  80.389 -18.500  1.00  0.00     0.087 C 
BRANCH  11  12
ATOM     12  C   UNL     1      11.550  80.836 -19.275  1.00  0.00     0.066 C 
BRANCH  12  13
ATOM     13  C   UNL     1      11.516  80.483 -20.760  1.00  0.00     0.140 C 
ATOM     14  O   UNL     1      11.992  81.279 -21.557  1.00  0.00    -0.299 OA
BRANCH  13  15
ATOM     15  C   UNL     1      10.787  79.267 -21.286  1.00  0.00     0.106 CG0
ATOM     16  G   UNL     1      11.626  77.996 -21.311  1.00  0.00     0.000 G0
ENDBRANCH  13  15
ENDBRANCH  12  13
BRANCH  12  17
ATOM     17  C   UNL     1      11.810  82.370 -19.092  1.00  0.00    -0.006 C 
ATOM     18  C   UNL     1      12.556  82.681 -17.780  1.00  0.00     0.008 C 
ATOM     19  C   UNL     1      10.507  83.191 -19.123  1.00  0.00     0.008 C 
ENDBRANCH  12  17
ENDBRANCH  11  12
ENDBRANCH   1  11
TORSDOF 1
ENDMDL
