MODEL 1
REMARK VINA RESULT:    -5.066      0.000      0.000
REMARK INTER + INTRA:          -9.933
REMARK INTER:                  -8.915
REMARK INTRA:                  -1.018
REMARK UNBOUND:                -1.018
REMARK SMILES CCCCCCC=CCCCCCCCC(=O)[O-]
REMARK SMILES IDX 10 1 11 2 12 3 13 4 14 5 15 6 16 7 17 8 18 9 9 10 8 11 7 12
REMARK SMILES IDX 6 13 5 14 4 15 3 16 2 17 1 18
REMARK H PARENT
REMARK Flexibility Score: inf
ROOT
ATOM      1  C   UNL     1     -50.916  26.703  17.887  1.00  0.00     0.004 C 
ENDROOT
BRANCH   1   2
ATOM      2  C   UNL     1     -51.675  26.466  16.569  1.00  0.00     0.000 C 
BRANCH   2   3
ATOM      3  C   UNL     1     -50.942  27.050  15.350  1.00  0.00     0.000 C 
BRANCH   3   4
ATOM      4  C   UNL     1     -49.714  27.890  15.745  1.00  0.00     0.000 C 
BRANCH   4   5
ATOM      5  C   UNL     1     -49.387  28.977  14.710  1.00  0.00     0.006 C 
BRANCH   5   6
ATOM      6  C   UNL     1     -48.960  30.302  15.356  1.00  0.00     0.053 C 
BRANCH   6   7
ATOM      7  C   UNL     1     -49.718  31.444  14.756  1.00  0.00     0.041 C 
ATOM      8  O   UNL     1     -49.225  32.603  14.759  1.00  0.00    -0.550 OA
ATOM      9  O   UNL     1     -50.989  31.238  14.239  1.00  0.00    -0.550 OA
ENDBRANCH   6   7
ENDBRANCH   5   6
ENDBRANCH   4   5
ENDBRANCH   3   4
ENDBRANCH   2   3
ENDBRANCH   1   2
BRANCH   1  10
ATOM     10  C   UNL     1     -50.705  25.399  18.673  1.00  0.00     0.027 C 
BRANCH  10  11
ATOM     11  C   UNL     1     -49.572  25.501  19.659  1.00  0.00    -0.031 C 
ATOM     12  C   UNL     1     -48.642  26.463  19.567  1.00  0.00    -0.031 C 
BRANCH  12  13
ATOM     13  C   UNL     1     -47.506  26.557  20.547  1.00  0.00     0.027 C 
BRANCH  13  14
ATOM     14  C   UNL     1     -47.789  27.613  21.625  1.00  0.00     0.004 C 
BRANCH  14  15
ATOM     15  C   UNL     1     -48.089  29.004  21.037  1.00  0.00     0.000 C 
BRANCH  15  16
ATOM     16  C   UNL     1     -46.871  29.736  20.445  1.00  0.00    -0.000 C 
BRANCH  16  17
ATOM     17  C   UNL     1     -47.212  31.136  19.917  1.00  0.00    -0.003 C 
ATOM     18  C   UNL     1     -46.717  32.220  20.872  1.00  0.00     0.004 C 
ENDBRANCH  16  17
ENDBRANCH  15  16
ENDBRANCH  14  15
ENDBRANCH  13  14
ENDBRANCH  12  13
ENDBRANCH  10  11
ENDBRANCH   1  10
TORSDOF 13
ENDMDL
MODEL 2
REMARK VINA RESULT:    -5.056      2.213      5.561
REMARK INTER + INTRA:          -9.916
REMARK INTER:                  -8.757
REMARK INTRA:                  -1.159
REMARK UNBOUND:                -1.018
REMARK SMILES CCCCCCC=CCCCCCCCC(=O)[O-]
REMARK SMILES IDX 10 1 11 2 12 3 13 4 14 5 15 6 16 7 17 8 18 9 9 10 8 11 7 12
REMARK SMILES IDX 6 13 5 14 4 15 3 16 2 17 1 18
REMARK H PARENT
REMARK Flexibility Score: inf
ROOT
ATOM      1  C   UNL     1     -47.626  27.468  21.791  1.00  0.00     0.004 C 
ENDROOT
BRANCH   1   2
ATOM      2  C   UNL     1     -46.798  26.939  20.606  1.00  0.00     0.000 C 
BRANCH   2   3
ATOM      3  C   UNL     1     -47.539  25.862  19.798  1.00  0.00     0.000 C 
BRANCH   3   4
ATOM      4  C   UNL     1     -49.005  25.698  20.237  1.00  0.00     0.000 C 
BRANCH   4   5
ATOM      5  C   UNL     1     -49.953  25.468  19.050  1.00  0.00     0.006 C 
BRANCH   5   6
ATOM      6  C   UNL     1     -50.297  26.765  18.305  1.00  0.00     0.053 C 
BRANCH   6   7
ATOM      7  C   UNL     1     -51.258  26.490  17.192  1.00  0.00     0.041 C 
ATOM      8  O   UNL     1     -52.161  25.624  17.335  1.00  0.00    -0.550 OA
ATOM      9  O   UNL     1     -51.127  27.153  15.980  1.00  0.00    -0.550 OA
ENDBRANCH   6   7
ENDBRANCH   5   6
ENDBRANCH   4   5
ENDBRANCH   3   4
ENDBRANCH   2   3
ENDBRANCH   1   2
BRANCH   1  10
ATOM     10  C   UNL     1     -47.680  29.003  21.818  1.00  0.00     0.027 C 
BRANCH  10  11
ATOM     11  C   UNL     1     -47.744  29.600  20.438  1.00  0.00    -0.031 C 
ATOM     12  C   UNL     1     -47.203  30.796  20.162  1.00  0.00    -0.031 C 
BRANCH  12  13
ATOM     13  C   UNL     1     -47.278  31.395  18.784  1.00  0.00     0.027 C 
BRANCH  13  14
ATOM     14  C   UNL     1     -47.617  30.329  17.733  1.00  0.00     0.004 C 
BRANCH  14  15
ATOM     15  C   UNL     1     -48.135  30.931  16.414  1.00  0.00     0.000 C 
BRANCH  15  16
ATOM     16  C   UNL     1     -47.135  30.889  15.244  1.00  0.00    -0.000 C 
BRANCH  16  17
ATOM     17  C   UNL     1     -47.699  31.498  13.953  1.00  0.00    -0.003 C 
ATOM     18  C   UNL     1     -48.717  32.594  14.261  1.00  0.00     0.004 C 
ENDBRANCH  16  17
ENDBRANCH  15  16
ENDBRANCH  14  15
ENDBRANCH  13  14
ENDBRANCH  12  13
ENDBRANCH  10  11
ENDBRANCH   1  10
TORSDOF 13
ENDMDL
MODEL 3
REMARK VINA RESULT:    -5.038      2.430      5.314
REMARK INTER + INTRA:          -9.884
REMARK INTER:                  -8.330
REMARK INTRA:                  -1.554
REMARK UNBOUND:                -1.018
REMARK SMILES CCCCCCC=CCCCCCCCC(=O)[O-]
REMARK SMILES IDX 10 1 11 2 12 3 13 4 14 5 15 6 16 7 17 8 18 9 9 10 8 11 7 12
REMARK SMILES IDX 6 13 5 14 4 15 3 16 2 17 1 18
REMARK H PARENT
REMARK Flexibility Score: inf
ROOT
ATOM      1  C   UNL     1     -48.430  26.059  19.740  1.00  0.00     0.004 C 
ENDROOT
BRANCH   1   2
ATOM      2  C   UNL     1     -47.942  26.769  21.015  1.00  0.00     0.000 C 
BRANCH   2   3
ATOM      3  C   UNL     1     -47.880  28.296  20.857  1.00  0.00     0.000 C 
BRANCH   3   4
ATOM      4  C   UNL     1     -48.484  28.777  19.526  1.00  0.00     0.000 C 
BRANCH   4   5
ATOM      5  C   UNL     1     -47.429  29.378  18.583  1.00  0.00     0.006 C 
BRANCH   5   6
ATOM      6  C   UNL     1     -47.479  30.911  18.536  1.00  0.00     0.053 C 
BRANCH   6   7
ATOM      7  C   UNL     1     -46.427  31.495  19.425  1.00  0.00     0.041 C 
ATOM      8  O   UNL     1     -46.751  32.251  20.378  1.00  0.00    -0.550 OA
ATOM      9  O   UNL     1     -45.085  31.245  19.171  1.00  0.00    -0.550 OA
ENDBRANCH   6   7
ENDBRANCH   5   6
ENDBRANCH   4   5
ENDBRANCH   3   4
ENDBRANCH   2   3
ENDBRANCH   1   2
BRANCH   1  10
ATOM     10  C   UNL     1     -49.833  25.456  19.916  1.00  0.00     0.027 C 
BRANCH  10  11
ATOM     11  C   UNL     1     -50.605  25.413  18.625  1.00  0.00    -0.031 C 
ATOM     12  C   UNL     1     -50.714  26.490  17.833  1.00  0.00    -0.031 C 
BRANCH  12  13
ATOM     13  C   UNL     1     -51.496  26.448  16.549  1.00  0.00     0.027 C 
BRANCH  13  14
ATOM     14  C   UNL     1     -50.841  27.326  15.472  1.00  0.00     0.004 C 
BRANCH  14  15
ATOM     15  C   UNL     1     -49.544  27.999  15.956  1.00  0.00     0.000 C 
BRANCH  15  16
ATOM     16  C   UNL     1     -49.261  29.383  15.341  1.00  0.00    -0.000 C 
BRANCH  16  17
ATOM     17  C   UNL     1     -50.478  29.976  14.618  1.00  0.00    -0.003 C 
ATOM     18  C   UNL     1     -50.421  31.501  14.607  1.00  0.00     0.004 C 
ENDBRANCH  16  17
ENDBRANCH  15  16
ENDBRANCH  14  15
ENDBRANCH  13  14
ENDBRANCH  12  13
ENDBRANCH  10  11
ENDBRANCH   1  10
TORSDOF 13
ENDMDL
MODEL 4
REMARK VINA RESULT:    -4.934      1.439      4.570
REMARK INTER + INTRA:          -9.701
REMARK INTER:                  -7.798
REMARK INTRA:                  -1.903
REMARK UNBOUND:                -1.018
REMARK SMILES CCCCCCC=CCCCCCCCC(=O)[O-]
REMARK SMILES IDX 10 1 11 2 12 3 13 4 14 5 15 6 16 7 17 8 18 9 9 10 8 11 7 12
REMARK SMILES IDX 6 13 5 14 4 15 3 16 2 17 1 18
REMARK H PARENT
REMARK Flexibility Score: inf
ROOT
ATOM      1  C   UNL     1     -46.634  31.496  19.039  1.00  0.00     0.004 C 
ENDROOT
BRANCH   1   2
ATOM      2  C   UNL     1     -45.644  30.409  18.585  1.00  0.00     0.000 C 
BRANCH   2   3
ATOM      3  C   UNL     1     -45.997  29.822  17.209  1.00  0.00     0.000 C 
BRANCH   3   4
ATOM      4  C   UNL     1     -47.222  28.892  17.260  1.00  0.00     0.000 C 
BRANCH   4   5
ATOM      5  C   UNL     1     -48.292  29.270  16.223  1.00  0.00     0.006 C 
BRANCH   5   6
ATOM      6  C   UNL     1     -48.395  30.785  16.002  1.00  0.00     0.053 C 
BRANCH   6   7
ATOM      7  C   UNL     1     -49.069  31.078  14.699  1.00  0.00     0.041 C 
ATOM      8  O   UNL     1     -48.469  30.860  13.613  1.00  0.00    -0.550 OA
ATOM      9  O   UNL     1     -50.340  31.636  14.683  1.00  0.00    -0.550 OA
ENDBRANCH   6   7
ENDBRANCH   5   6
ENDBRANCH   4   5
ENDBRANCH   3   4
ENDBRANCH   2   3
ENDBRANCH   1   2
BRANCH   1  10
ATOM     10  C   UNL     1     -47.171  31.232  20.454  1.00  0.00     0.027 C 
BRANCH  10  11
ATOM     11  C   UNL     1     -47.031  29.790  20.862  1.00  0.00    -0.031 C 
ATOM     12  C   UNL     1     -48.094  28.978  20.957  1.00  0.00    -0.031 C 
BRANCH  12  13
ATOM     13  C   UNL     1     -47.953  27.541  21.375  1.00  0.00     0.027 C 
BRANCH  13  14
ATOM     14  C   UNL     1     -47.084  26.757  20.381  1.00  0.00     0.004 C 
BRANCH  14  15
ATOM     15  C   UNL     1     -47.898  25.779  19.514  1.00  0.00     0.000 C 
BRANCH  15  16
ATOM     16  C   UNL     1     -49.317  25.479  20.032  1.00  0.00    -0.000 C 
BRANCH  16  17
ATOM     17  C   UNL     1     -50.363  25.415  18.910  1.00  0.00    -0.003 C 
ATOM     18  C   UNL     1     -50.358  26.697  18.081  1.00  0.00     0.004 C 
ENDBRANCH  16  17
ENDBRANCH  15  16
ENDBRANCH  14  15
ENDBRANCH  13  14
ENDBRANCH  12  13
ENDBRANCH  10  11
ENDBRANCH   1  10
TORSDOF 13
ENDMDL
MODEL 5
REMARK VINA RESULT:    -4.929      2.222      4.797
REMARK INTER + INTRA:          -9.693
REMARK INTER:                  -7.822
REMARK INTRA:                  -1.871
REMARK UNBOUND:                -1.018
REMARK SMILES CCCCCCC=CCCCCCCCC(=O)[O-]
REMARK SMILES IDX 10 1 11 2 12 3 13 4 14 5 15 6 16 7 17 8 18 9 9 10 8 11 7 12
REMARK SMILES IDX 6 13 5 14 4 15 3 16 2 17 1 18
REMARK H PARENT
REMARK Flexibility Score: inf
ROOT
ATOM      1  C   UNL     1     -47.524  26.942  21.041  1.00  0.00     0.004 C 
ENDROOT
BRANCH   1   2
ATOM      2  C   UNL     1     -48.632  26.779  19.985  1.00  0.00     0.000 C 
BRANCH   2   3
ATOM      3  C   UNL     1     -49.370  25.436  20.103  1.00  0.00     0.000 C 
BRANCH   3   4
ATOM      4  C   UNL     1     -50.276  25.151  18.891  1.00  0.00     0.000 C 
BRANCH   4   5
ATOM      5  C   UNL     1     -50.516  26.401  18.029  1.00  0.00     0.006 C 
BRANCH   5   6
ATOM      6  C   UNL     1     -51.738  26.263  17.111  1.00  0.00     0.053 C 
BRANCH   6   7
ATOM      7  C   UNL     1     -51.489  26.947  15.804  1.00  0.00     0.041 C 
ATOM      8  O   UNL     1     -52.439  27.145  15.002  1.00  0.00    -0.550 OA
ATOM      9  O   UNL     1     -50.200  27.320  15.449  1.00  0.00    -0.550 OA
ENDBRANCH   6   7
ENDBRANCH   5   6
ENDBRANCH   4   5
ENDBRANCH   3   4
ENDBRANCH   2   3
ENDBRANCH   1   2
BRANCH   1  10
ATOM     10  C   UNL     1     -47.560  28.328  21.704  1.00  0.00     0.027 C 
BRANCH  10  11
ATOM     11  C   UNL     1     -46.937  29.393  20.843  1.00  0.00    -0.031 C 
ATOM     12  C   UNL     1     -47.682  30.211  20.086  1.00  0.00    -0.031 C 
BRANCH  12  13
ATOM     13  C   UNL     1     -47.057  31.269  19.218  1.00  0.00     0.027 C 
BRANCH  13  14
ATOM     14  C   UNL     1     -47.106  30.870  17.736  1.00  0.00     0.004 C 
BRANCH  14  15
ATOM     15  C   UNL     1     -47.973  29.624  17.479  1.00  0.00     0.000 C 
BRANCH  15  16
ATOM     16  C   UNL     1     -47.215  28.411  16.908  1.00  0.00    -0.000 C 
BRANCH  16  17
ATOM     17  C   UNL     1     -45.769  28.317  17.415  1.00  0.00    -0.003 C 
ATOM     18  C   UNL     1     -45.483  26.938  18.007  1.00  0.00     0.004 C 
ENDBRANCH  16  17
ENDBRANCH  15  16
ENDBRANCH  14  15
ENDBRANCH  13  14
ENDBRANCH  12  13
ENDBRANCH  10  11
ENDBRANCH   1  10
TORSDOF 13
ENDMDL
MODEL 6
REMARK VINA RESULT:    -4.897      2.121      5.488
REMARK INTER + INTRA:          -9.635
REMARK INTER:                  -8.593
REMARK INTRA:                  -1.043
REMARK UNBOUND:                -1.018
REMARK SMILES CCCCCCC=CCCCCCCCC(=O)[O-]
REMARK SMILES IDX 10 1 11 2 12 3 13 4 14 5 15 6 16 7 17 8 18 9 9 10 8 11 7 12
REMARK SMILES IDX 6 13 5 14 4 15 3 16 2 17 1 18
REMARK H PARENT
REMARK Flexibility Score: inf
ROOT
ATOM      1  C   UNL     1     -50.317  25.252  19.075  1.00  0.00     0.004 C 
ENDROOT
BRANCH   1   2
ATOM      2  C   UNL     1     -49.232  26.339  19.165  1.00  0.00     0.000 C 
BRANCH   2   3
ATOM      3  C   UNL     1     -48.382  26.225  20.441  1.00  0.00     0.000 C 
BRANCH   3   4
ATOM      4  C   UNL     1     -47.801  27.579  20.886  1.00  0.00     0.000 C 
BRANCH   4   5
ATOM      5  C   UNL     1     -48.413  28.764  20.122  1.00  0.00     0.006 C 
BRANCH   5   6
ATOM      6  C   UNL     1     -47.379  29.527  19.283  1.00  0.00     0.053 C 
BRANCH   6   7
ATOM      7  C   UNL     1     -47.298  30.953  19.726  1.00  0.00     0.041 C 
ATOM      8  O   UNL     1     -47.497  31.885  18.903  1.00  0.00    -0.550 OA
ATOM      9  O   UNL     1     -46.953  31.255  21.037  1.00  0.00    -0.550 OA
ENDBRANCH   6   7
ENDBRANCH   5   6
ENDBRANCH   4   5
ENDBRANCH   3   4
ENDBRANCH   2   3
ENDBRANCH   1   2
BRANCH   1  10
ATOM     10  C   UNL     1     -51.384  25.587  18.021  1.00  0.00     0.027 C 
BRANCH  10  11
ATOM     11  C   UNL     1     -51.041  26.821  17.230  1.00  0.00    -0.031 C 
ATOM     12  C   UNL     1     -51.288  26.905  15.914  1.00  0.00    -0.031 C 
BRANCH  12  13
ATOM     13  C   UNL     1     -50.936  28.134  15.123  1.00  0.00     0.027 C 
BRANCH  13  14
ATOM     14  C   UNL     1     -49.417  28.359  15.094  1.00  0.00     0.004 C 
BRANCH  14  15
ATOM     15  C   UNL     1     -49.022  29.700  14.451  1.00  0.00     0.000 C 
BRANCH  15  16
ATOM     16  C   UNL     1     -50.182  30.694  14.254  1.00  0.00    -0.000 C 
BRANCH  16  17
ATOM     17  C   UNL     1     -49.915  32.061  14.900  1.00  0.00    -0.003 C 
ATOM     18  C   UNL     1     -48.849  32.835  14.127  1.00  0.00     0.004 C 
ENDBRANCH  16  17
ENDBRANCH  15  16
ENDBRANCH  14  15
ENDBRANCH  13  14
ENDBRANCH  12  13
ENDBRANCH  10  11
ENDBRANCH   1  10
TORSDOF 13
ENDMDL
MODEL 7
REMARK VINA RESULT:    -4.886      2.623      6.251
REMARK INTER + INTRA:          -9.616
REMARK INTER:                  -8.538
REMARK INTRA:                  -1.078
REMARK UNBOUND:                -1.018
REMARK SMILES CCCCCCC=CCCCCCCCC(=O)[O-]
REMARK SMILES IDX 10 1 11 2 12 3 13 4 14 5 15 6 16 7 17 8 18 9 9 10 8 11 7 12
REMARK SMILES IDX 6 13 5 14 4 15 3 16 2 17 1 18
REMARK H PARENT
REMARK Flexibility Score: inf
ROOT
ATOM      1  C   UNL     1     -51.685  26.453  16.721  1.00  0.00     0.004 C 
ENDROOT
BRANCH   1   2
ATOM      2  C   UNL     1     -50.658  26.512  17.866  1.00  0.00     0.000 C 
BRANCH   2   3
ATOM      3  C   UNL     1     -50.614  25.215  18.690  1.00  0.00     0.000 C 
BRANCH   3   4
ATOM      4  C   UNL     1     -49.772  25.359  19.971  1.00  0.00     0.000 C 
BRANCH   4   5
ATOM      5  C   UNL     1     -48.433  26.070  19.720  1.00  0.00     0.006 C 
BRANCH   5   6
ATOM      6  C   UNL     1     -48.018  26.980  20.883  1.00  0.00     0.053 C 
BRANCH   6   7
ATOM      7  C   UNL     1     -48.087  28.417  20.472  1.00  0.00     0.041 C 
ATOM      8  O   UNL     1     -48.430  28.725  19.300  1.00  0.00    -0.550 OA
ATOM      9  O   UNL     1     -47.727  29.415  21.368  1.00  0.00    -0.550 OA
ENDBRANCH   6   7
ENDBRANCH   5   6
ENDBRANCH   4   5
ENDBRANCH   3   4
ENDBRANCH   2   3
ENDBRANCH   1   2
BRANCH   1  10
ATOM     10  C   UNL     1     -51.119  27.015  15.408  1.00  0.00     0.027 C 
BRANCH  10  11
ATOM     11  C   UNL     1     -51.477  28.463  15.202  1.00  0.00    -0.031 C 
ATOM     12  C   UNL     1     -50.607  29.334  14.670  1.00  0.00    -0.031 C 
BRANCH  12  13
ATOM     13  C   UNL     1     -50.963  30.782  14.474  1.00  0.00     0.027 C 
BRANCH  13  14
ATOM     14  C   UNL     1     -49.763  31.693  14.772  1.00  0.00     0.004 C 
BRANCH  14  15
ATOM     15  C   UNL     1     -48.410  30.992  14.553  1.00  0.00     0.000 C 
BRANCH  15  16
ATOM     16  C   UNL     1     -47.830  31.127  13.133  1.00  0.00    -0.000 C 
BRANCH  16  17
ATOM     17  C   UNL     1     -47.253  29.811  12.594  1.00  0.00    -0.003 C 
ATOM     18  C   UNL     1     -47.136  28.768  13.702  1.00  0.00     0.004 C 
ENDBRANCH  16  17
ENDBRANCH  15  16
ENDBRANCH  14  15
ENDBRANCH  13  14
ENDBRANCH  12  13
ENDBRANCH  10  11
ENDBRANCH   1  10
TORSDOF 13
ENDMDL
MODEL 8
REMARK VINA RESULT:    -4.885      1.200      2.290
REMARK INTER + INTRA:          -9.615
REMARK INTER:                  -8.147
REMARK INTRA:                  -1.468
REMARK UNBOUND:                -1.018
REMARK SMILES CCCCCCC=CCCCCCCCC(=O)[O-]
REMARK SMILES IDX 10 1 11 2 12 3 13 4 14 5 15 6 16 7 17 8 18 9 9 10 8 11 7 12
REMARK SMILES IDX 6 13 5 14 4 15 3 16 2 17 1 18
REMARK H PARENT
REMARK Flexibility Score: inf
ROOT
ATOM      1  C   UNL     1     -51.051  27.335  15.586  1.00  0.00     0.004 C 
ENDROOT
BRANCH   1   2
ATOM      2  C   UNL     1     -49.712  28.012  15.929  1.00  0.00     0.000 C 
BRANCH   2   3
ATOM      3  C   UNL     1     -48.698  27.941  14.776  1.00  0.00     0.000 C 
BRANCH   3   4
ATOM      4  C   UNL     1     -48.526  29.291  14.057  1.00  0.00     0.000 C 
BRANCH   4   5
ATOM      5  C   UNL     1     -47.606  30.254  14.824  1.00  0.00     0.006 C 
BRANCH   5   6
ATOM      6  C   UNL     1     -48.383  31.279  15.659  1.00  0.00     0.053 C 
BRANCH   6   7
ATOM      7  C   UNL     1     -49.225  32.143  14.775  1.00  0.00     0.041 C 
ATOM      8  O   UNL     1     -48.684  32.984  14.010  1.00  0.00    -0.550 OA
ATOM      9  O   UNL     1     -50.609  32.055  14.831  1.00  0.00    -0.550 OA
ENDBRANCH   6   7
ENDBRANCH   5   6
ENDBRANCH   4   5
ENDBRANCH   3   4
ENDBRANCH   2   3
ENDBRANCH   1   2
BRANCH   1  10
ATOM     10  C   UNL     1     -51.494  26.347  16.676  1.00  0.00     0.027 C 
BRANCH  10  11
ATOM     11  C   UNL     1     -50.683  26.482  17.937  1.00  0.00    -0.031 C 
ATOM     12  C   UNL     1     -50.466  25.437  18.750  1.00  0.00    -0.031 C 
BRANCH  12  13
ATOM     13  C   UNL     1     -49.664  25.576  20.014  1.00  0.00     0.027 C 
BRANCH  13  14
ATOM     14  C   UNL     1     -48.158  25.467  19.731  1.00  0.00     0.004 C 
BRANCH  14  15
ATOM     15  C   UNL     1     -47.408  26.791  19.963  1.00  0.00     0.000 C 
BRANCH  15  16
ATOM     16  C   UNL     1     -48.057  27.734  20.993  1.00  0.00    -0.000 C 
BRANCH  16  17
ATOM     17  C   UNL     1     -48.038  29.205  20.552  1.00  0.00    -0.003 C 
ATOM     18  C   UNL     1     -48.056  29.323  19.030  1.00  0.00     0.004 C 
ENDBRANCH  16  17
ENDBRANCH  15  16
ENDBRANCH  14  15
ENDBRANCH  13  14
ENDBRANCH  12  13
ENDBRANCH  10  11
ENDBRANCH   1  10
TORSDOF 13
ENDMDL
MODEL 9
REMARK VINA RESULT:    -4.714      1.841      5.249
REMARK INTER + INTRA:          -9.314
REMARK INTER:                  -8.136
REMARK INTRA:                  -1.178
REMARK UNBOUND:                -1.018
REMARK SMILES CCCCCCC=CCCCCCCCC(=O)[O-]
REMARK SMILES IDX 10 1 11 2 12 3 13 4 14 5 15 6 16 7 17 8 18 9 9 10 8 11 7 12
REMARK SMILES IDX 6 13 5 14 4 15 3 16 2 17 1 18
REMARK H PARENT
REMARK Flexibility Score: inf
ROOT
ATOM      1  C   UNL     1     -47.473  28.016  21.461  1.00  0.00     0.004 C 
ENDROOT
BRANCH   1   2
ATOM      2  C   UNL     1     -47.990  29.204  20.630  1.00  0.00     0.000 C 
BRANCH   2   3
ATOM      3  C   UNL     1     -47.174  30.486  20.857  1.00  0.00     0.000 C 
BRANCH   3   4
ATOM      4  C   UNL     1     -47.310  31.487  19.695  1.00  0.00     0.000 C 
BRANCH   4   5
ATOM      5  C   UNL     1     -46.512  31.058  18.453  1.00  0.00     0.006 C 
BRANCH   5   6
ATOM      6  C   UNL     1     -47.414  30.664  17.275  1.00  0.00     0.053 C 
BRANCH   6   7
ATOM      7  C   UNL     1     -46.672  29.783  16.322  1.00  0.00     0.041 C 
ATOM      8  O   UNL     1     -45.928  30.288  15.440  1.00  0.00    -0.550 OA
ATOM      9  O   UNL     1     -46.839  28.406  16.374  1.00  0.00    -0.550 OA
ENDBRANCH   6   7
ENDBRANCH   5   6
ENDBRANCH   4   5
ENDBRANCH   3   4
ENDBRANCH   2   3
ENDBRANCH   1   2
BRANCH   1  10
ATOM     10  C   UNL     1     -47.417  26.718  20.641  1.00  0.00     0.027 C 
BRANCH  10  11
ATOM     11  C   UNL     1     -48.595  26.573  19.715  1.00  0.00    -0.031 C 
ATOM     12  C   UNL     1     -49.395  25.497  19.756  1.00  0.00    -0.031 C 
BRANCH  12  13
ATOM     13  C   UNL     1     -50.566  25.349  18.824  1.00  0.00     0.027 C 
BRANCH  13  14
ATOM     14  C   UNL     1     -50.651  26.532  17.848  1.00  0.00     0.004 C 
BRANCH  14  15
ATOM     15  C   UNL     1     -51.632  26.283  16.689  1.00  0.00     0.000 C 
BRANCH  15  16
ATOM     16  C   UNL     1     -51.525  27.280  15.520  1.00  0.00    -0.000 C 
BRANCH  16  17
ATOM     17  C   UNL     1     -50.090  27.773  15.285  1.00  0.00    -0.003 C 
ATOM     18  C   UNL     1     -50.083  29.194  14.727  1.00  0.00     0.004 C 
ENDBRANCH  16  17
ENDBRANCH  15  16
ENDBRANCH  14  15
ENDBRANCH  13  14
ENDBRANCH  12  13
ENDBRANCH  10  11
ENDBRANCH   1  10
TORSDOF 13
ENDMDL
