MODEL 1
REMARK VINA RESULT:    -5.631      0.000      0.000
REMARK INTER + INTRA:          -6.593
REMARK INTER:                  -6.454
REMARK INTRA:                  -0.139
REMARK UNBOUND:                -0.139
REMARK SMILES O=C([O-])C=Cc1ccc(O)cc1
REMARK SMILES IDX 6 1 7 2 12 3 8 4 11 5 9 6 5 7 4 8 2 9 1 10 3 11 10 12
REMARK H PARENT 10 13
REMARK Flexibility Score: inf
ROOT
ATOM      1  C   UNL     1      25.328  27.526  17.306  1.00  0.00    -0.025 A 
ATOM      2  C   UNL     1      25.599  26.210  17.730  1.00  0.00     0.012 A 
ATOM      3  C   UNL     1      26.203  28.137  16.391  1.00  0.00     0.012 A 
ATOM      4  C   UNL     1      26.732  25.535  17.266  1.00  0.00     0.047 A 
ATOM      5  C   UNL     1      27.336  27.460  15.931  1.00  0.00     0.047 A 
ATOM      6  C   UNL     1      27.605  26.157  16.369  1.00  0.00     0.115 A 
ENDROOT
BRANCH   1   7
ATOM      7  C   UNL     1      24.134  28.282  17.758  1.00  0.00     0.010 C 
ATOM      8  C   UNL     1      24.194  29.409  18.481  1.00  0.00     0.025 C 
BRANCH   8   9
ATOM      9  C   UNL     1      22.986  30.138  18.903  1.00  0.00     0.064 C 
ATOM     10  O   UNL     1      22.933  30.723  20.018  1.00  0.00    -0.545 OA
ATOM     11  O   UNL     1      21.885  30.183  18.057  1.00  0.00    -0.545 OA
ENDBRANCH   8   9
ENDBRANCH   1   7
BRANCH   6  12
ATOM     12  O   UNL     1      28.731  25.473  15.916  1.00  0.00    -0.508 OA
ATOM     13  H   UNL     1      29.058  24.630  16.372  1.00  0.00     0.293 HD
ENDBRANCH   6  12
TORSDOF 3
ENDMDL
MODEL 2
REMARK VINA RESULT:    -5.295      2.049      6.081
REMARK INTER + INTRA:          -6.208
REMARK INTER:                  -6.056
REMARK INTRA:                  -0.152
REMARK UNBOUND:                -0.139
REMARK SMILES O=C([O-])C=Cc1ccc(O)cc1
REMARK SMILES IDX 6 1 7 2 12 3 8 4 11 5 9 6 5 7 4 8 2 9 1 10 3 11 10 12
REMARK H PARENT 10 13
REMARK Flexibility Score: inf
ROOT
ATOM      1  C   UNL     1      23.633  29.715  17.529  1.00  0.00    -0.025 A 
ATOM      2  C   UNL     1      23.047  30.595  16.597  1.00  0.00     0.012 A 
ATOM      3  C   UNL     1      23.420  29.939  18.900  1.00  0.00     0.012 A 
ATOM      4  C   UNL     1      22.286  31.684  17.034  1.00  0.00     0.047 A 
ATOM      5  C   UNL     1      22.661  31.030  19.332  1.00  0.00     0.047 A 
ATOM      6  C   UNL     1      22.093  31.908  18.400  1.00  0.00     0.115 A 
ENDROOT
BRANCH   1   7
ATOM      7  C   UNL     1      24.438  28.538  17.119  1.00  0.00     0.010 C 
ATOM      8  C   UNL     1      24.899  27.614  17.974  1.00  0.00     0.025 C 
BRANCH   8   9
ATOM      9  C   UNL     1      25.686  26.452  17.528  1.00  0.00     0.064 C 
ATOM     10  O   UNL     1      26.642  26.008  18.218  1.00  0.00    -0.545 OA
ATOM     11  O   UNL     1      25.368  25.834  16.326  1.00  0.00    -0.545 OA
ENDBRANCH   8   9
ENDBRANCH   1   7
BRANCH   6  12
ATOM     12  O   UNL     1      21.335  32.997  18.820  1.00  0.00    -0.508 OA
ATOM     13  H   UNL     1      21.748  33.762  19.341  1.00  0.00     0.293 HD
ENDBRANCH   6  12
TORSDOF 3
ENDMDL
MODEL 3
REMARK VINA RESULT:    -5.278      2.949      7.067
REMARK INTER + INTRA:          -6.188
REMARK INTER:                  -6.038
REMARK INTRA:                  -0.150
REMARK UNBOUND:                -0.139
REMARK SMILES O=C([O-])C=Cc1ccc(O)cc1
REMARK SMILES IDX 6 1 7 2 12 3 8 4 11 5 9 6 5 7 4 8 2 9 1 10 3 11 10 12
REMARK H PARENT 10 13
REMARK Flexibility Score: inf
ROOT
ATOM      1  C   UNL     1      22.663  31.282  18.651  1.00  0.00    -0.025 A 
ATOM      2  C   UNL     1      22.182  32.402  17.943  1.00  0.00     0.012 A 
ATOM      3  C   UNL     1      22.581  31.281  20.054  1.00  0.00     0.012 A 
ATOM      4  C   UNL     1      21.655  33.500  18.629  1.00  0.00     0.047 A 
ATOM      5  C   UNL     1      22.054  32.381  20.736  1.00  0.00     0.047 A 
ATOM      6  C   UNL     1      21.592  33.496  20.025  1.00  0.00     0.115 A 
ENDROOT
BRANCH   1   7
ATOM      7  C   UNL     1      23.221  30.087  17.971  1.00  0.00     0.010 C 
ATOM      8  C   UNL     1      24.070  29.227  18.551  1.00  0.00     0.025 C 
BRANCH   8   9
ATOM      9  C   UNL     1      24.595  28.044  17.848  1.00  0.00     0.064 C 
ATOM     10  O   UNL     1      24.540  27.955  16.592  1.00  0.00    -0.545 OA
ATOM     11  O   UNL     1      25.160  27.009  18.581  1.00  0.00    -0.545 OA
ENDBRANCH   8   9
ENDBRANCH   1   7
BRANCH   6  12
ATOM     12  O   UNL     1      21.065  34.597  20.695  1.00  0.00    -0.508 OA
ATOM     13  H   UNL     1      20.369  35.196  20.267  1.00  0.00     0.293 HD
ENDBRANCH   6  12
TORSDOF 3
ENDMDL
MODEL 4
REMARK VINA RESULT:    -5.184      1.450      5.754
REMARK INTER + INTRA:          -6.080
REMARK INTER:                  -5.929
REMARK INTRA:                  -0.151
REMARK UNBOUND:                -0.139
REMARK SMILES O=C([O-])C=Cc1ccc(O)cc1
REMARK SMILES IDX 6 1 7 2 12 3 8 4 11 5 9 6 5 7 4 8 2 9 1 10 3 11 10 12
REMARK H PARENT 10 13
REMARK Flexibility Score: inf
ROOT
ATOM      1  C   UNL     1      25.158  28.188  17.242  1.00  0.00    -0.025 A 
ATOM      2  C   UNL     1      24.725  29.037  16.203  1.00  0.00     0.012 A 
ATOM      3  C   UNL     1      24.558  28.305  18.508  1.00  0.00     0.012 A 
ATOM      4  C   UNL     1      23.733  29.994  16.439  1.00  0.00     0.047 A 
ATOM      5  C   UNL     1      23.567  29.264  18.739  1.00  0.00     0.047 A 
ATOM      6  C   UNL     1      23.154  30.114  17.705  1.00  0.00     0.115 A 
ENDROOT
BRANCH   1   7
ATOM      7  C   UNL     1      26.198  27.149  17.043  1.00  0.00     0.010 C 
ATOM      8  C   UNL     1      26.316  26.054  17.809  1.00  0.00     0.025 C 
BRANCH   8   9
ATOM      9  C   UNL     1      27.355  25.038  17.574  1.00  0.00     0.064 C 
ATOM     10  O   UNL     1      28.327  25.266  16.805  1.00  0.00    -0.545 OA
ATOM     11  O   UNL     1      27.263  23.808  18.211  1.00  0.00    -0.545 OA
ENDBRANCH   8   9
ENDBRANCH   1   7
BRANCH   6  12
ATOM     12  O   UNL     1      22.168  31.072  17.924  1.00  0.00    -0.508 OA
ATOM     13  H   UNL     1      22.348  31.902  18.477  1.00  0.00     0.293 HD
ENDBRANCH   6  12
TORSDOF 3
ENDMDL
MODEL 5
REMARK VINA RESULT:    -5.084      1.572      2.276
REMARK INTER + INTRA:          -5.965
REMARK INTER:                  -5.821
REMARK INTRA:                  -0.144
REMARK UNBOUND:                -0.139
REMARK SMILES O=C([O-])C=Cc1ccc(O)cc1
REMARK SMILES IDX 6 1 7 2 12 3 8 4 11 5 9 6 5 7 4 8 2 9 1 10 3 11 10 12
REMARK H PARENT 10 13
REMARK Flexibility Score: inf
ROOT
ATOM      1  C   UNL     1      24.402  28.526  17.516  1.00  0.00    -0.025 A 
ATOM      2  C   UNL     1      24.352  28.030  16.197  1.00  0.00     0.012 A 
ATOM      3  C   UNL     1      25.096  27.790  18.491  1.00  0.00     0.012 A 
ATOM      4  C   UNL     1      24.964  26.815  15.875  1.00  0.00     0.047 A 
ATOM      5  C   UNL     1      25.705  26.575  18.165  1.00  0.00     0.047 A 
ATOM      6  C   UNL     1      25.639  26.083  16.855  1.00  0.00     0.115 A 
ENDROOT
BRANCH   1   7
ATOM      7  C   UNL     1      23.779  29.815  17.908  1.00  0.00     0.010 C 
ATOM      8  C   UNL     1      23.077  29.992  19.037  1.00  0.00     0.025 C 
BRANCH   8   9
ATOM      9  C   UNL     1      22.484  31.290  19.398  1.00  0.00     0.064 C 
ATOM     10  O   UNL     1      21.836  31.967  18.556  1.00  0.00    -0.545 OA
ATOM     11  O   UNL     1      22.639  31.775  20.690  1.00  0.00    -0.545 OA
ENDBRANCH   8   9
ENDBRANCH   1   7
BRANCH   6  12
ATOM     12  O   UNL     1      26.242  24.873  16.520  1.00  0.00    -0.508 OA
ATOM     13  H   UNL     1      27.117  24.841  16.010  1.00  0.00     0.293 HD
ENDBRANCH   6  12
TORSDOF 3
ENDMDL
MODEL 6
REMARK VINA RESULT:    -4.999      9.630     10.319
REMARK INTER + INTRA:          -5.868
REMARK INTER:                  -5.721
REMARK INTRA:                  -0.147
REMARK UNBOUND:                -0.139
REMARK SMILES O=C([O-])C=Cc1ccc(O)cc1
REMARK SMILES IDX 6 1 7 2 12 3 8 4 11 5 9 6 5 7 4 8 2 9 1 10 3 11 10 12
REMARK H PARENT 10 13
REMARK Flexibility Score: inf
ROOT
ATOM      1  C   UNL     1      31.991  34.367  21.253  1.00  0.00    -0.025 A 
ATOM      2  C   UNL     1      32.894  35.137  20.494  1.00  0.00     0.012 A 
ATOM      3  C   UNL     1      31.499  33.167  20.711  1.00  0.00     0.012 A 
ATOM      4  C   UNL     1      33.274  34.722  19.213  1.00  0.00     0.047 A 
ATOM      5  C   UNL     1      31.881  32.757  19.430  1.00  0.00     0.047 A 
ATOM      6  C   UNL     1      32.768  33.535  18.676  1.00  0.00     0.115 A 
ENDROOT
BRANCH   1   7
ATOM      7  C   UNL     1      31.564  34.755  22.621  1.00  0.00     0.010 C 
ATOM      8  C   UNL     1      31.308  33.876  23.600  1.00  0.00     0.025 C 
BRANCH   8   9
ATOM      9  C   UNL     1      30.898  34.299  24.950  1.00  0.00     0.064 C 
ATOM     10  O   UNL     1      29.983  33.697  25.572  1.00  0.00    -0.545 OA
ATOM     11  O   UNL     1      31.531  35.381  25.547  1.00  0.00    -0.545 OA
ENDBRANCH   8   9
ENDBRANCH   1   7
BRANCH   6  12
ATOM     12  O   UNL     1      33.154  33.136  17.399  1.00  0.00    -0.508 OA
ATOM     13  H   UNL     1      32.491  33.088  16.635  1.00  0.00     0.293 HD
ENDBRANCH   6  12
TORSDOF 3
ENDMDL
MODEL 7
REMARK VINA RESULT:    -4.901      3.852      5.333
REMARK INTER + INTRA:          -5.756
REMARK INTER:                  -5.616
REMARK INTRA:                  -0.140
REMARK UNBOUND:                -0.139
REMARK SMILES O=C([O-])C=Cc1ccc(O)cc1
REMARK SMILES IDX 6 1 7 2 12 3 8 4 11 5 9 6 5 7 4 8 2 9 1 10 3 11 10 12
REMARK H PARENT 10 13
REMARK Flexibility Score: inf
ROOT
ATOM      1  C   UNL     1      22.477  31.719  18.679  1.00  0.00    -0.025 A 
ATOM      2  C   UNL     1      23.033  30.539  19.214  1.00  0.00     0.012 A 
ATOM      3  C   UNL     1      22.441  31.879  17.283  1.00  0.00     0.012 A 
ATOM      4  C   UNL     1      23.560  29.559  18.368  1.00  0.00     0.047 A 
ATOM      5  C   UNL     1      22.971  30.897  16.441  1.00  0.00     0.047 A 
ATOM      6  C   UNL     1      23.534  29.734  16.982  1.00  0.00     0.115 A 
ENDROOT
BRANCH   1   7
ATOM      7  C   UNL     1      21.894  32.785  19.531  1.00  0.00     0.010 C 
ATOM      8  C   UNL     1      21.738  32.677  20.858  1.00  0.00     0.025 C 
BRANCH   8   9
ATOM      9  C   UNL     1      21.165  33.762  21.673  1.00  0.00     0.064 C 
ATOM     10  O   UNL     1      20.198  34.451  21.253  1.00  0.00    -0.545 OA
ATOM     11  O   UNL     1      21.699  34.028  22.927  1.00  0.00    -0.545 OA
ENDBRANCH   8   9
ENDBRANCH   1   7
BRANCH   6  12
ATOM     12  O   UNL     1      24.065  28.750  16.152  1.00  0.00    -0.508 OA
ATOM     13  H   UNL     1      24.196  27.798  16.474  1.00  0.00     0.293 HD
ENDBRANCH   6  12
TORSDOF 3
ENDMDL
MODEL 8
REMARK VINA RESULT:    -4.790     10.205     11.452
REMARK INTER + INTRA:          -5.629
REMARK INTER:                  -5.495
REMARK INTRA:                  -0.134
REMARK UNBOUND:                -0.139
REMARK SMILES O=C([O-])C=Cc1ccc(O)cc1
REMARK SMILES IDX 6 1 7 2 12 3 8 4 11 5 9 6 5 7 4 8 2 9 1 10 3 11 10 12
REMARK H PARENT 10 13
REMARK Flexibility Score: inf
ROOT
ATOM      1  C   UNL     1      31.992  34.719  22.295  1.00  0.00    -0.025 A 
ATOM      2  C   UNL     1      31.639  33.529  22.963  1.00  0.00     0.012 A 
ATOM      3  C   UNL     1      32.008  35.924  23.018  1.00  0.00     0.012 A 
ATOM      4  C   UNL     1      31.290  33.556  24.317  1.00  0.00     0.047 A 
ATOM      5  C   UNL     1      31.656  35.945  24.371  1.00  0.00     0.047 A 
ATOM      6  C   UNL     1      31.294  34.761  25.024  1.00  0.00     0.115 A 
ENDROOT
BRANCH   1   7
ATOM      7  C   UNL     1      32.382  34.746  20.863  1.00  0.00     0.010 C 
ATOM      8  C   UNL     1      31.521  34.569  19.851  1.00  0.00     0.025 C 
BRANCH   8   9
ATOM      9  C   UNL     1      31.944  34.612  18.441  1.00  0.00     0.064 C 
ATOM     10  O   UNL     1      31.373  35.371  17.613  1.00  0.00    -0.545 OA
ATOM     11  O   UNL     1      32.991  33.805  18.018  1.00  0.00    -0.545 OA
ENDBRANCH   8   9
ENDBRANCH   1   7
BRANCH   6  12
ATOM     12  O   UNL     1      30.942  34.771  26.371  1.00  0.00    -0.508 OA
ATOM     13  H   UNL     1      30.199  34.183  26.730  1.00  0.00     0.293 HD
ENDBRANCH   6  12
TORSDOF 3
ENDMDL
MODEL 9
REMARK VINA RESULT:    -4.769      2.382      3.464
REMARK INTER + INTRA:          -5.604
REMARK INTER:                  -5.455
REMARK INTRA:                  -0.150
REMARK UNBOUND:                -0.139
REMARK SMILES O=C([O-])C=Cc1ccc(O)cc1
REMARK SMILES IDX 6 1 7 2 12 3 8 4 11 5 9 6 5 7 4 8 2 9 1 10 3 11 10 12
REMARK H PARENT 10 13
REMARK Flexibility Score: inf
ROOT
ATOM      1  C   UNL     1      23.425  30.009  17.846  1.00  0.00    -0.025 A 
ATOM      2  C   UNL     1      23.825  29.863  16.502  1.00  0.00     0.012 A 
ATOM      3  C   UNL     1      23.824  29.039  18.780  1.00  0.00     0.012 A 
ATOM      4  C   UNL     1      24.585  28.758  16.106  1.00  0.00     0.047 A 
ATOM      5  C   UNL     1      24.582  27.935  18.380  1.00  0.00     0.047 A 
ATOM      6  C   UNL     1      24.962  27.790  17.040  1.00  0.00     0.115 A 
ENDROOT
BRANCH   1   7
ATOM      7  C   UNL     1      22.630  31.168  18.321  1.00  0.00     0.010 C 
ATOM      8  C   UNL     1      22.619  31.596  19.592  1.00  0.00     0.025 C 
BRANCH   8   9
ATOM      9  C   UNL     1      21.825  32.758  20.024  1.00  0.00     0.064 C 
ATOM     10  O   UNL     1      21.165  32.733  21.097  1.00  0.00    -0.545 OA
ATOM     11  O   UNL     1      21.803  33.901  19.236  1.00  0.00    -0.545 OA
ENDBRANCH   8   9
ENDBRANCH   1   7
BRANCH   6  12
ATOM     12  O   UNL     1      25.717  26.694  16.630  1.00  0.00    -0.508 OA
ATOM     13  H   UNL     1      25.425  26.108  15.857  1.00  0.00     0.293 HD
ENDBRANCH   6  12
TORSDOF 3
ENDMDL
