MODEL 1
REMARK VINA RESULT:    -4.943      0.000      0.000
REMARK INTER + INTRA:          -7.451
REMARK INTER:                  -6.965
REMARK INTRA:                  -0.486
REMARK UNBOUND:                -0.486
REMARK SMILES CCCCCCCCC(=O)[O-]
REMARK SMILES IDX 6 1 7 2 8 3 9 4 10 5 11 6 5 7 4 8 3 9 2 10 1 11
REMARK H PARENT
REMARK Flexibility Score: inf
ROOT
ATOM      1  C   UNL     1      17.802   7.555  49.000  1.00  0.00     0.000 C 
ENDROOT
BRANCH   1   2
ATOM      2  C   UNL     1      16.455   8.288  49.067  1.00  0.00     0.006 C 
BRANCH   2   3
ATOM      3  C   UNL     1      15.357   7.369  49.610  1.00  0.00     0.053 C 
BRANCH   3   4
ATOM      4  C   UNL     1      14.569   6.773  48.487  1.00  0.00     0.041 C 
ATOM      5  O   UNL     1      14.083   5.617  48.597  1.00  0.00    -0.550 OA
ATOM      6  O   UNL     1      14.330   7.514  47.336  1.00  0.00    -0.550 OA
ENDBRANCH   3   4
ENDBRANCH   2   3
ENDBRANCH   1   2
BRANCH   1   7
ATOM      7  C   UNL     1      18.901   8.255  49.816  1.00  0.00     0.000 C 
BRANCH   7   8
ATOM      8  C   UNL     1      18.582   9.732  50.093  1.00  0.00    -0.000 C 
BRANCH   8   9
ATOM      9  C   UNL     1      18.494   9.999  51.604  1.00  0.00    -0.000 C 
BRANCH   9  10
ATOM     10  C   UNL     1      18.653   8.719  52.440  1.00  0.00    -0.003 C 
ATOM     11  C   UNL     1      19.423   8.955  53.740  1.00  0.00     0.004 C 
ENDBRANCH   9  10
ENDBRANCH   8   9
ENDBRANCH   7   8
ENDBRANCH   1   7
TORSDOF 7
ENDMDL
MODEL 2
REMARK VINA RESULT:    -4.930      3.305      5.700
REMARK INTER + INTRA:          -7.434
REMARK INTER:                  -6.994
REMARK INTRA:                  -0.440
REMARK UNBOUND:                -0.486
REMARK SMILES CCCCCCCCC(=O)[O-]
REMARK SMILES IDX 6 1 7 2 8 3 9 4 10 5 11 6 5 7 4 8 3 9 2 10 1 11
REMARK H PARENT
REMARK Flexibility Score: inf
ROOT
ATOM      1  C   UNL     1      17.120   8.491  50.463  1.00  0.00     0.000 C 
ENDROOT
BRANCH   1   2
ATOM      2  C   UNL     1      17.616   9.745  49.728  1.00  0.00     0.006 C 
BRANCH   2   3
ATOM      3  C   UNL     1      18.884  10.300  50.384  1.00  0.00     0.053 C 
BRANCH   3   4
ATOM      4  C   UNL     1      20.078  10.038  49.523  1.00  0.00     0.041 C 
ATOM      5  O   UNL     1      20.947  10.933  49.354  1.00  0.00    -0.550 OA
ATOM      6  O   UNL     1      20.257   8.787  48.944  1.00  0.00    -0.550 OA
ENDBRANCH   3   4
ENDBRANCH   2   3
ENDBRANCH   1   2
BRANCH   1   7
ATOM      7  C   UNL     1      16.763   7.344  49.505  1.00  0.00     0.000 C 
BRANCH   7   8
ATOM      8  C   UNL     1      15.263   7.013  49.510  1.00  0.00    -0.000 C 
BRANCH   8   9
ATOM      9  C   UNL     1      14.700   7.005  48.080  1.00  0.00    -0.000 C 
BRANCH   9  10
ATOM     10  C   UNL     1      15.040   8.286  47.304  1.00  0.00    -0.003 C 
ATOM     11  C   UNL     1      15.940   8.024  46.096  1.00  0.00     0.004 C 
ENDBRANCH   9  10
ENDBRANCH   8   9
ENDBRANCH   7   8
ENDBRANCH   1   7
TORSDOF 7
ENDMDL
MODEL 3
REMARK VINA RESULT:    -4.920      3.298      5.490
REMARK INTER + INTRA:          -7.420
REMARK INTER:                  -6.910
REMARK INTRA:                  -0.509
REMARK UNBOUND:                -0.486
REMARK SMILES CCCCCCCCC(=O)[O-]
REMARK SMILES IDX 6 1 7 2 8 3 9 4 10 5 11 6 5 7 4 8 3 9 2 10 1 11
REMARK H PARENT
REMARK Flexibility Score: inf
ROOT
ATOM      1  C   UNL     1      17.463   9.245  49.376  1.00  0.00     0.000 C 
ENDROOT
BRANCH   1   2
ATOM      2  C   UNL     1      18.668   9.837  50.122  1.00  0.00     0.006 C 
BRANCH   2   3
ATOM      3  C   UNL     1      18.341  10.055  51.603  1.00  0.00     0.053 C 
BRANCH   3   4
ATOM      4  C   UNL     1      19.067   9.060  52.452  1.00  0.00     0.041 C 
ATOM      5  O   UNL     1      19.136   9.221  53.699  1.00  0.00    -0.550 OA
ATOM      6  O   UNL     1      19.626   7.928  51.872  1.00  0.00    -0.550 OA
ENDBRANCH   3   4
ENDBRANCH   2   3
ENDBRANCH   1   2
BRANCH   1   7
ATOM      7  C   UNL     1      17.696   7.792  48.931  1.00  0.00     0.000 C 
BRANCH   7   8
ATOM      8  C   UNL     1      16.673   6.818  49.533  1.00  0.00    -0.000 C 
BRANCH   8   9
ATOM      9  C   UNL     1      15.246   7.374  49.405  1.00  0.00    -0.000 C 
BRANCH   9  10
ATOM     10  C   UNL     1      14.553   6.928  48.108  1.00  0.00    -0.003 C 
ATOM     11  C   UNL     1      14.598   7.997  47.016  1.00  0.00     0.004 C 
ENDBRANCH   9  10
ENDBRANCH   8   9
ENDBRANCH   7   8
ENDBRANCH   1   7
TORSDOF 7
ENDMDL
MODEL 4
REMARK VINA RESULT:    -4.854      1.528      1.919
REMARK INTER + INTRA:          -7.327
REMARK INTER:                  -6.939
REMARK INTRA:                  -0.388
REMARK UNBOUND:                -0.486
REMARK SMILES CCCCCCCCC(=O)[O-]
REMARK SMILES IDX 6 1 7 2 8 3 9 4 10 5 11 6 5 7 4 8 3 9 2 10 1 11
REMARK H PARENT
REMARK Flexibility Score: inf
ROOT
ATOM      1  C   UNL     1      16.107   7.254  50.179  1.00  0.00     0.000 C 
ENDROOT
BRANCH   1   2
ATOM      2  C   UNL     1      15.683   6.315  49.040  1.00  0.00     0.006 C 
BRANCH   2   3
ATOM      3  C   UNL     1      14.717   7.018  48.081  1.00  0.00     0.053 C 
BRANCH   3   4
ATOM      4  C   UNL     1      15.464   7.931  47.161  1.00  0.00     0.041 C 
ATOM      5  O   UNL     1      15.227   9.168  47.165  1.00  0.00    -0.550 OA
ATOM      6  O   UNL     1      16.457   7.424  46.333  1.00  0.00    -0.550 OA
ENDBRANCH   3   4
ENDBRANCH   2   3
ENDBRANCH   1   2
BRANCH   1   7
ATOM      7  C   UNL     1      17.551   7.758  50.025  1.00  0.00     0.000 C 
BRANCH   7   8
ATOM      8  C   UNL     1      17.653   9.290  50.077  1.00  0.00    -0.000 C 
BRANCH   8   9
ATOM      9  C   UNL     1      18.233   9.754  51.422  1.00  0.00    -0.000 C 
BRANCH   9  10
ATOM     10  C   UNL     1      18.642   8.580  52.326  1.00  0.00    -0.003 C 
ATOM     11  C   UNL     1      19.285   9.039  53.635  1.00  0.00     0.004 C 
ENDBRANCH   9  10
ENDBRANCH   8   9
ENDBRANCH   7   8
ENDBRANCH   1   7
TORSDOF 7
ENDMDL
MODEL 5
REMARK VINA RESULT:    -4.810      3.181      5.562
REMARK INTER + INTRA:          -7.265
REMARK INTER:                  -6.694
REMARK INTRA:                  -0.571
REMARK UNBOUND:                -0.486
REMARK SMILES CCCCCCCCC(=O)[O-]
REMARK SMILES IDX 6 1 7 2 8 3 9 4 10 5 11 6 5 7 4 8 3 9 2 10 1 11
REMARK H PARENT
REMARK Flexibility Score: inf
ROOT
ATOM      1  C   UNL     1      16.700   8.026  50.150  1.00  0.00     0.000 C 
ENDROOT
BRANCH   1   2
ATOM      2  C   UNL     1      18.051   7.828  49.447  1.00  0.00     0.006 C 
BRANCH   2   3
ATOM      3  C   UNL     1      19.212   7.985  50.434  1.00  0.00     0.053 C 
BRANCH   3   4
ATOM      4  C   UNL     1      19.126   9.302  51.138  1.00  0.00     0.041 C 
ATOM      5  O   UNL     1      19.019   9.345  52.392  1.00  0.00    -0.550 OA
ATOM      6  O   UNL     1      19.213  10.484  50.413  1.00  0.00    -0.550 OA
ENDBRANCH   3   4
ENDBRANCH   2   3
ENDBRANCH   1   2
BRANCH   1   7
ATOM      7  C   UNL     1      15.765   6.817  49.989  1.00  0.00     0.000 C 
BRANCH   7   8
ATOM      8  C   UNL     1      15.585   6.399  48.521  1.00  0.00    -0.000 C 
BRANCH   8   9
ATOM      9  C   UNL     1      14.332   7.050  47.917  1.00  0.00    -0.000 C 
BRANCH   9  10
ATOM     10  C   UNL     1      14.670   8.173  46.924  1.00  0.00    -0.003 C 
ATOM     11  C   UNL     1      16.016   7.963  46.230  1.00  0.00     0.004 C 
ENDBRANCH   9  10
ENDBRANCH   8   9
ENDBRANCH   7   8
ENDBRANCH   1   7
TORSDOF 7
ENDMDL
MODEL 6
REMARK VINA RESULT:    -4.647      3.494      5.518
REMARK INTER + INTRA:          -7.034
REMARK INTER:                  -6.557
REMARK INTRA:                  -0.477
REMARK UNBOUND:                -0.486
REMARK SMILES CCCCCCCCC(=O)[O-]
REMARK SMILES IDX 6 1 7 2 8 3 9 4 10 5 11 6 5 7 4 8 3 9 2 10 1 11
REMARK H PARENT
REMARK Flexibility Score: inf
ROOT
ATOM      1  C   UNL     1      17.387   9.271  49.570  1.00  0.00     0.000 C 
ENDROOT
BRANCH   1   2
ATOM      2  C   UNL     1      18.044   9.739  50.877  1.00  0.00     0.006 C 
BRANCH   2   3
ATOM      3  C   UNL     1      18.127   8.592  51.889  1.00  0.00     0.053 C 
BRANCH   3   4
ATOM      4  C   UNL     1      19.529   8.432  52.386  1.00  0.00     0.041 C 
ATOM      5  O   UNL     1      20.468   8.216  51.575  1.00  0.00    -0.550 OA
ATOM      6  O   UNL     1      19.807   8.569  53.740  1.00  0.00    -0.550 OA
ENDBRANCH   3   4
ENDBRANCH   2   3
ENDBRANCH   1   2
BRANCH   1   7
ATOM      7  C   UNL     1      17.895   7.895  49.110  1.00  0.00     0.000 C 
BRANCH   7   8
ATOM      8  C   UNL     1      17.181   7.393  47.846  1.00  0.00    -0.000 C 
BRANCH   8   9
ATOM      9  C   UNL     1      15.952   8.259  47.531  1.00  0.00    -0.000 C 
BRANCH   9  10
ATOM     10  C   UNL     1      14.652   7.442  47.472  1.00  0.00    -0.003 C 
ATOM     11  C   UNL     1      14.426   6.598  48.727  1.00  0.00     0.004 C 
ENDBRANCH   9  10
ENDBRANCH   8   9
ENDBRANCH   7   8
ENDBRANCH   1   7
TORSDOF 7
ENDMDL
MODEL 7
REMARK VINA RESULT:    -4.485      1.424      2.144
REMARK INTER + INTRA:          -6.806
REMARK INTER:                  -6.416
REMARK INTRA:                  -0.390
REMARK UNBOUND:                -0.486
REMARK SMILES CCCCCCCCC(=O)[O-]
REMARK SMILES IDX 6 1 7 2 8 3 9 4 10 5 11 6 5 7 4 8 3 9 2 10 1 11
REMARK H PARENT
REMARK Flexibility Score: inf
ROOT
ATOM      1  C   UNL     1      16.481   7.906  50.145  1.00  0.00     0.000 C 
ENDROOT
BRANCH   1   2
ATOM      2  C   UNL     1      16.554   6.731  49.159  1.00  0.00     0.006 C 
BRANCH   2   3
ATOM      3  C   UNL     1      16.209   7.185  47.738  1.00  0.00     0.053 C 
BRANCH   3   4
ATOM      4  C   UNL     1      14.730   7.338  47.581  1.00  0.00     0.041 C 
ATOM      5  O   UNL     1      13.943   6.644  48.278  1.00  0.00    -0.550 OA
ATOM      6  O   UNL     1      14.218   8.282  46.700  1.00  0.00    -0.550 OA
ENDBRANCH   3   4
ENDBRANCH   2   3
ENDBRANCH   1   2
BRANCH   1   7
ATOM      7  C   UNL     1      17.199   9.162  49.625  1.00  0.00     0.000 C 
BRANCH   7   8
ATOM      8  C   UNL     1      17.903   9.947  50.741  1.00  0.00    -0.000 C 
BRANCH   8   9
ATOM      9  C   UNL     1      19.211   9.255  51.156  1.00  0.00    -0.000 C 
BRANCH   9  10
ATOM     10  C   UNL     1      20.202   9.119  49.990  1.00  0.00    -0.003 C 
ATOM     11  C   UNL     1      20.557  10.465  49.355  1.00  0.00     0.004 C 
ENDBRANCH   9  10
ENDBRANCH   8   9
ENDBRANCH   7   8
ENDBRANCH   1   7
TORSDOF 7
ENDMDL
MODEL 8
REMARK VINA RESULT:    -4.356      3.383      5.490
REMARK INTER + INTRA:          -6.625
REMARK INTER:                  -6.202
REMARK INTRA:                  -0.422
REMARK UNBOUND:                -0.486
REMARK SMILES CCCCCCCCC(=O)[O-]
REMARK SMILES IDX 6 1 7 2 8 3 9 4 10 5 11 6 5 7 4 8 3 9 2 10 1 11
REMARK H PARENT
REMARK Flexibility Score: inf
ROOT
ATOM      1  C   UNL     1      19.141   8.957  49.614  1.00  0.00     0.000 C 
ENDROOT
BRANCH   1   2
ATOM      2  C   UNL     1      19.346   7.804  50.607  1.00  0.00     0.006 C 
BRANCH   2   3
ATOM      3  C   UNL     1      20.235   8.239  51.776  1.00  0.00     0.053 C 
BRANCH   3   4
ATOM      4  C   UNL     1      19.419   8.419  53.017  1.00  0.00     0.041 C 
ATOM      5  O   UNL     1      19.952   8.861  54.068  1.00  0.00    -0.550 OA
ATOM      6  O   UNL     1      18.057   8.143  52.998  1.00  0.00    -0.550 OA
ENDBRANCH   3   4
ENDBRANCH   2   3
ENDBRANCH   1   2
BRANCH   1   7
ATOM      7  C   UNL     1      17.700   9.491  49.614  1.00  0.00     0.000 C 
BRANCH   7   8
ATOM      8  C   UNL     1      16.659   8.385  49.844  1.00  0.00    -0.000 C 
BRANCH   8   9
ATOM      9  C   UNL     1      16.164   7.814  48.506  1.00  0.00    -0.000 C 
BRANCH   9  10
ATOM     10  C   UNL     1      15.501   6.436  48.661  1.00  0.00    -0.003 C 
ATOM     11  C   UNL     1      13.974   6.512  48.671  1.00  0.00     0.004 C 
ENDBRANCH   9  10
ENDBRANCH   8   9
ENDBRANCH   7   8
ENDBRANCH   1   7
TORSDOF 7
ENDMDL
MODEL 9
REMARK VINA RESULT:    -3.890      8.100      9.500
REMARK INTER + INTRA:          -5.968
REMARK INTER:                  -5.306
REMARK INTRA:                  -0.663
REMARK UNBOUND:                -0.486
REMARK SMILES CCCCCCCCC(=O)[O-]
REMARK SMILES IDX 6 1 7 2 8 3 9 4 10 5 11 6 5 7 4 8 3 9 2 10 1 11
REMARK H PARENT
REMARK Flexibility Score: inf
ROOT
ATOM      1  C   UNL     1      12.824   1.148  47.501  1.00  0.00     0.000 C 
ENDROOT
BRANCH   1   2
ATOM      2  C   UNL     1      13.124   1.507  46.038  1.00  0.00     0.006 C 
BRANCH   2   3
ATOM      3  C   UNL     1      12.059   0.926  45.102  1.00  0.00     0.053 C 
BRANCH   3   4
ATOM      4  C   UNL     1      11.277   2.024  44.454  1.00  0.00     0.041 C 
ATOM      5  O   UNL     1      10.086   2.244  44.800  1.00  0.00    -0.550 OA
ATOM      6  O   UNL     1      11.878   2.837  43.501  1.00  0.00    -0.550 OA
ENDBRANCH   3   4
ENDBRANCH   2   3
ENDBRANCH   1   2
BRANCH   1   7
ATOM      7  C   UNL     1      13.994   1.474  48.443  1.00  0.00     0.000 C 
BRANCH   7   8
ATOM      8  C   UNL     1      15.321   0.857  47.975  1.00  0.00    -0.000 C 
BRANCH   8   9
ATOM      9  C   UNL     1      15.292  -0.673  48.116  1.00  0.00    -0.000 C 
BRANCH   9  10
ATOM     10  C   UNL     1      15.479  -1.394  46.772  1.00  0.00    -0.003 C 
ATOM     11  C   UNL     1      14.222  -2.139  46.321  1.00  0.00     0.004 C 
ENDBRANCH   9  10
ENDBRANCH   8   9
ENDBRANCH   7   8
ENDBRANCH   1   7
TORSDOF 7
ENDMDL
