MODEL 1
REMARK VINA RESULT:    -5.727      0.000      0.000
REMARK INTER + INTRA:          -9.302
REMARK INTER:                  -8.405
REMARK INTRA:                  -0.897
REMARK UNBOUND:                -0.897
REMARK SMILES O=c1c(O[C@@H]2O[C@@H](CO)[C@@H](O)[C@@H](O)[C@@H]2O)c(-c2ccc(O)c(O)c2)oc2cc(O)cc(O)c12
REMARK SMILES IDX 4 1 3 2 16 3 25 4 2 5 26 6 1 7 33 8 27 9 31 10 28 11 30 12
REMARK SMILES IDX 17 13 18 14 19 15 20 16 24 17 22 18 21 19 23 21 32 23 29 25
REMARK SMILES IDX 5 27 14 28 6 29 12 30 7 31 10 32 15 33 13 35 8 37 9 38 11 40
REMARK H PARENT 21 20 23 22 32 24 29 26 15 34 13 36 9 39 11 41
REMARK Flexibility Score: inf
ROOT
ATOM      1  O   UNL     1     166.303 185.306  34.444  1.00  0.00    -0.454 OA
ENDROOT
BRANCH   1   2
ATOM      2  C   UNL     1     165.594 184.405  33.633  1.00  0.00     0.214 A 
ATOM      3  C   UNL     1     166.165 183.987  32.422  1.00  0.00     0.180 A 
ATOM      4  O   UNL     1     165.512 183.158  31.618  1.00  0.00    -0.452 OA
ATOM      5  C   UNL     1     164.337 183.888  33.996  1.00  0.00     0.239 A 
ATOM      6  C   UNL     1     164.309 182.672  31.903  1.00  0.00     0.146 A 
ATOM      7  O   UNL     1     163.841 184.178  35.116  1.00  0.00    -0.285 OA
ATOM      8  C   UNL     1     163.662 183.019  33.113  1.00  0.00     0.111 A 
ATOM      9  C   UNL     1     163.689 181.811  30.993  1.00  0.00     0.094 A 
ATOM     10  C   UNL     1     162.382 182.479  33.386  1.00  0.00     0.134 A 
ATOM     11  C   UNL     1     162.423 181.287  31.265  1.00  0.00     0.123 A 
ATOM     12  C   UNL     1     161.776 181.619  32.457  1.00  0.00     0.093 A 
BRANCH   3  13
ATOM     13  C   UNL     1     167.493 184.468  32.018  1.00  0.00     0.025 A 
ATOM     14  C   UNL     1     168.631 184.052  32.721  1.00  0.00     0.016 A 
ATOM     15  C   UNL     1     169.895 184.504  32.337  1.00  0.00     0.051 A 
ATOM     16  C   UNL     1     170.032 185.376  31.248  1.00  0.00     0.157 A 
ATOM     17  C   UNL     1     167.626 185.343  30.934  1.00  0.00     0.062 A 
ATOM     18  C   UNL     1     168.891 185.801  30.545  1.00  0.00     0.158 A 
BRANCH  16  19
ATOM     19  O   UNL     1     171.297 185.825  30.867  1.00  0.00    -0.504 OA
ATOM     20  H   UNL     1     171.415 186.510  30.132  1.00  0.00     0.293 HD
ENDBRANCH  16  19
BRANCH  18  21
ATOM     21  O   UNL     1     168.993 186.679  29.467  1.00  0.00    -0.504 OA
ATOM     22  H   UNL     1     168.179 187.096  29.033  1.00  0.00     0.293 HD
ENDBRANCH  18  21
ENDBRANCH   3  13
BRANCH  10  23
ATOM     23  O   UNL     1     161.704 182.797  34.564  1.00  0.00    -0.507 OA
ATOM     24  H   UNL     1     161.849 183.684  35.036  1.00  0.00     0.293 HD
ENDBRANCH  10  23
BRANCH  11  25
ATOM     25  O   UNL     1     161.798 180.436  30.356  1.00  0.00    -0.508 OA
ATOM     26  H   UNL     1     161.950 180.522  29.358  1.00  0.00     0.293 HD
ENDBRANCH  11  25
ENDBRANCH   1   2
BRANCH   1  27
ATOM     27  C   UNL     1     166.764 186.604  34.048  1.00  0.00     0.339 C 
ATOM     28  C   UNL     1     165.586 187.570  33.746  1.00  0.00     0.214 C 
ATOM     29  O   UNL     1     167.677 187.117  35.003  1.00  0.00    -0.332 OA
ATOM     30  C   UNL     1     166.095 188.951  33.251  1.00  0.00     0.180 C 
ATOM     31  C   UNL     1     168.033 188.489  34.825  1.00  0.00     0.179 C 
ATOM     32  C   UNL     1     167.611 189.125  33.467  1.00  0.00     0.177 C 
BRANCH  28  33
ATOM     33  O   UNL     1     164.742 187.728  34.860  1.00  0.00    -0.384 OA
ATOM     34  H   UNL     1     165.248 187.454  35.668  1.00  0.00     0.211 HD
ENDBRANCH  28  33
BRANCH  30  35
ATOM     35  O   UNL     1     165.790 189.125  31.890  1.00  0.00    -0.387 OA
ATOM     36  H   UNL     1     166.651 189.293  31.420  1.00  0.00     0.211 HD
ENDBRANCH  30  35
BRANCH  31  37
ATOM     37  C   UNL     1     169.540 188.630  35.075  1.00  0.00     0.191 C 
BRANCH  37  38
ATOM     38  O   UNL     1     170.238 187.566  34.486  1.00  0.00    -0.394 OA
ATOM     39  H   UNL     1     171.200 187.796  34.557  1.00  0.00     0.210 HD
ENDBRANCH  37  38
ENDBRANCH  31  37
BRANCH  32  40
ATOM     40  O   UNL     1     168.326 188.546  32.400  1.00  0.00    -0.387 OA
ATOM     41  H   UNL     1     168.227 189.150  31.618  1.00  0.00     0.211 HD
ENDBRANCH  32  40
ENDBRANCH   1  27
TORSDOF 12
ENDMDL
MODEL 2
REMARK VINA RESULT:    -5.536      2.931      8.822
REMARK INTER + INTRA:          -9.022
REMARK INTER:                  -7.259
REMARK INTRA:                  -1.763
REMARK UNBOUND:                -0.897
REMARK SMILES O=c1c(O[C@@H]2O[C@@H](CO)[C@@H](O)[C@@H](O)[C@@H]2O)c(-c2ccc(O)c(O)c2)oc2cc(O)cc(O)c12
REMARK SMILES IDX 4 1 3 2 16 3 25 4 2 5 26 6 1 7 33 8 27 9 31 10 28 11 30 12
REMARK SMILES IDX 17 13 18 14 19 15 20 16 24 17 22 18 21 19 23 21 32 23 29 25
REMARK SMILES IDX 5 27 14 28 6 29 12 30 7 31 10 32 15 33 13 35 8 37 9 38 11 40
REMARK H PARENT 21 20 23 22 32 24 29 26 15 34 13 36 9 39 11 41
REMARK Flexibility Score: inf
ROOT
ATOM      1  O   UNL     1     161.060 181.139  33.607  1.00  0.00    -0.454 OA
ENDROOT
BRANCH   1   2
ATOM      2  C   UNL     1     162.227 181.770  33.147  1.00  0.00     0.214 A 
ATOM      3  C   UNL     1     163.081 181.071  32.280  1.00  0.00     0.180 A 
ATOM      4  O   UNL     1     164.205 181.627  31.847  1.00  0.00    -0.452 OA
ATOM      5  C   UNL     1     162.565 183.087  33.506  1.00  0.00     0.239 A 
ATOM      6  C   UNL     1     164.583 182.854  32.188  1.00  0.00     0.146 A 
ATOM      7  O   UNL     1     161.775 183.767  34.211  1.00  0.00    -0.285 OA
ATOM      8  C   UNL     1     163.776 183.645  33.040  1.00  0.00     0.111 A 
ATOM      9  C   UNL     1     165.790 183.357  31.692  1.00  0.00     0.094 A 
ATOM     10  C   UNL     1     164.208 184.950  33.378  1.00  0.00     0.134 A 
ATOM     11  C   UNL     1     166.214 184.643  32.036  1.00  0.00     0.123 A 
ATOM     12  C   UNL     1     165.424 185.434  32.872  1.00  0.00     0.093 A 
BRANCH   3  13
ATOM     13  C   UNL     1     162.750 179.709  31.845  1.00  0.00     0.025 A 
ATOM     14  C   UNL     1     163.372 178.610  32.453  1.00  0.00     0.016 A 
ATOM     15  C   UNL     1     163.057 177.313  32.044  1.00  0.00     0.051 A 
ATOM     16  C   UNL     1     162.118 177.102  31.025  1.00  0.00     0.157 A 
ATOM     17  C   UNL     1     161.816 179.502  30.823  1.00  0.00     0.062 A 
ATOM     18  C   UNL     1     161.496 178.202  30.409  1.00  0.00     0.158 A 
BRANCH  16  19
ATOM     19  O   UNL     1     161.805 175.804  30.621  1.00  0.00    -0.504 OA
ATOM     20  H   UNL     1     161.728 175.047  31.288  1.00  0.00     0.293 HD
ENDBRANCH  16  19
BRANCH  18  21
ATOM     21  O   UNL     1     160.569 178.027  29.383  1.00  0.00    -0.504 OA
ATOM     22  H   UNL     1     159.641 177.660  29.552  1.00  0.00     0.293 HD
ENDBRANCH  18  21
ENDBRANCH   3  13
BRANCH  10  23
ATOM     23  O   UNL     1     163.446 185.763  34.219  1.00  0.00    -0.507 OA
ATOM     24  H   UNL     1     163.531 185.709  35.229  1.00  0.00     0.293 HD
ENDBRANCH  10  23
BRANCH  11  25
ATOM     25  O   UNL     1     167.420 185.145  31.551  1.00  0.00    -0.508 OA
ATOM     26  H   UNL     1     167.698 185.014  30.585  1.00  0.00     0.293 HD
ENDBRANCH  11  25
ENDBRANCH   1   2
BRANCH   1  27
ATOM     27  C   UNL     1     159.761 181.241  33.008  1.00  0.00     0.339 C 
ATOM     28  C   UNL     1     158.716 181.840  33.987  1.00  0.00     0.214 C 
ATOM     29  O   UNL     1     159.839 181.938  31.777  1.00  0.00    -0.332 OA
ATOM     30  C   UNL     1     157.300 181.882  33.352  1.00  0.00     0.180 C 
ATOM     31  C   UNL     1     158.581 182.289  31.198  1.00  0.00     0.179 C 
ATOM     32  C   UNL     1     157.333 181.609  31.835  1.00  0.00     0.177 C 
BRANCH  28  33
ATOM     33  O   UNL     1     159.092 183.120  34.431  1.00  0.00    -0.384 OA
ATOM     34  H   UNL     1     158.371 183.465  35.018  1.00  0.00     0.211 HD
ENDBRANCH  28  33
BRANCH  30  35
ATOM     35  O   UNL     1     156.456 180.950  33.979  1.00  0.00    -0.387 OA
ATOM     36  H   UNL     1     156.776 180.854  34.917  1.00  0.00     0.211 HD
ENDBRANCH  30  35
BRANCH  31  37
ATOM     37  C   UNL     1     158.659 182.032  29.687  1.00  0.00     0.191 C 
BRANCH  37  38
ATOM     38  O   UNL     1     158.927 180.680  29.431  1.00  0.00    -0.394 OA
ATOM     39  H   UNL     1     158.095 180.187  29.652  1.00  0.00     0.210 HD
ENDBRANCH  37  38
ENDBRANCH  31  37
BRANCH  32  40
ATOM     40  O   UNL     1     157.337 180.222  31.589  1.00  0.00    -0.387 OA
ATOM     41  H   UNL     1     157.181 180.096  30.616  1.00  0.00     0.211 HD
ENDBRANCH  32  40
ENDBRANCH   1  27
TORSDOF 12
ENDMDL
MODEL 3
REMARK VINA RESULT:    -5.374      4.861      8.816
REMARK INTER + INTRA:          -8.784
REMARK INTER:                  -7.150
REMARK INTRA:                  -1.634
REMARK UNBOUND:                -0.897
REMARK SMILES O=c1c(O[C@@H]2O[C@@H](CO)[C@@H](O)[C@@H](O)[C@@H]2O)c(-c2ccc(O)c(O)c2)oc2cc(O)cc(O)c12
REMARK SMILES IDX 4 1 3 2 16 3 25 4 2 5 26 6 1 7 33 8 27 9 31 10 28 11 30 12
REMARK SMILES IDX 17 13 18 14 19 15 20 16 24 17 22 18 21 19 23 21 32 23 29 25
REMARK SMILES IDX 5 27 14 28 6 29 12 30 7 31 10 32 15 33 13 35 8 37 9 38 11 40
REMARK H PARENT 21 20 23 22 32 24 29 26 15 34 13 36 9 39 11 41
REMARK Flexibility Score: inf
ROOT
ATOM      1  O   UNL     1     160.497 180.657  32.385  1.00  0.00    -0.454 OA
ENDROOT
BRANCH   1   2
ATOM      2  C   UNL     1     159.686 180.433  31.260  1.00  0.00     0.214 A 
ATOM      3  C   UNL     1     159.735 179.183  30.626  1.00  0.00     0.180 A 
ATOM      4  O   UNL     1     159.003 178.946  29.545  1.00  0.00    -0.452 OA
ATOM      5  C   UNL     1     158.810 181.410  30.754  1.00  0.00     0.239 A 
ATOM      6  C   UNL     1     158.188 179.849  29.011  1.00  0.00     0.146 A 
ATOM      7  O   UNL     1     158.682 182.509  31.354  1.00  0.00    -0.285 OA
ATOM      8  C   UNL     1     158.055 181.131  29.594  1.00  0.00     0.111 A 
ATOM      9  C   UNL     1     157.461 179.516  27.864  1.00  0.00     0.094 A 
ATOM     10  C   UNL     1     157.174 182.068  29.000  1.00  0.00     0.134 A 
ATOM     11  C   UNL     1     156.599 180.447  27.279  1.00  0.00     0.123 A 
ATOM     12  C   UNL     1     156.456 181.714  27.848  1.00  0.00     0.093 A 
BRANCH   3  13
ATOM     13  C   UNL     1     160.604 178.118  31.141  1.00  0.00     0.025 A 
ATOM     14  C   UNL     1     161.834 177.859  30.523  1.00  0.00     0.016 A 
ATOM     15  C   UNL     1     162.665 176.849  31.013  1.00  0.00     0.051 A 
ATOM     16  C   UNL     1     162.274 176.090  32.125  1.00  0.00     0.157 A 
ATOM     17  C   UNL     1     160.208 177.358  32.248  1.00  0.00     0.062 A 
ATOM     18  C   UNL     1     161.037 176.344  32.744  1.00  0.00     0.158 A 
BRANCH  16  19
ATOM     19  O   UNL     1     163.107 175.084  32.611  1.00  0.00    -0.504 OA
ATOM     20  H   UNL     1     162.746 174.326  33.177  1.00  0.00     0.293 HD
ENDBRANCH  16  19
BRANCH  18  21
ATOM     21  O   UNL     1     160.613 175.597  33.842  1.00  0.00    -0.504 OA
ATOM     22  H   UNL     1     160.032 174.775  33.742  1.00  0.00     0.293 HD
ENDBRANCH  18  21
ENDBRANCH   3  13
BRANCH  10  23
ATOM     23  O   UNL     1     157.015 183.346  29.538  1.00  0.00    -0.507 OA
ATOM     24  H   UNL     1     156.560 184.088  29.016  1.00  0.00     0.293 HD
ENDBRANCH  10  23
BRANCH  11  25
ATOM     25  O   UNL     1     155.879 180.122  26.131  1.00  0.00    -0.508 OA
ATOM     26  H   UNL     1     154.874 180.249  26.082  1.00  0.00     0.293 HD
ENDBRANCH  11  25
ENDBRANCH   1   2
BRANCH   1  27
ATOM     27  C   UNL     1     161.739 181.373  32.392  1.00  0.00     0.339 C 
ATOM     28  C   UNL     1     162.697 180.862  33.503  1.00  0.00     0.214 C 
ATOM     29  O   UNL     1     162.323 181.362  31.101  1.00  0.00    -0.332 OA
ATOM     30  C   UNL     1     164.010 181.690  33.546  1.00  0.00     0.180 C 
ATOM     31  C   UNL     1     163.662 181.855  31.036  1.00  0.00     0.179 C 
ATOM     32  C   UNL     1     164.169 182.596  32.309  1.00  0.00     0.177 C 
BRANCH  28  33
ATOM     33  O   UNL     1     162.984 179.494  33.354  1.00  0.00    -0.384 OA
ATOM     34  H   UNL     1     162.122 179.004  33.307  1.00  0.00     0.211 HD
ENDBRANCH  28  33
BRANCH  30  35
ATOM     35  O   UNL     1     164.055 182.473  34.712  1.00  0.00    -0.387 OA
ATOM     36  H   UNL     1     163.307 183.127  34.651  1.00  0.00     0.211 HD
ENDBRANCH  30  35
BRANCH  31  37
ATOM     37  C   UNL     1     163.792 182.728  29.782  1.00  0.00     0.191 C 
BRANCH  37  38
ATOM     38  O   UNL     1     164.919 183.558  29.874  1.00  0.00    -0.394 OA
ATOM     39  H   UNL     1     164.616 184.463  29.604  1.00  0.00     0.210 HD
ENDBRANCH  37  38
ENDBRANCH  31  37
BRANCH  32  40
ATOM     40  O   UNL     1     163.471 183.805  32.497  1.00  0.00    -0.387 OA
ATOM     41  H   UNL     1     162.720 183.814  31.848  1.00  0.00     0.211 HD
ENDBRANCH  32  40
ENDBRANCH   1  27
TORSDOF 12
ENDMDL
MODEL 4
REMARK VINA RESULT:    -5.340      3.905      7.939
REMARK INTER + INTRA:          -8.735
REMARK INTER:                  -6.906
REMARK INTRA:                  -1.828
REMARK UNBOUND:                -0.897
REMARK SMILES O=c1c(O[C@@H]2O[C@@H](CO)[C@@H](O)[C@@H](O)[C@@H]2O)c(-c2ccc(O)c(O)c2)oc2cc(O)cc(O)c12
REMARK SMILES IDX 4 1 3 2 16 3 25 4 2 5 26 6 1 7 33 8 27 9 31 10 28 11 30 12
REMARK SMILES IDX 17 13 18 14 19 15 20 16 24 17 22 18 21 19 23 21 32 23 29 25
REMARK SMILES IDX 5 27 14 28 6 29 12 30 7 31 10 32 15 33 13 35 8 37 9 38 11 40
REMARK H PARENT 21 20 23 22 32 24 29 26 15 34 13 36 9 39 11 41
REMARK Flexibility Score: inf
ROOT
ATOM      1  O   UNL     1     161.028 181.025  30.708  1.00  0.00    -0.454 OA
ENDROOT
BRANCH   1   2
ATOM      2  C   UNL     1     161.729 179.865  31.078  1.00  0.00     0.214 A 
ATOM      3  C   UNL     1     162.992 179.996  31.676  1.00  0.00     0.180 A 
ATOM      4  O   UNL     1     163.693 178.921  32.013  1.00  0.00    -0.452 OA
ATOM      5  C   UNL     1     161.205 178.574  30.890  1.00  0.00     0.239 A 
ATOM      6  C   UNL     1     163.254 177.682  31.823  1.00  0.00     0.146 A 
ATOM      7  O   UNL     1     160.040 178.430  30.436  1.00  0.00    -0.285 OA
ATOM      8  C   UNL     1     161.982 177.450  31.247  1.00  0.00     0.111 A 
ATOM      9  C   UNL     1     164.064 176.607  32.201  1.00  0.00     0.094 A 
ATOM     10  C   UNL     1     161.545 176.116  31.063  1.00  0.00     0.134 A 
ATOM     11  C   UNL     1     163.630 175.293  32.009  1.00  0.00     0.123 A 
ATOM     12  C   UNL     1     162.375 175.052  31.446  1.00  0.00     0.093 A 
BRANCH   3  13
ATOM     13  C   UNL     1     163.563 181.324  31.929  1.00  0.00     0.025 A 
ATOM     14  C   UNL     1     163.446 181.905  33.198  1.00  0.00     0.016 A 
ATOM     15  C   UNL     1     163.992 183.167  33.443  1.00  0.00     0.051 A 
ATOM     16  C   UNL     1     164.659 183.859  32.422  1.00  0.00     0.157 A 
ATOM     17  C   UNL     1     164.223 182.015  30.906  1.00  0.00     0.062 A 
ATOM     18  C   UNL     1     164.772 183.281  31.146  1.00  0.00     0.158 A 
BRANCH  16  19
ATOM     19  O   UNL     1     165.203 185.118  32.672  1.00  0.00    -0.504 OA
ATOM     20  H   UNL     1     166.022 185.447  32.176  1.00  0.00     0.293 HD
ENDBRANCH  16  19
BRANCH  18  21
ATOM     21  O   UNL     1     165.415 183.949  30.105  1.00  0.00    -0.504 OA
ATOM     22  H   UNL     1     164.961 184.679  29.570  1.00  0.00     0.293 HD
ENDBRANCH  18  21
ENDBRANCH   3  13
BRANCH  10  23
ATOM     23  O   UNL     1     160.300 175.840  30.494  1.00  0.00    -0.507 OA
ATOM     24  H   UNL     1     160.019 176.250  29.609  1.00  0.00     0.293 HD
ENDBRANCH  10  23
BRANCH  11  25
ATOM     25  O   UNL     1     164.438 174.219  32.376  1.00  0.00    -0.508 OA
ATOM     26  H   UNL     1     165.378 174.359  32.727  1.00  0.00     0.293 HD
ENDBRANCH  11  25
ENDBRANCH   1   2
BRANCH   1  27
ATOM     27  C   UNL     1     160.052 181.703  31.508  1.00  0.00     0.339 C 
ATOM     28  C   UNL     1     158.702 181.870  30.758  1.00  0.00     0.214 C 
ATOM     29  O   UNL     1     159.917 181.069  32.768  1.00  0.00    -0.332 OA
ATOM     30  C   UNL     1     157.674 182.666  31.607  1.00  0.00     0.180 C 
ATOM     31  C   UNL     1     158.822 181.524  33.563  1.00  0.00     0.179 C 
ATOM     32  C   UNL     1     158.128 182.829  33.071  1.00  0.00     0.177 C 
BRANCH  28  33
ATOM     33  O   UNL     1     158.164 180.629  30.373  1.00  0.00    -0.384 OA
ATOM     34  H   UNL     1     157.683 180.758  29.515  1.00  0.00     0.211 HD
ENDBRANCH  28  33
BRANCH  30  35
ATOM     35  O   UNL     1     157.450 183.932  31.040  1.00  0.00    -0.387 OA
ATOM     36  H   UNL     1     158.245 184.491  31.255  1.00  0.00     0.211 HD
ENDBRANCH  30  35
BRANCH  31  37
ATOM     37  C   UNL     1     159.300 181.647  35.015  1.00  0.00     0.191 C 
BRANCH  37  38
ATOM     38  O   UNL     1     160.503 182.365  35.077  1.00  0.00    -0.394 OA
ATOM     39  H   UNL     1     161.213 181.697  35.261  1.00  0.00     0.210 HD
ENDBRANCH  37  38
ENDBRANCH  31  37
BRANCH  32  40
ATOM     40  O   UNL     1     158.995 183.933  33.193  1.00  0.00    -0.387 OA
ATOM     41  H   UNL     1     158.889 184.481  32.372  1.00  0.00     0.211 HD
ENDBRANCH  32  40
ENDBRANCH   1  27
TORSDOF 12
ENDMDL
MODEL 5
REMARK VINA RESULT:    -5.299      6.191     10.700
REMARK INTER + INTRA:          -8.675
REMARK INTER:                  -6.995
REMARK INTRA:                  -1.680
REMARK UNBOUND:                -0.897
REMARK SMILES O=c1c(O[C@@H]2O[C@@H](CO)[C@@H](O)[C@@H](O)[C@@H]2O)c(-c2ccc(O)c(O)c2)oc2cc(O)cc(O)c12
REMARK SMILES IDX 4 1 3 2 16 3 25 4 2 5 26 6 1 7 33 8 27 9 31 10 28 11 30 12
REMARK SMILES IDX 17 13 18 14 19 15 20 16 24 17 22 18 21 19 23 21 32 23 29 25
REMARK SMILES IDX 5 27 14 28 6 29 12 30 7 31 10 32 15 33 13 35 8 37 9 38 11 40
REMARK H PARENT 21 20 23 22 32 24 29 26 15 34 13 36 9 39 11 41
REMARK Flexibility Score: inf
ROOT
ATOM      1  O   UNL     1     160.597 177.193  32.118  1.00  0.00    -0.454 OA
ENDROOT
BRANCH   1   2
ATOM      2  C   UNL     1     161.859 176.612  31.903  1.00  0.00     0.214 A 
ATOM      3  C   UNL     1     162.991 177.440  31.873  1.00  0.00     0.180 A 
ATOM      4  O   UNL     1     164.194 176.929  31.646  1.00  0.00    -0.452 OA
ATOM      5  C   UNL     1     162.034 175.227  31.736  1.00  0.00     0.239 A 
ATOM      6  C   UNL     1     164.404 175.632  31.447  1.00  0.00     0.146 A 
ATOM      7  O   UNL     1     161.048 174.453  31.844  1.00  0.00    -0.285 OA
ATOM      8  C   UNL     1     163.326 174.716  31.482  1.00  0.00     0.111 A 
ATOM      9  C   UNL     1     165.705 175.182  31.205  1.00  0.00     0.094 A 
ATOM     10  C   UNL     1     163.586 173.341  31.270  1.00  0.00     0.134 A 
ATOM     11  C   UNL     1     165.955 173.825  30.990  1.00  0.00     0.123 A 
ATOM     12  C   UNL     1     164.900 172.910  31.026  1.00  0.00     0.093 A 
BRANCH   3  13
ATOM     13  C   UNL     1     162.863 178.887  32.083  1.00  0.00     0.025 A 
ATOM     14  C   UNL     1     162.978 179.420  33.373  1.00  0.00     0.016 A 
ATOM     15  C   UNL     1     162.861 180.797  33.575  1.00  0.00     0.051 A 
ATOM     16  C   UNL     1     162.626 181.653  32.490  1.00  0.00     0.157 A 
ATOM     17  C   UNL     1     162.623 179.739  30.998  1.00  0.00     0.062 A 
ATOM     18  C   UNL     1     162.504 181.120  31.195  1.00  0.00     0.158 A 
BRANCH  16  19
ATOM     19  O   UNL     1     162.511 183.027  32.697  1.00  0.00    -0.504 OA
ATOM     20  H   UNL     1     163.090 183.510  33.372  1.00  0.00     0.293 HD
ENDBRANCH  16  19
BRANCH  18  21
ATOM     21  O   UNL     1     162.256 181.942  30.097  1.00  0.00    -0.504 OA
ATOM     22  H   UNL     1     161.704 181.635  29.306  1.00  0.00     0.293 HD
ENDBRANCH  18  21
ENDBRANCH   3  13
BRANCH  10  23
ATOM     23  O   UNL     1     162.554 172.402  31.290  1.00  0.00    -0.507 OA
ATOM     24  H   UNL     1     162.647 171.501  30.833  1.00  0.00     0.293 HD
ENDBRANCH  10  23
BRANCH  11  25
ATOM     25  O   UNL     1     167.249 173.373  30.740  1.00  0.00    -0.508 OA
ATOM     26  H   UNL     1     167.830 173.798  30.027  1.00  0.00     0.293 HD
ENDBRANCH  11  25
ENDBRANCH   1   2
BRANCH   1  27
ATOM     27  C   UNL     1     159.675 177.591  31.095  1.00  0.00     0.339 C 
ATOM     28  C   UNL     1     158.636 176.478  30.787  1.00  0.00     0.214 C 
ATOM     29  O   UNL     1     159.081 178.835  31.422  1.00  0.00    -0.332 OA
ATOM     30  C   UNL     1     157.685 176.893  29.631  1.00  0.00     0.180 C 
ATOM     31  C   UNL     1     157.990 179.225  30.587  1.00  0.00     0.179 C 
ATOM     32  C   UNL     1     157.806 178.390  29.285  1.00  0.00     0.177 C 
BRANCH  28  33
ATOM     33  O   UNL     1     157.895 176.126  31.929  1.00  0.00    -0.384 OA
ATOM     34  H   UNL     1     157.803 175.139  31.941  1.00  0.00     0.211 HD
ENDBRANCH  28  33
BRANCH  30  35
ATOM     35  O   UNL     1     157.947 176.123  28.484  1.00  0.00    -0.387 OA
ATOM     36  H   UNL     1     157.088 176.040  27.988  1.00  0.00     0.211 HD
ENDBRANCH  30  35
BRANCH  31  37
ATOM     37  C   UNL     1     158.125 180.723  30.287  1.00  0.00     0.191 C 
BRANCH  37  38
ATOM     38  O   UNL     1     159.406 181.013  29.797  1.00  0.00    -0.394 OA
ATOM     39  H   UNL     1     160.039 180.494  30.358  1.00  0.00     0.210 HD
ENDBRANCH  37  38
ENDBRANCH  31  37
BRANCH  32  40
ATOM     40  O   UNL     1     158.880 178.602  28.398  1.00  0.00    -0.387 OA
ATOM     41  H   UNL     1     158.850 179.556  28.124  1.00  0.00     0.211 HD
ENDBRANCH  32  40
ENDBRANCH   1  27
TORSDOF 12
ENDMDL
MODEL 6
REMARK VINA RESULT:    -5.223      4.900      9.149
REMARK INTER + INTRA:          -8.563
REMARK INTER:                  -7.110
REMARK INTRA:                  -1.453
REMARK UNBOUND:                -0.897
REMARK SMILES O=c1c(O[C@@H]2O[C@@H](CO)[C@@H](O)[C@@H](O)[C@@H]2O)c(-c2ccc(O)c(O)c2)oc2cc(O)cc(O)c12
REMARK SMILES IDX 4 1 3 2 16 3 25 4 2 5 26 6 1 7 33 8 27 9 31 10 28 11 30 12
REMARK SMILES IDX 17 13 18 14 19 15 20 16 24 17 22 18 21 19 23 21 32 23 29 25
REMARK SMILES IDX 5 27 14 28 6 29 12 30 7 31 10 32 15 33 13 35 8 37 9 38 11 40
REMARK H PARENT 21 20 23 22 32 24 29 26 15 34 13 36 9 39 11 41
REMARK Flexibility Score: inf
ROOT
ATOM      1  O   UNL     1     160.528 179.250  32.630  1.00  0.00    -0.454 OA
ENDROOT
BRANCH   1   2
ATOM      2  C   UNL     1     161.522 178.301  32.340  1.00  0.00     0.214 A 
ATOM      3  C   UNL     1     162.830 178.742  32.090  1.00  0.00     0.180 A 
ATOM      4  O   UNL     1     163.788 177.875  31.786  1.00  0.00    -0.452 OA
ATOM      5  C   UNL     1     161.261 176.919  32.308  1.00  0.00     0.239 A 
ATOM      6  C   UNL     1     163.581 176.565  31.711  1.00  0.00     0.146 A 
ATOM      7  O   UNL     1     160.118 176.490  32.614  1.00  0.00    -0.285 OA
ATOM      8  C   UNL     1     162.299 176.024  31.969  1.00  0.00     0.111 A 
ATOM      9  C   UNL     1     164.647 175.726  31.375  1.00  0.00     0.094 A 
ATOM     10  C   UNL     1     162.116 174.623  31.883  1.00  0.00     0.134 A 
ATOM     11  C   UNL     1     164.458 174.345  31.285  1.00  0.00     0.123 A 
ATOM     12  C   UNL     1     163.199 173.798  31.541  1.00  0.00     0.093 A 
BRANCH   3  13
ATOM     13  C   UNL     1     163.160 180.171  32.150  1.00  0.00     0.025 A 
ATOM     14  C   UNL     1     163.383 180.786  33.389  1.00  0.00     0.016 A 
ATOM     15  C   UNL     1     163.700 182.144  33.450  1.00  0.00     0.051 A 
ATOM     16  C   UNL     1     163.796 182.900  32.273  1.00  0.00     0.157 A 
ATOM     17  C   UNL     1     163.249 180.925  30.974  1.00  0.00     0.062 A 
ATOM     18  C   UNL     1     163.567 182.288  31.029  1.00  0.00     0.158 A 
BRANCH  16  19
ATOM     19  O   UNL     1     164.115 184.256  32.338  1.00  0.00    -0.504 OA
ATOM     20  H   UNL     1     164.104 184.842  31.512  1.00  0.00     0.293 HD
ENDBRANCH  16  19
BRANCH  18  21
ATOM     21  O   UNL     1     163.640 183.015  29.842  1.00  0.00    -0.504 OA
ATOM     22  H   UNL     1     162.815 183.365  29.372  1.00  0.00     0.293 HD
ENDBRANCH  18  21
ENDBRANCH   3  13
BRANCH  10  23
ATOM     23  O   UNL     1     160.868 174.045  32.124  1.00  0.00    -0.507 OA
ATOM     24  H   UNL     1     160.339 174.256  32.965  1.00  0.00     0.293 HD
ENDBRANCH  10  23
BRANCH  11  25
ATOM     25  O   UNL     1     165.516 173.505  30.941  1.00  0.00    -0.508 OA
ATOM     26  H   UNL     1     165.361 172.630  30.454  1.00  0.00     0.293 HD
ENDBRANCH  11  25
ENDBRANCH   1   2
BRANCH   1  27
ATOM     27  C   UNL     1     159.763 179.982  31.663  1.00  0.00     0.339 C 
ATOM     28  C   UNL     1     158.922 179.042  30.757  1.00  0.00     0.214 C 
ATOM     29  O   UNL     1     158.989 180.983  32.301  1.00  0.00    -0.332 OA
ATOM     30  C   UNL     1     158.151 179.839  29.670  1.00  0.00     0.180 C 
ATOM     31  C   UNL     1     158.026 181.629  31.467  1.00  0.00     0.179 C 
ATOM     32  C   UNL     1     158.167 181.357  29.939  1.00  0.00     0.177 C 
BRANCH  28  33
ATOM     33  O   UNL     1     158.034 178.252  31.508  1.00  0.00    -0.384 OA
ATOM     34  H   UNL     1     157.316 178.843  31.853  1.00  0.00     0.211 HD
ENDBRANCH  28  33
BRANCH  30  35
ATOM     35  O   UNL     1     158.694 179.582  28.399  1.00  0.00    -0.387 OA
ATOM     36  H   UNL     1     158.923 178.613  28.373  1.00  0.00     0.211 HD
ENDBRANCH  30  35
BRANCH  31  37
ATOM     37  C   UNL     1     158.049 183.131  31.780  1.00  0.00     0.191 C 
BRANCH  37  38
ATOM     38  O   UNL     1     157.314 183.844  30.823  1.00  0.00    -0.394 OA
ATOM     39  H   UNL     1     156.770 184.502  31.329  1.00  0.00     0.210 HD
ENDBRANCH  37  38
ENDBRANCH  31  37
BRANCH  32  40
ATOM     40  O   UNL     1     159.352 181.930  29.436  1.00  0.00    -0.387 OA
ATOM     41  H   UNL     1     159.977 181.185  29.238  1.00  0.00     0.211 HD
ENDBRANCH  32  40
ENDBRANCH   1  27
TORSDOF 12
ENDMDL
MODEL 7
REMARK VINA RESULT:    -5.142      4.091      7.972
REMARK INTER + INTRA:          -8.445
REMARK INTER:                  -7.061
REMARK INTRA:                  -1.384
REMARK UNBOUND:                -0.897
REMARK SMILES O=c1c(O[C@@H]2O[C@@H](CO)[C@@H](O)[C@@H](O)[C@@H]2O)c(-c2ccc(O)c(O)c2)oc2cc(O)cc(O)c12
REMARK SMILES IDX 4 1 3 2 16 3 25 4 2 5 26 6 1 7 33 8 27 9 31 10 28 11 30 12
REMARK SMILES IDX 17 13 18 14 19 15 20 16 24 17 22 18 21 19 23 21 32 23 29 25
REMARK SMILES IDX 5 27 14 28 6 29 12 30 7 31 10 32 15 33 13 35 8 37 9 38 11 40
REMARK H PARENT 21 20 23 22 32 24 29 26 15 34 13 36 9 39 11 41
REMARK Flexibility Score: inf
ROOT
ATOM      1  O   UNL     1     161.206 180.586  33.511  1.00  0.00    -0.454 OA
ENDROOT
BRANCH   1   2
ATOM      2  C   UNL     1     161.836 179.442  32.993  1.00  0.00     0.214 A 
ATOM      3  C   UNL     1     163.075 179.581  32.351  1.00  0.00     0.180 A 
ATOM      4  O   UNL     1     163.685 178.527  31.826  1.00  0.00    -0.452 OA
ATOM      5  C   UNL     1     161.279 178.156  33.109  1.00  0.00     0.239 A 
ATOM      6  C   UNL     1     163.182 177.299  31.880  1.00  0.00     0.146 A 
ATOM      7  O   UNL     1     160.212 177.990  33.755  1.00  0.00    -0.285 OA
ATOM      8  C   UNL     1     161.947 177.056  32.527  1.00  0.00     0.111 A 
ATOM      9  C   UNL     1     163.889 176.247  31.291  1.00  0.00     0.094 A 
ATOM     10  C   UNL     1     161.442 175.734  32.570  1.00  0.00     0.134 A 
ATOM     11  C   UNL     1     163.382 174.945  31.330  1.00  0.00     0.123 A 
ATOM     12  C   UNL     1     162.166 174.692  31.970  1.00  0.00     0.093 A 
BRANCH   3  13
ATOM     13  C   UNL     1     163.714 180.899  32.240  1.00  0.00     0.025 A 
ATOM     14  C   UNL     1     164.392 181.442  33.340  1.00  0.00     0.016 A 
ATOM     15  C   UNL     1     165.004 182.693  33.237  1.00  0.00     0.051 A 
ATOM     16  C   UNL     1     164.944 183.411  32.035  1.00  0.00     0.157 A 
ATOM     17  C   UNL     1     163.647 181.617  31.041  1.00  0.00     0.062 A 
ATOM     18  C   UNL     1     164.259 182.872  30.932  1.00  0.00     0.158 A 
BRANCH  16  19
ATOM     19  O   UNL     1     165.558 184.660  31.936  1.00  0.00    -0.504 OA
ATOM     20  H   UNL     1     165.121 185.425  31.438  1.00  0.00     0.293 HD
ENDBRANCH  16  19
BRANCH  18  21
ATOM     21  O   UNL     1     164.169 183.568  29.728  1.00  0.00    -0.504 OA
ATOM     22  H   UNL     1     164.070 183.095  28.838  1.00  0.00     0.293 HD
ENDBRANCH  18  21
ENDBRANCH   3  13
BRANCH  10  23
ATOM     23  O   UNL     1     160.226 175.448  33.193  1.00  0.00    -0.507 OA
ATOM     24  H   UNL     1     159.891 174.495  33.291  1.00  0.00     0.293 HD
ENDBRANCH  10  23
BRANCH  11  25
ATOM     25  O   UNL     1     164.079 173.894  30.737  1.00  0.00    -0.508 OA
ATOM     26  H   UNL     1     164.635 174.033  29.901  1.00  0.00     0.293 HD
ENDBRANCH  11  25
ENDBRANCH   1   2
BRANCH   1  27
ATOM     27  C   UNL     1     160.122 181.295  32.897  1.00  0.00     0.339 C 
ATOM     28  C   UNL     1     160.012 182.753  33.420  1.00  0.00     0.214 C 
ATOM     29  O   UNL     1     160.214 181.212  31.486  1.00  0.00    -0.332 OA
ATOM     30  C   UNL     1     158.793 183.490  32.800  1.00  0.00     0.180 C 
ATOM     31  C   UNL     1     159.315 182.059  30.768  1.00  0.00     0.179 C 
ATOM     32  C   UNL     1     158.183 182.713  31.616  1.00  0.00     0.177 C 
BRANCH  28  33
ATOM     33  O   UNL     1     161.194 183.480  33.189  1.00  0.00    -0.384 OA
ATOM     34  H   UNL     1     161.334 183.532  32.209  1.00  0.00     0.211 HD
ENDBRANCH  28  33
BRANCH  30  35
ATOM     35  O   UNL     1     157.807 183.708  33.777  1.00  0.00    -0.387 OA
ATOM     36  H   UNL     1     158.142 184.435  34.370  1.00  0.00     0.211 HD
ENDBRANCH  30  35
BRANCH  31  37
ATOM     37  C   UNL     1     158.749 181.266  29.583  1.00  0.00     0.191 C 
BRANCH  37  38
ATOM     38  O   UNL     1     158.940 181.969  28.385  1.00  0.00    -0.394 OA
ATOM     39  H   UNL     1     158.386 181.506  27.704  1.00  0.00     0.210 HD
ENDBRANCH  37  38
ENDBRANCH  31  37
BRANCH  32  40
ATOM     40  O   UNL     1     157.281 181.738  32.084  1.00  0.00    -0.387 OA
ATOM     41  H   UNL     1     157.410 181.667  33.066  1.00  0.00     0.211 HD
ENDBRANCH  32  40
ENDBRANCH   1  27
TORSDOF 12
ENDMDL
MODEL 8
REMARK VINA RESULT:    -5.016      8.790     12.976
REMARK INTER + INTRA:          -8.259
REMARK INTER:                  -6.388
REMARK INTRA:                  -1.871
REMARK UNBOUND:                -0.897
REMARK SMILES O=c1c(O[C@@H]2O[C@@H](CO)[C@@H](O)[C@@H](O)[C@@H]2O)c(-c2ccc(O)c(O)c2)oc2cc(O)cc(O)c12
REMARK SMILES IDX 4 1 3 2 16 3 25 4 2 5 26 6 1 7 33 8 27 9 31 10 28 11 30 12
REMARK SMILES IDX 17 13 18 14 19 15 20 16 24 17 22 18 21 19 23 21 32 23 29 25
REMARK SMILES IDX 5 27 14 28 6 29 12 30 7 31 10 32 15 33 13 35 8 37 9 38 11 40
REMARK H PARENT 21 20 23 22 32 24 29 26 15 34 13 36 9 39 11 41
REMARK Flexibility Score: inf
ROOT
ATOM      1  O   UNL     1     163.055 173.414  33.238  1.00  0.00    -0.454 OA
ENDROOT
BRANCH   1   2
ATOM      2  C   UNL     1     162.770 174.674  32.686  1.00  0.00     0.214 A 
ATOM      3  C   UNL     1     163.792 175.376  32.030  1.00  0.00     0.180 A 
ATOM      4  O   UNL     1     163.564 176.580  31.521  1.00  0.00    -0.452 OA
ATOM      5  C   UNL     1     161.490 175.254  32.750  1.00  0.00     0.239 A 
ATOM      6  C   UNL     1     162.382 177.182  31.588  1.00  0.00     0.146 A 
ATOM      7  O   UNL     1     160.534 174.610  33.256  1.00  0.00    -0.285 OA
ATOM      8  C   UNL     1     161.284 176.543  32.211  1.00  0.00     0.111 A 
ATOM      9  C   UNL     1     162.235 178.456  31.032  1.00  0.00     0.094 A 
ATOM     10  C   UNL     1     160.037 177.212  32.260  1.00  0.00     0.134 A 
ATOM     11  C   UNL     1     161.004 179.115  31.091  1.00  0.00     0.123 A 
ATOM     12  C   UNL     1     159.912 178.492  31.699  1.00  0.00     0.093 A 
BRANCH   3  13
ATOM     13  C   UNL     1     165.134 174.794  31.904  1.00  0.00     0.025 A 
ATOM     14  C   UNL     1     166.065 174.952  32.939  1.00  0.00     0.016 A 
ATOM     15  C   UNL     1     167.341 174.397  32.823  1.00  0.00     0.051 A 
ATOM     16  C   UNL     1     167.698 173.680  31.673  1.00  0.00     0.157 A 
ATOM     17  C   UNL     1     165.489 174.084  30.751  1.00  0.00     0.062 A 
ATOM     18  C   UNL     1     166.768 173.525  30.630  1.00  0.00     0.158 A 
BRANCH  16  19
ATOM     19  O   UNL     1     168.973 173.127  31.563  1.00  0.00    -0.504 OA
ATOM     20  H   UNL     1     169.195 172.453  30.840  1.00  0.00     0.293 HD
ENDBRANCH  16  19
BRANCH  18  21
ATOM     21  O   UNL     1     167.096 172.831  29.467  1.00  0.00    -0.504 OA
ATOM     22  H   UNL     1     166.391 172.480  28.831  1.00  0.00     0.293 HD
ENDBRANCH  18  21
ENDBRANCH   3  13
BRANCH  10  23
ATOM     23  O   UNL     1     158.928 176.622  32.868  1.00  0.00    -0.507 OA
ATOM     24  H   UNL     1     159.032 175.889  33.563  1.00  0.00     0.293 HD
ENDBRANCH  10  23
BRANCH  11  25
ATOM     25  O   UNL     1     160.854 180.389  30.546  1.00  0.00    -0.508 OA
ATOM     26  H   UNL     1     160.293 181.098  31.003  1.00  0.00     0.293 HD
ENDBRANCH  11  25
ENDBRANCH   1   2
BRANCH   1  27
ATOM     27  C   UNL     1     162.894 172.154  32.574  1.00  0.00     0.339 C 
ATOM     28  C   UNL     1     161.820 171.269  33.263  1.00  0.00     0.214 C 
ATOM     29  O   UNL     1     162.653 172.352  31.191  1.00  0.00    -0.332 OA
ATOM     30  C   UNL     1     161.702 169.881  32.577  1.00  0.00     0.180 C 
ATOM     31  C   UNL     1     162.262 171.182  30.470  1.00  0.00     0.179 C 
ATOM     32  C   UNL     1     162.443 169.832  31.226  1.00  0.00     0.177 C 
BRANCH  28  33
ATOM     33  O   UNL     1     160.566 171.905  33.301  1.00  0.00    -0.384 OA
ATOM     34  H   UNL     1     160.102 171.617  34.128  1.00  0.00     0.211 HD
ENDBRANCH  28  33
BRANCH  30  35
ATOM     35  O   UNL     1     162.200 168.875  33.423  1.00  0.00    -0.387 OA
ATOM     36  H   UNL     1     162.121 169.215  34.356  1.00  0.00     0.211 HD
ENDBRANCH  30  35
BRANCH  31  37
ATOM     37  C   UNL     1     162.995 171.181  29.123  1.00  0.00     0.191 C 
BRANCH  37  38
ATOM     38  O   UNL     1     164.383 171.181  29.318  1.00  0.00    -0.394 OA
ATOM     39  H   UNL     1     164.616 170.274  29.644  1.00  0.00     0.210 HD
ENDBRANCH  37  38
ENDBRANCH  31  37
BRANCH  32  40
ATOM     40  O   UNL     1     163.809 169.551  31.429  1.00  0.00    -0.387 OA
ATOM     41  H   UNL     1     163.904 168.563  31.452  1.00  0.00     0.211 HD
ENDBRANCH  32  40
ENDBRANCH   1  27
TORSDOF 12
ENDMDL
