MODEL 1
REMARK VINA RESULT:    -3.945      0.000      0.000
REMARK INTER + INTRA:          -6.902
REMARK INTER:                  -5.790
REMARK INTRA:                  -1.112
REMARK UNBOUND:                -1.112
REMARK SMILES CC(C)COC(=O)c1ccccc1C(=O)OCC(C)C
REMARK SMILES IDX 8 1 9 2 10 3 11 4 12 5 13 6 6 7 7 8 5 9 4 10 2 11 1 12 3 13
REMARK SMILES IDX 14 14 15 15 16 16 17 17 18 18 19 19 20 20
REMARK H PARENT
REMARK Flexibility Score: inf
ROOT
ATOM      1  C   UNL     1     119.565 104.046 132.269  1.00  0.00     0.074 A 
ATOM      2  C   UNL     1     119.170 103.946 130.923  1.00  0.00     0.016 A 
ATOM      3  C   UNL     1     117.853 103.626 130.592  1.00  0.00     0.001 A 
ATOM      4  C   UNL     1     116.915 103.396 131.597  1.00  0.00     0.001 A 
ATOM      5  C   UNL     1     117.284 103.513 132.938  1.00  0.00     0.016 A 
ATOM      6  C   UNL     1     118.600 103.859 133.291  1.00  0.00     0.074 A 
ENDROOT
BRANCH   1   7
ATOM      7  C   UNL     1     120.999 104.237 132.572  1.00  0.00     0.339 C 
ATOM      8  O   UNL     1     121.745 103.235 132.750  1.00  0.00    -0.246 OA
BRANCH   7   9
ATOM      9  O   UNL     1     121.503 105.531 132.736  1.00  0.00    -0.462 OA
BRANCH   9  10
ATOM     10  C   UNL     1     122.334 106.168 131.768  1.00  0.00     0.236 C 
BRANCH  10  11
ATOM     11  C   UNL     1     121.484 106.970 130.769  1.00  0.00     0.021 C 
ATOM     12  C   UNL     1     120.248 107.573 131.446  1.00  0.00     0.011 C 
ATOM     13  C   UNL     1     122.317 108.066 130.092  1.00  0.00     0.011 C 
ENDBRANCH  10  11
ENDBRANCH   9  10
ENDBRANCH   7   9
ENDBRANCH   1   7
BRANCH   6  14
ATOM     14  C   UNL     1     118.905 104.117 134.713  1.00  0.00     0.339 C 
ATOM     15  O   UNL     1     119.551 103.266 135.384  1.00  0.00    -0.246 OA
BRANCH  14  16
ATOM     16  O   UNL     1     118.411 105.274 135.325  1.00  0.00    -0.462 OA
BRANCH  16  17
ATOM     17  C   UNL     1     117.905 105.291 136.656  1.00  0.00     0.236 C 
BRANCH  17  18
ATOM     18  C   UNL     1     116.376 105.148 136.643  1.00  0.00     0.021 C 
ATOM     19  C   UNL     1     115.728 105.975 137.759  1.00  0.00     0.011 C 
ATOM     20  C   UNL     1     115.975 103.674 136.770  1.00  0.00     0.011 C 
ENDBRANCH  17  18
ENDBRANCH  16  17
ENDBRANCH  14  16
ENDBRANCH   6  14
TORSDOF 8
ENDMDL
MODEL 2
REMARK VINA RESULT:    -3.908      0.154      5.674
REMARK INTER + INTRA:          -6.848
REMARK INTER:                  -5.729
REMARK INTRA:                  -1.118
REMARK UNBOUND:                -1.112
REMARK SMILES CC(C)COC(=O)c1ccccc1C(=O)OCC(C)C
REMARK SMILES IDX 8 1 9 2 10 3 11 4 12 5 13 6 6 7 7 8 5 9 4 10 2 11 1 12 3 13
REMARK SMILES IDX 14 14 15 15 16 16 17 17 18 18 19 19 20 20
REMARK H PARENT
REMARK Flexibility Score: inf
ROOT
ATOM      1  C   UNL     1     118.714 103.830 133.255  1.00  0.00     0.074 A 
ATOM      2  C   UNL     1     117.389 103.491 132.930  1.00  0.00     0.016 A 
ATOM      3  C   UNL     1     116.994 103.368 131.596  1.00  0.00     0.001 A 
ATOM      4  C   UNL     1     117.914 103.585 130.572  1.00  0.00     0.001 A 
ATOM      5  C   UNL     1     119.239 103.901 130.877  1.00  0.00     0.016 A 
ATOM      6  C   UNL     1     119.661 104.005 132.214  1.00  0.00     0.074 A 
ENDROOT
BRANCH   1   7
ATOM      7  C   UNL     1     119.047 104.097 134.670  1.00  0.00     0.339 C 
ATOM      8  O   UNL     1     119.759 103.279 135.315  1.00  0.00    -0.246 OA
BRANCH   7   9
ATOM      9  O   UNL     1     118.507 105.219 135.306  1.00  0.00    -0.462 OA
BRANCH   9  10
ATOM     10  C   UNL     1     117.920 105.166 136.605  1.00  0.00     0.236 C 
BRANCH  10  11
ATOM     11  C   UNL     1     116.391 105.040 136.503  1.00  0.00     0.021 C 
ATOM     12  C   UNL     1     115.935 103.592 136.714  1.00  0.00     0.011 C 
ATOM     13  C   UNL     1     115.693 105.977 137.497  1.00  0.00     0.011 C 
ENDBRANCH  10  11
ENDBRANCH   9  10
ENDBRANCH   7   9
ENDBRANCH   1   7
BRANCH   6  14
ATOM     14  C   UNL     1     121.100 104.191 132.489  1.00  0.00     0.339 C 
ATOM     15  O   UNL     1     121.873 103.194 132.501  1.00  0.00    -0.246 OA
BRANCH  14  16
ATOM     16  O   UNL     1     121.583 105.465 132.806  1.00  0.00    -0.462 OA
BRANCH  16  17
ATOM     17  C   UNL     1     122.377 106.237 131.911  1.00  0.00     0.236 C 
BRANCH  17  18
ATOM     18  C   UNL     1     121.483 106.914 130.862  1.00  0.00     0.021 C 
ATOM     19  C   UNL     1     122.278 107.913 130.012  1.00  0.00     0.011 C 
ATOM     20  C   UNL     1     120.299 107.614 131.537  1.00  0.00     0.011 C 
ENDBRANCH  17  18
ENDBRANCH  16  17
ENDBRANCH  14  16
ENDBRANCH   6  14
TORSDOF 8
ENDMDL
MODEL 3
REMARK VINA RESULT:    -3.711     16.612     18.271
REMARK INTER + INTRA:          -6.559
REMARK INTER:                  -5.944
REMARK INTRA:                  -0.615
REMARK UNBOUND:                -1.112
REMARK SMILES CC(C)COC(=O)c1ccccc1C(=O)OCC(C)C
REMARK SMILES IDX 8 1 9 2 10 3 11 4 12 5 13 6 6 7 7 8 5 9 4 10 2 11 1 12 3 13
REMARK SMILES IDX 14 14 15 15 16 16 17 17 18 18 19 19 20 20
REMARK H PARENT
REMARK Flexibility Score: inf
ROOT
ATOM      1  C   UNL     1     116.257 121.951 133.081  1.00  0.00     0.074 A 
ATOM      2  C   UNL     1     115.297 122.311 132.119  1.00  0.00     0.016 A 
ATOM      3  C   UNL     1     115.685 122.891 130.910  1.00  0.00     0.001 A 
ATOM      4  C   UNL     1     117.034 123.123 130.648  1.00  0.00     0.001 A 
ATOM      5  C   UNL     1     118.002 122.752 131.582  1.00  0.00     0.016 A 
ATOM      6  C   UNL     1     117.632 122.144 132.794  1.00  0.00     0.074 A 
ENDROOT
BRANCH   1   7
ATOM      7  C   UNL     1     115.791 121.482 134.402  1.00  0.00     0.339 C 
ATOM      8  O   UNL     1     115.832 120.253 134.686  1.00  0.00    -0.246 OA
BRANCH   7   9
ATOM      9  O   UNL     1     115.237 122.397 135.303  1.00  0.00    -0.462 OA
BRANCH   9  10
ATOM     10  C   UNL     1     116.016 123.119 136.253  1.00  0.00     0.236 C 
BRANCH  10  11
ATOM     11  C   UNL     1     115.558 122.799 137.685  1.00  0.00     0.021 C 
ATOM     12  C   UNL     1     114.034 122.898 137.819  1.00  0.00     0.011 C 
ATOM     13  C   UNL     1     116.049 121.414 138.125  1.00  0.00     0.011 C 
ENDBRANCH  10  11
ENDBRANCH   9  10
ENDBRANCH   7   9
ENDBRANCH   1   7
BRANCH   6  14
ATOM     14  C   UNL     1     118.696 121.633 133.682  1.00  0.00     0.339 C 
ATOM     15  O   UNL     1     119.021 120.415 133.641  1.00  0.00    -0.246 OA
BRANCH  14  16
ATOM     16  O   UNL     1     119.286 122.491 134.617  1.00  0.00    -0.462 OA
BRANCH  16  17
ATOM     17  C   UNL     1     120.693 122.557 134.827  1.00  0.00     0.236 C 
BRANCH  17  18
ATOM     18  C   UNL     1     121.437 121.983 133.613  1.00  0.00     0.021 C 
ATOM     19  C   UNL     1     122.679 121.193 134.041  1.00  0.00     0.011 C 
ATOM     20  C   UNL     1     121.828 123.104 132.644  1.00  0.00     0.011 C 
ENDBRANCH  17  18
ENDBRANCH  16  17
ENDBRANCH  14  16
ENDBRANCH   6  14
TORSDOF 8
ENDMDL
MODEL 4
REMARK VINA RESULT:    -3.478      1.370      5.899
REMARK INTER + INTRA:          -6.217
REMARK INTER:                  -5.346
REMARK INTRA:                  -0.871
REMARK UNBOUND:                -1.112
REMARK SMILES CC(C)COC(=O)c1ccccc1C(=O)OCC(C)C
REMARK SMILES IDX 8 1 9 2 10 3 11 4 12 5 13 6 6 7 7 8 5 9 4 10 2 11 1 12 3 13
REMARK SMILES IDX 14 14 15 15 16 16 17 17 18 18 19 19 20 20
REMARK H PARENT
REMARK Flexibility Score: inf
ROOT
ATOM      1  C   UNL     1     117.070 103.597 134.084  1.00  0.00     0.074 A 
ATOM      2  C   UNL     1     115.730 103.293 134.381  1.00  0.00     0.016 A 
ATOM      3  C   UNL     1     114.791 103.149 133.358  1.00  0.00     0.001 A 
ATOM      4  C   UNL     1     115.175 103.311 132.028  1.00  0.00     0.001 A 
ATOM      5  C   UNL     1     116.506 103.591 131.714  1.00  0.00     0.016 A 
ATOM      6  C   UNL     1     117.471 103.716 132.728  1.00  0.00     0.074 A 
ENDROOT
BRANCH   1   7
ATOM      7  C   UNL     1     117.993 103.889 135.201  1.00  0.00     0.339 C 
ATOM      8  O   UNL     1     118.821 103.016 135.579  1.00  0.00    -0.246 OA
BRANCH   7   9
ATOM      9  O   UNL     1     117.888 105.107 135.881  1.00  0.00    -0.462 OA
BRANCH   9  10
ATOM     10  C   UNL     1     118.048 105.222 137.293  1.00  0.00     0.236 C 
BRANCH  10  11
ATOM     11  C   UNL     1     116.679 105.230 137.993  1.00  0.00     0.021 C 
ATOM     12  C   UNL     1     115.683 106.138 137.263  1.00  0.00     0.011 C 
ATOM     13  C   UNL     1     116.118 103.808 138.124  1.00  0.00     0.011 C 
ENDBRANCH  10  11
ENDBRANCH   9  10
ENDBRANCH   7   9
ENDBRANCH   1   7
BRANCH   6  14
ATOM     14  C   UNL     1     118.888 103.862 132.341  1.00  0.00     0.339 C 
ATOM     15  O   UNL     1     119.670 102.875 132.425  1.00  0.00    -0.246 OA
BRANCH  14  16
ATOM     16  O   UNL     1     119.371 105.116 131.953  1.00  0.00    -0.462 OA
BRANCH  16  17
ATOM     17  C   UNL     1     120.558 105.285 131.183  1.00  0.00     0.236 C 
BRANCH  17  18
ATOM     18  C   UNL     1     120.696 106.749 130.738  1.00  0.00     0.021 C 
ATOM     19  C   UNL     1     122.136 107.073 130.323  1.00  0.00     0.011 C 
ATOM     20  C   UNL     1     120.239 107.693 131.856  1.00  0.00     0.011 C 
ENDBRANCH  17  18
ENDBRANCH  16  17
ENDBRANCH  14  16
ENDBRANCH   6  14
TORSDOF 8
ENDMDL
MODEL 5
REMARK VINA RESULT:    -3.279      1.918      3.491
REMARK INTER + INTRA:          -5.925
REMARK INTER:                  -5.130
REMARK INTRA:                  -0.795
REMARK UNBOUND:                -1.112
REMARK SMILES CC(C)COC(=O)c1ccccc1C(=O)OCC(C)C
REMARK SMILES IDX 8 1 9 2 10 3 11 4 12 5 13 6 6 7 7 8 5 9 4 10 2 11 1 12 3 13
REMARK SMILES IDX 14 14 15 15 16 16 17 17 18 18 19 19 20 20
REMARK H PARENT
REMARK Flexibility Score: inf
ROOT
ATOM      1  C   UNL     1     120.665 104.306 133.127  1.00  0.00     0.074 A 
ATOM      2  C   UNL     1     121.942 103.777 132.870  1.00  0.00     0.016 A 
ATOM      3  C   UNL     1     122.640 103.089 133.866  1.00  0.00     0.001 A 
ATOM      4  C   UNL     1     122.074 102.925 135.129  1.00  0.00     0.001 A 
ATOM      5  C   UNL     1     120.798 103.425 135.395  1.00  0.00     0.016 A 
ATOM      6  C   UNL     1     120.071 104.098 134.398  1.00  0.00     0.074 A 
ENDROOT
BRANCH   1   7
ATOM      7  C   UNL     1     120.031 105.153 132.096  1.00  0.00     0.339 C 
ATOM      8  O   UNL     1     119.439 104.620 131.118  1.00  0.00    -0.246 OA
BRANCH   7   9
ATOM      9  O   UNL     1     120.159 106.544 132.172  1.00  0.00    -0.462 OA
BRANCH   9  10
ATOM     10  C   UNL     1     120.572 107.347 131.069  1.00  0.00     0.236 C 
BRANCH  10  11
ATOM     11  C   UNL     1     122.008 106.993 130.650  1.00  0.00     0.021 C 
ATOM     12  C   UNL     1     122.496 107.895 129.511  1.00  0.00     0.011 C 
ATOM     13  C   UNL     1     122.966 107.067 131.846  1.00  0.00     0.011 C 
ENDBRANCH  10  11
ENDBRANCH   9  10
ENDBRANCH   7   9
ENDBRANCH   1   7
BRANCH   6  14
ATOM     14  C   UNL     1     118.670 104.474 134.678  1.00  0.00     0.339 C 
ATOM     15  O   UNL     1     118.393 105.154 135.704  1.00  0.00    -0.246 OA
BRANCH  14  16
ATOM     16  O   UNL     1     117.651 104.011 133.839  1.00  0.00    -0.462 OA
BRANCH  16  17
ATOM     17  C   UNL     1     116.271 104.270 134.080  1.00  0.00     0.236 C 
BRANCH  17  18
ATOM     18  C   UNL     1     115.404 103.494 133.078  1.00  0.00     0.021 C 
ATOM     19  C   UNL     1     116.256 102.875 131.964  1.00  0.00     0.011 C 
ATOM     20  C   UNL     1     114.329 104.408 132.480  1.00  0.00     0.011 C 
ENDBRANCH  17  18
ENDBRANCH  16  17
ENDBRANCH  14  16
ENDBRANCH   6  14
TORSDOF 8
ENDMDL
MODEL 6
REMARK VINA RESULT:    -3.251      1.666      2.760
REMARK INTER + INTRA:          -5.884
REMARK INTER:                  -4.829
REMARK INTRA:                  -1.055
REMARK UNBOUND:                -1.112
REMARK SMILES CC(C)COC(=O)c1ccccc1C(=O)OCC(C)C
REMARK SMILES IDX 8 1 9 2 10 3 11 4 12 5 13 6 6 7 7 8 5 9 4 10 2 11 1 12 3 13
REMARK SMILES IDX 14 14 15 15 16 16 17 17 18 18 19 19 20 20
REMARK H PARENT
REMARK Flexibility Score: inf
ROOT
ATOM      1  C   UNL     1     120.775 104.340 133.130  1.00  0.00     0.074 A 
ATOM      2  C   UNL     1     122.129 104.027 132.916  1.00  0.00     0.016 A 
ATOM      3  C   UNL     1     122.863 103.344 133.888  1.00  0.00     0.001 A 
ATOM      4  C   UNL     1     122.257 102.969 135.086  1.00  0.00     0.001 A 
ATOM      5  C   UNL     1     120.908 103.252 135.306  1.00  0.00     0.016 A 
ATOM      6  C   UNL     1     120.147 103.917 134.330  1.00  0.00     0.074 A 
ENDROOT
BRANCH   1   7
ATOM      7  C   UNL     1     120.082 105.193 132.143  1.00  0.00     0.339 C 
ATOM      8  O   UNL     1     119.420 104.665 131.208  1.00  0.00    -0.246 OA
BRANCH   7   9
ATOM      9  O   UNL     1     120.230 106.582 132.208  1.00  0.00    -0.462 OA
BRANCH   9  10
ATOM     10  C   UNL     1     120.562 107.381 131.074  1.00  0.00     0.236 C 
BRANCH  10  11
ATOM     11  C   UNL     1     122.050 107.224 130.720  1.00  0.00     0.021 C 
ATOM     12  C   UNL     1     122.435 108.103 129.525  1.00  0.00     0.011 C 
ATOM     13  C   UNL     1     122.941 107.534 131.928  1.00  0.00     0.011 C 
ENDBRANCH  10  11
ENDBRANCH   9  10
ENDBRANCH   7   9
ENDBRANCH   1   7
BRANCH   6  14
ATOM     14  C   UNL     1     118.693 104.060 134.543  1.00  0.00     0.339 C 
ATOM     15  O   UNL     1     117.895 103.233 134.023  1.00  0.00    -0.246 OA
BRANCH  14  16
ATOM     16  O   UNL     1     118.206 105.156 135.263  1.00  0.00    -0.462 OA
BRANCH  16  17
ATOM     17  C   UNL     1     117.811 105.072 136.630  1.00  0.00     0.236 C 
BRANCH  17  18
ATOM     18  C   UNL     1     116.284 104.947 136.732  1.00  0.00     0.021 C 
ATOM     19  C   UNL     1     115.712 105.922 137.768  1.00  0.00     0.011 C 
ATOM     20  C   UNL     1     115.887 103.508 137.080  1.00  0.00     0.011 C 
ENDBRANCH  17  18
ENDBRANCH  16  17
ENDBRANCH  14  16
ENDBRANCH   6  14
TORSDOF 8
ENDMDL
MODEL 7
REMARK VINA RESULT:    -3.055     16.231     17.629
REMARK INTER + INTRA:          -5.596
REMARK INTER:                  -5.999
REMARK INTRA:                   0.404
REMARK UNBOUND:                -1.112
REMARK SMILES CC(C)COC(=O)c1ccccc1C(=O)OCC(C)C
REMARK SMILES IDX 8 1 9 2 10 3 11 4 12 5 13 6 6 7 7 8 5 9 4 10 2 11 1 12 3 13
REMARK SMILES IDX 14 14 15 15 16 16 17 17 18 18 19 19 20 20
REMARK H PARENT
REMARK Flexibility Score: inf
ROOT
ATOM      1  C   UNL     1     120.185 121.328 132.904  1.00  0.00     0.074 A 
ATOM      2  C   UNL     1     121.233 120.798 132.130  1.00  0.00     0.016 A 
ATOM      3  C   UNL     1     122.560 121.134 132.405  1.00  0.00     0.001 A 
ATOM      4  C   UNL     1     122.858 122.006 133.450  1.00  0.00     0.001 A 
ATOM      5  C   UNL     1     121.832 122.525 134.243  1.00  0.00     0.016 A 
ATOM      6  C   UNL     1     120.492 122.179 133.997  1.00  0.00     0.074 A 
ENDROOT
BRANCH   1   7
ATOM      7  C   UNL     1     118.793 121.066 132.484  1.00  0.00     0.339 C 
ATOM      8  O   UNL     1     118.179 120.059 132.930  1.00  0.00    -0.246 OA
BRANCH   7   9
ATOM      9  O   UNL     1     118.192 121.896 131.532  1.00  0.00    -0.462 OA
BRANCH   9  10
ATOM     10  C   UNL     1     117.551 123.125 131.869  1.00  0.00     0.236 C 
BRANCH  10  11
ATOM     11  C   UNL     1     116.090 123.122 131.392  1.00  0.00     0.021 C 
ATOM     12  C   UNL     1     115.998 122.892 129.879  1.00  0.00     0.011 C 
ATOM     13  C   UNL     1     115.265 122.073 132.148  1.00  0.00     0.011 C 
ENDBRANCH  10  11
ENDBRANCH   9  10
ENDBRANCH   7   9
ENDBRANCH   1   7
BRANCH   6  14
ATOM     14  C   UNL     1     119.459 122.630 134.951  1.00  0.00     0.339 C 
ATOM     15  O   UNL     1     119.799 123.125 136.061  1.00  0.00    -0.246 OA
BRANCH  14  16
ATOM     16  O   UNL     1     118.108 122.438 134.646  1.00  0.00    -0.462 OA
BRANCH  16  17
ATOM     17  C   UNL     1     117.051 122.962 135.445  1.00  0.00     0.236 C 
BRANCH  17  18
ATOM     18  C   UNL     1     116.154 121.821 135.949  1.00  0.00     0.021 C 
ATOM     19  C   UNL     1     114.699 122.019 135.508  1.00  0.00     0.011 C 
ATOM     20  C   UNL     1     116.237 121.708 137.475  1.00  0.00     0.011 C 
ENDBRANCH  17  18
ENDBRANCH  16  17
ENDBRANCH  14  16
ENDBRANCH   6  14
TORSDOF 8
ENDMDL
MODEL 8
REMARK VINA RESULT:    -2.942      2.281      3.622
REMARK INTER + INTRA:          -5.431
REMARK INTER:                  -4.939
REMARK INTRA:                  -0.492
REMARK UNBOUND:                -1.112
REMARK SMILES CC(C)COC(=O)c1ccccc1C(=O)OCC(C)C
REMARK SMILES IDX 8 1 9 2 10 3 11 4 12 5 13 6 6 7 7 8 5 9 4 10 2 11 1 12 3 13
REMARK SMILES IDX 14 14 15 15 16 16 17 17 18 18 19 19 20 20
REMARK H PARENT
REMARK Flexibility Score: inf
ROOT
ATOM      1  C   UNL     1     121.527 103.504 132.413  1.00  0.00     0.074 A 
ATOM      2  C   UNL     1     122.540 103.197 133.338  1.00  0.00     0.016 A 
ATOM      3  C   UNL     1     122.257 103.123 134.704  1.00  0.00     0.001 A 
ATOM      4  C   UNL     1     120.962 103.360 135.163  1.00  0.00     0.001 A 
ATOM      5  C   UNL     1     119.940 103.644 134.256  1.00  0.00     0.016 A 
ATOM      6  C   UNL     1     120.200 103.698 132.876  1.00  0.00     0.074 A 
ENDROOT
BRANCH   1   7
ATOM      7  C   UNL     1     121.902 103.719 131.000  1.00  0.00     0.339 C 
ATOM      8  O   UNL     1     121.568 102.876 130.123  1.00  0.00    -0.246 OA
BRANCH   7   9
ATOM      9  O   UNL     1     122.693 104.821 130.657  1.00  0.00    -0.462 OA
BRANCH   9  10
ATOM     10  C   UNL     1     122.597 106.080 131.318  1.00  0.00     0.236 C 
BRANCH  10  11
ATOM     11  C   UNL     1     121.664 107.027 130.547  1.00  0.00     0.021 C 
ATOM     12  C   UNL     1     120.646 107.691 131.481  1.00  0.00     0.011 C 
ATOM     13  C   UNL     1     122.464 108.086 129.779  1.00  0.00     0.011 C 
ENDBRANCH  10  11
ENDBRANCH   9  10
ENDBRANCH   7   9
ENDBRANCH   1   7
BRANCH   6  14
ATOM     14  C   UNL     1     119.062 103.852 131.948  1.00  0.00     0.339 C 
ATOM     15  O   UNL     1     119.119 104.702 131.016  1.00  0.00    -0.246 OA
BRANCH  14  16
ATOM     16  O   UNL     1     117.898 103.104 132.153  1.00  0.00    -0.462 OA
BRANCH  16  17
ATOM     17  C   UNL     1     116.692 103.334 131.431  1.00  0.00     0.236 C 
BRANCH  17  18
ATOM     18  C   UNL     1     115.520 103.524 132.406  1.00  0.00     0.021 C 
ATOM     19  C   UNL     1     114.485 104.509 131.850  1.00  0.00     0.011 C 
ATOM     20  C   UNL     1     116.030 104.002 133.770  1.00  0.00     0.011 C 
ENDBRANCH  17  18
ENDBRANCH  16  17
ENDBRANCH  14  16
ENDBRANCH   6  14
TORSDOF 8
ENDMDL
