MODEL 1
REMARK VINA RESULT:    -2.258      0.000      0.000
REMARK INTER + INTRA:          -2.258
REMARK INTER:                  -2.258
REMARK INTRA:                   0.000
REMARK UNBOUND:                 0.000
REMARK SMILES CC(=O)[O-]
REMARK SMILES IDX 1 1 2 2 3 3 4 4
REMARK H PARENT
REMARK Flexibility Score: inf
ROOT
ATOM      1  C   UNL     1      51.161 -51.783  -7.791  1.00  0.00     0.063 C 
ATOM      2  C   UNL     1      52.047 -51.769  -8.989  1.00  0.00     0.038 C 
ATOM      3  O   UNL     1      51.549 -51.713 -10.143  1.00  0.00    -0.550 OA
ATOM      4  O   UNL     1      53.428 -51.764  -8.835  1.00  0.00    -0.550 OA
ENDROOT
TORSDOF 0
ENDMDL
MODEL 2
REMARK VINA RESULT:    -2.232      2.007      2.278
REMARK INTER + INTRA:          -2.232
REMARK INTER:                  -2.232
REMARK INTRA:                   0.000
REMARK UNBOUND:                 0.000
REMARK SMILES CC(=O)[O-]
REMARK SMILES IDX 1 1 2 2 3 3 4 4
REMARK H PARENT
REMARK Flexibility Score: inf
ROOT
ATOM      1  C   UNL     1      51.805 -49.876  -8.170  1.00  0.00     0.063 C 
ATOM      2  C   UNL     1      51.250 -51.257  -8.086  1.00  0.00     0.038 C 
ATOM      3  O   UNL     1      50.626 -51.626  -7.057  1.00  0.00    -0.550 OA
ATOM      4  O   UNL     1      51.374 -52.125  -9.164  1.00  0.00    -0.550 OA
ENDROOT
TORSDOF 0
ENDMDL
MODEL 3
REMARK VINA RESULT:    -2.199      1.491      1.904
REMARK INTER + INTRA:          -2.199
REMARK INTER:                  -2.199
REMARK INTRA:                   0.000
REMARK UNBOUND:                 0.000
REMARK SMILES CC(=O)[O-]
REMARK SMILES IDX 1 1 2 2 3 3 4 4
REMARK H PARENT
REMARK Flexibility Score: inf
ROOT
ATOM      1  C   UNL     1      51.630 -51.541  -8.643  1.00  0.00     0.063 C 
ATOM      2  C   UNL     1      52.999 -50.978  -8.821  1.00  0.00     0.038 C 
ATOM      3  O   UNL     1      53.979 -51.746  -9.006  1.00  0.00    -0.550 OA
ATOM      4  O   UNL     1      53.190 -49.602  -8.837  1.00  0.00    -0.550 OA
ENDROOT
TORSDOF 0
ENDMDL
MODEL 4
REMARK VINA RESULT:    -2.199      0.676      1.646
REMARK INTER + INTRA:          -2.199
REMARK INTER:                  -2.199
REMARK INTRA:                   0.000
REMARK UNBOUND:                 0.000
REMARK SMILES CC(=O)[O-]
REMARK SMILES IDX 1 1 2 2 3 3 4 4
REMARK H PARENT
REMARK Flexibility Score: inf
ROOT
ATOM      1  C   UNL     1      51.037 -51.699  -7.724  1.00  0.00     0.063 C 
ATOM      2  C   UNL     1      51.931 -51.285  -8.843  1.00  0.00     0.038 C 
ATOM      3  O   UNL     1      52.984 -50.638  -8.604  1.00  0.00    -0.550 OA
ATOM      4  O   UNL     1      51.634 -51.658 -10.148  1.00  0.00    -0.550 OA
ENDROOT
TORSDOF 0
ENDMDL
MODEL 5
REMARK VINA RESULT:    -2.142      1.468      1.476
REMARK INTER + INTRA:          -2.142
REMARK INTER:                  -2.142
REMARK INTRA:                   0.000
REMARK UNBOUND:                 0.000
REMARK SMILES CC(=O)[O-]
REMARK SMILES IDX 1 1 2 2 3 3 4 4
REMARK H PARENT
REMARK Flexibility Score: inf
ROOT
ATOM      1  C   UNL     1      51.804 -49.800  -8.259  1.00  0.00     0.063 C 
ATOM      2  C   UNL     1      51.881 -51.271  -8.487  1.00  0.00     0.038 C 
ATOM      3  O   UNL     1      50.839 -51.975  -8.434  1.00  0.00    -0.550 OA
ATOM      4  O   UNL     1      53.096 -51.863  -8.813  1.00  0.00    -0.550 OA
ENDROOT
TORSDOF 0
ENDMDL
MODEL 6
REMARK VINA RESULT:    -2.120      1.389      1.771
REMARK INTER + INTRA:          -2.120
REMARK INTER:                  -2.120
REMARK INTRA:                   0.000
REMARK UNBOUND:                 0.000
REMARK SMILES CC(=O)[O-]
REMARK SMILES IDX 1 1 2 2 3 3 4 4
REMARK H PARENT
REMARK Flexibility Score: inf
ROOT
ATOM      1  C   UNL     1      51.013 -51.809  -7.685  1.00  0.00     0.063 C 
ATOM      2  C   UNL     1      51.978 -50.957  -8.438  1.00  0.00     0.038 C 
ATOM      3  O   UNL     1      53.045 -51.454  -8.884  1.00  0.00    -0.550 OA
ATOM      4  O   UNL     1      51.678 -49.626  -8.696  1.00  0.00    -0.550 OA
ENDROOT
TORSDOF 0
ENDMDL
MODEL 7
REMARK VINA RESULT:    -2.019      2.310      2.385
REMARK INTER + INTRA:          -2.019
REMARK INTER:                  -2.019
REMARK INTRA:                   0.000
REMARK UNBOUND:                 0.000
REMARK SMILES CC(=O)[O-]
REMARK SMILES IDX 1 1 2 2 3 3 4 4
REMARK H PARENT
REMARK Flexibility Score: inf
ROOT
ATOM      1  C   UNL     1      51.507 -48.668  -9.013  1.00  0.00     0.063 C 
ATOM      2  C   UNL     1      52.074 -49.948  -8.501  1.00  0.00     0.038 C 
ATOM      3  O   UNL     1      51.314 -50.826  -8.015  1.00  0.00    -0.550 OA
ATOM      4  O   UNL     1      53.436 -50.199  -8.606  1.00  0.00    -0.550 OA
ENDROOT
TORSDOF 0
ENDMDL
MODEL 8
REMARK VINA RESULT:    -1.775     16.960     17.347
REMARK INTER + INTRA:          -1.775
REMARK INTER:                  -1.775
REMARK INTRA:                   0.000
REMARK UNBOUND:                 0.000
REMARK SMILES CC(=O)[O-]
REMARK SMILES IDX 1 1 2 2 3 3 4 4
REMARK H PARENT
REMARK Flexibility Score: inf
ROOT
ATOM      1  C   UNL     1      36.537 -51.474 -16.004  1.00  0.00     0.063 C 
ATOM      2  C   UNL     1      35.938 -50.495 -15.052  1.00  0.00     0.038 C 
ATOM      3  O   UNL     1      35.273 -49.518 -15.486  1.00  0.00    -0.550 OA
ATOM      4  O   UNL     1      36.067 -50.686 -13.682  1.00  0.00    -0.550 OA
ENDROOT
TORSDOF 0
ENDMDL
MODEL 9
REMARK VINA RESULT:    -1.094      2.036      2.128
REMARK INTER + INTRA:          -1.094
REMARK INTER:                  -1.094
REMARK INTRA:                   0.000
REMARK UNBOUND:                 0.000
REMARK SMILES CC(=O)[O-]
REMARK SMILES IDX 1 1 2 2 3 3 4 4
REMARK H PARENT
REMARK Flexibility Score: inf
ROOT
ATOM      1  C   UNL     1      51.750 -49.889  -8.245  1.00  0.00     0.063 C 
ATOM      2  C   UNL     1      51.306 -51.308  -8.137  1.00  0.00     0.038 C 
ATOM      3  O   UNL     1      51.573 -52.125  -9.057  1.00  0.00    -0.550 OA
ATOM      4  O   UNL     1      50.644 -51.747  -6.997  1.00  0.00    -0.550 OA
ENDROOT
TORSDOF 0
ENDMDL
