MODEL 1
REMARK VINA RESULT:    -7.173      0.000      0.000
REMARK INTER + INTRA:         -11.235
REMARK INTER:                 -10.527
REMARK INTRA:                  -0.708
REMARK UNBOUND:                -0.708
REMARK SMILES O=c1c(O[C@@H]2O[C@H](CO)[C@@H](O)[C@@H](O)[C@@H]2O)c(-c2ccc(O)c(O)c2)oc2cc(O)cc(O)c12
REMARK SMILES IDX 4 1 3 2 16 3 25 4 2 5 26 6 1 7 33 8 27 9 31 10 28 11 30 12
REMARK SMILES IDX 17 13 18 14 19 15 20 16 24 17 22 18 21 19 23 21 32 23 29 25
REMARK SMILES IDX 5 27 14 28 6 29 12 30 7 31 10 32 15 33 13 35 8 37 9 38 11 40
REMARK H PARENT 21 20 23 22 32 24 29 26 15 34 13 36 9 39 11 41
REMARK Flexibility Score: inf
ROOT
ATOM      1  O   UNL     1     -18.382  28.991  51.134  1.00  0.00    -0.454 OA
ENDROOT
BRANCH   1   2
ATOM      2  C   UNL     1     -17.766  28.108  52.031  1.00  0.00     0.214 A 
ATOM      3  C   UNL     1     -16.772  27.205  51.612  1.00  0.00     0.180 A 
ATOM      4  O   UNL     1     -16.209  26.390  52.496  1.00  0.00    -0.452 OA
ATOM      5  C   UNL     1     -18.121  28.149  53.384  1.00  0.00     0.239 A 
ATOM      6  C   UNL     1     -16.528  26.377  53.786  1.00  0.00     0.146 A 
ATOM      7  O   UNL     1     -18.934  29.031  53.764  1.00  0.00    -0.285 OA
ATOM      8  C   UNL     1     -17.543  27.231  54.291  1.00  0.00     0.111 A 
ATOM      9  C   UNL     1     -15.825  25.528  54.646  1.00  0.00     0.094 A 
ATOM     10  C   UNL     1     -17.877  27.148  55.674  1.00  0.00     0.134 A 
ATOM     11  C   UNL     1     -16.099  25.526  56.015  1.00  0.00     0.123 A 
ATOM     12  C   UNL     1     -17.126  26.323  56.518  1.00  0.00     0.093 A 
BRANCH   3  13
ATOM     13  C   UNL     1     -16.292  27.159  50.213  1.00  0.00     0.025 A 
ATOM     14  C   UNL     1     -17.054  26.510  49.235  1.00  0.00     0.016 A 
ATOM     15  C   UNL     1     -16.596  26.437  47.917  1.00  0.00     0.051 A 
ATOM     16  C   UNL     1     -15.360  26.991  47.559  1.00  0.00     0.157 A 
ATOM     17  C   UNL     1     -15.041  27.695  49.863  1.00  0.00     0.062 A 
ATOM     18  C   UNL     1     -14.568  27.618  48.549  1.00  0.00     0.158 A 
BRANCH  16  19
ATOM     19  O   UNL     1     -14.964  26.897  46.222  1.00  0.00    -0.504 OA
ATOM     20  H   UNL     1     -15.337  27.474  45.481  1.00  0.00     0.293 HD
ENDBRANCH  16  19
BRANCH  18  21
ATOM     21  O   UNL     1     -13.311  28.167  48.277  1.00  0.00    -0.504 OA
ATOM     22  H   UNL     1     -13.176  29.092  47.899  1.00  0.00     0.293 HD
ENDBRANCH  18  21
ENDBRANCH   3  13
BRANCH  10  23
ATOM     23  O   UNL     1     -18.950  27.833  56.253  1.00  0.00    -0.507 OA
ATOM     24  H   UNL     1     -19.421  28.616  55.820  1.00  0.00     0.293 HD
ENDBRANCH  10  23
BRANCH  11  25
ATOM     25  O   UNL     1     -15.355  24.736  56.887  1.00  0.00    -0.508 OA
ATOM     26  H   UNL     1     -15.276  23.735  56.759  1.00  0.00     0.293 HD
ENDBRANCH  11  25
ENDBRANCH   1   2
BRANCH   1  27
ATOM     27  C   UNL     1     -18.360  30.413  51.290  1.00  0.00     0.339 C 
ATOM     28  C   UNL     1     -17.007  31.006  50.860  1.00  0.00     0.214 C 
ATOM     29  O   UNL     1     -19.448  31.008  50.598  1.00  0.00    -0.332 OA
ATOM     30  C   UNL     1     -16.818  30.798  49.350  1.00  0.00     0.180 C 
ATOM     31  C   UNL     1     -19.364  30.940  49.176  1.00  0.00     0.179 C 
ATOM     32  C   UNL     1     -18.005  31.407  48.586  1.00  0.00     0.177 C 
BRANCH  28  33
ATOM     33  O   UNL     1     -15.967  30.387  51.572  1.00  0.00    -0.384 OA
ATOM     34  H   UNL     1     -16.164  30.514  52.537  1.00  0.00     0.211 HD
ENDBRANCH  28  33
BRANCH  30  35
ATOM     35  O   UNL     1     -15.596  31.332  48.896  1.00  0.00    -0.387 OA
ATOM     36  H   UNL     1     -15.487  32.235  49.293  1.00  0.00     0.211 HD
ENDBRANCH  30  35
BRANCH  31  37
ATOM     37  C   UNL     1     -19.908  29.611  48.602  1.00  0.00     0.191 C 
BRANCH  37  38
ATOM     38  O   UNL     1     -19.127  29.125  47.542  1.00  0.00    -0.394 OA
ATOM     39  H   UNL     1     -18.181  29.360  47.746  1.00  0.00     0.210 HD
ENDBRANCH  37  38
ENDBRANCH  31  37
BRANCH  32  40
ATOM     40  O   UNL     1     -17.944  32.810  48.665  1.00  0.00    -0.387 OA
ATOM     41  H   UNL     1     -17.054  33.049  49.037  1.00  0.00     0.211 HD
ENDBRANCH  32  40
ENDBRANCH   1  27
TORSDOF 12
ENDMDL
MODEL 2
REMARK VINA RESULT:    -6.865      2.371      6.915
REMARK INTER + INTRA:         -10.783
REMARK INTER:                  -9.128
REMARK INTRA:                  -1.656
REMARK UNBOUND:                -0.708
REMARK SMILES O=c1c(O[C@@H]2O[C@H](CO)[C@@H](O)[C@@H](O)[C@@H]2O)c(-c2ccc(O)c(O)c2)oc2cc(O)cc(O)c12
REMARK SMILES IDX 4 1 3 2 16 3 25 4 2 5 26 6 1 7 33 8 27 9 31 10 28 11 30 12
REMARK SMILES IDX 17 13 18 14 19 15 20 16 24 17 22 18 21 19 23 21 32 23 29 25
REMARK SMILES IDX 5 27 14 28 6 29 12 30 7 31 10 32 15 33 13 35 8 37 9 38 11 40
REMARK H PARENT 21 20 23 22 32 24 29 26 15 34 13 36 9 39 11 41
REMARK Flexibility Score: inf
ROOT
ATOM      1  O   UNL     1     -17.466  29.268  49.586  1.00  0.00    -0.454 OA
ENDROOT
BRANCH   1   2
ATOM      2  C   UNL     1     -17.277  30.230  48.585  1.00  0.00     0.214 A 
ATOM      3  C   UNL     1     -17.114  29.867  47.235  1.00  0.00     0.180 A 
ATOM      4  O   UNL     1     -16.944  30.811  46.316  1.00  0.00    -0.452 OA
ATOM      5  C   UNL     1     -17.284  31.586  48.928  1.00  0.00     0.239 A 
ATOM      6  C   UNL     1     -16.923  32.109  46.597  1.00  0.00     0.146 A 
ATOM      7  O   UNL     1     -17.534  31.901  50.120  1.00  0.00    -0.285 OA
ATOM      8  C   UNL     1     -17.045  32.565  47.935  1.00  0.00     0.111 A 
ATOM      9  C   UNL     1     -16.807  33.024  45.547  1.00  0.00     0.094 A 
ATOM     10  C   UNL     1     -16.973  33.965  48.189  1.00  0.00     0.134 A 
ATOM     11  C   UNL     1     -16.833  34.397  45.801  1.00  0.00     0.123 A 
ATOM     12  C   UNL     1     -16.903  34.858  47.114  1.00  0.00     0.093 A 
BRANCH   3  13
ATOM     13  C   UNL     1     -17.172  28.458  46.788  1.00  0.00     0.025 A 
ATOM     14  C   UNL     1     -18.410  27.860  46.524  1.00  0.00     0.016 A 
ATOM     15  C   UNL     1     -18.476  26.521  46.129  1.00  0.00     0.051 A 
ATOM     16  C   UNL     1     -17.311  25.752  46.012  1.00  0.00     0.157 A 
ATOM     17  C   UNL     1     -16.003  27.683  46.695  1.00  0.00     0.062 A 
ATOM     18  C   UNL     1     -16.059  26.340  46.311  1.00  0.00     0.158 A 
BRANCH  16  19
ATOM     19  O   UNL     1     -17.442  24.424  45.600  1.00  0.00    -0.504 OA
ATOM     20  H   UNL     1     -18.330  23.955  45.479  1.00  0.00     0.293 HD
ENDBRANCH  16  19
BRANCH  18  21
ATOM     21  O   UNL     1     -14.856  25.631  46.248  1.00  0.00    -0.504 OA
ATOM     22  H   UNL     1     -13.954  26.070  46.143  1.00  0.00     0.293 HD
ENDBRANCH  18  21
ENDBRANCH   3  13
BRANCH  10  23
ATOM     23  O   UNL     1     -16.939  34.520  49.472  1.00  0.00    -0.507 OA
ATOM     24  H   UNL     1     -16.373  35.317  49.729  1.00  0.00     0.293 HD
ENDBRANCH  10  23
BRANCH  11  25
ATOM     25  O   UNL     1     -16.790  35.314  44.754  1.00  0.00    -0.508 OA
ATOM     26  H   UNL     1     -17.632  35.610  44.274  1.00  0.00     0.293 HD
ENDBRANCH  11  25
ENDBRANCH   1   2
BRANCH   1  27
ATOM     27  C   UNL     1     -16.387  28.601  50.250  1.00  0.00     0.339 C 
ATOM     28  C   UNL     1     -16.378  28.905  51.757  1.00  0.00     0.214 C 
ATOM     29  O   UNL     1     -16.425  27.206  49.985  1.00  0.00    -0.332 OA
ATOM     30  C   UNL     1     -17.635  28.305  52.404  1.00  0.00     0.180 C 
ATOM     31  C   UNL     1     -17.517  26.512  50.586  1.00  0.00     0.179 C 
ATOM     32  C   UNL     1     -17.711  26.800  52.100  1.00  0.00     0.177 C 
BRANCH  28  33
ATOM     33  O   UNL     1     -16.338  30.293  51.963  1.00  0.00    -0.384 OA
ATOM     34  H   UNL     1     -15.746  30.672  51.261  1.00  0.00     0.211 HD
ENDBRANCH  28  33
BRANCH  30  35
ATOM     35  O   UNL     1     -17.676  28.544  53.792  1.00  0.00    -0.387 OA
ATOM     36  H   UNL     1     -17.587  29.521  53.940  1.00  0.00     0.211 HD
ENDBRANCH  30  35
BRANCH  31  37
ATOM     37  C   UNL     1     -18.807  26.566  49.736  1.00  0.00     0.191 C 
BRANCH  37  38
ATOM     38  O   UNL     1     -19.723  27.517  50.211  1.00  0.00    -0.394 OA
ATOM     39  H   UNL     1     -20.180  27.114  50.998  1.00  0.00     0.210 HD
ENDBRANCH  37  38
ENDBRANCH  31  37
BRANCH  32  40
ATOM     40  O   UNL     1     -16.703  26.125  52.814  1.00  0.00    -0.387 OA
ATOM     41  H   UNL     1     -16.637  25.208  52.439  1.00  0.00     0.211 HD
ENDBRANCH  32  40
ENDBRANCH   1  27
TORSDOF 12
ENDMDL
MODEL 3
REMARK VINA RESULT:    -6.850      2.495      6.803
REMARK INTER + INTRA:         -10.761
REMARK INTER:                  -9.542
REMARK INTRA:                  -1.218
REMARK UNBOUND:                -0.708
REMARK SMILES O=c1c(O[C@@H]2O[C@H](CO)[C@@H](O)[C@@H](O)[C@@H]2O)c(-c2ccc(O)c(O)c2)oc2cc(O)cc(O)c12
REMARK SMILES IDX 4 1 3 2 16 3 25 4 2 5 26 6 1 7 33 8 27 9 31 10 28 11 30 12
REMARK SMILES IDX 17 13 18 14 19 15 20 16 24 17 22 18 21 19 23 21 32 23 29 25
REMARK SMILES IDX 5 27 14 28 6 29 12 30 7 31 10 32 15 33 13 35 8 37 9 38 11 40
REMARK H PARENT 21 20 23 22 32 24 29 26 15 34 13 36 9 39 11 41
REMARK Flexibility Score: inf
ROOT
ATOM      1  O   UNL     1     -17.382  30.322  48.127  1.00  0.00    -0.454 OA
ENDROOT
BRANCH   1   2
ATOM      2  C   UNL     1     -17.147  29.109  47.465  1.00  0.00     0.214 A 
ATOM      3  C   UNL     1     -16.585  28.003  48.129  1.00  0.00     0.180 A 
ATOM      4  O   UNL     1     -16.385  26.870  47.465  1.00  0.00    -0.452 OA
ATOM      5  C   UNL     1     -17.512  28.982  46.121  1.00  0.00     0.239 A 
ATOM      6  C   UNL     1     -16.696  26.709  46.184  1.00  0.00     0.146 A 
ATOM      7  O   UNL     1     -18.109  29.942  45.568  1.00  0.00    -0.285 OA
ATOM      8  C   UNL     1     -17.237  27.780  45.427  1.00  0.00     0.111 A 
ATOM      9  C   UNL     1     -16.509  25.453  45.598  1.00  0.00     0.094 A 
ATOM     10  C   UNL     1     -17.512  27.569  44.045  1.00  0.00     0.134 A 
ATOM     11  C   UNL     1     -16.873  25.234  44.268  1.00  0.00     0.123 A 
ATOM     12  C   UNL     1     -17.359  26.290  43.499  1.00  0.00     0.093 A 
BRANCH   3  13
ATOM     13  C   UNL     1     -16.245  28.040  49.568  1.00  0.00     0.025 A 
ATOM     14  C   UNL     1     -15.014  27.539  50.008  1.00  0.00     0.016 A 
ATOM     15  C   UNL     1     -14.696  27.544  51.369  1.00  0.00     0.051 A 
ATOM     16  C   UNL     1     -15.609  28.030  52.314  1.00  0.00     0.157 A 
ATOM     17  C   UNL     1     -17.173  28.506  50.515  1.00  0.00     0.062 A 
ATOM     18  C   UNL     1     -16.869  28.506  51.881  1.00  0.00     0.158 A 
BRANCH  16  19
ATOM     19  O   UNL     1     -15.227  28.020  53.657  1.00  0.00    -0.504 OA
ATOM     20  H   UNL     1     -15.543  28.696  54.339  1.00  0.00     0.293 HD
ENDBRANCH  16  19
BRANCH  18  21
ATOM     21  O   UNL     1     -17.844  28.977  52.764  1.00  0.00    -0.504 OA
ATOM     22  H   UNL     1     -18.079  29.953  52.868  1.00  0.00     0.293 HD
ENDBRANCH  18  21
ENDBRANCH   3  13
BRANCH  10  23
ATOM     23  O   UNL     1     -17.911  28.584  43.170  1.00  0.00    -0.507 OA
ATOM     24  H   UNL     1     -17.325  28.962  42.439  1.00  0.00     0.293 HD
ENDBRANCH  10  23
BRANCH  11  25
ATOM     25  O   UNL     1     -16.757  23.969  43.699  1.00  0.00    -0.508 OA
ATOM     26  H   UNL     1     -17.537  23.323  43.679  1.00  0.00     0.293 HD
ENDBRANCH  11  25
ENDBRANCH   1   2
BRANCH   1  27
ATOM     27  C   UNL     1     -16.362  31.297  48.367  1.00  0.00     0.339 C 
ATOM     28  C   UNL     1     -16.479  32.485  47.398  1.00  0.00     0.214 C 
ATOM     29  O   UNL     1     -16.378  31.711  49.726  1.00  0.00    -0.332 OA
ATOM     30  C   UNL     1     -17.785  33.243  47.678  1.00  0.00     0.180 C 
ATOM     31  C   UNL     1     -17.516  32.483  50.104  1.00  0.00     0.179 C 
ATOM     32  C   UNL     1     -17.835  33.670  49.154  1.00  0.00     0.177 C 
BRANCH  28  33
ATOM     33  O   UNL     1     -16.457  32.023  46.073  1.00  0.00    -0.384 OA
ATOM     34  H   UNL     1     -16.747  31.074  46.094  1.00  0.00     0.211 HD
ENDBRANCH  28  33
BRANCH  30  35
ATOM     35  O   UNL     1     -17.941  34.352  46.824  1.00  0.00    -0.387 OA
ATOM     36  H   UNL     1     -18.286  34.026  45.953  1.00  0.00     0.211 HD
ENDBRANCH  30  35
BRANCH  31  37
ATOM     37  C   UNL     1     -18.730  31.613  50.501  1.00  0.00     0.191 C 
BRANCH  37  38
ATOM     38  O   UNL     1     -19.007  31.676  51.876  1.00  0.00    -0.394 OA
ATOM     39  H   UNL     1     -18.715  32.574  52.191  1.00  0.00     0.210 HD
ENDBRANCH  37  38
ENDBRANCH  31  37
BRANCH  32  40
ATOM     40  O   UNL     1     -16.890  34.688  49.381  1.00  0.00    -0.387 OA
ATOM     41  H   UNL     1     -16.451  34.885  48.511  1.00  0.00     0.211 HD
ENDBRANCH  32  40
ENDBRANCH   1  27
TORSDOF 12
ENDMDL
MODEL 4
REMARK VINA RESULT:    -6.602      1.485      2.631
REMARK INTER + INTRA:         -10.398
REMARK INTER:                  -9.877
REMARK INTRA:                  -0.520
REMARK UNBOUND:                -0.708
REMARK SMILES O=c1c(O[C@@H]2O[C@H](CO)[C@@H](O)[C@@H](O)[C@@H]2O)c(-c2ccc(O)c(O)c2)oc2cc(O)cc(O)c12
REMARK SMILES IDX 4 1 3 2 16 3 25 4 2 5 26 6 1 7 33 8 27 9 31 10 28 11 30 12
REMARK SMILES IDX 17 13 18 14 19 15 20 16 24 17 22 18 21 19 23 21 32 23 29 25
REMARK SMILES IDX 5 27 14 28 6 29 12 30 7 31 10 32 15 33 13 35 8 37 9 38 11 40
REMARK H PARENT 21 20 23 22 32 24 29 26 15 34 13 36 9 39 11 41
REMARK Flexibility Score: inf
ROOT
ATOM      1  O   UNL     1     -17.598  29.290  49.542  1.00  0.00    -0.454 OA
ENDROOT
BRANCH   1   2
ATOM      2  C   UNL     1     -17.402  28.358  50.570  1.00  0.00     0.214 A 
ATOM      3  C   UNL     1     -16.875  27.079  50.317  1.00  0.00     0.180 A 
ATOM      4  O   UNL     1     -16.699  26.228  51.322  1.00  0.00    -0.452 OA
ATOM      5  C   UNL     1     -17.706  28.719  51.887  1.00  0.00     0.239 A 
ATOM      6  C   UNL     1     -16.993  26.518  52.584  1.00  0.00     0.146 A 
ATOM      7  O   UNL     1     -18.078  29.899  52.115  1.00  0.00    -0.285 OA
ATOM      8  C   UNL     1     -17.560  27.773  52.929  1.00  0.00     0.111 A 
ATOM      9  C   UNL     1     -16.704  25.577  53.577  1.00  0.00     0.094 A 
ATOM     10  C   UNL     1     -17.896  28.018  54.291  1.00  0.00     0.134 A 
ATOM     11  C   UNL     1     -16.952  25.868  54.920  1.00  0.00     0.123 A 
ATOM     12  C   UNL     1     -17.554  27.076  55.267  1.00  0.00     0.093 A 
BRANCH   3  13
ATOM     13  C   UNL     1     -16.460  26.655  48.961  1.00  0.00     0.025 A 
ATOM     14  C   UNL     1     -17.372  26.002  48.124  1.00  0.00     0.016 A 
ATOM     15  C   UNL     1     -16.981  25.573  46.853  1.00  0.00     0.051 A 
ATOM     16  C   UNL     1     -15.668  25.770  46.405  1.00  0.00     0.157 A 
ATOM     17  C   UNL     1     -15.135  26.832  48.525  1.00  0.00     0.062 A 
ATOM     18  C   UNL     1     -14.731  26.398  47.258  1.00  0.00     0.158 A 
BRANCH  16  19
ATOM     19  O   UNL     1     -15.343  25.330  45.119  1.00  0.00    -0.504 OA
ATOM     20  H   UNL     1     -16.027  25.072  44.421  1.00  0.00     0.293 HD
ENDBRANCH  16  19
BRANCH  18  21
ATOM     21  O   UNL     1     -13.396  26.602  46.897  1.00  0.00    -0.504 OA
ATOM     22  H   UNL     1     -12.613  26.306  47.460  1.00  0.00     0.293 HD
ENDBRANCH  18  21
ENDBRANCH   3  13
BRANCH  10  23
ATOM     23  O   UNL     1     -18.586  29.154  54.726  1.00  0.00    -0.507 OA
ATOM     24  H   UNL     1     -18.819  29.937  54.130  1.00  0.00     0.293 HD
ENDBRANCH  10  23
BRANCH  11  25
ATOM     25  O   UNL     1     -16.602  24.965  55.919  1.00  0.00    -0.508 OA
ATOM     26  H   UNL     1     -15.704  25.012  56.385  1.00  0.00     0.293 HD
ENDBRANCH  11  25
ENDBRANCH   1   2
BRANCH   1  27
ATOM     27  C   UNL     1     -16.711  29.429  48.428  1.00  0.00     0.339 C 
ATOM     28  C   UNL     1     -17.476  29.761  47.136  1.00  0.00     0.214 C 
ATOM     29  O   UNL     1     -15.699  30.386  48.712  1.00  0.00    -0.332 OA
ATOM     30  C   UNL     1     -18.119  31.150  47.270  1.00  0.00     0.180 C 
ATOM     31  C   UNL     1     -16.158  31.734  48.800  1.00  0.00     0.179 C 
ATOM     32  C   UNL     1     -17.044  32.194  47.610  1.00  0.00     0.177 C 
BRANCH  28  33
ATOM     33  O   UNL     1     -18.459  28.788  46.901  1.00  0.00    -0.384 OA
ATOM     34  H   UNL     1     -18.490  28.209  47.707  1.00  0.00     0.211 HD
ENDBRANCH  28  33
BRANCH  30  35
ATOM     35  O   UNL     1     -18.828  31.513  46.107  1.00  0.00    -0.387 OA
ATOM     36  H   UNL     1     -19.470  30.787  45.896  1.00  0.00     0.211 HD
ENDBRANCH  30  35
BRANCH  31  37
ATOM     37  C   UNL     1     -16.698  32.097  50.202  1.00  0.00     0.191 C 
BRANCH  37  38
ATOM     38  O   UNL     1     -15.922  31.548  51.235  1.00  0.00    -0.394 OA
ATOM     39  H   UNL     1     -15.305  30.888  50.816  1.00  0.00     0.210 HD
ENDBRANCH  37  38
ENDBRANCH  31  37
BRANCH  32  40
ATOM     40  O   UNL     1     -16.215  32.397  46.491  1.00  0.00    -0.387 OA
ATOM     41  H   UNL     1     -15.430  31.796  46.589  1.00  0.00     0.211 HD
ENDBRANCH  32  40
ENDBRANCH   1  27
TORSDOF 12
ENDMDL
MODEL 5
REMARK VINA RESULT:    -6.560      1.874      2.822
REMARK INTER + INTRA:         -10.337
REMARK INTER:                  -9.371
REMARK INTRA:                  -0.966
REMARK UNBOUND:                -0.708
REMARK SMILES O=c1c(O[C@@H]2O[C@H](CO)[C@@H](O)[C@@H](O)[C@@H]2O)c(-c2ccc(O)c(O)c2)oc2cc(O)cc(O)c12
REMARK SMILES IDX 4 1 3 2 16 3 25 4 2 5 26 6 1 7 33 8 27 9 31 10 28 11 30 12
REMARK SMILES IDX 17 13 18 14 19 15 20 16 24 17 22 18 21 19 23 21 32 23 29 25
REMARK SMILES IDX 5 27 14 28 6 29 12 30 7 31 10 32 15 33 13 35 8 37 9 38 11 40
REMARK H PARENT 21 20 23 22 32 24 29 26 15 34 13 36 9 39 11 41
REMARK Flexibility Score: inf
ROOT
ATOM      1  O   UNL     1     -17.642  30.657  49.333  1.00  0.00    -0.454 OA
ENDROOT
BRANCH   1   2
ATOM      2  C   UNL     1     -17.829  29.901  50.498  1.00  0.00     0.214 A 
ATOM      3  C   UNL     1     -17.364  28.577  50.601  1.00  0.00     0.180 A 
ATOM      4  O   UNL     1     -17.557  27.898  51.726  1.00  0.00    -0.452 OA
ATOM      5  C   UNL     1     -18.464  30.486  51.599  1.00  0.00     0.239 A 
ATOM      6  C   UNL     1     -18.172  28.404  52.789  1.00  0.00     0.146 A 
ATOM      7  O   UNL     1     -18.782  31.702  51.531  1.00  0.00    -0.285 OA
ATOM      8  C   UNL     1     -18.703  29.720  52.763  1.00  0.00     0.111 A 
ATOM      9  C   UNL     1     -18.261  27.628  53.949  1.00  0.00     0.094 A 
ATOM     10  C   UNL     1     -19.392  30.200  53.914  1.00  0.00     0.134 A 
ATOM     11  C   UNL     1     -18.856  28.147  55.101  1.00  0.00     0.123 A 
ATOM     12  C   UNL     1     -19.425  29.419  55.075  1.00  0.00     0.093 A 
BRANCH   3  13
ATOM     13  C   UNL     1     -16.617  27.920  49.506  1.00  0.00     0.025 A 
ATOM     14  C   UNL     1     -17.179  26.826  48.837  1.00  0.00     0.016 A 
ATOM     15  C   UNL     1     -16.470  26.181  47.821  1.00  0.00     0.051 A 
ATOM     16  C   UNL     1     -15.181  26.603  47.470  1.00  0.00     0.157 A 
ATOM     17  C   UNL     1     -15.315  28.330  49.174  1.00  0.00     0.062 A 
ATOM     18  C   UNL     1     -14.592  27.685  48.165  1.00  0.00     0.158 A 
BRANCH  16  19
ATOM     19  O   UNL     1     -14.529  25.925  46.436  1.00  0.00    -0.504 OA
ATOM     20  H   UNL     1     -14.112  26.382  45.637  1.00  0.00     0.293 HD
ENDBRANCH  16  19
BRANCH  18  21
ATOM     21  O   UNL     1     -13.300  28.145  47.895  1.00  0.00    -0.504 OA
ATOM     22  H   UNL     1     -13.103  29.018  47.430  1.00  0.00     0.293 HD
ENDBRANCH  18  21
ENDBRANCH   3  13
BRANCH  10  23
ATOM     23  O   UNL     1     -20.076  31.419  53.955  1.00  0.00    -0.507 OA
ATOM     24  H   UNL     1     -20.992  31.539  54.366  1.00  0.00     0.293 HD
ENDBRANCH  10  23
BRANCH  11  25
ATOM     25  O   UNL     1     -18.885  27.408  56.279  1.00  0.00    -0.508 OA
ATOM     26  H   UNL     1     -18.754  26.403  56.279  1.00  0.00     0.293 HD
ENDBRANCH  11  25
ENDBRANCH   1   2
BRANCH   1  27
ATOM     27  C   UNL     1     -18.598  31.604  48.848  1.00  0.00     0.339 C 
ATOM     28  C   UNL     1     -17.939  32.956  48.523  1.00  0.00     0.214 C 
ATOM     29  O   UNL     1     -19.307  31.074  47.737  1.00  0.00    -0.332 OA
ATOM     30  C   UNL     1     -16.969  32.777  47.346  1.00  0.00     0.180 C 
ATOM     31  C   UNL     1     -18.531  30.917  46.551  1.00  0.00     0.179 C 
ATOM     32  C   UNL     1     -17.712  32.172  46.144  1.00  0.00     0.177 C 
BRANCH  28  33
ATOM     33  O   UNL     1     -17.255  33.436  49.651  1.00  0.00    -0.384 OA
ATOM     34  H   UNL     1     -16.916  34.340  49.419  1.00  0.00     0.211 HD
ENDBRANCH  28  33
BRANCH  30  35
ATOM     35  O   UNL     1     -16.341  33.989  46.996  1.00  0.00    -0.387 OA
ATOM     36  H   UNL     1     -15.636  34.178  47.668  1.00  0.00     0.211 HD
ENDBRANCH  30  35
BRANCH  31  37
ATOM     37  C   UNL     1     -17.752  29.582  46.512  1.00  0.00     0.191 C 
BRANCH  37  38
ATOM     38  O   UNL     1     -16.634  29.639  45.666  1.00  0.00    -0.394 OA
ATOM     39  H   UNL     1     -15.908  29.119  46.107  1.00  0.00     0.210 HD
ENDBRANCH  37  38
ENDBRANCH  31  37
BRANCH  32  40
ATOM     40  O   UNL     1     -18.597  33.127  45.609  1.00  0.00    -0.387 OA
ATOM     41  H   UNL     1     -19.506  32.728  45.621  1.00  0.00     0.211 HD
ENDBRANCH  32  40
ENDBRANCH   1  27
TORSDOF 12
ENDMDL
MODEL 6
REMARK VINA RESULT:    -6.355      1.586      4.341
REMARK INTER + INTRA:         -10.035
REMARK INTER:                  -8.421
REMARK INTRA:                  -1.614
REMARK UNBOUND:                -0.708
REMARK SMILES O=c1c(O[C@@H]2O[C@H](CO)[C@@H](O)[C@@H](O)[C@@H]2O)c(-c2ccc(O)c(O)c2)oc2cc(O)cc(O)c12
REMARK SMILES IDX 4 1 3 2 16 3 25 4 2 5 26 6 1 7 33 8 27 9 31 10 28 11 30 12
REMARK SMILES IDX 17 13 18 14 19 15 20 16 24 17 22 18 21 19 23 21 32 23 29 25
REMARK SMILES IDX 5 27 14 28 6 29 12 30 7 31 10 32 15 33 13 35 8 37 9 38 11 40
REMARK H PARENT 21 20 23 22 32 24 29 26 15 34 13 36 9 39 11 41
REMARK Flexibility Score: inf
ROOT
ATOM      1  O   UNL     1     -16.307  27.377  51.210  1.00  0.00    -0.454 OA
ENDROOT
BRANCH   1   2
ATOM      2  C   UNL     1     -16.678  27.480  52.557  1.00  0.00     0.214 A 
ATOM      3  C   UNL     1     -17.590  28.457  52.999  1.00  0.00     0.180 A 
ATOM      4  O   UNL     1     -17.919  28.516  54.284  1.00  0.00    -0.452 OA
ATOM      5  C   UNL     1     -16.157  26.569  53.482  1.00  0.00     0.239 A 
ATOM      6  C   UNL     1     -17.435  27.686  55.202  1.00  0.00     0.146 A 
ATOM      7  O   UNL     1     -15.426  25.637  53.058  1.00  0.00    -0.285 OA
ATOM      8  C   UNL     1     -16.485  26.691  54.853  1.00  0.00     0.111 A 
ATOM      9  C   UNL     1     -17.900  27.789  56.516  1.00  0.00     0.094 A 
ATOM     10  C   UNL     1     -15.963  25.855  55.881  1.00  0.00     0.134 A 
ATOM     11  C   UNL     1     -17.451  26.900  57.495  1.00  0.00     0.123 A 
ATOM     12  C   UNL     1     -16.482  25.950  57.177  1.00  0.00     0.093 A 
BRANCH   3  13
ATOM     13  C   UNL     1     -18.239  29.404  52.066  1.00  0.00     0.025 A 
ATOM     14  C   UNL     1     -19.473  29.082  51.490  1.00  0.00     0.016 A 
ATOM     15  C   UNL     1     -20.080  29.958  50.586  1.00  0.00     0.051 A 
ATOM     16  C   UNL     1     -19.455  31.159  50.226  1.00  0.00     0.157 A 
ATOM     17  C   UNL     1     -17.597  30.597  51.689  1.00  0.00     0.062 A 
ATOM     18  C   UNL     1     -18.191  31.476  50.777  1.00  0.00     0.158 A 
BRANCH  16  19
ATOM     19  O   UNL     1     -20.119  31.998  49.328  1.00  0.00    -0.504 OA
ATOM     20  H   UNL     1     -20.143  33.005  49.408  1.00  0.00     0.293 HD
ENDBRANCH  16  19
BRANCH  18  21
ATOM     21  O   UNL     1     -17.490  32.638  50.444  1.00  0.00    -0.504 OA
ATOM     22  H   UNL     1     -17.196  33.326  51.121  1.00  0.00     0.293 HD
ENDBRANCH  18  21
ENDBRANCH   3  13
BRANCH  10  23
ATOM     23  O   UNL     1     -14.924  24.940  55.684  1.00  0.00    -0.507 OA
ATOM     24  H   UNL     1     -13.981  25.202  55.434  1.00  0.00     0.293 HD
ENDBRANCH  10  23
BRANCH  11  25
ATOM     25  O   UNL     1     -17.963  26.950  58.788  1.00  0.00    -0.508 OA
ATOM     26  H   UNL     1     -18.604  26.246  59.132  1.00  0.00     0.293 HD
ENDBRANCH  11  25
ENDBRANCH   1   2
BRANCH   1  27
ATOM     27  C   UNL     1     -15.194  28.077  50.645  1.00  0.00     0.339 C 
ATOM     28  C   UNL     1     -14.167  27.106  50.037  1.00  0.00     0.214 C 
ATOM     29  O   UNL     1     -15.638  29.044  49.704  1.00  0.00    -0.332 OA
ATOM     30  C   UNL     1     -14.798  26.387  48.835  1.00  0.00     0.180 C 
ATOM     31  C   UNL     1     -16.191  28.504  48.505  1.00  0.00     0.179 C 
ATOM     32  C   UNL     1     -15.315  27.420  47.821  1.00  0.00     0.177 C 
BRANCH  28  33
ATOM     33  O   UNL     1     -13.761  26.175  51.006  1.00  0.00    -0.384 OA
ATOM     34  H   UNL     1     -14.043  25.280  50.680  1.00  0.00     0.211 HD
ENDBRANCH  28  33
BRANCH  30  35
ATOM     35  O   UNL     1     -13.897  25.489  48.230  1.00  0.00    -0.387 OA
ATOM     36  H   UNL     1     -13.541  24.886  48.933  1.00  0.00     0.211 HD
ENDBRANCH  30  35
BRANCH  31  37
ATOM     37  C   UNL     1     -17.690  28.152  48.638  1.00  0.00     0.191 C 
BRANCH  37  38
ATOM     38  O   UNL     1     -17.903  26.777  48.824  1.00  0.00    -0.394 OA
ATOM     39  H   UNL     1     -17.264  26.300  48.227  1.00  0.00     0.210 HD
ENDBRANCH  37  38
ENDBRANCH  31  37
BRANCH  32  40
ATOM     40  O   UNL     1     -14.223  28.056  47.200  1.00  0.00    -0.387 OA
ATOM     41  H   UNL     1     -14.510  28.978  46.966  1.00  0.00     0.211 HD
ENDBRANCH  32  40
ENDBRANCH   1  27
TORSDOF 12
ENDMDL
MODEL 7
REMARK VINA RESULT:    -6.138      1.725      4.605
REMARK INTER + INTRA:          -9.716
REMARK INTER:                  -8.470
REMARK INTRA:                  -1.246
REMARK UNBOUND:                -0.708
REMARK SMILES O=c1c(O[C@@H]2O[C@H](CO)[C@@H](O)[C@@H](O)[C@@H]2O)c(-c2ccc(O)c(O)c2)oc2cc(O)cc(O)c12
REMARK SMILES IDX 4 1 3 2 16 3 25 4 2 5 26 6 1 7 33 8 27 9 31 10 28 11 30 12
REMARK SMILES IDX 17 13 18 14 19 15 20 16 24 17 22 18 21 19 23 21 32 23 29 25
REMARK SMILES IDX 5 27 14 28 6 29 12 30 7 31 10 32 15 33 13 35 8 37 9 38 11 40
REMARK H PARENT 21 20 23 22 32 24 29 26 15 34 13 36 9 39 11 41
REMARK Flexibility Score: inf
ROOT
ATOM      1  O   UNL     1     -17.020  27.898  49.910  1.00  0.00    -0.454 OA
ENDROOT
BRANCH   1   2
ATOM      2  C   UNL     1     -17.468  28.026  51.232  1.00  0.00     0.214 A 
ATOM      3  C   UNL     1     -17.824  29.275  51.773  1.00  0.00     0.180 A 
ATOM      4  O   UNL     1     -18.250  29.351  53.029  1.00  0.00    -0.452 OA
ATOM      5  C   UNL     1     -17.597  26.880  52.024  1.00  0.00     0.239 A 
ATOM      6  C   UNL     1     -18.369  28.294  53.825  1.00  0.00     0.146 A 
ATOM      7  O   UNL     1     -17.376  25.759  51.498  1.00  0.00    -0.285 OA
ATOM      8  C   UNL     1     -18.001  27.000  53.375  1.00  0.00     0.111 A 
ATOM      9  C   UNL     1     -18.893  28.474  55.109  1.00  0.00     0.094 A 
ATOM     10  C   UNL     1     -18.107  25.906  54.282  1.00  0.00     0.134 A 
ATOM     11  C   UNL     1     -19.080  27.378  55.954  1.00  0.00     0.123 A 
ATOM     12  C   UNL     1     -18.678  26.109  55.543  1.00  0.00     0.093 A 
BRANCH   3  13
ATOM     13  C   UNL     1     -17.785  30.518  50.971  1.00  0.00     0.025 A 
ATOM     14  C   UNL     1     -16.592  31.243  50.865  1.00  0.00     0.016 A 
ATOM     15  C   UNL     1     -16.553  32.432  50.133  1.00  0.00     0.051 A 
ATOM     16  C   UNL     1     -17.707  32.930  49.515  1.00  0.00     0.157 A 
ATOM     17  C   UNL     1     -18.951  31.026  50.373  1.00  0.00     0.062 A 
ATOM     18  C   UNL     1     -18.925  32.221  49.647  1.00  0.00     0.158 A 
BRANCH  16  19
ATOM     19  O   UNL     1     -17.600  34.117  48.786  1.00  0.00    -0.504 OA
ATOM     20  H   UNL     1     -17.752  34.184  47.790  1.00  0.00     0.293 HD
ENDBRANCH  16  19
BRANCH  18  21
ATOM     21  O   UNL     1     -20.125  32.668  49.087  1.00  0.00    -0.504 OA
ATOM     22  H   UNL     1     -20.725  33.352  49.523  1.00  0.00     0.293 HD
ENDBRANCH  18  21
ENDBRANCH   3  13
BRANCH  10  23
ATOM     23  O   UNL     1     -17.644  24.617  53.999  1.00  0.00    -0.507 OA
ATOM     24  H   UNL     1     -16.900  24.415  53.345  1.00  0.00     0.293 HD
ENDBRANCH  10  23
BRANCH  11  25
ATOM     25  O   UNL     1     -19.667  27.538  57.206  1.00  0.00    -0.508 OA
ATOM     26  H   UNL     1     -19.612  28.416  57.708  1.00  0.00     0.293 HD
ENDBRANCH  11  25
ENDBRANCH   1   2
BRANCH   1  27
ATOM     27  C   UNL     1     -15.790  28.457  49.439  1.00  0.00     0.339 C 
ATOM     28  C   UNL     1     -14.699  27.381  49.299  1.00  0.00     0.214 C 
ATOM     29  O   UNL     1     -15.997  29.170  48.228  1.00  0.00    -0.332 OA
ATOM     30  C   UNL     1     -15.101  26.392  48.195  1.00  0.00     0.180 C 
ATOM     31  C   UNL     1     -16.316  28.356  47.101  1.00  0.00     0.179 C 
ATOM     32  C   UNL     1     -15.361  27.150  46.884  1.00  0.00     0.177 C 
BRANCH  28  33
ATOM     33  O   UNL     1     -14.533  26.709  50.521  1.00  0.00    -0.384 OA
ATOM     34  H   UNL     1     -15.301  26.965  51.097  1.00  0.00     0.211 HD
ENDBRANCH  28  33
BRANCH  30  35
ATOM     35  O   UNL     1     -14.130  25.387  48.014  1.00  0.00    -0.387 OA
ATOM     36  H   UNL     1     -13.641  25.272  48.870  1.00  0.00     0.211 HD
ENDBRANCH  30  35
BRANCH  31  37
ATOM     37  C   UNL     1     -17.823  28.028  47.001  1.00  0.00     0.191 C 
BRANCH  37  38
ATOM     38  O   UNL     1     -18.628  29.026  47.573  1.00  0.00    -0.394 OA
ATOM     39  H   UNL     1     -18.488  29.855  47.039  1.00  0.00     0.210 HD
ENDBRANCH  37  38
ENDBRANCH  31  37
BRANCH  32  40
ATOM     40  O   UNL     1     -14.143  27.634  46.370  1.00  0.00    -0.387 OA
ATOM     41  H   UNL     1     -14.326  27.994  45.462  1.00  0.00     0.211 HD
ENDBRANCH  32  40
ENDBRANCH   1  27
TORSDOF 12
ENDMDL
MODEL 8
REMARK VINA RESULT:    -6.126      2.463      7.123
REMARK INTER + INTRA:          -9.699
REMARK INTER:                  -9.492
REMARK INTRA:                  -0.207
REMARK UNBOUND:                -0.708
REMARK SMILES O=c1c(O[C@@H]2O[C@H](CO)[C@@H](O)[C@@H](O)[C@@H]2O)c(-c2ccc(O)c(O)c2)oc2cc(O)cc(O)c12
REMARK SMILES IDX 4 1 3 2 16 3 25 4 2 5 26 6 1 7 33 8 27 9 31 10 28 11 30 12
REMARK SMILES IDX 17 13 18 14 19 15 20 16 24 17 22 18 21 19 23 21 32 23 29 25
REMARK SMILES IDX 5 27 14 28 6 29 12 30 7 31 10 32 15 33 13 35 8 37 9 38 11 40
REMARK H PARENT 21 20 23 22 32 24 29 26 15 34 13 36 9 39 11 41
REMARK Flexibility Score: inf
ROOT
ATOM      1  O   UNL     1     -16.794  27.700  47.709  1.00  0.00    -0.454 OA
ENDROOT
BRANCH   1   2
ATOM      2  C   UNL     1     -16.874  29.011  48.196  1.00  0.00     0.214 A 
ATOM      3  C   UNL     1     -16.920  29.286  49.575  1.00  0.00     0.180 A 
ATOM      4  O   UNL     1     -16.989  30.544  49.994  1.00  0.00    -0.452 OA
ATOM      5  C   UNL     1     -16.872  30.078  47.290  1.00  0.00     0.239 A 
ATOM      6  C   UNL     1     -17.012  31.588  49.172  1.00  0.00     0.146 A 
ATOM      7  O   UNL     1     -16.725  29.826  46.067  1.00  0.00    -0.285 OA
ATOM      8  C   UNL     1     -17.002  31.405  47.765  1.00  0.00     0.111 A 
ATOM      9  C   UNL     1     -17.015  32.875  49.718  1.00  0.00     0.094 A 
ATOM     10  C   UNL     1     -17.070  32.555  46.927  1.00  0.00     0.134 A 
ATOM     11  C   UNL     1     -16.986  33.995  48.884  1.00  0.00     0.123 A 
ATOM     12  C   UNL     1     -17.026  33.830  47.501  1.00  0.00     0.093 A 
BRANCH   3  13
ATOM     13  C   UNL     1     -16.849  28.213  50.591  1.00  0.00     0.025 A 
ATOM     14  C   UNL     1     -17.647  27.070  50.457  1.00  0.00     0.016 A 
ATOM     15  C   UNL     1     -17.607  26.065  51.427  1.00  0.00     0.051 A 
ATOM     16  C   UNL     1     -16.788  26.193  52.556  1.00  0.00     0.157 A 
ATOM     17  C   UNL     1     -16.045  28.356  51.735  1.00  0.00     0.062 A 
ATOM     18  C   UNL     1     -16.005  27.360  52.716  1.00  0.00     0.158 A 
BRANCH  16  19
ATOM     19  O   UNL     1     -16.782  25.147  53.482  1.00  0.00    -0.504 OA
ATOM     20  H   UNL     1     -17.073  25.244  54.446  1.00  0.00     0.293 HD
ENDBRANCH  16  19
BRANCH  18  21
ATOM     21  O   UNL     1     -15.187  27.577  53.829  1.00  0.00    -0.504 OA
ATOM     22  H   UNL     1     -14.226  27.274  53.883  1.00  0.00     0.293 HD
ENDBRANCH  18  21
ENDBRANCH   3  13
BRANCH  10  23
ATOM     23  O   UNL     1     -17.209  32.493  45.537  1.00  0.00    -0.507 OA
ATOM     24  H   UNL     1     -17.973  32.029  45.065  1.00  0.00     0.293 HD
ENDBRANCH  10  23
BRANCH  11  25
ATOM     25  O   UNL     1     -16.917  35.277  49.419  1.00  0.00    -0.508 OA
ATOM     26  H   UNL     1     -17.752  35.791  49.676  1.00  0.00     0.293 HD
ENDBRANCH  11  25
ENDBRANCH   1   2
BRANCH   1  27
ATOM     27  C   UNL     1     -16.379  27.379  46.378  1.00  0.00     0.339 C 
ATOM     28  C   UNL     1     -14.992  26.714  46.365  1.00  0.00     0.214 C 
ATOM     29  O   UNL     1     -17.360  26.583  45.728  1.00  0.00    -0.332 OA
ATOM     30  C   UNL     1     -15.076  25.348  47.063  1.00  0.00     0.180 C 
ATOM     31  C   UNL     1     -17.495  25.260  46.242  1.00  0.00     0.179 C 
ATOM     32  C   UNL     1     -16.157  24.485  46.393  1.00  0.00     0.177 C 
BRANCH  28  33
ATOM     33  O   UNL     1     -14.062  27.539  47.016  1.00  0.00    -0.384 OA
ATOM     34  H   UNL     1     -13.160  27.255  46.710  1.00  0.00     0.211 HD
ENDBRANCH  28  33
BRANCH  30  35
ATOM     35  O   UNL     1     -13.833  24.686  47.072  1.00  0.00    -0.387 OA
ATOM     36  H   UNL     1     -13.658  24.369  47.996  1.00  0.00     0.211 HD
ENDBRANCH  30  35
BRANCH  31  37
ATOM     37  C   UNL     1     -18.442  25.181  47.461  1.00  0.00     0.191 C 
BRANCH  37  38
ATOM     38  O   UNL     1     -19.405  26.202  47.459  1.00  0.00    -0.394 OA
ATOM     39  H   UNL     1     -20.296  25.762  47.406  1.00  0.00     0.210 HD
ENDBRANCH  37  38
ENDBRANCH  31  37
BRANCH  32  40
ATOM     40  O   UNL     1     -15.721  24.096  45.113  1.00  0.00    -0.387 OA
ATOM     41  H   UNL     1     -16.263  23.309  44.841  1.00  0.00     0.211 HD
ENDBRANCH  32  40
ENDBRANCH   1  27
TORSDOF 12
ENDMDL
MODEL 9
REMARK VINA RESULT:    -6.063      1.811      4.933
REMARK INTER + INTRA:          -9.606
REMARK INTER:                  -8.927
REMARK INTRA:                  -0.679
REMARK UNBOUND:                -0.708
REMARK SMILES O=c1c(O[C@@H]2O[C@H](CO)[C@@H](O)[C@@H](O)[C@@H]2O)c(-c2ccc(O)c(O)c2)oc2cc(O)cc(O)c12
REMARK SMILES IDX 4 1 3 2 16 3 25 4 2 5 26 6 1 7 33 8 27 9 31 10 28 11 30 12
REMARK SMILES IDX 17 13 18 14 19 15 20 16 24 17 22 18 21 19 23 21 32 23 29 25
REMARK SMILES IDX 5 27 14 28 6 29 12 30 7 31 10 32 15 33 13 35 8 37 9 38 11 40
REMARK H PARENT 21 20 23 22 32 24 29 26 15 34 13 36 9 39 11 41
REMARK Flexibility Score: inf
ROOT
ATOM      1  O   UNL     1     -16.881  28.139  49.786  1.00  0.00    -0.454 OA
ENDROOT
BRANCH   1   2
ATOM      2  C   UNL     1     -17.437  28.309  51.060  1.00  0.00     0.214 A 
ATOM      3  C   UNL     1     -17.842  29.574  51.526  1.00  0.00     0.180 A 
ATOM      4  O   UNL     1     -18.371  29.691  52.739  1.00  0.00    -0.452 OA
ATOM      5  C   UNL     1     -17.628  27.191  51.879  1.00  0.00     0.239 A 
ATOM      6  C   UNL     1     -18.552  28.661  53.559  1.00  0.00     0.146 A 
ATOM      7  O   UNL     1     -17.360  26.053  51.412  1.00  0.00    -0.285 OA
ATOM      8  C   UNL     1     -18.144  27.354  53.186  1.00  0.00     0.111 A 
ATOM      9  C   UNL     1     -19.182  28.882  54.787  1.00  0.00     0.094 A 
ATOM     10  C   UNL     1     -18.321  26.292  54.119  1.00  0.00     0.134 A 
ATOM     11  C   UNL     1     -19.435  27.815  55.652  1.00  0.00     0.123 A 
ATOM     12  C   UNL     1     -18.995  26.535  55.321  1.00  0.00     0.093 A 
BRANCH   3  13
ATOM     13  C   UNL     1     -17.741  30.788  50.687  1.00  0.00     0.025 A 
ATOM     14  C   UNL     1     -16.505  31.428  50.531  1.00  0.00     0.016 A 
ATOM     15  C   UNL     1     -16.405  32.591  49.764  1.00  0.00     0.051 A 
ATOM     16  C   UNL     1     -17.540  33.148  49.158  1.00  0.00     0.157 A 
ATOM     17  C   UNL     1     -18.885  31.357  50.102  1.00  0.00     0.062 A 
ATOM     18  C   UNL     1     -18.798  32.527  49.340  1.00  0.00     0.158 A 
BRANCH  16  19
ATOM     19  O   UNL     1     -17.372  34.304  48.393  1.00  0.00    -0.504 OA
ATOM     20  H   UNL     1     -17.705  35.218  48.669  1.00  0.00     0.293 HD
ENDBRANCH  16  19
BRANCH  18  21
ATOM     21  O   UNL     1     -19.980  33.038  48.796  1.00  0.00    -0.504 OA
ATOM     22  H   UNL     1     -20.327  32.789  47.882  1.00  0.00     0.293 HD
ENDBRANCH  18  21
ENDBRANCH   3  13
BRANCH  10  23
ATOM     23  O   UNL     1     -17.831  24.998  53.921  1.00  0.00    -0.507 OA
ATOM     24  H   UNL     1     -17.364  24.455  54.635  1.00  0.00     0.293 HD
ENDBRANCH  10  23
BRANCH  11  25
ATOM     25  O   UNL     1     -20.125  28.015  56.844  1.00  0.00    -0.508 OA
ATOM     26  H   UNL     1     -20.112  28.908  57.321  1.00  0.00     0.293 HD
ENDBRANCH  11  25
ENDBRANCH   1   2
BRANCH   1  27
ATOM     27  C   UNL     1     -17.420  27.247  48.805  1.00  0.00     0.339 C 
ATOM     28  C   UNL     1     -17.782  27.989  47.507  1.00  0.00     0.214 C 
ATOM     29  O   UNL     1     -16.531  26.164  48.572  1.00  0.00    -0.332 OA
ATOM     30  C   UNL     1     -16.499  28.523  46.853  1.00  0.00     0.180 C 
ATOM     31  C   UNL     1     -15.319  26.517  47.908  1.00  0.00     0.179 C 
ATOM     32  C   UNL     1     -15.510  27.369  46.623  1.00  0.00     0.177 C 
BRANCH  28  33
ATOM     33  O   UNL     1     -18.662  29.046  47.792  1.00  0.00    -0.384 OA
ATOM     34  H   UNL     1     -19.283  29.119  47.020  1.00  0.00     0.211 HD
ENDBRANCH  28  33
BRANCH  30  35
ATOM     35  O   UNL     1     -16.769  29.206  45.650  1.00  0.00    -0.387 OA
ATOM     36  H   UNL     1     -16.043  28.996  45.006  1.00  0.00     0.211 HD
ENDBRANCH  30  35
BRANCH  31  37
ATOM     37  C   UNL     1     -14.225  27.023  48.876  1.00  0.00     0.191 C 
BRANCH  37  38
ATOM     38  O   UNL     1     -13.453  28.054  48.320  1.00  0.00    -0.394 OA
ATOM     39  H   UNL     1     -13.995  28.463  47.591  1.00  0.00     0.210 HD
ENDBRANCH  37  38
ENDBRANCH  31  37
BRANCH  32  40
ATOM     40  O   UNL     1     -15.995  26.532  45.601  1.00  0.00    -0.387 OA
ATOM     41  H   UNL     1     -16.810  26.959  45.228  1.00  0.00     0.211 HD
ENDBRANCH  32  40
ENDBRANCH   1  27
TORSDOF 12
ENDMDL
