MODEL 1
REMARK VINA RESULT:    -5.472      0.000      0.000
REMARK INTER + INTRA:          -6.865
REMARK INTER:                  -6.591
REMARK INTRA:                  -0.274
REMARK UNBOUND:                -0.274
REMARK SMILES Oc1cc(O)c2cc(O)c(-c3ccc(O)c(O)c3)[o+]c2c1.[Cl-]
REMARK SMILES IDX 10 1 19 2 20 3 21 4 2 5 3 6 4 7 6 8 7 9 8 10 11 11 12 12
REMARK SMILES IDX 13 13 14 14 18 15 16 16 15 17 17 19 9 21 1 23 5 25
REMARK H PARENT 15 18 17 20 9 22 1 24 5 26
REMARK Flexibility Score: inf
ROOT
ATOM      1  C   UNL     1      -4.623  91.183 -14.919  1.00  0.00     0.402 A 
ATOM      2  O   UNL     1      -4.264  92.252 -14.212  1.00  0.00    -0.202 OA
ATOM      3  C   UNL     1      -4.352  92.315 -12.887  1.00  0.00     0.368 A 
ATOM      4  C   UNL     1      -3.953  93.483 -12.234  1.00  0.00     0.162 A 
ATOM      5  C   UNL     1      -4.040  93.578 -10.841  1.00  0.00     0.128 A 
ATOM      6  C   UNL     1      -4.527  92.499 -10.100  1.00  0.00     0.093 A 
ATOM      7  C   UNL     1      -4.933  91.316 -10.732  1.00  0.00     0.136 A 
ATOM      8  C   UNL     1      -4.845  91.215 -12.144  1.00  0.00     0.125 A 
ATOM      9  C   UNL     1      -5.217  90.065 -12.861  1.00  0.00     0.078 A 
ATOM     10  C   UNL     1      -5.098  90.038 -14.253  1.00  0.00     0.223 A 
ENDROOT
BRANCH   1  11
ATOM     11  C   UNL     1      -4.485  91.239 -16.391  1.00  0.00     0.087 A 
ATOM     12  C   UNL     1      -3.205  91.304 -16.964  1.00  0.00     0.022 A 
ATOM     13  C   UNL     1      -3.052  91.378 -18.351  1.00  0.00     0.051 A 
ATOM     14  C   UNL     1      -4.178  91.405 -19.185  1.00  0.00     0.157 A 
ATOM     15  C   UNL     1      -5.613  91.287 -17.231  1.00  0.00     0.068 A 
ATOM     16  C   UNL     1      -5.461  91.363 -18.624  1.00  0.00     0.158 A 
BRANCH  14  17
ATOM     17  O   UNL     1      -4.031  91.476 -20.568  1.00  0.00    -0.504 OA
ATOM     18  H   UNL     1      -4.063  92.363 -21.060  1.00  0.00     0.293 HD
ENDBRANCH  14  17
BRANCH  16  19
ATOM     19  O   UNL     1      -6.579  91.404 -19.454  1.00  0.00    -0.504 OA
ATOM     20  H   UNL     1      -7.049  90.557 -19.754  1.00  0.00     0.293 HD
ENDBRANCH  16  19
ENDBRANCH   1  11
BRANCH  10  21
ATOM     21  O   UNL     1      -5.419  88.879 -14.961  1.00  0.00    -0.500 OA
ATOM     22  H   UNL     1      -6.379  88.576 -15.078  1.00  0.00     0.294 HD
ENDBRANCH  10  21
BRANCH   5  23
ATOM     23  O   UNL     1      -3.643  94.740 -10.184  1.00  0.00    -0.507 OA
ATOM     24  H   UNL     1      -2.723  95.141 -10.323  1.00  0.00     0.293 HD
ENDBRANCH   5  23
BRANCH   7  25
ATOM     25  O   UNL     1      -5.411  90.284  -9.919  1.00  0.00    -0.507 OA
ATOM     26  H   UNL     1      -4.995  90.010  -9.041  1.00  0.00     0.293 HD
ENDBRANCH   7  25
TORSDOF 6
ENDMDL
MODEL 2
REMARK VINA RESULT:    -5.211      4.216      6.518
REMARK INTER + INTRA:          -6.551
REMARK INTER:                  -6.204
REMARK INTRA:                  -0.347
REMARK UNBOUND:                -0.274
REMARK SMILES Oc1cc(O)c2cc(O)c(-c3ccc(O)c(O)c3)[o+]c2c1.[Cl-]
REMARK SMILES IDX 10 1 19 2 20 3 21 4 2 5 3 6 4 7 6 8 7 9 8 10 11 11 12 12
REMARK SMILES IDX 13 13 14 14 18 15 16 16 15 17 17 19 9 21 1 23 5 25
REMARK H PARENT 15 18 17 20 9 22 1 24 5 26
REMARK Flexibility Score: inf
ROOT
ATOM      1  C   UNL     1      -7.918  90.230 -13.280  1.00  0.00     0.402 A 
ATOM      2  O   UNL     1      -7.491  91.236 -14.040  1.00  0.00    -0.202 OA
ATOM      3  C   UNL     1      -6.231  91.360 -14.446  1.00  0.00     0.368 A 
ATOM      4  C   UNL     1      -5.877  92.453 -15.240  1.00  0.00     0.162 A 
ATOM      5  C   UNL     1      -4.558  92.610 -15.678  1.00  0.00     0.128 A 
ATOM      6  C   UNL     1      -3.590  91.668 -15.320  1.00  0.00     0.093 A 
ATOM      7  C   UNL     1      -3.920  90.563 -14.525  1.00  0.00     0.136 A 
ATOM      8  C   UNL     1      -5.257  90.399 -14.080  1.00  0.00     0.125 A 
ATOM      9  C   UNL     1      -5.681  89.316 -13.291  1.00  0.00     0.078 A 
ATOM     10  C   UNL     1      -7.018  89.219 -12.895  1.00  0.00     0.223 A 
ENDROOT
BRANCH   1  11
ATOM     11  C   UNL     1      -9.344  90.209 -12.885  1.00  0.00     0.087 A 
ATOM     12  C   UNL     1      -9.740  90.835 -11.692  1.00  0.00     0.022 A 
ATOM     13  C   UNL     1     -11.078  90.810 -11.290  1.00  0.00     0.051 A 
ATOM     14  C   UNL     1     -12.037  90.146 -12.066  1.00  0.00     0.157 A 
ATOM     15  C   UNL     1     -10.307  89.526 -13.651  1.00  0.00     0.068 A 
ATOM     16  C   UNL     1     -11.650  89.499 -13.246  1.00  0.00     0.158 A 
BRANCH  14  17
ATOM     17  O   UNL     1     -13.372  90.121 -11.670  1.00  0.00    -0.504 OA
ATOM     18  H   UNL     1     -13.724  90.743 -10.950  1.00  0.00     0.293 HD
ENDBRANCH  14  17
BRANCH  16  19
ATOM     19  O   UNL     1     -12.603  88.827 -14.009  1.00  0.00    -0.504 OA
ATOM     20  H   UNL     1     -12.481  87.857 -14.277  1.00  0.00     0.293 HD
ENDBRANCH  16  19
ENDBRANCH   1  11
BRANCH  10  21
ATOM     21  O   UNL     1      -7.451  88.119 -12.154  1.00  0.00    -0.500 OA
ATOM     22  H   UNL     1      -7.054  87.197 -12.291  1.00  0.00     0.294 HD
ENDBRANCH  10  21
BRANCH   5  23
ATOM     23  O   UNL     1      -4.198  93.698 -16.469  1.00  0.00    -0.507 OA
ATOM     24  H   UNL     1      -3.264  94.092 -16.436  1.00  0.00     0.293 HD
ENDBRANCH   5  23
BRANCH   7  25
ATOM     25  O   UNL     1      -2.893  89.669 -14.209  1.00  0.00    -0.507 OA
ATOM     26  H   UNL     1      -2.830  89.156 -13.341  1.00  0.00     0.293 HD
ENDBRANCH   7  25
TORSDOF 6
ENDMDL
MODEL 3
REMARK VINA RESULT:    -5.192     10.455     11.864
REMARK INTER + INTRA:          -6.528
REMARK INTER:                  -6.178
REMARK INTRA:                  -0.350
REMARK UNBOUND:                -0.274
REMARK SMILES Oc1cc(O)c2cc(O)c(-c3ccc(O)c(O)c3)[o+]c2c1.[Cl-]
REMARK SMILES IDX 10 1 19 2 20 3 21 4 2 5 3 6 4 7 6 8 7 9 8 10 11 11 12 12
REMARK SMILES IDX 13 13 14 14 18 15 16 16 15 17 17 19 9 21 1 23 5 25
REMARK H PARENT 15 18 17 20 9 22 1 24 5 26
REMARK Flexibility Score: inf
ROOT
ATOM      1  C   UNL     1      -9.505  83.549  -8.893  1.00  0.00     0.402 A 
ATOM      2  O   UNL     1      -9.972  84.782  -9.072  1.00  0.00    -0.202 OA
ATOM      3  C   UNL     1     -11.249  85.048  -9.329  1.00  0.00     0.368 A 
ATOM      4  C   UNL     1     -11.644  86.377  -9.505  1.00  0.00     0.162 A 
ATOM      5  C   UNL     1     -12.981  86.685  -9.780  1.00  0.00     0.128 A 
ATOM      6  C   UNL     1     -13.924  85.660  -9.880  1.00  0.00     0.093 A 
ATOM      7  C   UNL     1     -13.553  84.320  -9.708  1.00  0.00     0.136 A 
ATOM      8  C   UNL     1     -12.199  84.003  -9.427  1.00  0.00     0.125 A 
ATOM      9  C   UNL     1     -11.739  82.690  -9.227  1.00  0.00     0.078 A 
ATOM     10  C   UNL     1     -10.390  82.455  -8.948  1.00  0.00     0.223 A 
ENDROOT
BRANCH   1  11
ATOM     11  C   UNL     1      -8.060  83.381  -8.622  1.00  0.00     0.087 A 
ATOM     12  C   UNL     1      -7.597  83.413  -7.297  1.00  0.00     0.022 A 
ATOM     13  C   UNL     1      -6.234  83.277  -7.019  1.00  0.00     0.051 A 
ATOM     14  C   UNL     1      -5.313  83.124  -8.062  1.00  0.00     0.157 A 
ATOM     15  C   UNL     1      -7.128  83.248  -9.668  1.00  0.00     0.068 A 
ATOM     16  C   UNL     1      -5.760  83.113  -9.389  1.00  0.00     0.158 A 
BRANCH  14  17
ATOM     17  O   UNL     1      -3.954  82.985  -7.790  1.00  0.00    -0.504 OA
ATOM     18  H   UNL     1      -3.618  82.352  -7.073  1.00  0.00     0.293 HD
ENDBRANCH  14  17
BRANCH  16  19
ATOM     19  O   UNL     1      -4.839  82.974 -10.427  1.00  0.00    -0.504 OA
ATOM     20  H   UNL     1      -3.996  83.535 -10.467  1.00  0.00     0.293 HD
ENDBRANCH  16  19
ENDBRANCH   1  11
BRANCH  10  21
ATOM     21  O   UNL     1      -9.941  81.158  -8.699  1.00  0.00    -0.500 OA
ATOM     22  H   UNL     1     -10.510  80.486  -8.197  1.00  0.00     0.294 HD
ENDBRANCH  10  21
BRANCH   5  23
ATOM     23  O   UNL     1     -13.381  88.007  -9.956  1.00  0.00    -0.507 OA
ATOM     24  H   UNL     1     -13.831  88.529  -9.212  1.00  0.00     0.293 HD
ENDBRANCH   5  23
BRANCH   7  25
ATOM     25  O   UNL     1     -14.556  83.354  -9.827  1.00  0.00    -0.507 OA
ATOM     26  H   UNL     1     -15.398  83.335  -9.270  1.00  0.00     0.293 HD
ENDBRANCH   7  25
TORSDOF 6
ENDMDL
MODEL 4
REMARK VINA RESULT:    -5.069     10.634     11.986
REMARK INTER + INTRA:          -6.380
REMARK INTER:                  -6.098
REMARK INTRA:                  -0.283
REMARK UNBOUND:                -0.274
REMARK SMILES Oc1cc(O)c2cc(O)c(-c3ccc(O)c(O)c3)[o+]c2c1.[Cl-]
REMARK SMILES IDX 10 1 19 2 20 3 21 4 2 5 3 6 4 7 6 8 7 9 8 10 11 11 12 12
REMARK SMILES IDX 13 13 14 14 18 15 16 16 15 17 17 19 9 21 1 23 5 25
REMARK H PARENT 15 18 17 20 9 22 1 24 5 26
REMARK Flexibility Score: inf
ROOT
ATOM      1  C   UNL     1      -9.133  83.498  -8.382  1.00  0.00     0.402 A 
ATOM      2  O   UNL     1      -8.135  83.230  -9.220  1.00  0.00    -0.202 OA
ATOM      3  C   UNL     1      -6.860  83.183  -8.844  1.00  0.00     0.368 A 
ATOM      4  C   UNL     1      -5.881  82.895  -9.799  1.00  0.00     0.162 A 
ATOM      5  C   UNL     1      -4.533  82.844  -9.432  1.00  0.00     0.128 A 
ATOM      6  C   UNL     1      -4.163  83.082  -8.107  1.00  0.00     0.093 A 
ATOM      7  C   UNL     1      -5.125  83.372  -7.131  1.00  0.00     0.136 A 
ATOM      8  C   UNL     1      -6.495  83.423  -7.498  1.00  0.00     0.125 A 
ATOM      9  C   UNL     1      -7.529  83.694  -6.586  1.00  0.00     0.078 A 
ATOM     10  C   UNL     1      -8.857  83.723  -7.020  1.00  0.00     0.223 A 
ENDROOT
BRANCH   1  11
ATOM     11  C   UNL     1     -10.511  83.530  -8.922  1.00  0.00     0.087 A 
ATOM     12  C   UNL     1     -11.168  84.762  -9.067  1.00  0.00     0.022 A 
ATOM     13  C   UNL     1     -12.475  84.815  -9.557  1.00  0.00     0.051 A 
ATOM     14  C   UNL     1     -13.151  83.635  -9.893  1.00  0.00     0.157 A 
ATOM     15  C   UNL     1     -11.200  82.346  -9.242  1.00  0.00     0.068 A 
ATOM     16  C   UNL     1     -12.514  82.398  -9.732  1.00  0.00     0.158 A 
BRANCH  14  17
ATOM     17  O   UNL     1     -14.454  83.682 -10.384  1.00  0.00    -0.504 OA
ATOM     18  H   UNL     1     -15.188  83.098  -9.999  1.00  0.00     0.293 HD
ENDBRANCH  14  17
BRANCH  16  19
ATOM     19  O   UNL     1     -13.193  81.224 -10.054  1.00  0.00    -0.504 OA
ATOM     20  H   UNL     1     -13.246  80.446  -9.407  1.00  0.00     0.293 HD
ENDBRANCH  16  19
ENDBRANCH   1  11
BRANCH  10  21
ATOM     21  O   UNL     1      -9.888  83.942  -6.106  1.00  0.00    -0.500 OA
ATOM     22  H   UNL     1     -10.849  84.055  -6.406  1.00  0.00     0.294 HD
ENDBRANCH  10  21
BRANCH   5  23
ATOM     23  O   UNL     1      -3.552  82.557 -10.378  1.00  0.00    -0.507 OA
ATOM     24  H   UNL     1      -2.638  82.996 -10.346  1.00  0.00     0.293 HD
ENDBRANCH   5  23
BRANCH   7  25
ATOM     25  O   UNL     1      -4.672  83.601  -5.829  1.00  0.00    -0.507 OA
ATOM     26  H   UNL     1      -3.839  84.120  -5.597  1.00  0.00     0.293 HD
ENDBRANCH   7  25
TORSDOF 6
ENDMDL
MODEL 5
REMARK VINA RESULT:    -5.030      9.891     12.042
REMARK INTER + INTRA:          -6.333
REMARK INTER:                  -5.985
REMARK INTRA:                  -0.349
REMARK UNBOUND:                -0.274
REMARK SMILES Oc1cc(O)c2cc(O)c(-c3ccc(O)c(O)c3)[o+]c2c1.[Cl-]
REMARK SMILES IDX 10 1 19 2 20 3 21 4 2 5 3 6 4 7 6 8 7 9 8 10 11 11 12 12
REMARK SMILES IDX 13 13 14 14 18 15 16 16 15 17 17 19 9 21 1 23 5 25
REMARK H PARENT 15 18 17 20 9 22 1 24 5 26
REMARK Flexibility Score: inf
ROOT
ATOM      1  C   UNL     1      -8.280  83.828  -8.748  1.00  0.00     0.402 A 
ATOM      2  O   UNL     1      -9.239  82.910  -8.845  1.00  0.00    -0.202 OA
ATOM      3  C   UNL     1     -10.525  83.212  -8.997  1.00  0.00     0.368 A 
ATOM      4  C   UNL     1     -11.459  82.177  -9.088  1.00  0.00     0.162 A 
ATOM      5  C   UNL     1     -12.819  82.466  -9.244  1.00  0.00     0.128 A 
ATOM      6  C   UNL     1     -13.244  83.795  -9.310  1.00  0.00     0.093 A 
ATOM      7  C   UNL     1     -12.327  84.850  -9.222  1.00  0.00     0.136 A 
ATOM      8  C   UNL     1     -10.946  84.561  -9.065  1.00  0.00     0.125 A 
ATOM      9  C   UNL     1      -9.955  85.553  -8.981  1.00  0.00     0.078 A 
ATOM     10  C   UNL     1      -8.613  85.193  -8.832  1.00  0.00     0.223 A 
ENDROOT
BRANCH   1  11
ATOM     11  C   UNL     1      -6.885  83.365  -8.571  1.00  0.00     0.087 A 
ATOM     12  C   UNL     1      -6.358  83.238  -7.276  1.00  0.00     0.022 A 
ATOM     13  C   UNL     1      -5.037  82.823  -7.087  1.00  0.00     0.051 A 
ATOM     14  C   UNL     1      -4.220  82.545  -8.190  1.00  0.00     0.157 A 
ATOM     15  C   UNL     1      -6.054  83.105  -9.677  1.00  0.00     0.068 A 
ATOM     16  C   UNL     1      -4.727  82.690  -9.487  1.00  0.00     0.158 A 
BRANCH  14  17
ATOM     17  O   UNL     1      -2.903  82.128  -8.006  1.00  0.00    -0.504 OA
ATOM     18  H   UNL     1      -2.145  82.794  -7.901  1.00  0.00     0.293 HD
ENDBRANCH  14  17
BRANCH  16  19
ATOM     19  O   UNL     1      -3.908  82.426 -10.583  1.00  0.00    -0.504 OA
ATOM     20  H   UNL     1      -4.098  82.823 -11.496  1.00  0.00     0.293 HD
ENDBRANCH  16  19
ENDBRANCH   1  11
BRANCH  10  21
ATOM     21  O   UNL     1      -7.623  86.175  -8.799  1.00  0.00    -0.500 OA
ATOM     22  H   UNL     1      -7.590  86.919  -9.486  1.00  0.00     0.294 HD
ENDBRANCH  10  21
BRANCH   5  23
ATOM     23  O   UNL     1     -13.756  81.440  -9.335  1.00  0.00    -0.507 OA
ATOM     24  H   UNL     1     -13.494  80.469  -9.203  1.00  0.00     0.293 HD
ENDBRANCH   5  23
BRANCH   7  25
ATOM     25  O   UNL     1     -12.834  86.150  -9.293  1.00  0.00    -0.507 OA
ATOM     26  H   UNL     1     -13.252  86.555 -10.118  1.00  0.00     0.293 HD
ENDBRANCH   7  25
TORSDOF 6
ENDMDL
MODEL 6
REMARK VINA RESULT:    -5.002      4.617      6.320
REMARK INTER + INTRA:          -6.299
REMARK INTER:                  -6.145
REMARK INTRA:                  -0.154
REMARK UNBOUND:                -0.274
REMARK SMILES Oc1cc(O)c2cc(O)c(-c3ccc(O)c(O)c3)[o+]c2c1.[Cl-]
REMARK SMILES IDX 10 1 19 2 20 3 21 4 2 5 3 6 4 7 6 8 7 9 8 10 11 11 12 12
REMARK SMILES IDX 13 13 14 14 18 15 16 16 15 17 17 19 9 21 1 23 5 25
REMARK H PARENT 15 18 17 20 9 22 1 24 5 26
REMARK Flexibility Score: inf
ROOT
ATOM      1  C   UNL     1      -8.509  90.458 -13.249  1.00  0.00     0.402 A 
ATOM      2  O   UNL     1      -8.024  91.671 -12.996  1.00  0.00    -0.202 OA
ATOM      3  C   UNL     1      -6.723  91.949 -12.987  1.00  0.00     0.368 A 
ATOM      4  C   UNL     1      -6.310  93.254 -12.707  1.00  0.00     0.162 A 
ATOM      5  C   UNL     1      -4.948  93.573 -12.687  1.00  0.00     0.128 A 
ATOM      6  C   UNL     1      -3.998  92.583 -12.946  1.00  0.00     0.093 A 
ATOM      7  C   UNL     1      -4.387  91.267 -13.229  1.00  0.00     0.136 A 
ATOM      8  C   UNL     1      -5.768  90.939 -13.253  1.00  0.00     0.125 A 
ATOM      9  C   UNL     1      -6.251  89.651 -13.540  1.00  0.00     0.078 A 
ATOM     10  C   UNL     1      -7.626  89.404 -13.550  1.00  0.00     0.223 A 
ENDROOT
BRANCH   1  11
ATOM     11  C   UNL     1      -9.978  90.273 -13.221  1.00  0.00     0.087 A 
ATOM     12  C   UNL     1     -10.792  91.086 -14.025  1.00  0.00     0.022 A 
ATOM     13  C   UNL     1     -12.182  90.943 -14.000  1.00  0.00     0.051 A 
ATOM     14  C   UNL     1     -12.778  89.995 -13.158  1.00  0.00     0.157 A 
ATOM     15  C   UNL     1     -10.582  89.337 -12.361  1.00  0.00     0.068 A 
ATOM     16  C   UNL     1     -11.978  89.194 -12.334  1.00  0.00     0.158 A 
BRANCH  14  17
ATOM     17  O   UNL     1     -14.163  89.847 -13.131  1.00  0.00    -0.504 OA
ATOM     18  H   UNL     1     -14.729  90.273 -12.405  1.00  0.00     0.293 HD
ENDBRANCH  14  17
BRANCH  16  19
ATOM     19  O   UNL     1     -12.574  88.262 -11.487  1.00  0.00    -0.504 OA
ATOM     20  H   UNL     1     -12.036  87.751 -10.797  1.00  0.00     0.293 HD
ENDBRANCH  16  19
ENDBRANCH   1  11
BRANCH  10  21
ATOM     21  O   UNL     1      -8.108  88.138 -13.884  1.00  0.00    -0.500 OA
ATOM     22  H   UNL     1      -8.632  87.977 -14.736  1.00  0.00     0.294 HD
ENDBRANCH  10  21
BRANCH   5  23
ATOM     23  O   UNL     1      -4.528  94.871 -12.409  1.00  0.00    -0.507 OA
ATOM     24  H   UNL     1      -5.078  95.494 -11.828  1.00  0.00     0.293 HD
ENDBRANCH   5  23
BRANCH   7  25
ATOM     25  O   UNL     1      -3.375  90.335 -13.475  1.00  0.00    -0.507 OA
ATOM     26  H   UNL     1      -3.330  89.418 -13.056  1.00  0.00     0.293 HD
ENDBRANCH   7  25
TORSDOF 6
ENDMDL
MODEL 7
REMARK VINA RESULT:    -4.997      9.658     12.462
REMARK INTER + INTRA:          -6.293
REMARK INTER:                  -5.960
REMARK INTRA:                  -0.333
REMARK UNBOUND:                -0.274
REMARK SMILES Oc1cc(O)c2cc(O)c(-c3ccc(O)c(O)c3)[o+]c2c1.[Cl-]
REMARK SMILES IDX 10 1 19 2 20 3 21 4 2 5 3 6 4 7 6 8 7 9 8 10 11 11 12 12
REMARK SMILES IDX 13 13 14 14 18 15 16 16 15 17 17 19 9 21 1 23 5 25
REMARK H PARENT 15 18 17 20 9 22 1 24 5 26
REMARK Flexibility Score: inf
ROOT
ATOM      1  C   UNL     1      -8.998  83.166  -8.143  1.00  0.00     0.402 A 
ATOM      2  O   UNL     1      -9.996  83.475  -8.968  1.00  0.00    -0.202 OA
ATOM      3  C   UNL     1     -11.247  83.063  -8.787  1.00  0.00     0.368 A 
ATOM      4  C   UNL     1     -12.226  83.438  -9.711  1.00  0.00     0.162 A 
ATOM      5  C   UNL     1     -13.549  83.015  -9.547  1.00  0.00     0.128 A 
ATOM      6  C   UNL     1     -13.893  82.215  -8.455  1.00  0.00     0.093 A 
ATOM      7  C   UNL     1     -12.930  81.826  -7.515  1.00  0.00     0.136 A 
ATOM      8  C   UNL     1     -11.587  82.254  -7.676  1.00  0.00     0.125 A 
ATOM      9  C   UNL     1     -10.558  81.924  -6.778  1.00  0.00     0.078 A 
ATOM     10  C   UNL     1      -9.258  82.387  -7.000  1.00  0.00     0.223 A 
ENDROOT
BRANCH   1  11
ATOM     11  C   UNL     1      -7.646  83.677  -8.458  1.00  0.00     0.087 A 
ATOM     12  C   UNL     1      -7.205  84.873  -7.868  1.00  0.00     0.022 A 
ATOM     13  C   UNL     1      -5.939  85.385  -8.166  1.00  0.00     0.051 A 
ATOM     14  C   UNL     1      -5.103  84.718  -9.071  1.00  0.00     0.157 A 
ATOM     15  C   UNL     1      -6.811  83.022  -9.382  1.00  0.00     0.068 A 
ATOM     16  C   UNL     1      -5.541  83.537  -9.683  1.00  0.00     0.158 A 
BRANCH  14  17
ATOM     17  O   UNL     1      -3.840  85.224  -9.370  1.00  0.00    -0.504 OA
ATOM     18  H   UNL     1      -3.704  85.916 -10.098  1.00  0.00     0.293 HD
ENDBRANCH  14  17
BRANCH  16  19
ATOM     19  O   UNL     1      -4.713  82.883 -10.593  1.00  0.00    -0.504 OA
ATOM     20  H   UNL     1      -4.304  81.979 -10.385  1.00  0.00     0.293 HD
ENDBRANCH  16  19
ENDBRANCH   1  11
BRANCH  10  21
ATOM     21  O   UNL     1      -8.247  82.102  -6.081  1.00  0.00    -0.500 OA
ATOM     22  H   UNL     1      -8.179  81.198  -5.629  1.00  0.00     0.294 HD
ENDBRANCH  10  21
BRANCH   5  23
ATOM     23  O   UNL     1     -14.530  83.385 -10.464  1.00  0.00    -0.507 OA
ATOM     24  H   UNL     1     -14.956  82.708 -11.087  1.00  0.00     0.293 HD
ENDBRANCH   5  23
BRANCH   7  25
ATOM     25  O   UNL     1     -13.355  81.023  -6.453  1.00  0.00    -0.507 OA
ATOM     26  H   UNL     1     -13.670  80.069  -6.550  1.00  0.00     0.293 HD
ENDBRANCH   7  25
TORSDOF 6
ENDMDL
MODEL 8
REMARK VINA RESULT:    -4.985      1.421      6.986
REMARK INTER + INTRA:          -6.279
REMARK INTER:                  -5.961
REMARK INTRA:                  -0.318
REMARK UNBOUND:                -0.274
REMARK SMILES Oc1cc(O)c2cc(O)c(-c3ccc(O)c(O)c3)[o+]c2c1.[Cl-]
REMARK SMILES IDX 10 1 19 2 20 3 21 4 2 5 3 6 4 7 6 8 7 9 8 10 11 11 12 12
REMARK SMILES IDX 13 13 14 14 18 15 16 16 15 17 17 19 9 21 1 23 5 25
REMARK H PARENT 15 18 17 20 9 22 1 24 5 26
REMARK Flexibility Score: inf
ROOT
ATOM      1  C   UNL     1      -4.782  91.522 -14.530  1.00  0.00     0.402 A 
ATOM      2  O   UNL     1      -5.697  92.213 -15.204  1.00  0.00    -0.202 OA
ATOM      3  C   UNL     1      -5.735  92.272 -16.532  1.00  0.00     0.368 A 
ATOM      4  C   UNL     1      -6.735  93.027 -17.150  1.00  0.00     0.162 A 
ATOM      5  C   UNL     1      -6.795  93.110 -18.545  1.00  0.00     0.128 A 
ATOM      6  C   UNL     1      -5.852  92.436 -19.323  1.00  0.00     0.093 A 
ATOM      7  C   UNL     1      -4.840  91.672 -18.727  1.00  0.00     0.136 A 
ATOM      8  C   UNL     1      -4.776  91.583 -17.313  1.00  0.00     0.125 A 
ATOM      9  C   UNL     1      -3.805  90.832 -16.629  1.00  0.00     0.078 A 
ATOM     10  C   UNL     1      -3.808  90.788 -15.232  1.00  0.00     0.223 A 
ENDROOT
BRANCH   1  11
ATOM     11  C   UNL     1      -4.840  91.542 -13.051  1.00  0.00     0.087 A 
ATOM     12  C   UNL     1      -5.451  90.478 -12.369  1.00  0.00     0.022 A 
ATOM     13  C   UNL     1      -5.536  90.485 -10.975  1.00  0.00     0.051 A 
ATOM     14  C   UNL     1      -5.024  91.564 -10.242  1.00  0.00     0.157 A 
ATOM     15  C   UNL     1      -4.346  92.633 -12.312  1.00  0.00     0.068 A 
ATOM     16  C   UNL     1      -4.432  92.641 -10.912  1.00  0.00     0.158 A 
BRANCH  14  17
ATOM     17  O   UNL     1      -5.104  91.574  -8.851  1.00  0.00    -0.504 OA
ATOM     18  H   UNL     1      -5.427  92.391  -8.344  1.00  0.00     0.293 HD
ENDBRANCH  14  17
BRANCH  16  19
ATOM     19  O   UNL     1      -3.936  93.720 -10.182  1.00  0.00    -0.504 OA
ATOM     20  H   UNL     1      -3.859  93.687  -9.172  1.00  0.00     0.293 HD
ENDBRANCH  16  19
ENDBRANCH   1  11
BRANCH  10  21
ATOM     21  O   UNL     1      -2.876  90.001 -14.554  1.00  0.00    -0.500 OA
ATOM     22  H   UNL     1      -1.881  90.176 -14.626  1.00  0.00     0.294 HD
ENDBRANCH  10  21
BRANCH   5  23
ATOM     23  O   UNL     1      -7.790  93.861 -19.168  1.00  0.00    -0.507 OA
ATOM     24  H   UNL     1      -8.130  93.626 -20.094  1.00  0.00     0.293 HD
ENDBRANCH   5  23
BRANCH   7  25
ATOM     25  O   UNL     1      -3.934  91.030 -19.576  1.00  0.00    -0.507 OA
ATOM     26  H   UNL     1      -2.936  90.999 -19.427  1.00  0.00     0.293 HD
ENDBRANCH   7  25
TORSDOF 6
ENDMDL
MODEL 9
REMARK VINA RESULT:    -4.980      8.819     11.825
REMARK INTER + INTRA:          -6.273
REMARK INTER:                  -5.952
REMARK INTRA:                  -0.321
REMARK UNBOUND:                -0.274
REMARK SMILES Oc1cc(O)c2cc(O)c(-c3ccc(O)c(O)c3)[o+]c2c1.[Cl-]
REMARK SMILES IDX 10 1 19 2 20 3 21 4 2 5 3 6 4 7 6 8 7 9 8 10 11 11 12 12
REMARK SMILES IDX 13 13 14 14 18 15 16 16 15 17 17 19 9 21 1 23 5 25
REMARK H PARENT 15 18 17 20 9 22 1 24 5 26
REMARK Flexibility Score: inf
ROOT
ATOM      1  C   UNL     1     -10.000  84.405  -8.955  1.00  0.00     0.402 A 
ATOM      2  O   UNL     1      -8.972  83.618  -9.264  1.00  0.00    -0.202 OA
ATOM      3  C   UNL     1      -7.739  84.073  -9.462  1.00  0.00     0.368 A 
ATOM      4  C   UNL     1      -6.724  83.168  -9.785  1.00  0.00     0.162 A 
ATOM      5  C   UNL     1      -5.419  83.620 -10.002  1.00  0.00     0.128 A 
ATOM      6  C   UNL     1      -5.127  84.982  -9.895  1.00  0.00     0.093 A 
ATOM      7  C   UNL     1      -6.127  85.909  -9.571  1.00  0.00     0.136 A 
ATOM      8  C   UNL     1      -7.452  85.455  -9.348  1.00  0.00     0.125 A 
ATOM      9  C   UNL     1      -8.514  86.309  -9.007  1.00  0.00     0.078 A 
ATOM     10  C   UNL     1      -9.794  85.788  -8.797  1.00  0.00     0.223 A 
ENDROOT
BRANCH   1  11
ATOM     11  C   UNL     1     -11.328  83.779  -8.769  1.00  0.00     0.087 A 
ATOM     12  C   UNL     1     -11.587  83.040  -7.603  1.00  0.00     0.022 A 
ATOM     13  C   UNL     1     -12.827  82.424  -7.416  1.00  0.00     0.051 A 
ATOM     14  C   UNL     1     -13.821  82.524  -8.398  1.00  0.00     0.157 A 
ATOM     15  C   UNL     1     -12.322  83.859  -9.762  1.00  0.00     0.068 A 
ATOM     16  C   UNL     1     -13.566  83.239  -9.575  1.00  0.00     0.158 A 
BRANCH  14  17
ATOM     17  O   UNL     1     -15.059  81.913  -8.215  1.00  0.00    -0.504 OA
ATOM     18  H   UNL     1     -15.143  81.007  -7.767  1.00  0.00     0.293 HD
ENDBRANCH  14  17
BRANCH  16  19
ATOM     19  O   UNL     1     -14.551  83.325 -10.558  1.00  0.00    -0.504 OA
ATOM     20  H   UNL     1     -14.765  84.201 -11.020  1.00  0.00     0.293 HD
ENDBRANCH  16  19
ENDBRANCH   1  11
BRANCH  10  21
ATOM     21  O   UNL     1     -10.838  86.629  -8.409  1.00  0.00    -0.500 OA
ATOM     22  H   UNL     1     -11.629  86.283  -7.879  1.00  0.00     0.294 HD
ENDBRANCH  10  21
BRANCH   5  23
ATOM     23  O   UNL     1      -4.403  82.724 -10.325  1.00  0.00    -0.507 OA
ATOM     24  H   UNL     1      -3.952  82.738 -11.233  1.00  0.00     0.293 HD
ENDBRANCH   5  23
BRANCH   7  25
ATOM     25  O   UNL     1      -5.754  87.253  -9.485  1.00  0.00    -0.507 OA
ATOM     26  H   UNL     1      -5.561  87.844 -10.281  1.00  0.00     0.293 HD
ENDBRANCH   7  25
TORSDOF 6
ENDMDL
