MODEL 1
REMARK VINA RESULT:    -7.982      0.000      0.000
REMARK INTER + INTRA:         -13.262
REMARK INTER:                 -12.415
REMARK INTRA:                  -0.847
REMARK UNBOUND:                -0.847
REMARK SMILES COc1cc(CNC(=O)CCCCC=CC(C)C)ccc1O
REMARK SMILES IDX 11 1 12 2 13 3 14 4 15 5 16 6 17 7 18 8 10 9 8 10 9 11 7 12
REMARK SMILES IDX 6 14 5 15 4 16 19 17 3 18 20 19 21 20 2 21 1 22 22 23
REMARK H PARENT 7 13 22 24
REMARK Flexibility Score: inf
ROOT
ATOM      1  C   UNL     1     -10.809 -27.681  -8.218  1.00  0.00     0.010 C 
ENDROOT
BRANCH   1   2
ATOM      2  C   UNL     1     -10.036 -28.764  -7.445  1.00  0.00     0.005 C 
BRANCH   2   3
ATOM      3  C   UNL     1     -10.905 -29.536  -6.434  1.00  0.00     0.027 C 
BRANCH   3   4
ATOM      4  C   UNL     1     -10.321 -30.877  -6.080  1.00  0.00    -0.031 C 
ATOM      5  C   UNL     1     -10.430 -31.935  -6.898  1.00  0.00    -0.028 C 
BRANCH   5   6
ATOM      6  C   UNL     1      -9.794 -33.260  -6.552  1.00  0.00     0.005 C 
ATOM      7  C   UNL     1     -10.112 -34.305  -7.626  1.00  0.00     0.012 C 
ATOM      8  C   UNL     1     -10.269 -33.744  -5.177  1.00  0.00     0.012 C 
ENDBRANCH   5   6
ENDBRANCH   3   4
ENDBRANCH   2   3
ENDBRANCH   1   2
BRANCH   1   9
ATOM      9  C   UNL     1     -11.314 -28.179  -9.577  1.00  0.00     0.100 C 
BRANCH   9  10
ATOM     10  C   UNL     1     -12.782 -28.466  -9.499  1.00  0.00     0.220 C 
ATOM     11  O   UNL     1     -13.184 -29.662  -9.418  1.00  0.00    -0.275 OA
ATOM     12  N   UNL     1     -13.720 -27.393  -9.605  1.00  0.00    -0.352 N 
ATOM     13  H   UNL     1     -13.357 -26.421  -9.497  1.00  0.00     0.163 HD
BRANCH  12  14
ATOM     14  C   UNL     1     -14.973 -27.553 -10.338  1.00  0.00     0.151 C 
BRANCH  14  15
ATOM     15  C   UNL     1     -14.670 -27.729 -11.802  1.00  0.00    -0.025 A 
ATOM     16  C   UNL     1     -14.135 -26.667 -12.546  1.00  0.00     0.056 A 
ATOM     17  C   UNL     1     -15.027 -28.917 -12.456  1.00  0.00     0.009 A 
ATOM     18  C   UNL     1     -13.935 -26.794 -13.936  1.00  0.00     0.160 A 
ATOM     19  C   UNL     1     -14.823 -29.052 -13.830  1.00  0.00     0.050 A 
ATOM     20  C   UNL     1     -14.282 -27.994 -14.572  1.00  0.00     0.157 A 
BRANCH  18  21
ATOM     21  O   UNL     1     -13.405 -25.755 -14.716  1.00  0.00    -0.493 OA
ATOM     22  C   UNL     1     -12.010 -25.541 -14.927  1.00  0.00     0.278 C 
ENDBRANCH  18  21
BRANCH  20  23
ATOM     23  O   UNL     1     -14.088 -28.128 -15.947  1.00  0.00    -0.504 OA
ATOM     24  H   UNL     1     -14.864 -28.257 -16.580  1.00  0.00     0.293 HD
ENDBRANCH  20  23
ENDBRANCH  14  15
ENDBRANCH  12  14
ENDBRANCH   9  10
ENDBRANCH   1   9
TORSDOF 10
ENDMDL
MODEL 2
REMARK VINA RESULT:    -7.967      2.220      8.230
REMARK INTER + INTRA:         -13.239
REMARK INTER:                 -12.171
REMARK INTRA:                  -1.068
REMARK UNBOUND:                -0.847
REMARK SMILES COc1cc(CNC(=O)CCCCC=CC(C)C)ccc1O
REMARK SMILES IDX 11 1 12 2 13 3 14 4 15 5 16 6 17 7 18 8 10 9 8 10 9 11 7 12
REMARK SMILES IDX 6 14 5 15 4 16 19 17 3 18 20 19 21 20 2 21 1 22 22 23
REMARK H PARENT 7 13 22 24
REMARK Flexibility Score: inf
ROOT
ATOM      1  C   UNL     1     -14.222 -30.400 -10.512  1.00  0.00     0.010 C 
ENDROOT
BRANCH   1   2
ATOM      2  C   UNL     1     -15.501 -31.139 -10.944  1.00  0.00     0.005 C 
BRANCH   2   3
ATOM      3  C   UNL     1     -15.756 -31.089 -12.462  1.00  0.00     0.027 C 
BRANCH   3   4
ATOM      4  C   UNL     1     -15.103 -29.901 -13.116  1.00  0.00    -0.031 C 
ATOM      5  C   UNL     1     -15.796 -28.794 -13.425  1.00  0.00    -0.028 C 
BRANCH   5   6
ATOM      6  C   UNL     1     -15.116 -27.591 -14.034  1.00  0.00     0.005 C 
ATOM      7  C   UNL     1     -14.042 -28.030 -15.035  1.00  0.00     0.012 C 
ATOM      8  C   UNL     1     -14.501 -26.708 -12.942  1.00  0.00     0.012 C 
ENDBRANCH   5   6
ENDBRANCH   3   4
ENDBRANCH   2   3
ENDBRANCH   1   2
BRANCH   1   9
ATOM      9  C   UNL     1     -14.502 -29.296  -9.486  1.00  0.00     0.100 C 
BRANCH   9  10
ATOM     10  C   UNL     1     -13.254 -28.502  -9.242  1.00  0.00     0.220 C 
ATOM     11  O   UNL     1     -12.677 -27.928 -10.208  1.00  0.00    -0.275 OA
ATOM     12  N   UNL     1     -12.679 -28.473  -7.933  1.00  0.00    -0.352 N 
ATOM     13  H   UNL     1     -13.267 -28.809  -7.139  1.00  0.00     0.163 HD
BRANCH  12  14
ATOM     14  C   UNL     1     -11.232 -28.503  -7.743  1.00  0.00     0.151 C 
BRANCH  14  15
ATOM     15  C   UNL     1     -10.827 -29.862  -7.239  1.00  0.00    -0.025 A 
ATOM     16  C   UNL     1     -10.821 -30.966  -8.105  1.00  0.00     0.056 A 
ATOM     17  C   UNL     1     -10.563 -30.056  -5.875  1.00  0.00     0.009 A 
ATOM     18  C   UNL     1     -10.532 -32.258  -7.618  1.00  0.00     0.160 A 
ATOM     19  C   UNL     1     -10.268 -31.330  -5.390  1.00  0.00     0.050 A 
ATOM     20  C   UNL     1     -10.255 -32.432  -6.256  1.00  0.00     0.157 A 
BRANCH  18  21
ATOM     21  O   UNL     1     -10.519 -33.388  -8.451  1.00  0.00    -0.493 OA
ATOM     22  C   UNL     1      -9.360 -33.875  -9.124  1.00  0.00     0.278 C 
ENDBRANCH  18  21
BRANCH  20  23
ATOM     23  O   UNL     1      -9.969 -33.707  -5.767  1.00  0.00    -0.504 OA
ATOM     24  H   UNL     1      -9.370 -33.843  -4.965  1.00  0.00     0.293 HD
ENDBRANCH  20  23
ENDBRANCH  14  15
ENDBRANCH  12  14
ENDBRANCH   9  10
ENDBRANCH   1   9
TORSDOF 10
ENDMDL
MODEL 3
REMARK VINA RESULT:    -7.912      1.676      2.228
REMARK INTER + INTRA:         -13.153
REMARK INTER:                 -12.364
REMARK INTRA:                  -0.789
REMARK UNBOUND:                -0.847
REMARK SMILES COc1cc(CNC(=O)CCCCC=CC(C)C)ccc1O
REMARK SMILES IDX 11 1 12 2 13 3 14 4 15 5 16 6 17 7 18 8 10 9 8 10 9 11 7 12
REMARK SMILES IDX 6 14 5 15 4 16 19 17 3 18 20 19 21 20 2 21 1 22 22 23
REMARK H PARENT 7 13 22 24
REMARK Flexibility Score: inf
ROOT
ATOM      1  C   UNL     1      -9.490 -28.198  -8.235  1.00  0.00     0.010 C 
ENDROOT
BRANCH   1   2
ATOM      2  C   UNL     1      -9.613 -28.674  -6.777  1.00  0.00     0.005 C 
BRANCH   2   3
ATOM      3  C   UNL     1     -10.779 -29.654  -6.547  1.00  0.00     0.027 C 
BRANCH   3   4
ATOM      4  C   UNL     1     -10.309 -31.015  -6.111  1.00  0.00    -0.031 C 
ATOM      5  C   UNL     1     -10.357 -32.077  -6.930  1.00  0.00    -0.028 C 
BRANCH   5   6
ATOM      6  C   UNL     1      -9.834 -33.425  -6.495  1.00  0.00     0.005 C 
ATOM      7  C   UNL     1     -10.175 -34.495  -7.538  1.00  0.00     0.012 C 
ATOM      8  C   UNL     1     -10.406 -33.811  -5.126  1.00  0.00     0.012 C 
ENDBRANCH   5   6
ENDBRANCH   3   4
ENDBRANCH   2   3
ENDBRANCH   1   2
BRANCH   1   9
ATOM      9  C   UNL     1     -10.050 -26.786  -8.441  1.00  0.00     0.100 C 
BRANCH   9  10
ATOM     10  C   UNL     1     -11.546 -26.837  -8.500  1.00  0.00     0.220 C 
ATOM     11  O   UNL     1     -12.230 -26.153  -7.686  1.00  0.00    -0.275 OA
ATOM     12  N   UNL     1     -12.189 -27.725  -9.418  1.00  0.00    -0.352 N 
ATOM     13  H   UNL     1     -11.606 -28.137 -10.180  1.00  0.00     0.163 HD
BRANCH  12  14
ATOM     14  C   UNL     1     -13.400 -28.449  -9.046  1.00  0.00     0.151 C 
BRANCH  14  15
ATOM     15  C   UNL     1     -14.048 -29.000 -10.288  1.00  0.00    -0.025 A 
ATOM     16  C   UNL     1     -14.224 -28.184 -11.416  1.00  0.00     0.056 A 
ATOM     17  C   UNL     1     -14.581 -30.297 -10.287  1.00  0.00     0.009 A 
ATOM     18  C   UNL     1     -14.912 -28.665 -12.549  1.00  0.00     0.160 A 
ATOM     19  C   UNL     1     -15.254 -30.782 -11.409  1.00  0.00     0.050 A 
ATOM     20  C   UNL     1     -15.424 -29.970 -12.538  1.00  0.00     0.157 A 
BRANCH  18  21
ATOM     21  O   UNL     1     -15.111 -27.880 -13.695  1.00  0.00    -0.493 OA
ATOM     22  C   UNL     1     -14.812 -26.488 -13.776  1.00  0.00     0.278 C 
ENDBRANCH  18  21
BRANCH  20  23
ATOM     23  O   UNL     1     -16.106 -30.453 -13.655  1.00  0.00    -0.504 OA
ATOM     24  H   UNL     1     -16.627 -31.317 -13.623  1.00  0.00     0.293 HD
ENDBRANCH  20  23
ENDBRANCH  14  15
ENDBRANCH  12  14
ENDBRANCH   9  10
ENDBRANCH   1   9
TORSDOF 10
ENDMDL
MODEL 4
REMARK VINA RESULT:    -7.851      3.206      8.121
REMARK INTER + INTRA:         -13.058
REMARK INTER:                 -12.159
REMARK INTRA:                  -0.900
REMARK UNBOUND:                -0.847
REMARK SMILES COc1cc(CNC(=O)CCCCC=CC(C)C)ccc1O
REMARK SMILES IDX 11 1 12 2 13 3 14 4 15 5 16 6 17 7 18 8 10 9 8 10 9 11 7 12
REMARK SMILES IDX 6 14 5 15 4 16 19 17 3 18 20 19 21 20 2 21 1 22 22 23
REMARK H PARENT 7 13 22 24
REMARK Flexibility Score: inf
ROOT
ATOM      1  C   UNL     1     -13.006 -27.456  -8.480  1.00  0.00     0.010 C 
ENDROOT
BRANCH   1   2
ATOM      2  C   UNL     1     -14.376 -27.980  -8.947  1.00  0.00     0.005 C 
BRANCH   2   3
ATOM      3  C   UNL     1     -14.292 -29.301  -9.735  1.00  0.00     0.027 C 
BRANCH   3   4
ATOM      4  C   UNL     1     -14.621 -29.123 -11.193  1.00  0.00    -0.031 C 
ATOM      5  C   UNL     1     -14.434 -27.953 -11.822  1.00  0.00    -0.028 C 
BRANCH   5   6
ATOM      6  C   UNL     1     -14.720 -27.804 -13.298  1.00  0.00     0.005 C 
ATOM      7  C   UNL     1     -14.787 -26.323 -13.684  1.00  0.00     0.012 C 
ATOM      8  C   UNL     1     -16.028 -28.513 -13.668  1.00  0.00     0.012 C 
ENDBRANCH   5   6
ENDBRANCH   3   4
ENDBRANCH   2   3
ENDBRANCH   1   2
BRANCH   1   9
ATOM      9  C   UNL     1     -11.868 -28.435  -8.786  1.00  0.00     0.100 C 
BRANCH   9  10
ATOM     10  C   UNL     1     -10.983 -28.576  -7.585  1.00  0.00     0.220 C 
ATOM     11  O   UNL     1     -10.040 -27.756  -7.399  1.00  0.00    -0.275 OA
ATOM     12  N   UNL     1     -11.158 -29.689  -6.704  1.00  0.00    -0.352 N 
ATOM     13  H   UNL     1     -12.041 -30.239  -6.790  1.00  0.00     0.163 HD
BRANCH  12  14
ATOM     14  C   UNL     1     -10.012 -30.367  -6.106  1.00  0.00     0.151 C 
BRANCH  14  15
ATOM     15  C   UNL     1      -9.988 -31.799  -6.568  1.00  0.00    -0.025 A 
ATOM     16  C   UNL     1      -9.643 -32.110  -7.892  1.00  0.00     0.056 A 
ATOM     17  C   UNL     1     -10.420 -32.821  -5.711  1.00  0.00     0.009 A 
ATOM     18  C   UNL     1      -9.707 -33.441  -8.356  1.00  0.00     0.160 A 
ATOM     19  C   UNL     1     -10.477 -34.141  -6.162  1.00  0.00     0.050 A 
ATOM     20  C   UNL     1     -10.126 -34.453  -7.482  1.00  0.00     0.157 A 
BRANCH  18  21
ATOM     21  O   UNL     1      -9.373 -33.792  -9.673  1.00  0.00    -0.493 OA
ATOM     22  C   UNL     1      -9.592 -32.956 -10.807  1.00  0.00     0.278 C 
ENDBRANCH  18  21
BRANCH  20  23
ATOM     23  O   UNL     1     -10.193 -35.771  -7.935  1.00  0.00    -0.504 OA
ATOM     24  H   UNL     1     -11.004 -36.121  -8.423  1.00  0.00     0.293 HD
ENDBRANCH  20  23
ENDBRANCH  14  15
ENDBRANCH  12  14
ENDBRANCH   9  10
ENDBRANCH   1   9
TORSDOF 10
ENDMDL
MODEL 5
REMARK VINA RESULT:    -7.851      1.138      2.277
REMARK INTER + INTRA:         -13.058
REMARK INTER:                 -12.221
REMARK INTRA:                  -0.837
REMARK UNBOUND:                -0.847
REMARK SMILES COc1cc(CNC(=O)CCCCC=CC(C)C)ccc1O
REMARK SMILES IDX 11 1 12 2 13 3 14 4 15 5 16 6 17 7 18 8 10 9 8 10 9 11 7 12
REMARK SMILES IDX 6 14 5 15 4 16 19 17 3 18 20 19 21 20 2 21 1 22 22 23
REMARK H PARENT 7 13 22 24
REMARK Flexibility Score: inf
ROOT
ATOM      1  C   UNL     1     -11.226 -28.353  -8.408  1.00  0.00     0.010 C 
ENDROOT
BRANCH   1   2
ATOM      2  C   UNL     1     -10.175 -29.002  -7.489  1.00  0.00     0.005 C 
BRANCH   2   3
ATOM      3  C   UNL     1     -10.776 -29.633  -6.218  1.00  0.00     0.027 C 
BRANCH   3   4
ATOM      4  C   UNL     1     -10.243 -31.015  -5.956  1.00  0.00    -0.031 C 
ATOM      5  C   UNL     1     -10.439 -32.025  -6.816  1.00  0.00    -0.028 C 
BRANCH   5   6
ATOM      6  C   UNL     1      -9.854 -33.394  -6.563  1.00  0.00     0.005 C 
ATOM      7  C   UNL     1     -10.175 -34.338  -7.727  1.00  0.00     0.012 C 
ATOM      8  C   UNL     1     -10.381 -33.971  -5.244  1.00  0.00     0.012 C 
ENDBRANCH   5   6
ENDBRANCH   3   4
ENDBRANCH   2   3
ENDBRANCH   1   2
BRANCH   1   9
ATOM      9  C   UNL     1     -12.411 -29.282  -8.691  1.00  0.00     0.100 C 
BRANCH   9  10
ATOM     10  C   UNL     1     -13.680 -28.486  -8.735  1.00  0.00     0.220 C 
ATOM     11  O   UNL     1     -14.696 -28.890  -8.100  1.00  0.00    -0.275 OA
ATOM     12  N   UNL     1     -13.759 -27.324  -9.564  1.00  0.00    -0.352 N 
ATOM     13  H   UNL     1     -12.865 -26.930  -9.930  1.00  0.00     0.163 HD
BRANCH  12  14
ATOM     14  C   UNL     1     -14.975 -27.007 -10.306  1.00  0.00     0.151 C 
BRANCH  14  15
ATOM     15  C   UNL     1     -14.809 -27.443 -11.737  1.00  0.00    -0.025 A 
ATOM     16  C   UNL     1     -15.046 -28.778 -12.102  1.00  0.00     0.056 A 
ATOM     17  C   UNL     1     -14.307 -26.548 -12.692  1.00  0.00     0.009 A 
ATOM     18  C   UNL     1     -14.804 -29.214 -13.421  1.00  0.00     0.160 A 
ATOM     19  C   UNL     1     -14.074 -26.972 -14.001  1.00  0.00     0.050 A 
ATOM     20  C   UNL     1     -14.317 -28.302 -14.367  1.00  0.00     0.157 A 
BRANCH  18  21
ATOM     21  O   UNL     1     -15.025 -30.540 -13.825  1.00  0.00    -0.493 OA
ATOM     22  C   UNL     1     -15.832 -31.473 -13.109  1.00  0.00     0.278 C 
ENDBRANCH  18  21
BRANCH  20  23
ATOM     23  O   UNL     1     -14.075 -28.727 -15.674  1.00  0.00    -0.504 OA
ATOM     24  H   UNL     1     -14.791 -29.180 -16.223  1.00  0.00     0.293 HD
ENDBRANCH  20  23
ENDBRANCH  14  15
ENDBRANCH  12  14
ENDBRANCH   9  10
ENDBRANCH   1   9
TORSDOF 10
ENDMDL
MODEL 6
REMARK VINA RESULT:    -7.623      2.733      7.555
REMARK INTER + INTRA:         -12.703
REMARK INTER:                 -11.858
REMARK INTRA:                  -0.845
REMARK UNBOUND:                -0.847
REMARK SMILES COc1cc(CNC(=O)CCCCC=CC(C)C)ccc1O
REMARK SMILES IDX 11 1 12 2 13 3 14 4 15 5 16 6 17 7 18 8 10 9 8 10 9 11 7 12
REMARK SMILES IDX 6 14 5 15 4 16 19 17 3 18 20 19 21 20 2 21 1 22 22 23
REMARK H PARENT 7 13 22 24
REMARK Flexibility Score: inf
ROOT
ATOM      1  C   UNL     1     -13.951 -27.565 -11.530  1.00  0.00     0.010 C 
ENDROOT
BRANCH   1   2
ATOM      2  C   UNL     1     -14.502 -26.740 -12.708  1.00  0.00     0.005 C 
BRANCH   2   3
ATOM      3  C   UNL     1     -14.996 -27.603 -13.884  1.00  0.00     0.027 C 
BRANCH   3   4
ATOM      4  C   UNL     1     -15.792 -28.795 -13.427  1.00  0.00    -0.031 C 
ATOM      5  C   UNL     1     -15.256 -30.024 -13.373  1.00  0.00    -0.028 C 
BRANCH   5   6
ATOM      6  C   UNL     1     -16.052 -31.203 -12.863  1.00  0.00     0.005 C 
ATOM      7  C   UNL     1     -15.737 -31.465 -11.387  1.00  0.00     0.012 C 
ATOM      8  C   UNL     1     -15.763 -32.453 -13.703  1.00  0.00     0.012 C 
ENDBRANCH   5   6
ENDBRANCH   3   4
ENDBRANCH   2   3
ENDBRANCH   1   2
BRANCH   1   9
ATOM      9  C   UNL     1     -14.783 -27.394 -10.255  1.00  0.00     0.100 C 
BRANCH   9  10
ATOM     10  C   UNL     1     -14.121 -28.109  -9.117  1.00  0.00     0.220 C 
ATOM     11  O   UNL     1     -14.811 -28.496  -8.132  1.00  0.00    -0.275 OA
ATOM     12  N   UNL     1     -12.700 -28.272  -9.114  1.00  0.00    -0.352 N 
ATOM     13  H   UNL     1     -12.192 -28.098 -10.009  1.00  0.00     0.163 HD
BRANCH  12  14
ATOM     14  C   UNL     1     -11.929 -28.151  -7.881  1.00  0.00     0.151 C 
BRANCH  14  15
ATOM     15  C   UNL     1     -11.272 -29.470  -7.577  1.00  0.00    -0.025 A 
ATOM     16  C   UNL     1     -11.226 -30.479  -8.551  1.00  0.00     0.056 A 
ATOM     17  C   UNL     1     -10.804 -29.741  -6.283  1.00  0.00     0.009 A 
ATOM     18  C   UNL     1     -10.694 -31.749  -8.245  1.00  0.00     0.160 A 
ATOM     19  C   UNL     1     -10.269 -30.993  -5.976  1.00  0.00     0.050 A 
ATOM     20  C   UNL     1     -10.216 -31.999  -6.951  1.00  0.00     0.157 A 
BRANCH  18  21
ATOM     21  O   UNL     1     -10.633 -32.785  -9.190  1.00  0.00    -0.493 OA
ATOM     22  C   UNL     1      -9.822 -32.753 -10.363  1.00  0.00     0.278 C 
ENDBRANCH  18  21
BRANCH  20  23
ATOM     23  O   UNL     1      -9.689 -33.253  -6.640  1.00  0.00    -0.504 OA
ATOM     24  H   UNL     1      -8.768 -33.529  -6.947  1.00  0.00     0.293 HD
ENDBRANCH  20  23
ENDBRANCH  14  15
ENDBRANCH  12  14
ENDBRANCH   9  10
ENDBRANCH   1   9
TORSDOF 10
ENDMDL
MODEL 7
REMARK VINA RESULT:    -7.358      1.954      3.168
REMARK INTER + INTRA:         -12.292
REMARK INTER:                 -11.569
REMARK INTRA:                  -0.723
REMARK UNBOUND:                -0.847
REMARK SMILES COc1cc(CNC(=O)CCCCC=CC(C)C)ccc1O
REMARK SMILES IDX 11 1 12 2 13 3 14 4 15 5 16 6 17 7 18 8 10 9 8 10 9 11 7 12
REMARK SMILES IDX 6 14 5 15 4 16 19 17 3 18 20 19 21 20 2 21 1 22 22 23
REMARK H PARENT 7 13 22 24
REMARK Flexibility Score: inf
ROOT
ATOM      1  C   UNL     1     -10.619 -29.675  -7.043  1.00  0.00     0.010 C 
ENDROOT
BRANCH   1   2
ATOM      2  C   UNL     1     -10.408 -30.148  -5.593  1.00  0.00     0.005 C 
BRANCH   2   3
ATOM      3  C   UNL     1      -9.372 -31.280  -5.461  1.00  0.00     0.027 C 
BRANCH   3   4
ATOM      4  C   UNL     1      -9.432 -32.251  -6.609  1.00  0.00    -0.031 C 
ATOM      5  C   UNL     1     -10.309 -33.265  -6.632  1.00  0.00    -0.028 C 
BRANCH   5   6
ATOM      6  C   UNL     1     -10.392 -34.201  -7.815  1.00  0.00     0.005 C 
ATOM      7  C   UNL     1     -10.096 -35.640  -7.382  1.00  0.00     0.012 C 
ATOM      8  C   UNL     1      -9.422 -33.763  -8.919  1.00  0.00     0.012 C 
ENDBRANCH   5   6
ENDBRANCH   3   4
ENDBRANCH   2   3
ENDBRANCH   1   2
BRANCH   1   9
ATOM      9  C   UNL     1     -10.583 -28.148  -7.173  1.00  0.00     0.100 C 
BRANCH   9  10
ATOM     10  C   UNL     1     -11.768 -27.677  -7.960  1.00  0.00     0.220 C 
ATOM     11  O   UNL     1     -12.097 -26.457  -7.930  1.00  0.00    -0.275 OA
ATOM     12  N   UNL     1     -12.569 -28.626  -8.669  1.00  0.00    -0.352 N 
ATOM     13  H   UNL     1     -12.174 -29.581  -8.812  1.00  0.00     0.163 HD
BRANCH  12  14
ATOM     14  C   UNL     1     -14.022 -28.495  -8.727  1.00  0.00     0.151 C 
BRANCH  14  15
ATOM     15  C   UNL     1     -14.477 -28.665 -10.151  1.00  0.00    -0.025 A 
ATOM     16  C   UNL     1     -14.792 -29.940 -10.646  1.00  0.00     0.056 A 
ATOM     17  C   UNL     1     -14.481 -27.568 -11.024  1.00  0.00     0.009 A 
ATOM     18  C   UNL     1     -15.131 -30.119 -12.003  1.00  0.00     0.160 A 
ATOM     19  C   UNL     1     -14.824 -27.738 -12.366  1.00  0.00     0.050 A 
ATOM     20  C   UNL     1     -15.145 -29.009 -12.859  1.00  0.00     0.157 A 
BRANCH  18  21
ATOM     21  O   UNL     1     -15.449 -31.378 -12.537  1.00  0.00    -0.493 OA
ATOM     22  C   UNL     1     -14.540 -32.186 -13.282  1.00  0.00     0.278 C 
ENDBRANCH  18  21
BRANCH  20  23
ATOM     23  O   UNL     1     -15.479 -29.179 -14.203  1.00  0.00    -0.504 OA
ATOM     24  H   UNL     1     -14.885 -29.698 -14.833  1.00  0.00     0.293 HD
ENDBRANCH  20  23
ENDBRANCH  14  15
ENDBRANCH  12  14
ENDBRANCH   9  10
ENDBRANCH   1   9
TORSDOF 10
ENDMDL
MODEL 8
REMARK VINA RESULT:    -7.215      2.552      8.298
REMARK INTER + INTRA:         -12.069
REMARK INTER:                 -11.182
REMARK INTRA:                  -0.887
REMARK UNBOUND:                -0.847
REMARK SMILES COc1cc(CNC(=O)CCCCC=CC(C)C)ccc1O
REMARK SMILES IDX 11 1 12 2 13 3 14 4 15 5 16 6 17 7 18 8 10 9 8 10 9 11 7 12
REMARK SMILES IDX 6 14 5 15 4 16 19 17 3 18 20 19 21 20 2 21 1 22 22 23
REMARK H PARENT 7 13 22 24
REMARK Flexibility Score: inf
ROOT
ATOM      1  C   UNL     1     -14.517 -28.090 -10.352  1.00  0.00     0.010 C 
ENDROOT
BRANCH   1   2
ATOM      2  C   UNL     1     -14.498 -29.489 -10.995  1.00  0.00     0.005 C 
BRANCH   2   3
ATOM      3  C   UNL     1     -15.212 -29.548 -12.358  1.00  0.00     0.027 C 
BRANCH   3   4
ATOM      4  C   UNL     1     -15.069 -28.270 -13.139  1.00  0.00    -0.031 C 
ATOM      5  C   UNL     1     -14.105 -28.106 -14.058  1.00  0.00    -0.028 C 
BRANCH   5   6
ATOM      6  C   UNL     1     -14.005 -26.837 -14.869  1.00  0.00     0.005 C 
ATOM      7  C   UNL     1     -12.567 -26.308 -14.863  1.00  0.00     0.012 C 
ATOM      8  C   UNL     1     -14.970 -25.774 -14.330  1.00  0.00     0.012 C 
ENDBRANCH   5   6
ENDBRANCH   3   4
ENDBRANCH   2   3
ENDBRANCH   1   2
BRANCH   1   9
ATOM      9  C   UNL     1     -14.549 -28.149  -8.821  1.00  0.00     0.100 C 
BRANCH   9  10
ATOM     10  C   UNL     1     -13.191 -27.833  -8.273  1.00  0.00     0.220 C 
ATOM     11  O   UNL     1     -12.654 -26.718  -8.530  1.00  0.00    -0.275 OA
ATOM     12  N   UNL     1     -12.476 -28.827  -7.536  1.00  0.00    -0.352 N 
ATOM     13  H   UNL     1     -13.011 -29.658  -7.199  1.00  0.00     0.163 HD
BRANCH  12  14
ATOM     14  C   UNL     1     -11.032 -28.987  -7.685  1.00  0.00     0.151 C 
BRANCH  14  15
ATOM     15  C   UNL     1     -10.725 -30.422  -8.017  1.00  0.00    -0.025 A 
ATOM     16  C   UNL     1     -10.316 -31.310  -7.010  1.00  0.00     0.056 A 
ATOM     17  C   UNL     1     -10.736 -30.853  -9.351  1.00  0.00     0.009 A 
ATOM     18  C   UNL     1      -9.938 -32.631  -7.328  1.00  0.00     0.160 A 
ATOM     19  C   UNL     1     -10.372 -32.162  -9.672  1.00  0.00     0.050 A 
ATOM     20  C   UNL     1      -9.970 -33.051  -8.665  1.00  0.00     0.157 A 
BRANCH  18  21
ATOM     21  O   UNL     1      -9.521 -33.548  -6.352  1.00  0.00    -0.493 OA
ATOM     22  C   UNL     1     -10.301 -33.923  -5.218  1.00  0.00     0.278 C 
ENDBRANCH  18  21
BRANCH  20  23
ATOM     23  O   UNL     1      -9.598 -34.356  -8.988  1.00  0.00    -0.504 OA
ATOM     24  H   UNL     1     -10.260 -35.117  -8.955  1.00  0.00     0.293 HD
ENDBRANCH  20  23
ENDBRANCH  14  15
ENDBRANCH  12  14
ENDBRANCH   9  10
ENDBRANCH   1   9
TORSDOF 10
ENDMDL
MODEL 9
REMARK VINA RESULT:    -7.061      2.463      8.106
REMARK INTER + INTRA:         -11.829
REMARK INTER:                 -10.717
REMARK INTRA:                  -1.111
REMARK UNBOUND:                -0.847
REMARK SMILES COc1cc(CNC(=O)CCCCC=CC(C)C)ccc1O
REMARK SMILES IDX 11 1 12 2 13 3 14 4 15 5 16 6 17 7 18 8 10 9 8 10 9 11 7 12
REMARK SMILES IDX 6 14 5 15 4 16 19 17 3 18 20 19 21 20 2 21 1 22 22 23
REMARK H PARENT 7 13 22 24
REMARK Flexibility Score: inf
ROOT
ATOM      1  C   UNL     1     -13.485 -28.702  -8.342  1.00  0.00     0.010 C 
ENDROOT
BRANCH   1   2
ATOM      2  C   UNL     1     -14.364 -28.784  -9.603  1.00  0.00     0.005 C 
BRANCH   2   3
ATOM      3  C   UNL     1     -14.934 -27.422 -10.043  1.00  0.00     0.027 C 
BRANCH   3   4
ATOM      4  C   UNL     1     -14.659 -27.126 -11.492  1.00  0.00    -0.031 C 
ATOM      5  C   UNL     1     -15.258 -27.808 -12.480  1.00  0.00    -0.028 C 
BRANCH   5   6
ATOM      6  C   UNL     1     -15.010 -27.464 -13.930  1.00  0.00     0.005 C 
ATOM      7  C   UNL     1     -14.100 -28.511 -14.581  1.00  0.00     0.012 C 
ATOM      8  C   UNL     1     -14.395 -26.066 -14.056  1.00  0.00     0.012 C 
ENDBRANCH   5   6
ENDBRANCH   3   4
ENDBRANCH   2   3
ENDBRANCH   1   2
BRANCH   1   9
ATOM      9  C   UNL     1     -12.810 -27.335  -8.185  1.00  0.00     0.100 C 
BRANCH   9  10
ATOM     10  C   UNL     1     -11.373 -27.428  -8.599  1.00  0.00     0.220 C 
ATOM     11  O   UNL     1     -11.079 -27.532  -9.824  1.00  0.00    -0.275 OA
ATOM     12  N   UNL     1     -10.351 -27.487  -7.601  1.00  0.00    -0.352 N 
ATOM     13  H   UNL     1     -10.613 -27.227  -6.625  1.00  0.00     0.163 HD
BRANCH  12  14
ATOM     14  C   UNL     1      -9.182 -28.345  -7.766  1.00  0.00     0.151 C 
BRANCH  14  15
ATOM     15  C   UNL     1      -9.508 -29.726  -7.264  1.00  0.00    -0.025 A 
ATOM     16  C   UNL     1      -9.505 -30.819  -8.144  1.00  0.00     0.056 A 
ATOM     17  C   UNL     1      -9.927 -29.911  -5.939  1.00  0.00     0.009 A 
ATOM     18  C   UNL     1      -9.898 -32.099  -7.700  1.00  0.00     0.160 A 
ATOM     19  C   UNL     1     -10.308 -31.177  -5.491  1.00  0.00     0.050 A 
ATOM     20  C   UNL     1     -10.299 -32.270  -6.368  1.00  0.00     0.157 A 
BRANCH  18  21
ATOM     21  O   UNL     1      -9.912 -33.216  -8.550  1.00  0.00    -0.493 OA
ATOM     22  C   UNL     1      -8.989 -33.424  -9.617  1.00  0.00     0.278 C 
ENDBRANCH  18  21
BRANCH  20  23
ATOM     23  O   UNL     1     -10.690 -33.533  -5.922  1.00  0.00    -0.504 OA
ATOM     24  H   UNL     1     -11.437 -34.043  -6.370  1.00  0.00     0.293 HD
ENDBRANCH  20  23
ENDBRANCH  14  15
ENDBRANCH  12  14
ENDBRANCH   9  10
ENDBRANCH   1   9
TORSDOF 10
ENDMDL
