MODEL 1
REMARK VINA RESULT:    -3.947      0.000      0.000
REMARK INTER + INTRA:          -6.353
REMARK INTER:                  -6.024
REMARK INTRA:                  -0.329
REMARK UNBOUND:                -0.329
REMARK SMILES CC1=CCC[C@@H](C)C(=O)C[C@H](C(C)C)C(=O)C1
REMARK SMILES IDX 8 1 9 2 6 3 7 4 5 5 4 6 3 7 2 8 1 9 10 11 11 12 15 13 16 14
REMARK SMILES IDX 17 15 12 17 13 18 14 19
REMARK H PARENT
REMARK Flexibility Score: 70.00
ROOT
ATOM      1  C   UNL     1      -3.138   0.046  28.439  1.00  0.00     0.136 C 
ATOM      2  O   UNL     1      -3.284  -1.154  28.631  1.00  0.00    -0.299 OA
ENDROOT
BRANCH   1   3
ATOM      3  C   UNL     1      -2.019   0.547  27.535  1.00  0.00     0.053 C 
ATOM      4  C   UNL     1      -2.167   0.044  26.089  1.00  0.00     0.016 C 
BRANCH   3   5
ATOM      5  C   UNL     1      -0.621   0.213  28.099  1.00  0.00     0.015 C 
BRANCH   5   6
ATOM      6  C   UNL     1      -0.169   1.174  29.215  1.00  0.00     0.028 C 
BRANCH   6   7
ATOM      7  C   UNL     1      -0.461   2.617  28.892  1.00  0.00    -0.028 C 
ATOM      8  C   UNL     1      -1.132   3.492  29.683  1.00  0.00    -0.070 CG0
ATOM      9  C   UNL     1      -1.219   4.922  29.205  1.00  0.00     0.039 C 
ATOM     10  G   UNL     1      -1.848   3.114  30.979  1.00  0.00     0.000 G0
ENDBRANCH   6   7
ENDBRANCH   5   6
ENDBRANCH   3   5
ENDBRANCH   1   3
BRANCH   1  11
ATOM     11  C   UNL     1      -4.106   1.011  29.083  1.00  0.00     0.087 C 
BRANCH  11  12
ATOM     12  C   UNL     1      -3.768   1.309  30.569  1.00  0.00     0.066 C 
BRANCH  12  13
ATOM     13  C   UNL     1      -3.323   2.748  30.829  1.00  0.00     0.140 C 
ATOM     14  O   UNL     1      -4.168   3.632  30.795  1.00  0.00    -0.299 OA
BRANCH  13  15
ATOM     15  C   UNL     1      -1.874   3.143  30.991  1.00  0.00     0.106 CG0
ATOM     16  G   UNL     1      -1.154   3.461  29.681  1.00  0.00     0.000 G0
ENDBRANCH  13  15
ENDBRANCH  12  13
BRANCH  12  17
ATOM     17  C   UNL     1      -4.892   0.822  31.537  1.00  0.00    -0.006 C 
ATOM     18  C   UNL     1      -4.693   1.222  33.008  1.00  0.00     0.008 C 
ATOM     19  C   UNL     1      -5.121  -0.693  31.427  1.00  0.00     0.008 C 
ENDBRANCH  12  17
ENDBRANCH  11  12
ENDBRANCH   1  11
TORSDOF 1
ENDMDL
MODEL 2
REMARK VINA RESULT:    -3.497      1.682      4.268
REMARK INTER + INTRA:          -5.667
REMARK INTER:                  -5.527
REMARK INTRA:                  -0.140
REMARK UNBOUND:                -0.329
REMARK SMILES CC1=CCC[C@@H](C)C(=O)C[C@H](C(C)C)C(=O)C1
REMARK SMILES IDX 8 1 9 2 6 3 7 4 5 5 4 6 3 7 2 8 1 9 10 11 11 12 15 13 16 14
REMARK SMILES IDX 17 15 12 17 13 18 14 19
REMARK H PARENT
REMARK Flexibility Score: 70.00
ROOT
ATOM      1  C   UNL     1      -3.406  -0.396  29.401  1.00  0.00     0.136 C 
ATOM      2  O   UNL     1      -3.336  -0.970  28.323  1.00  0.00    -0.299 OA
ENDROOT
BRANCH   1   3
ATOM      3  C   UNL     1      -4.754  -0.214  30.086  1.00  0.00     0.053 C 
ATOM      4  C   UNL     1      -5.500   1.035  29.586  1.00  0.00     0.016 C 
BRANCH   3   5
ATOM      5  C   UNL     1      -4.629  -0.207  31.625  1.00  0.00     0.015 C 
BRANCH   5   6
ATOM      6  C   UNL     1      -5.368   0.970  32.290  1.00  0.00     0.028 C 
BRANCH   6   7
ATOM      7  C   UNL     1      -4.539   1.654  33.346  1.00  0.00    -0.028 C 
ATOM      8  C   UNL     1      -3.623   2.632  33.131  1.00  0.00    -0.070 CG0
ATOM      9  C   UNL     1      -2.981   3.250  34.351  1.00  0.00     0.039 C 
ATOM     10  G   UNL     1      -3.160   3.098  31.751  1.00  0.00     0.000 G0
ENDBRANCH   6   7
ENDBRANCH   5   6
ENDBRANCH   3   5
ENDBRANCH   1   3
BRANCH   1  11
ATOM     11  C   UNL     1      -2.133   0.090  30.053  1.00  0.00     0.087 C 
BRANCH  11  12
ATOM     12  C   UNL     1      -1.914   1.620  29.890  1.00  0.00     0.066 C 
BRANCH  12  13
ATOM     13  C   UNL     1      -1.920   2.392  31.209  1.00  0.00     0.140 C 
ATOM     14  O   UNL     1      -0.927   2.335  31.921  1.00  0.00    -0.299 OA
BRANCH  13  15
ATOM     15  C   UNL     1      -3.141   3.110  31.733  1.00  0.00     0.106 CG0
ATOM     16  G   UNL     1      -3.604   2.646  33.113  1.00  0.00     0.000 G0
ENDBRANCH  13  15
ENDBRANCH  12  13
BRANCH  12  17
ATOM     17  C   UNL     1      -0.683   1.943  28.986  1.00  0.00    -0.006 C 
ATOM     18  C   UNL     1      -0.571   3.414  28.553  1.00  0.00     0.008 C 
ATOM     19  C   UNL     1      -0.622   1.023  27.757  1.00  0.00     0.008 C 
ENDBRANCH  12  17
ENDBRANCH  11  12
ENDBRANCH   1  11
TORSDOF 1
ENDMDL
MODEL 3
REMARK VINA RESULT:    -3.427      1.319      4.049
REMARK INTER + INTRA:          -5.560
REMARK INTER:                  -5.691
REMARK INTRA:                   0.132
REMARK UNBOUND:                -0.329
REMARK SMILES CC1=CCC[C@@H](C)C(=O)C[C@H](C(C)C)C(=O)C1
REMARK SMILES IDX 8 1 9 2 6 3 7 4 5 5 4 6 3 7 2 8 1 9 10 11 11 12 15 13 16 14
REMARK SMILES IDX 17 15 12 17 13 18 14 19
REMARK H PARENT
REMARK Flexibility Score: 70.00
ROOT
ATOM      1  C   UNL     1      -4.574   0.580  29.700  1.00  0.00     0.136 C 
ATOM      2  O   UNL     1      -5.541   1.206  29.289  1.00  0.00    -0.299 OA
ENDROOT
BRANCH   1   3
ATOM      3  C   UNL     1      -4.333   0.439  31.197  1.00  0.00     0.053 C 
ATOM      4  C   UNL     1      -5.428  -0.390  31.890  1.00  0.00     0.016 C 
BRANCH   3   5
ATOM      5  C   UNL     1      -4.153   1.808  31.889  1.00  0.00     0.015 C 
BRANCH   5   6
ATOM      6  C   UNL     1      -2.688   2.284  31.924  1.00  0.00     0.028 C 
BRANCH   6   7
ATOM      7  C   UNL     1      -2.420   3.412  30.961  1.00  0.00    -0.028 C 
ATOM      8  C   UNL     1      -1.587   3.367  29.891  1.00  0.00    -0.070 CG0
ATOM      9  C   UNL     1      -1.549   4.585  28.999  1.00  0.00     0.039 C 
ATOM     10  G   UNL     1      -0.652   2.202  29.570  1.00  0.00     0.000 G0
ENDBRANCH   6   7
ENDBRANCH   5   6
ENDBRANCH   3   5
ENDBRANCH   1   3
BRANCH   1  11
ATOM     11  C   UNL     1      -3.653  -0.079  28.701  1.00  0.00     0.087 C 
BRANCH  11  12
ATOM     12  C   UNL     1      -2.509   0.857  28.222  1.00  0.00     0.066 C 
BRANCH  12  13
ATOM     13  C   UNL     1      -1.317   0.920  29.176  1.00  0.00     0.140 C 
ATOM     14  O   UNL     1      -0.971  -0.108  29.742  1.00  0.00    -0.299 OA
BRANCH  13  15
ATOM     15  C   UNL     1      -0.635   2.213  29.552  1.00  0.00     0.106 CG0
ATOM     16  G   UNL     1      -1.589   3.362  29.876  1.00  0.00     0.000 G0
ENDBRANCH  13  15
ENDBRANCH  12  13
BRANCH  12  17
ATOM     17  C   UNL     1      -2.105   0.578  26.740  1.00  0.00    -0.006 C 
ATOM     18  C   UNL     1      -3.245   0.060  25.848  1.00  0.00     0.008 C 
ATOM     19  C   UNL     1      -0.892  -0.361  26.647  1.00  0.00     0.008 C 
ENDBRANCH  12  17
ENDBRANCH  11  12
ENDBRANCH   1  11
TORSDOF 1
ENDMDL
MODEL 4
REMARK VINA RESULT:    -3.386     16.481     17.958
REMARK INTER + INTRA:          -5.498
REMARK INTER:                  -5.165
REMARK INTRA:                  -0.332
REMARK UNBOUND:                -0.329
REMARK SMILES CC1=CCC[C@@H](C)C(=O)C[C@H](C(C)C)C(=O)C1
REMARK SMILES IDX 8 1 9 2 6 3 7 4 5 5 4 6 3 7 2 8 1 9 10 11 11 12 15 13 16 14
REMARK SMILES IDX 17 15 12 17 13 18 14 19
REMARK H PARENT
REMARK Flexibility Score: 70.00
ROOT
ATOM      1  C   UNL     1     -13.571  10.760  21.243  1.00  0.00     0.136 C 
ATOM      2  O   UNL     1     -12.712  10.106  21.819  1.00  0.00    -0.299 OA
ENDROOT
BRANCH   1   3
ATOM      3  C   UNL     1     -14.773  11.292  22.011  1.00  0.00     0.053 C 
ATOM      4  C   UNL     1     -14.366  12.005  23.312  1.00  0.00     0.016 C 
BRANCH   3   5
ATOM      5  C   UNL     1     -15.822  10.192  22.286  1.00  0.00     0.015 C 
BRANCH   5   6
ATOM      6  C   UNL     1     -16.558   9.722  21.017  1.00  0.00     0.028 C 
BRANCH   6   7
ATOM      7  C   UNL     1     -16.145   8.339  20.584  1.00  0.00    -0.028 C 
ATOM      8  C   UNL     1     -15.484   8.025  19.441  1.00  0.00    -0.070 CG0
ATOM      9  C   UNL     1     -15.079   6.581  19.258  1.00  0.00     0.039 C 
ATOM     10  G   UNL     1     -15.182   9.013  18.315  1.00  0.00     0.000 G0
ENDBRANCH   6   7
ENDBRANCH   5   6
ENDBRANCH   3   5
ENDBRANCH   1   3
BRANCH   1  11
ATOM     11  C   UNL     1     -13.396  11.059  19.772  1.00  0.00     0.087 C 
BRANCH  11  12
ATOM     12  C   UNL     1     -12.763   9.878  18.985  1.00  0.00     0.066 C 
BRANCH  12  13
ATOM     13  C   UNL     1     -13.717   9.210  17.995  1.00  0.00     0.140 C 
ATOM     14  O   UNL     1     -13.299   8.942  16.876  1.00  0.00    -0.299 OA
BRANCH  13  15
ATOM     15  C   UNL     1     -15.182   8.991  18.287  1.00  0.00     0.106 CG0
ATOM     16  G   UNL     1     -15.460   8.040  19.451  1.00  0.00     0.000 G0
ENDBRANCH  13  15
ENDBRANCH  12  13
BRANCH  12  17
ATOM     17  C   UNL     1     -11.386  10.261  18.359  1.00  0.00    -0.006 C 
ATOM     18  C   UNL     1     -10.168   9.963  19.250  1.00  0.00     0.008 C 
ATOM     19  C   UNL     1     -11.358  11.727  17.898  1.00  0.00     0.008 C 
ENDBRANCH  12  17
ENDBRANCH  11  12
ENDBRANCH   1  11
TORSDOF 1
ENDMDL
MODEL 5
REMARK VINA RESULT:    -3.345      9.608     11.071
REMARK INTER + INTRA:          -5.434
REMARK INTER:                  -5.760
REMARK INTRA:                   0.326
REMARK UNBOUND:                -0.329
REMARK SMILES CC1=CCC[C@@H](C)C(=O)C[C@H](C(C)C)C(=O)C1
REMARK SMILES IDX 8 1 9 2 6 3 7 4 5 5 4 6 3 7 2 8 1 9 10 11 11 12 15 13 16 14
REMARK SMILES IDX 17 15 12 17 13 18 14 19
REMARK H PARENT
REMARK Flexibility Score: 70.00
ROOT
ATOM      1  C   UNL     1     -13.316   0.678  28.674  1.00  0.00     0.136 C 
ATOM      2  O   UNL     1     -12.897  -0.134  27.859  1.00  0.00    -0.299 OA
ENDROOT
BRANCH   1   3
ATOM      3  C   UNL     1     -12.579   0.893  29.989  1.00  0.00     0.053 C 
ATOM      4  C   UNL     1     -13.178   0.062  31.137  1.00  0.00     0.016 C 
BRANCH   3   5
ATOM      5  C   UNL     1     -12.493   2.387  30.371  1.00  0.00     0.015 C 
BRANCH   5   6
ATOM      6  C   UNL     1     -11.110   3.007  30.096  1.00  0.00     0.028 C 
BRANCH   6   7
ATOM      7  C   UNL     1     -11.200   4.361  29.442  1.00  0.00    -0.028 C 
ATOM      8  C   UNL     1     -11.561   4.605  28.157  1.00  0.00    -0.070 CG0
ATOM      9  C   UNL     1     -11.683   6.052  27.741  1.00  0.00     0.039 C 
ATOM     10  G   UNL     1     -11.788   3.524  27.101  1.00  0.00     0.000 G0
ENDBRANCH   6   7
ENDBRANCH   5   6
ENDBRANCH   3   5
ENDBRANCH   1   3
BRANCH   1  11
ATOM     11  C   UNL     1     -14.547   1.484  28.333  1.00  0.00     0.087 C 
BRANCH  11  12
ATOM     12  C   UNL     1     -14.226   2.966  27.996  1.00  0.00     0.066 C 
BRANCH  12  13
ATOM     13  C   UNL     1     -13.223   3.142  26.857  1.00  0.00     0.140 C 
ATOM     14  O   UNL     1     -13.576   2.851  25.722  1.00  0.00    -0.299 OA
BRANCH  13  15
ATOM     15  C   UNL     1     -11.781   3.527  27.085  1.00  0.00     0.106 CG0
ATOM     16  G   UNL     1     -11.574   4.599  28.155  1.00  0.00     0.000 G0
ENDBRANCH  13  15
ENDBRANCH  12  13
BRANCH  12  17
ATOM     17  C   UNL     1     -15.521   3.822  27.821  1.00  0.00    -0.006 C 
ATOM     18  C   UNL     1     -15.718   4.916  28.883  1.00  0.00     0.008 C 
ATOM     19  C   UNL     1     -16.777   2.941  27.730  1.00  0.00     0.008 C 
ENDBRANCH  12  17
ENDBRANCH  11  12
ENDBRANCH   1  11
TORSDOF 1
ENDMDL
MODEL 6
REMARK VINA RESULT:    -3.344     11.469     13.328
REMARK INTER + INTRA:          -5.432
REMARK INTER:                  -5.244
REMARK INTRA:                  -0.188
REMARK UNBOUND:                -0.329
REMARK SMILES CC1=CCC[C@@H](C)C(=O)C[C@H](C(C)C)C(=O)C1
REMARK SMILES IDX 8 1 9 2 6 3 7 4 5 5 4 6 3 7 2 8 1 9 10 11 11 12 15 13 16 14
REMARK SMILES IDX 17 15 12 17 13 18 14 19
REMARK H PARENT
REMARK Flexibility Score: 70.00
ROOT
ATOM      1  C   UNL     1     -11.026  10.424  31.450  1.00  0.00     0.136 C 
ATOM      2  O   UNL     1     -10.851  10.962  32.536  1.00  0.00    -0.299 OA
ENDROOT
BRANCH   1   3
ATOM      3  C   UNL     1     -11.407  11.258  30.235  1.00  0.00     0.053 C 
ATOM      4  C   UNL     1     -10.373  12.357  29.932  1.00  0.00     0.016 C 
BRANCH   3   5
ATOM      5  C   UNL     1     -12.828  11.852  30.358  1.00  0.00     0.015 C 
BRANCH   5   6
ATOM      6  C   UNL     1     -13.910  10.984  29.689  1.00  0.00     0.028 C 
BRANCH   6   7
ATOM      7  C   UNL     1     -14.788  10.275  30.689  1.00  0.00    -0.028 C 
ATOM      8  C   UNL     1     -14.740   8.955  30.998  1.00  0.00    -0.070 CG0
ATOM      9  C   UNL     1     -15.646   8.477  32.108  1.00  0.00     0.039 C 
ATOM     10  G   UNL     1     -13.884   7.923  30.263  1.00  0.00     0.000 G0
ENDBRANCH   6   7
ENDBRANCH   5   6
ENDBRANCH   3   5
ENDBRANCH   1   3
BRANCH   1  11
ATOM     11  C   UNL     1     -10.819   8.932  31.334  1.00  0.00     0.087 C 
BRANCH  11  12
ATOM     12  C   UNL     1     -11.910   8.109  32.072  1.00  0.00     0.066 C 
BRANCH  12  13
ATOM     13  C   UNL     1     -12.806   7.291  31.143  1.00  0.00     0.140 C 
ATOM     14  O   UNL     1     -12.568   6.098  31.008  1.00  0.00    -0.299 OA
BRANCH  13  15
ATOM     15  C   UNL     1     -13.882   7.911  30.284  1.00  0.00     0.106 CG0
ATOM     16  G   UNL     1     -14.757   8.935  31.006  1.00  0.00     0.000 G0
ENDBRANCH  13  15
ENDBRANCH  12  13
BRANCH  12  17
ATOM     17  C   UNL     1     -11.320   7.280  33.256  1.00  0.00    -0.006 C 
ATOM     18  C   UNL     1     -12.124   7.363  34.564  1.00  0.00     0.008 C 
ATOM     19  C   UNL     1      -9.847   7.629  33.517  1.00  0.00     0.008 C 
ENDBRANCH  12  17
ENDBRANCH  11  12
ENDBRANCH   1  11
TORSDOF 1
ENDMDL
MODEL 7
REMARK VINA RESULT:    -3.330      9.990     12.131
REMARK INTER + INTRA:          -5.412
REMARK INTER:                  -5.077
REMARK INTRA:                  -0.335
REMARK UNBOUND:                -0.329
REMARK SMILES CC1=CCC[C@@H](C)C(=O)C[C@H](C(C)C)C(=O)C1
REMARK SMILES IDX 8 1 9 2 6 3 7 4 5 5 4 6 3 7 2 8 1 9 10 11 11 12 15 13 16 14
REMARK SMILES IDX 17 15 12 17 13 18 14 19
REMARK H PARENT
REMARK Flexibility Score: 70.00
ROOT
ATOM      1  C   UNL     1     -10.134   8.145  34.067  1.00  0.00     0.136 C 
ATOM      2  O   UNL     1      -9.382   7.587  34.855  1.00  0.00    -0.299 OA
ENDROOT
BRANCH   1   3
ATOM      3  C   UNL     1     -11.534   7.597  33.825  1.00  0.00     0.053 C 
ATOM      4  C   UNL     1     -12.294   7.336  35.137  1.00  0.00     0.016 C 
BRANCH   3   5
ATOM      5  C   UNL     1     -11.519   6.336  32.932  1.00  0.00     0.015 C 
BRANCH   5   6
ATOM      6  C   UNL     1     -12.200   6.550  31.567  1.00  0.00     0.028 C 
BRANCH   6   7
ATOM      7  C   UNL     1     -13.210   7.668  31.590  1.00  0.00    -0.028 C 
ATOM      8  C   UNL     1     -13.086   8.869  30.970  1.00  0.00    -0.070 CG0
ATOM      9  C   UNL     1     -14.271   9.803  31.042  1.00  0.00     0.039 C 
ATOM     10  G   UNL     1     -11.819   9.354  30.267  1.00  0.00     0.000 G0
ENDBRANCH   6   7
ENDBRANCH   5   6
ENDBRANCH   3   5
ENDBRANCH   1   3
BRANCH   1  11
ATOM     11  C   UNL     1      -9.662   9.401  33.373  1.00  0.00     0.087 C 
BRANCH  11  12
ATOM     12  C   UNL     1      -9.659   9.275  31.825  1.00  0.00     0.066 C 
BRANCH  12  13
ATOM     13  C   UNL     1     -10.789  10.040  31.137  1.00  0.00     0.140 C 
ATOM     14  O   UNL     1     -10.936  11.225  31.404  1.00  0.00    -0.299 OA
BRANCH  13  15
ATOM     15  C   UNL     1     -11.812   9.371  30.250  1.00  0.00     0.106 CG0
ATOM     16  G   UNL     1     -13.068   8.894  30.979  1.00  0.00     0.000 G0
ENDBRANCH  13  15
ENDBRANCH  12  13
BRANCH  12  17
ATOM     17  C   UNL     1      -8.252   9.564  31.215  1.00  0.00    -0.006 C 
ATOM     18  C   UNL     1      -8.229   9.693  29.683  1.00  0.00     0.008 C 
ATOM     19  C   UNL     1      -7.210   8.533  31.674  1.00  0.00     0.008 C 
ENDBRANCH  12  17
ENDBRANCH  11  12
ENDBRANCH   1  11
TORSDOF 1
ENDMDL
MODEL 8
REMARK VINA RESULT:    -3.088      1.910      3.178
REMARK INTER + INTRA:          -5.042
REMARK INTER:                  -4.751
REMARK INTRA:                  -0.291
REMARK UNBOUND:                -0.329
REMARK SMILES CC1=CCC[C@@H](C)C(=O)C[C@H](C(C)C)C(=O)C1
REMARK SMILES IDX 8 1 9 2 6 3 7 4 5 5 4 6 3 7 2 8 1 9 10 11 11 12 15 13 16 14
REMARK SMILES IDX 17 15 12 17 13 18 14 19
REMARK H PARENT
REMARK Flexibility Score: 70.00
ROOT
ATOM      1  C   UNL     1      -3.610   1.592  31.189  1.00  0.00     0.136 C 
ATOM      2  O   UNL     1      -4.201   1.113  32.149  1.00  0.00    -0.299 OA
ENDROOT
BRANCH   1   3
ATOM      3  C   UNL     1      -3.178   0.700  30.033  1.00  0.00     0.053 C 
ATOM      4  C   UNL     1      -4.173  -0.446  29.776  1.00  0.00     0.016 C 
BRANCH   3   5
ATOM      5  C   UNL     1      -1.744   0.158  30.220  1.00  0.00     0.015 C 
BRANCH   5   6
ATOM      6  C   UNL     1      -0.830   0.425  29.009  1.00  0.00     0.028 C 
BRANCH   6   7
ATOM      7  C   UNL     1      -1.268   1.620  28.203  1.00  0.00    -0.028 C 
ATOM      8  C   UNL     1      -0.945   2.915  28.454  1.00  0.00    -0.070 CG0
ATOM      9  C   UNL     1      -1.411   3.945  27.452  1.00  0.00     0.039 C 
ATOM     10  G   UNL     1      -0.203   3.396  29.700  1.00  0.00     0.000 G0
ENDBRANCH   6   7
ENDBRANCH   5   6
ENDBRANCH   3   5
ENDBRANCH   1   3
BRANCH   1  11
ATOM     11  C   UNL     1      -3.355   3.080  31.159  1.00  0.00     0.087 C 
BRANCH  11  12
ATOM     12  C   UNL     1      -1.954   3.467  31.709  1.00  0.00     0.066 C 
BRANCH  12  13
ATOM     13  C   UNL     1      -1.056   4.165  30.689  1.00  0.00     0.140 C 
ATOM     14  O   UNL     1      -1.117   5.384  30.600  1.00  0.00    -0.299 OA
BRANCH  13  15
ATOM     15  C   UNL     1      -0.201   3.413  29.698  1.00  0.00     0.106 CG0
ATOM     16  G   UNL     1      -0.945   2.937  28.452  1.00  0.00     0.000 G0
ENDBRANCH  13  15
ENDBRANCH  12  13
BRANCH  12  17
ATOM     17  C   UNL     1      -2.048   4.220  33.074  1.00  0.00    -0.006 C 
ATOM     18  C   UNL     1      -1.143   3.658  34.183  1.00  0.00     0.008 C 
ATOM     19  C   UNL     1      -3.498   4.317  33.572  1.00  0.00     0.008 C 
ENDBRANCH  12  17
ENDBRANCH  11  12
ENDBRANCH   1  11
TORSDOF 1
ENDMDL
MODEL 9
REMARK VINA RESULT:    -3.032      2.103      3.850
REMARK INTER + INTRA:          -4.957
REMARK INTER:                  -4.760
REMARK INTRA:                  -0.197
REMARK UNBOUND:                -0.329
REMARK SMILES CC1=CCC[C@@H](C)C(=O)C[C@H](C(C)C)C(=O)C1
REMARK SMILES IDX 8 1 9 2 6 3 7 4 5 5 4 6 3 7 2 8 1 9 10 11 11 12 15 13 16 14
REMARK SMILES IDX 17 15 12 17 13 18 14 19
REMARK H PARENT
REMARK Flexibility Score: 70.00
ROOT
ATOM      1  C   UNL     1      -2.374   1.877  27.016  1.00  0.00     0.136 C 
ATOM      2  O   UNL     1      -3.571   1.729  27.226  1.00  0.00    -0.299 OA
ENDROOT
BRANCH   1   3
ATOM      3  C   UNL     1      -1.488   0.668  26.747  1.00  0.00     0.053 C 
ATOM      4  C   UNL     1      -2.155  -0.346  25.801  1.00  0.00     0.016 C 
BRANCH   3   5
ATOM      5  C   UNL     1      -1.021  -0.014  28.052  1.00  0.00     0.015 C 
BRANCH   5   6
ATOM      6  C   UNL     1      -0.235   0.929  28.983  1.00  0.00     0.028 C 
BRANCH   6   7
ATOM      7  C   UNL     1      -1.011   1.304  30.219  1.00  0.00    -0.028 C 
ATOM      8  C   UNL     1      -1.422   2.553  30.556  1.00  0.00    -0.070 CG0
ATOM      9  C   UNL     1      -2.278   2.683  31.794  1.00  0.00     0.039 C 
ATOM     10  G   UNL     1      -1.027   3.825  29.808  1.00  0.00     0.000 G0
ENDBRANCH   6   7
ENDBRANCH   5   6
ENDBRANCH   3   5
ENDBRANCH   1   3
BRANCH   1  11
ATOM     11  C   UNL     1      -1.806   3.276  26.990  1.00  0.00     0.087 C 
BRANCH  11  12
ATOM     12  C   UNL     1      -2.675   4.298  27.775  1.00  0.00     0.066 C 
BRANCH  12  13
ATOM     13  C   UNL     1      -2.163   4.596  29.184  1.00  0.00     0.140 C 
ATOM     14  O   UNL     1      -2.630   5.556  29.781  1.00  0.00    -0.299 OA
BRANCH  13  15
ATOM     15  C   UNL     1      -1.016   3.844  29.816  1.00  0.00     0.106 CG0
ATOM     16  G   UNL     1      -1.423   2.565  30.546  1.00  0.00     0.000 G0
ENDBRANCH  13  15
ENDBRANCH  12  13
BRANCH  12  17
ATOM     17  C   UNL     1      -2.973   5.581  26.938  1.00  0.00    -0.006 C 
ATOM     18  C   UNL     1      -4.461   5.826  26.641  1.00  0.00     0.008 C 
ATOM     19  C   UNL     1      -2.162   5.610  25.633  1.00  0.00     0.008 C 
ENDBRANCH  12  17
ENDBRANCH  11  12
ENDBRANCH   1  11
TORSDOF 1
ENDMDL
