MODEL 1
REMARK VINA RESULT:    -3.642      0.000      0.000
REMARK INTER + INTRA:          -4.311
REMARK INTER:                  -4.280
REMARK INTRA:                  -0.030
REMARK UNBOUND:                -0.030
REMARK SMILES [NH3+][C@@H](CO)C(=O)[O-]
REMARK SMILES IDX 3 1 2 2 1 3 5 7 6 8 7 9 4 10
REMARK H PARENT 1 4 1 5 1 6 4 11
REMARK Flexibility Score: inf
ROOT
ATOM      1  C   UNL     1       7.978   6.641  15.982  1.00  0.00     0.227 C 
ENDROOT
BRANCH   1   2
ATOM      2  C   UNL     1       7.391   6.756  14.563  1.00  0.00     0.253 C 
BRANCH   2   3
ATOM      3  N   UNL     1       6.772   8.069  14.346  1.00  0.00    -0.348 N 
ATOM      4  H   UNL     1       6.917   8.369  13.355  1.00  0.00     0.345 HD
ATOM      5  H   UNL     1       7.183   8.789  14.985  1.00  0.00     0.345 HD
ATOM      6  H   UNL     1       5.742   8.007  14.522  1.00  0.00     0.345 HD
ENDBRANCH   2   3
BRANCH   2   7
ATOM      7  C   UNL     1       6.414   5.641  14.294  1.00  0.00     0.102 C 
ATOM      8  O   UNL     1       5.881   5.513  13.158  1.00  0.00    -0.544 OA
ATOM      9  O   UNL     1       6.057   4.772  15.317  1.00  0.00    -0.544 OA
ENDBRANCH   2   7
ENDBRANCH   1   2
BRANCH   1  10
ATOM     10  O   UNL     1       9.333   6.278  15.948  1.00  0.00    -0.390 OA
ATOM     11  H   UNL     1       9.630   6.181  16.889  1.00  0.00     0.210 HD
ENDBRANCH   1  10
TORSDOF 4
ENDMDL
MODEL 2
REMARK VINA RESULT:    -3.610      3.189      4.099
REMARK INTER + INTRA:          -4.273
REMARK INTER:                  -3.909
REMARK INTRA:                  -0.364
REMARK UNBOUND:                -0.030
REMARK SMILES [NH3+][C@@H](CO)C(=O)[O-]
REMARK SMILES IDX 3 1 2 2 1 3 5 7 6 8 7 9 4 10
REMARK H PARENT 1 4 1 5 1 6 4 11
REMARK Flexibility Score: inf
ROOT
ATOM      1  C   UNL     1       5.707   2.482  12.140  1.00  0.00     0.227 C 
ENDROOT
BRANCH   1   2
ATOM      2  C   UNL     1       4.974   3.803  12.435  1.00  0.00     0.253 C 
BRANCH   2   3
ATOM      3  N   UNL     1       4.608   4.498  11.195  1.00  0.00    -0.348 N 
ATOM      4  H   UNL     1       3.606   4.305  10.966  1.00  0.00     0.345 HD
ATOM      5  H   UNL     1       5.208   4.185  10.397  1.00  0.00     0.345 HD
ATOM      6  H   UNL     1       4.721   5.531  11.322  1.00  0.00     0.345 HD
ENDBRANCH   2   3
BRANCH   2   7
ATOM      7  C   UNL     1       5.801   4.688  13.333  1.00  0.00     0.102 C 
ATOM      8  O   UNL     1       6.398   5.696  12.868  1.00  0.00    -0.544 OA
ATOM      9  O   UNL     1       5.947   4.367  14.676  1.00  0.00    -0.544 OA
ENDBRANCH   2   7
ENDBRANCH   1   2
BRANCH   1  10
ATOM     10  O   UNL     1       7.052   2.543  12.538  1.00  0.00    -0.390 OA
ATOM     11  H   UNL     1       7.538   1.849  12.021  1.00  0.00     0.210 HD
ENDBRANCH   1  10
TORSDOF 4
ENDMDL
MODEL 3
REMARK VINA RESULT:    -3.537      1.853      3.126
REMARK INTER + INTRA:          -4.187
REMARK INTER:                  -3.956
REMARK INTRA:                  -0.231
REMARK UNBOUND:                -0.030
REMARK SMILES [NH3+][C@@H](CO)C(=O)[O-]
REMARK SMILES IDX 3 1 2 2 1 3 5 7 6 8 7 9 4 10
REMARK H PARENT 1 4 1 5 1 6 4 11
REMARK Flexibility Score: inf
ROOT
ATOM      1  C   UNL     1       5.533   4.341  12.939  1.00  0.00     0.227 C 
ENDROOT
BRANCH   1   2
ATOM      2  C   UNL     1       6.079   5.621  13.598  1.00  0.00     0.253 C 
BRANCH   2   3
ATOM      3  N   UNL     1       7.212   6.170  12.840  1.00  0.00    -0.348 N 
ATOM      4  H   UNL     1       7.129   5.895  11.834  1.00  0.00     0.345 HD
ATOM      5  H   UNL     1       8.122   5.818  13.217  1.00  0.00     0.345 HD
ATOM      6  H   UNL     1       7.200   7.215  12.896  1.00  0.00     0.345 HD
ENDBRANCH   2   3
BRANCH   2   7
ATOM      7  C   UNL     1       6.457   5.368  15.035  1.00  0.00     0.102 C 
ATOM      8  O   UNL     1       5.921   4.430  15.684  1.00  0.00    -0.544 OA
ATOM      9  O   UNL     1       7.369   6.203  15.667  1.00  0.00    -0.544 OA
ENDBRANCH   2   7
ENDBRANCH   1   2
BRANCH   1  10
ATOM     10  O   UNL     1       6.463   3.293  13.010  1.00  0.00    -0.390 OA
ATOM     11  H   UNL     1       6.431   2.818  12.139  1.00  0.00     0.210 HD
ENDBRANCH   1  10
TORSDOF 4
ENDMDL
MODEL 4
REMARK VINA RESULT:    -3.447      1.919      2.639
REMARK INTER + INTRA:          -4.082
REMARK INTER:                  -3.865
REMARK INTRA:                  -0.217
REMARK UNBOUND:                -0.030
REMARK SMILES [NH3+][C@@H](CO)C(=O)[O-]
REMARK SMILES IDX 3 1 2 2 1 3 5 7 6 8 7 9 4 10
REMARK H PARENT 1 4 1 5 1 6 4 11
REMARK Flexibility Score: inf
ROOT
ATOM      1  C   UNL     1       7.629   7.481  13.625  1.00  0.00     0.227 C 
ENDROOT
BRANCH   1   2
ATOM      2  C   UNL     1       7.110   6.134  14.161  1.00  0.00     0.253 C 
BRANCH   2   3
ATOM      3  N   UNL     1       5.783   5.819  13.618  1.00  0.00    -0.348 N 
ATOM      4  H   UNL     1       5.827   4.928  13.072  1.00  0.00     0.345 HD
ATOM      5  H   UNL     1       5.441   6.586  12.993  1.00  0.00     0.345 HD
ATOM      6  H   UNL     1       5.102   5.689  14.402  1.00  0.00     0.345 HD
ENDBRANCH   2   3
BRANCH   2   7
ATOM      7  C   UNL     1       7.099   6.123  15.668  1.00  0.00     0.102 C 
ATOM      8  O   UNL     1       6.287   5.395  16.300  1.00  0.00    -0.544 OA
ATOM      9  O   UNL     1       7.958   6.958  16.372  1.00  0.00    -0.544 OA
ENDBRANCH   2   7
ENDBRANCH   1   2
BRANCH   1  10
ATOM     10  O   UNL     1       7.061   8.560  14.319  1.00  0.00    -0.390 OA
ATOM     11  H   UNL     1       7.566   8.655  15.168  1.00  0.00     0.210 HD
ENDBRANCH   1  10
TORSDOF 4
ENDMDL
MODEL 5
REMARK VINA RESULT:    -3.437      1.919      2.452
REMARK INTER + INTRA:          -4.070
REMARK INTER:                  -3.856
REMARK INTRA:                  -0.214
REMARK UNBOUND:                -0.030
REMARK SMILES [NH3+][C@@H](CO)C(=O)[O-]
REMARK SMILES IDX 3 1 2 2 1 3 5 7 6 8 7 9 4 10
REMARK H PARENT 1 4 1 5 1 6 4 11
REMARK Flexibility Score: inf
ROOT
ATOM      1  C   UNL     1       7.527   7.680  14.336  1.00  0.00     0.227 C 
ENDROOT
BRANCH   1   2
ATOM      2  C   UNL     1       7.145   6.666  15.430  1.00  0.00     0.253 C 
BRANCH   2   3
ATOM      3  N   UNL     1       8.333   6.174  16.140  1.00  0.00    -0.348 N 
ATOM      4  H   UNL     1       8.701   5.321  15.661  1.00  0.00     0.345 HD
ATOM      5  H   UNL     1       8.106   5.937  17.133  1.00  0.00     0.345 HD
ATOM      6  H   UNL     1       9.080   6.906  16.126  1.00  0.00     0.345 HD
ENDBRANCH   2   3
BRANCH   2   7
ATOM      7  C   UNL     1       6.344   5.527  14.852  1.00  0.00     0.102 C 
ATOM      8  O   UNL     1       6.019   4.542  15.567  1.00  0.00    -0.544 OA
ATOM      9  O   UNL     1       6.001   5.537  13.506  1.00  0.00    -0.544 OA
ENDBRANCH   2   7
ENDBRANCH   1   2
BRANCH   1  10
ATOM     10  O   UNL     1       6.449   8.519  14.016  1.00  0.00    -0.390 OA
ATOM     11  H   UNL     1       6.827   9.414  13.817  1.00  0.00     0.210 HD
ENDBRANCH   1  10
TORSDOF 4
ENDMDL
MODEL 6
REMARK VINA RESULT:    -3.400      3.678      4.908
REMARK INTER + INTRA:          -4.026
REMARK INTER:                  -3.681
REMARK INTRA:                  -0.345
REMARK UNBOUND:                -0.030
REMARK SMILES [NH3+][C@@H](CO)C(=O)[O-]
REMARK SMILES IDX 3 1 2 2 1 3 5 7 6 8 7 9 4 10
REMARK H PARENT 1 4 1 5 1 6 4 11
REMARK Flexibility Score: inf
ROOT
ATOM      1  C   UNL     1       4.470   2.741  11.669  1.00  0.00     0.227 C 
ENDROOT
BRANCH   1   2
ATOM      2  C   UNL     1       5.922   3.169  11.953  1.00  0.00     0.253 C 
BRANCH   2   3
ATOM      3  N   UNL     1       6.711   2.052  12.488  1.00  0.00    -0.348 N 
ATOM      4  H   UNL     1       7.097   1.483  11.700  1.00  0.00     0.345 HD
ATOM      5  H   UNL     1       6.126   1.436  13.099  1.00  0.00     0.345 HD
ATOM      6  H   UNL     1       7.514   2.424  13.048  1.00  0.00     0.345 HD
ENDBRANCH   2   3
BRANCH   2   7
ATOM      7  C   UNL     1       5.962   4.358  12.879  1.00  0.00     0.102 C 
ATOM      8  O   UNL     1       6.140   5.520  12.425  1.00  0.00    -0.544 OA
ATOM      9  O   UNL     1       5.848   4.169  14.250  1.00  0.00    -0.544 OA
ENDBRANCH   2   7
ENDBRANCH   1   2
BRANCH   1  10
ATOM     10  O   UNL     1       3.559   3.738  12.053  1.00  0.00    -0.390 OA
ATOM     11  H   UNL     1       2.837   3.288  12.564  1.00  0.00     0.210 HD
ENDBRANCH   1  10
TORSDOF 4
ENDMDL
MODEL 7
REMARK VINA RESULT:    -3.399      6.981      8.124
REMARK INTER + INTRA:          -4.026
REMARK INTER:                  -4.021
REMARK INTRA:                  -0.005
REMARK UNBOUND:                -0.030
REMARK SMILES [NH3+][C@@H](CO)C(=O)[O-]
REMARK SMILES IDX 3 1 2 2 1 3 5 7 6 8 7 9 4 10
REMARK H PARENT 1 4 1 5 1 6 4 11
REMARK Flexibility Score: inf
ROOT
ATOM      1  C   UNL     1       1.801  -0.019  11.756  1.00  0.00     0.227 C 
ENDROOT
BRANCH   1   2
ATOM      2  C   UNL     1       1.552   1.404  12.288  1.00  0.00     0.253 C 
BRANCH   2   3
ATOM      3  N   UNL     1       0.119   1.725  12.300  1.00  0.00    -0.348 N 
ATOM      4  H   UNL     1      -0.346   1.233  13.096  1.00  0.00     0.345 HD
ATOM      5  H   UNL     1      -0.339   1.435  11.404  1.00  0.00     0.345 HD
ATOM      6  H   UNL     1      -0.011   2.756  12.431  1.00  0.00     0.345 HD
ENDBRANCH   2   3
BRANCH   2   7
ATOM      7  C   UNL     1       2.332   2.420  11.493  1.00  0.00     0.102 C 
ATOM      8  O   UNL     1       2.123   2.569  10.259  1.00  0.00    -0.544 OA
ATOM      9  O   UNL     1       3.324   3.168  12.113  1.00  0.00    -0.544 OA
ENDBRANCH   2   7
ENDBRANCH   1   2
BRANCH   1  10
ATOM     10  O   UNL     1       1.825  -0.958  12.800  1.00  0.00    -0.390 OA
ATOM     11  H   UNL     1       2.776  -1.084  13.054  1.00  0.00     0.210 HD
ENDBRANCH   1  10
TORSDOF 4
ENDMDL
MODEL 8
REMARK VINA RESULT:    -3.390      3.498      4.256
REMARK INTER + INTRA:          -4.014
REMARK INTER:                  -3.768
REMARK INTRA:                  -0.246
REMARK UNBOUND:                -0.030
REMARK SMILES [NH3+][C@@H](CO)C(=O)[O-]
REMARK SMILES IDX 3 1 2 2 1 3 5 7 6 8 7 9 4 10
REMARK H PARENT 1 4 1 5 1 6 4 11
REMARK Flexibility Score: inf
ROOT
ATOM      1  C   UNL     1       5.693   4.967  13.225  1.00  0.00     0.227 C 
ENDROOT
BRANCH   1   2
ATOM      2  C   UNL     1       5.152   4.343  11.925  1.00  0.00     0.253 C 
BRANCH   2   3
ATOM      3  N   UNL     1       3.771   3.874  12.093  1.00  0.00    -0.348 N 
ATOM      4  H   UNL     1       3.181   4.645  12.482  1.00  0.00     0.345 HD
ATOM      5  H   UNL     1       3.729   3.052  12.740  1.00  0.00     0.345 HD
ATOM      6  H   UNL     1       3.377   3.597  11.164  1.00  0.00     0.345 HD
ENDBRANCH   2   3
BRANCH   2   7
ATOM      7  C   UNL     1       6.051   3.232  11.447  1.00  0.00     0.102 C 
ATOM      8  O   UNL     1       6.800   3.396  10.446  1.00  0.00    -0.544 OA
ATOM      9  O   UNL     1       6.022   1.997  12.083  1.00  0.00    -0.544 OA
ENDBRANCH   2   7
ENDBRANCH   1   2
BRANCH   1  10
ATOM     10  O   UNL     1       6.537   4.077  13.906  1.00  0.00    -0.390 OA
ATOM     11  H   UNL     1       7.347   4.587  14.165  1.00  0.00     0.210 HD
ENDBRANCH   1  10
TORSDOF 4
ENDMDL
MODEL 9
REMARK VINA RESULT:    -3.358      3.682      4.715
REMARK INTER + INTRA:          -3.977
REMARK INTER:                  -3.751
REMARK INTRA:                  -0.227
REMARK UNBOUND:                -0.030
REMARK SMILES [NH3+][C@@H](CO)C(=O)[O-]
REMARK SMILES IDX 3 1 2 2 1 3 5 7 6 8 7 9 4 10
REMARK H PARENT 1 4 1 5 1 6 4 11
REMARK Flexibility Score: inf
ROOT
ATOM      1  C   UNL     1       5.623   4.882  12.893  1.00  0.00     0.227 C 
ENDROOT
BRANCH   1   2
ATOM      2  C   UNL     1       5.451   3.441  12.378  1.00  0.00     0.253 C 
BRANCH   2   3
ATOM      3  N   UNL     1       6.721   2.704  12.423  1.00  0.00    -0.348 N 
ATOM      4  H   UNL     1       7.286   3.026  13.241  1.00  0.00     0.345 HD
ATOM      5  H   UNL     1       7.273   2.852  11.546  1.00  0.00     0.345 HD
ATOM      6  H   UNL     1       6.530   1.681  12.537  1.00  0.00     0.345 HD
ENDBRANCH   2   3
BRANCH   2   7
ATOM      7  C   UNL     1       4.864   3.433  10.989  1.00  0.00     0.102 C 
ATOM      8  O   UNL     1       4.009   2.568  10.658  1.00  0.00    -0.544 OA
ATOM      9  O   UNL     1       5.303   4.355  10.048  1.00  0.00    -0.544 OA
ENDBRANCH   2   7
ENDBRANCH   1   2
BRANCH   1  10
ATOM     10  O   UNL     1       6.758   5.492  12.337  1.00  0.00    -0.390 OA
ATOM     11  H   UNL     1       6.488   6.406  12.060  1.00  0.00     0.210 HD
ENDBRANCH   1  10
TORSDOF 4
ENDMDL
