MODEL 1
REMARK VINA RESULT:    -4.266      0.000      0.000
REMARK INTER + INTRA:          -5.607
REMARK INTER:                  -5.513
REMARK INTRA:                  -0.094
REMARK UNBOUND:                -0.094
REMARK SMILES CCCCCCC(C)=O
REMARK SMILES IDX 4 1 3 2 2 3 1 4 5 5 6 6 7 7 9 8 8 9
REMARK H PARENT
REMARK Flexibility Score: inf
ROOT
ATOM      1  C   UNL     1      28.064  46.863  -1.094  1.00  0.00     0.000 C 
ENDROOT
BRANCH   1   2
ATOM      2  C   UNL     1      26.532  46.958  -1.153  1.00  0.00    -0.000 C 
BRANCH   2   3
ATOM      3  C   UNL     1      26.046  48.126  -2.026  1.00  0.00    -0.003 C 
ATOM      4  C   UNL     1      24.753  47.807  -2.775  1.00  0.00     0.004 C 
ENDBRANCH   2   3
ENDBRANCH   1   2
BRANCH   1   5
ATOM      5  C   UNL     1      28.508  45.512  -0.514  1.00  0.00     0.008 C 
BRANCH   5   6
ATOM      6  C   UNL     1      29.714  45.656   0.425  1.00  0.00     0.075 C 
BRANCH   6   7
ATOM      7  C   UNL     1      30.704  44.532   0.244  1.00  0.00     0.129 C 
ATOM      8  O   UNL     1      30.621  43.811  -0.738  1.00  0.00    -0.300 OA
ATOM      9  C   UNL     1      31.785  44.277   1.250  1.00  0.00     0.087 C 
ENDBRANCH   6   7
ENDBRANCH   5   6
ENDBRANCH   1   5
TORSDOF 5
ENDMDL
MODEL 2
REMARK VINA RESULT:    -4.123      1.081      1.211
REMARK INTER + INTRA:          -5.422
REMARK INTER:                  -5.305
REMARK INTRA:                  -0.116
REMARK UNBOUND:                -0.094
REMARK SMILES CCCCCCC(C)=O
REMARK SMILES IDX 4 1 3 2 2 3 1 4 5 5 6 6 7 7 9 8 8 9
REMARK H PARENT
REMARK Flexibility Score: inf
ROOT
ATOM      1  C   UNL     1      27.895  45.718  -0.745  1.00  0.00     0.000 C 
ENDROOT
BRANCH   1   2
ATOM      2  C   UNL     1      27.249  47.110  -0.810  1.00  0.00    -0.000 C 
BRANCH   2   3
ATOM      3  C   UNL     1      26.883  47.525  -2.243  1.00  0.00    -0.003 C 
ATOM      4  C   UNL     1      25.411  47.908  -2.391  1.00  0.00     0.004 C 
ENDBRANCH   2   3
ENDBRANCH   1   2
BRANCH   1   5
ATOM      5  C   UNL     1      29.254  45.775  -0.032  1.00  0.00     0.008 C 
BRANCH   5   6
ATOM      6  C   UNL     1      30.050  44.474  -0.202  1.00  0.00     0.075 C 
BRANCH   6   7
ATOM      7  C   UNL     1      31.242  44.421   0.720  1.00  0.00     0.129 C 
ATOM      8  O   UNL     1      31.868  43.379   0.834  1.00  0.00    -0.300 OA
ATOM      9  C   UNL     1      31.672  45.622   1.508  1.00  0.00     0.087 C 
ENDBRANCH   6   7
ENDBRANCH   5   6
ENDBRANCH   1   5
TORSDOF 5
ENDMDL
MODEL 3
REMARK VINA RESULT:    -3.980     13.389     15.621
REMARK INTER + INTRA:          -5.237
REMARK INTER:                  -5.011
REMARK INTRA:                  -0.226
REMARK UNBOUND:                -0.094
REMARK SMILES CCCCCCC(C)=O
REMARK SMILES IDX 4 1 3 2 2 3 1 4 5 5 6 6 7 7 9 8 8 9
REMARK H PARENT
REMARK Flexibility Score: inf
ROOT
ATOM      1  C   UNL     1      25.064  57.868  -8.746  1.00  0.00     0.000 C 
ENDROOT
BRANCH   1   2
ATOM      2  C   UNL     1      25.958  56.641  -8.511  1.00  0.00    -0.000 C 
BRANCH   2   3
ATOM      3  C   UNL     1      25.149  55.374  -8.192  1.00  0.00    -0.003 C 
ATOM      4  C   UNL     1      23.746  55.683  -7.669  1.00  0.00     0.004 C 
ENDBRANCH   2   3
ENDBRANCH   1   2
BRANCH   1   5
ATOM      5  C   UNL     1      25.869  59.025  -9.357  1.00  0.00     0.008 C 
BRANCH   5   6
ATOM      6  C   UNL     1      27.031  58.524 -10.224  1.00  0.00     0.075 C 
BRANCH   6   7
ATOM      7  C   UNL     1      28.033  59.617 -10.505  1.00  0.00     0.129 C 
ATOM      8  O   UNL     1      29.105  59.332 -11.015  1.00  0.00    -0.300 OA
ATOM      9  C   UNL     1      27.742  61.048 -10.165  1.00  0.00     0.087 C 
ENDBRANCH   6   7
ENDBRANCH   5   6
ENDBRANCH   1   5
TORSDOF 5
ENDMDL
MODEL 4
REMARK VINA RESULT:    -3.862     12.858     15.215
REMARK INTER + INTRA:          -5.085
REMARK INTER:                  -4.999
REMARK INTRA:                  -0.086
REMARK UNBOUND:                -0.094
REMARK SMILES CCCCCCC(C)=O
REMARK SMILES IDX 4 1 3 2 2 3 1 4 5 5 6 6 7 7 9 8 8 9
REMARK H PARENT
REMARK Flexibility Score: inf
ROOT
ATOM      1  C   UNL     1      26.271  58.827  -9.438  1.00  0.00     0.000 C 
ENDROOT
BRANCH   1   2
ATOM      2  C   UNL     1      27.394  59.032 -10.466  1.00  0.00    -0.000 C 
BRANCH   2   3
ATOM      3  C   UNL     1      27.895  60.484 -10.512  1.00  0.00    -0.003 C 
ATOM      4  C   UNL     1      29.393  60.603 -10.235  1.00  0.00     0.004 C 
ENDBRANCH   2   3
ENDBRANCH   1   2
BRANCH   1   5
ATOM      5  C   UNL     1      25.966  57.334  -9.248  1.00  0.00     0.008 C 
BRANCH   5   6
ATOM      6  C   UNL     1      24.599  57.105  -8.587  1.00  0.00     0.075 C 
BRANCH   6   7
ATOM      7  C   UNL     1      24.492  55.726  -7.985  1.00  0.00     0.129 C 
ATOM      8  O   UNL     1      25.481  55.012  -7.938  1.00  0.00    -0.300 OA
ATOM      9  C   UNL     1      23.191  55.209  -7.448  1.00  0.00     0.087 C 
ENDBRANCH   6   7
ENDBRANCH   5   6
ENDBRANCH   1   5
TORSDOF 5
ENDMDL
MODEL 5
REMARK VINA RESULT:    -3.807      2.147      5.637
REMARK INTER + INTRA:          -5.013
REMARK INTER:                  -4.891
REMARK INTRA:                  -0.122
REMARK UNBOUND:                -0.094
REMARK SMILES CCCCCCC(C)=O
REMARK SMILES IDX 4 1 3 2 2 3 1 4 5 5 6 6 7 7 9 8 8 9
REMARK H PARENT
REMARK Flexibility Score: inf
ROOT
ATOM      1  C   UNL     1      29.207  44.950  -0.317  1.00  0.00     0.000 C 
ENDROOT
BRANCH   1   2
ATOM      2  C   UNL     1      30.588  45.166   0.321  1.00  0.00    -0.000 C 
BRANCH   2   3
ATOM      3  C   UNL     1      31.470  43.909   0.257  1.00  0.00    -0.003 C 
ATOM      4  C   UNL     1      31.468  43.254  -1.124  1.00  0.00     0.004 C 
ENDBRANCH   2   3
ENDBRANCH   1   2
BRANCH   1   5
ATOM      5  C   UNL     1      28.454  46.281  -0.460  1.00  0.00     0.008 C 
BRANCH   5   6
ATOM      6  C   UNL     1      27.120  46.111  -1.200  1.00  0.00     0.075 C 
BRANCH   6   7
ATOM      7  C   UNL     1      26.666  47.399  -1.841  1.00  0.00     0.129 C 
ATOM      8  O   UNL     1      27.405  48.372  -1.824  1.00  0.00    -0.300 OA
ATOM      9  C   UNL     1      25.321  47.514  -2.493  1.00  0.00     0.087 C 
ENDBRANCH   6   7
ENDBRANCH   5   6
ENDBRANCH   1   5
TORSDOF 5
ENDMDL
MODEL 6
REMARK VINA RESULT:    -3.713      1.993      5.510
REMARK INTER + INTRA:          -4.892
REMARK INTER:                  -4.733
REMARK INTRA:                  -0.160
REMARK UNBOUND:                -0.094
REMARK SMILES CCCCCCC(C)=O
REMARK SMILES IDX 4 1 3 2 2 3 1 4 5 5 6 6 7 7 9 8 8 9
REMARK H PARENT
REMARK Flexibility Score: inf
ROOT
ATOM      1  C   UNL     1      30.440  44.453   0.262  1.00  0.00     0.000 C 
ENDROOT
BRANCH   1   2
ATOM      2  C   UNL     1      30.832  45.600   1.207  1.00  0.00    -0.000 C 
BRANCH   2   3
ATOM      3  C   UNL     1      32.351  45.826   1.262  1.00  0.00    -0.003 C 
ATOM      4  C   UNL     1      32.812  46.423   2.591  1.00  0.00     0.004 C 
ENDBRANCH   2   3
ENDBRANCH   1   2
BRANCH   1   5
ATOM      5  C   UNL     1      29.098  44.742  -0.426  1.00  0.00     0.008 C 
BRANCH   5   6
ATOM      6  C   UNL     1      28.757  46.239  -0.418  1.00  0.00     0.075 C 
BRANCH   6   7
ATOM      7  C   UNL     1      27.430  46.515  -1.080  1.00  0.00     0.129 C 
ATOM      8  O   UNL     1      26.550  45.671  -1.037  1.00  0.00    -0.300 OA
ATOM      9  C   UNL     1      27.171  47.806  -1.798  1.00  0.00     0.087 C 
ENDBRANCH   6   7
ENDBRANCH   5   6
ENDBRANCH   1   5
TORSDOF 5
ENDMDL
MODEL 7
REMARK VINA RESULT:    -3.653     16.919     17.983
REMARK INTER + INTRA:          -4.815
REMARK INTER:                  -4.553
REMARK INTRA:                  -0.262
REMARK UNBOUND:                -0.094
REMARK SMILES CCCCCCC(C)=O
REMARK SMILES IDX 4 1 3 2 2 3 1 4 5 5 6 6 7 7 9 8 8 9
REMARK H PARENT
REMARK Flexibility Score: inf
ROOT
ATOM      1  C   UNL     1      29.952  57.824 -13.159  1.00  0.00     0.000 C 
ENDROOT
BRANCH   1   2
ATOM      2  C   UNL     1      31.152  56.914 -13.461  1.00  0.00    -0.000 C 
BRANCH   2   3
ATOM      3  C   UNL     1      32.313  57.670 -14.127  1.00  0.00    -0.003 C 
ATOM      4  C   UNL     1      33.682  57.224 -13.613  1.00  0.00     0.004 C 
ENDBRANCH   2   3
ENDBRANCH   1   2
BRANCH   1   5
ATOM      5  C   UNL     1      30.417  59.195 -12.646  1.00  0.00     0.008 C 
BRANCH   5   6
ATOM      6  C   UNL     1      30.161  59.364 -11.142  1.00  0.00     0.075 C 
BRANCH   6   7
ATOM      7  C   UNL     1      28.791  59.932 -10.866  1.00  0.00     0.129 C 
ATOM      8  O   UNL     1      28.634  61.142 -10.852  1.00  0.00    -0.300 OA
ATOM      9  C   UNL     1      27.616  59.039 -10.601  1.00  0.00     0.087 C 
ENDBRANCH   6   7
ENDBRANCH   5   6
ENDBRANCH   1   5
TORSDOF 5
ENDMDL
MODEL 8
REMARK VINA RESULT:    -3.553     17.168     18.047
REMARK INTER + INTRA:          -4.685
REMARK INTER:                  -4.187
REMARK INTRA:                  -0.498
REMARK UNBOUND:                -0.094
REMARK SMILES CCCCCCC(C)=O
REMARK SMILES IDX 4 1 3 2 2 3 1 4 5 5 6 6 7 7 9 8 8 9
REMARK H PARENT
REMARK Flexibility Score: inf
ROOT
ATOM      1  C   UNL     1      31.539  56.908 -13.711  1.00  0.00     0.000 C 
ENDROOT
BRANCH   1   2
ATOM      2  C   UNL     1      32.515  57.940 -14.294  1.00  0.00    -0.000 C 
BRANCH   2   3
ATOM      3  C   UNL     1      33.973  57.665 -13.894  1.00  0.00    -0.003 C 
ATOM      4  C   UNL     1      34.092  56.893 -12.580  1.00  0.00     0.004 C 
ENDBRANCH   2   3
ENDBRANCH   1   2
BRANCH   1   5
ATOM      5  C   UNL     1      30.219  57.573 -13.295  1.00  0.00     0.008 C 
BRANCH   5   6
ATOM      6  C   UNL     1      30.384  59.080 -13.055  1.00  0.00     0.075 C 
BRANCH   6   7
ATOM      7  C   UNL     1      30.358  59.421 -11.586  1.00  0.00     0.129 C 
ATOM      8  O   UNL     1      29.341  59.885 -11.094  1.00  0.00    -0.300 OA
ATOM      9  C   UNL     1      31.560  59.209 -10.715  1.00  0.00     0.087 C 
ENDBRANCH   6   7
ENDBRANCH   5   6
ENDBRANCH   1   5
TORSDOF 5
ENDMDL
MODEL 9
REMARK VINA RESULT:    -3.546     16.390     17.420
REMARK INTER + INTRA:          -4.676
REMARK INTER:                  -4.409
REMARK INTRA:                  -0.267
REMARK UNBOUND:                -0.094
REMARK SMILES CCCCCCC(C)=O
REMARK SMILES IDX 4 1 3 2 2 3 1 4 5 5 6 6 7 7 9 8 8 9
REMARK H PARENT
REMARK Flexibility Score: inf
ROOT
ATOM      1  C   UNL     1      30.129  59.806 -10.486  1.00  0.00     0.000 C 
ENDROOT
BRANCH   1   2
ATOM      2  C   UNL     1      28.974  60.637 -11.065  1.00  0.00    -0.000 C 
BRANCH   2   3
ATOM      3  C   UNL     1      27.628  60.325 -10.393  1.00  0.00    -0.003 C 
ATOM      4  C   UNL     1      27.301  58.832 -10.386  1.00  0.00     0.004 C 
ENDBRANCH   2   3
ENDBRANCH   1   2
BRANCH   1   5
ATOM      5  C   UNL     1      31.096  59.363 -11.593  1.00  0.00     0.008 C 
BRANCH   5   6
ATOM      6  C   UNL     1      30.374  58.624 -12.728  1.00  0.00     0.075 C 
BRANCH   6   7
ATOM      7  C   UNL     1      31.284  57.648 -13.431  1.00  0.00     0.129 C 
ATOM      8  O   UNL     1      31.042  56.453 -13.377  1.00  0.00    -0.300 OA
ATOM      9  C   UNL     1      32.489  58.116 -14.193  1.00  0.00     0.087 C 
ENDBRANCH   6   7
ENDBRANCH   5   6
ENDBRANCH   1   5
TORSDOF 5
ENDMDL
