MODEL 1
REMARK VINA RESULT:    -6.214      0.000      0.000
REMARK INTER + INTRA:         -12.516
REMARK INTER:                 -11.664
REMARK INTRA:                  -0.852
REMARK UNBOUND:                -0.852
REMARK SMILES O=C([O-])CCCCCCCCCCCCCCC(=O)[O-]
REMARK SMILES IDX 10 1 9 2 8 3 7 4 6 5 5 6 4 7 2 8 1 9 3 10 11 11 12 12 13 13
REMARK SMILES IDX 14 14 15 15 16 16 17 17 18 18 19 19 20 20
REMARK H PARENT
REMARK Flexibility Score: inf
ROOT
ATOM      1  C   UNL     1     -16.242  28.742   3.071  1.00  0.00     0.000 C 
ENDROOT
BRANCH   1   2
ATOM      2  C   UNL     1     -16.342  28.041   1.704  1.00  0.00     0.000 C 
BRANCH   2   3
ATOM      3  C   UNL     1     -16.299  26.502   1.747  1.00  0.00     0.000 C 
BRANCH   3   4
ATOM      4  C   UNL     1     -16.833  25.849   0.461  1.00  0.00     0.000 C 
BRANCH   4   5
ATOM      5  C   UNL     1     -18.356  25.645   0.491  1.00  0.00     0.000 C 
BRANCH   5   6
ATOM      6  C   UNL     1     -18.762  24.179   0.257  1.00  0.00     0.006 C 
BRANCH   6   7
ATOM      7  C   UNL     1     -18.711  23.795  -1.228  1.00  0.00     0.053 C 
BRANCH   7   8
ATOM      8  C   UNL     1     -18.761  22.311  -1.422  1.00  0.00     0.041 C 
ATOM      9  O   UNL     1     -17.835  21.581  -0.981  1.00  0.00    -0.550 OA
ATOM     10  O   UNL     1     -19.817  21.736  -2.118  1.00  0.00    -0.550 OA
ENDBRANCH   7   8
ENDBRANCH   6   7
ENDBRANCH   5   6
ENDBRANCH   4   5
ENDBRANCH   3   4
ENDBRANCH   2   3
ENDBRANCH   1   2
BRANCH   1  11
ATOM     11  C   UNL     1     -15.694  30.175   2.972  1.00  0.00     0.000 C 
BRANCH  11  12
ATOM     12  C   UNL     1     -15.880  30.793   1.573  1.00  0.00     0.000 C 
BRANCH  12  13
ATOM     13  C   UNL     1     -16.772  32.050   1.523  1.00  0.00     0.000 C 
BRANCH  13  14
ATOM     14  C   UNL     1     -16.235  33.198   0.644  1.00  0.00     0.000 C 
BRANCH  14  15
ATOM     15  C   UNL     1     -16.960  33.378  -0.705  1.00  0.00     0.000 C 
BRANCH  15  16
ATOM     16  C   UNL     1     -18.169  32.445  -0.926  1.00  0.00     0.006 C 
BRANCH  16  17
ATOM     17  C   UNL     1     -18.105  31.617  -2.219  1.00  0.00     0.053 C 
BRANCH  17  18
ATOM     18  C   UNL     1     -18.492  30.188  -1.990  1.00  0.00     0.041 C 
ATOM     19  O   UNL     1     -19.396  29.658  -2.688  1.00  0.00    -0.550 OA
ATOM     20  O   UNL     1     -17.879  29.453  -0.983  1.00  0.00    -0.550 OA
ENDBRANCH  17  18
ENDBRANCH  16  17
ENDBRANCH  15  16
ENDBRANCH  14  15
ENDBRANCH  13  14
ENDBRANCH  12  13
ENDBRANCH  11  12
ENDBRANCH   1  11
TORSDOF 15
ENDMDL
MODEL 2
REMARK VINA RESULT:    -6.178      1.087      6.846
REMARK INTER + INTRA:         -12.448
REMARK INTER:                 -11.498
REMARK INTRA:                  -0.949
REMARK UNBOUND:                -0.852
REMARK SMILES O=C([O-])CCCCCCCCCCCCCCC(=O)[O-]
REMARK SMILES IDX 10 1 9 2 8 3 7 4 6 5 5 6 4 7 2 8 1 9 3 10 11 11 12 12 13 13
REMARK SMILES IDX 14 14 15 15 16 16 17 17 18 18 19 19 20 20
REMARK H PARENT
REMARK Flexibility Score: inf
ROOT
ATOM      1  C   UNL     1     -15.477  30.214   2.824  1.00  0.00     0.000 C 
ENDROOT
BRANCH   1   2
ATOM      2  C   UNL     1     -15.714  30.847   1.441  1.00  0.00     0.000 C 
BRANCH   2   3
ATOM      3  C   UNL     1     -16.770  31.968   1.401  1.00  0.00     0.000 C 
BRANCH   3   4
ATOM      4  C   UNL     1     -16.290  33.218   0.643  1.00  0.00     0.000 C 
BRANCH   4   5
ATOM      5  C   UNL     1     -16.970  33.374  -0.726  1.00  0.00     0.000 C 
BRANCH   5   6
ATOM      6  C   UNL     1     -18.233  32.504  -0.862  1.00  0.00     0.006 C 
BRANCH   6   7
ATOM      7  C   UNL     1     -18.206  31.641  -2.131  1.00  0.00     0.053 C 
BRANCH   7   8
ATOM      8  C   UNL     1     -18.565  30.216  -1.842  1.00  0.00     0.041 C 
ATOM      9  O   UNL     1     -17.913  29.557  -0.990  1.00  0.00    -0.550 OA
ATOM     10  O   UNL     1     -19.602  29.606  -2.537  1.00  0.00    -0.550 OA
ENDBRANCH   7   8
ENDBRANCH   6   7
ENDBRANCH   5   6
ENDBRANCH   4   5
ENDBRANCH   3   4
ENDBRANCH   2   3
ENDBRANCH   1   2
BRANCH   1  11
ATOM     11  C   UNL     1     -16.201  28.868   3.001  1.00  0.00     0.000 C 
BRANCH  11  12
ATOM     12  C   UNL     1     -16.292  28.060   1.692  1.00  0.00     0.000 C 
BRANCH  12  13
ATOM     13  C   UNL     1     -16.666  26.574   1.862  1.00  0.00     0.000 C 
BRANCH  13  14
ATOM     14  C   UNL     1     -16.550  25.721   0.582  1.00  0.00     0.000 C 
BRANCH  14  15
ATOM     15  C   UNL     1     -17.861  25.561  -0.213  1.00  0.00     0.000 C 
BRANCH  15  16
ATOM     16  C   UNL     1     -18.991  24.822   0.534  1.00  0.00     0.006 C 
BRANCH  16  17
ATOM     17  C   UNL     1     -19.283  23.409   0.007  1.00  0.00     0.053 C 
BRANCH  17  18
ATOM     18  C   UNL     1     -20.721  23.240  -0.380  1.00  0.00     0.041 C 
ATOM     19  O   UNL     1     -21.635  23.581   0.416  1.00  0.00    -0.550 OA
ATOM     20  O   UNL     1     -21.051  22.676  -1.606  1.00  0.00    -0.550 OA
ENDBRANCH  17  18
ENDBRANCH  16  17
ENDBRANCH  15  16
ENDBRANCH  14  15
ENDBRANCH  13  14
ENDBRANCH  12  13
ENDBRANCH  11  12
ENDBRANCH   1  11
TORSDOF 15
ENDMDL
MODEL 3
REMARK VINA RESULT:    -5.988      1.794      2.613
REMARK INTER + INTRA:         -12.091
REMARK INTER:                 -11.166
REMARK INTRA:                  -0.925
REMARK UNBOUND:                -0.852
REMARK SMILES O=C([O-])CCCCCCCCCCCCCCC(=O)[O-]
REMARK SMILES IDX 10 1 9 2 8 3 7 4 6 5 5 6 4 7 2 8 1 9 3 10 11 11 12 12 13 13
REMARK SMILES IDX 14 14 15 15 16 16 17 17 18 18 19 19 20 20
REMARK H PARENT
REMARK Flexibility Score: inf
ROOT
ATOM      1  C   UNL     1     -17.270  27.454  -0.219  1.00  0.00     0.000 C 
ENDROOT
BRANCH   1   2
ATOM      2  C   UNL     1     -16.884  26.209   0.601  1.00  0.00     0.000 C 
BRANCH   2   3
ATOM      3  C   UNL     1     -17.896  25.049   0.555  1.00  0.00     0.000 C 
BRANCH   3   4
ATOM      4  C   UNL     1     -18.149  24.529  -0.871  1.00  0.00     0.000 C 
BRANCH   4   5
ATOM      5  C   UNL     1     -18.490  23.031  -0.900  1.00  0.00     0.000 C 
BRANCH   5   6
ATOM      6  C   UNL     1     -19.736  22.725  -1.752  1.00  0.00     0.006 C 
BRANCH   6   7
ATOM      7  C   UNL     1     -20.887  22.161  -0.909  1.00  0.00     0.053 C 
BRANCH   7   8
ATOM      8  C   UNL     1     -21.837  23.234  -0.472  1.00  0.00     0.041 C 
ATOM      9  O   UNL     1     -21.449  24.149   0.300  1.00  0.00    -0.550 OA
ATOM     10  O   UNL     1     -23.159  23.206  -0.896  1.00  0.00    -0.550 OA
ENDBRANCH   7   8
ENDBRANCH   6   7
ENDBRANCH   5   6
ENDBRANCH   4   5
ENDBRANCH   3   4
ENDBRANCH   2   3
ENDBRANCH   1   2
BRANCH   1  11
ATOM     11  C   UNL     1     -16.244  28.594  -0.099  1.00  0.00     0.000 C 
BRANCH  11  12
ATOM     12  C   UNL     1     -16.220  29.233   1.303  1.00  0.00     0.000 C 
BRANCH  12  13
ATOM     13  C   UNL     1     -15.624  30.654   1.369  1.00  0.00     0.000 C 
BRANCH  13  14
ATOM     14  C   UNL     1     -16.638  31.774   1.675  1.00  0.00     0.000 C 
BRANCH  14  15
ATOM     15  C   UNL     1     -16.508  33.029   0.789  1.00  0.00     0.000 C 
BRANCH  15  16
ATOM     16  C   UNL     1     -16.807  32.805  -0.708  1.00  0.00     0.006 C 
BRANCH  16  17
ATOM     17  C   UNL     1     -18.282  32.514  -1.026  1.00  0.00     0.053 C 
BRANCH  17  18
ATOM     18  C   UNL     1     -18.441  31.297  -1.885  1.00  0.00     0.041 C 
ATOM     19  O   UNL     1     -18.074  31.320  -3.089  1.00  0.00    -0.550 OA
ATOM     20  O   UNL     1     -19.027  30.149  -1.366  1.00  0.00    -0.550 OA
ENDBRANCH  17  18
ENDBRANCH  16  17
ENDBRANCH  15  16
ENDBRANCH  14  15
ENDBRANCH  13  14
ENDBRANCH  12  13
ENDBRANCH  11  12
ENDBRANCH   1  11
TORSDOF 15
ENDMDL
MODEL 4
REMARK VINA RESULT:    -5.920      1.591      7.347
REMARK INTER + INTRA:         -11.964
REMARK INTER:                 -10.924
REMARK INTRA:                  -1.040
REMARK UNBOUND:                -0.852
REMARK SMILES O=C([O-])CCCCCCCCCCCCCCC(=O)[O-]
REMARK SMILES IDX 10 1 9 2 8 3 7 4 6 5 5 6 4 7 2 8 1 9 3 10 11 11 12 12 13 13
REMARK SMILES IDX 14 14 15 15 16 16 17 17 18 18 19 19 20 20
REMARK H PARENT
REMARK Flexibility Score: inf
ROOT
ATOM      1  C   UNL     1     -16.402  28.823   0.100  1.00  0.00     0.000 C 
ENDROOT
BRANCH   1   2
ATOM      2  C   UNL     1     -15.973  29.513   1.408  1.00  0.00     0.000 C 
BRANCH   2   3
ATOM      3  C   UNL     1     -15.528  30.980   1.264  1.00  0.00     0.000 C 
BRANCH   3   4
ATOM      4  C   UNL     1     -16.693  31.977   1.386  1.00  0.00     0.000 C 
BRANCH   4   5
ATOM      5  C   UNL     1     -16.538  33.183   0.446  1.00  0.00     0.000 C 
BRANCH   5   6
ATOM      6  C   UNL     1     -17.035  32.888  -0.981  1.00  0.00     0.006 C 
BRANCH   6   7
ATOM      7  C   UNL     1     -18.397  32.181  -0.985  1.00  0.00     0.053 C 
BRANCH   7   8
ATOM      8  C   UNL     1     -18.462  31.103  -2.022  1.00  0.00     0.041 C 
ATOM      9  O   UNL     1     -18.095  31.335  -3.203  1.00  0.00    -0.550 OA
ATOM     10  O   UNL     1     -18.957  29.848  -1.690  1.00  0.00    -0.550 OA
ENDBRANCH   7   8
ENDBRANCH   6   7
ENDBRANCH   5   6
ENDBRANCH   4   5
ENDBRANCH   3   4
ENDBRANCH   2   3
ENDBRANCH   1   2
BRANCH   1  11
ATOM     11  C   UNL     1     -16.166  27.303   0.118  1.00  0.00     0.000 C 
BRANCH  11  12
ATOM     12  C   UNL     1     -16.514  26.659   1.474  1.00  0.00     0.000 C 
BRANCH  12  13
ATOM     13  C   UNL     1     -17.686  25.658   1.445  1.00  0.00     0.000 C 
BRANCH  13  14
ATOM     14  C   UNL     1     -18.469  25.606   0.118  1.00  0.00     0.000 C 
BRANCH  14  15
ATOM     15  C   UNL     1     -18.049  24.475  -0.841  1.00  0.00     0.000 C 
BRANCH  15  16
ATOM     16  C   UNL     1     -18.756  23.124  -0.607  1.00  0.00     0.006 C 
BRANCH  16  17
ATOM     17  C   UNL     1     -20.059  22.942  -1.400  1.00  0.00     0.053 C 
BRANCH  17  18
ATOM     18  C   UNL     1     -21.270  23.095  -0.532  1.00  0.00     0.041 C 
ATOM     19  O   UNL     1     -22.421  22.934  -1.017  1.00  0.00    -0.550 OA
ATOM     20  O   UNL     1     -21.130  23.450   0.804  1.00  0.00    -0.550 OA
ENDBRANCH  17  18
ENDBRANCH  16  17
ENDBRANCH  15  16
ENDBRANCH  14  15
ENDBRANCH  13  14
ENDBRANCH  12  13
ENDBRANCH  11  12
ENDBRANCH   1  11
TORSDOF 15
ENDMDL
MODEL 5
REMARK VINA RESULT:    -5.851      1.949      3.382
REMARK INTER + INTRA:         -11.834
REMARK INTER:                 -10.727
REMARK INTRA:                  -1.107
REMARK UNBOUND:                -0.852
REMARK SMILES O=C([O-])CCCCCCCCCCCCCCC(=O)[O-]
REMARK SMILES IDX 10 1 9 2 8 3 7 4 6 5 5 6 4 7 2 8 1 9 3 10 11 11 12 12 13 13
REMARK SMILES IDX 14 14 15 15 16 16 17 17 18 18 19 19 20 20
REMARK H PARENT
REMARK Flexibility Score: inf
ROOT
ATOM      1  C   UNL     1     -17.405  29.272  -0.656  1.00  0.00     0.000 C 
ENDROOT
BRANCH   1   2
ATOM      2  C   UNL     1     -17.621  27.751  -0.553  1.00  0.00     0.000 C 
BRANCH   2   3
ATOM      3  C   UNL     1     -16.606  26.999   0.329  1.00  0.00     0.000 C 
BRANCH   3   4
ATOM      4  C   UNL     1     -16.987  25.527   0.563  1.00  0.00     0.000 C 
BRANCH   4   5
ATOM      5  C   UNL     1     -18.468  25.354   0.937  1.00  0.00     0.000 C 
BRANCH   5   6
ATOM      6  C   UNL     1     -19.051  24.020   0.437  1.00  0.00     0.006 C 
BRANCH   6   7
ATOM      7  C   UNL     1     -18.808  23.809  -1.063  1.00  0.00     0.053 C 
BRANCH   7   8
ATOM      8  C   UNL     1     -18.728  22.356  -1.416  1.00  0.00     0.041 C 
ATOM      9  O   UNL     1     -17.764  21.656  -1.009  1.00  0.00    -0.550 OA
ATOM     10  O   UNL     1     -19.704  21.781  -2.220  1.00  0.00    -0.550 OA
ENDBRANCH   7   8
ENDBRANCH   6   7
ENDBRANCH   5   6
ENDBRANCH   4   5
ENDBRANCH   3   4
ENDBRANCH   2   3
ENDBRANCH   1   2
BRANCH   1  11
ATOM     11  C   UNL     1     -18.515  29.983  -1.448  1.00  0.00     0.000 C 
BRANCH  11  12
ATOM     12  C   UNL     1     -18.114  31.400  -1.901  1.00  0.00     0.000 C 
BRANCH  12  13
ATOM     13  C   UNL     1     -18.251  32.498  -0.826  1.00  0.00     0.000 C 
BRANCH  13  14
ATOM     14  C   UNL     1     -17.017  33.407  -0.660  1.00  0.00     0.000 C 
BRANCH  14  15
ATOM     15  C   UNL     1     -16.075  33.019   0.497  1.00  0.00     0.000 C 
BRANCH  15  16
ATOM     16  C   UNL     1     -16.648  31.981   1.485  1.00  0.00     0.006 C 
BRANCH  16  17
ATOM     17  C   UNL     1     -15.698  30.816   1.805  1.00  0.00     0.053 C 
BRANCH  17  18
ATOM     18  C   UNL     1     -15.907  30.286   3.190  1.00  0.00     0.041 C 
ATOM     19  O   UNL     1     -16.441  29.158   3.363  1.00  0.00    -0.550 OA
ATOM     20  O   UNL     1     -15.545  31.051   4.292  1.00  0.00    -0.550 OA
ENDBRANCH  17  18
ENDBRANCH  16  17
ENDBRANCH  15  16
ENDBRANCH  14  15
ENDBRANCH  13  14
ENDBRANCH  12  13
ENDBRANCH  11  12
ENDBRANCH   1  11
TORSDOF 15
ENDMDL
MODEL 6
REMARK VINA RESULT:    -5.788      2.104      7.571
REMARK INTER + INTRA:         -11.717
REMARK INTER:                 -10.789
REMARK INTRA:                  -0.927
REMARK UNBOUND:                -0.852
REMARK SMILES O=C([O-])CCCCCCCCCCCCCCC(=O)[O-]
REMARK SMILES IDX 10 1 9 2 8 3 7 4 6 5 5 6 4 7 2 8 1 9 3 10 11 11 12 12 13 13
REMARK SMILES IDX 14 14 15 15 16 16 17 17 18 18 19 19 20 20
REMARK H PARENT
REMARK Flexibility Score: inf
ROOT
ATOM      1  C   UNL     1     -18.508  30.060  -1.582  1.00  0.00     0.000 C 
ENDROOT
BRANCH   1   2
ATOM      2  C   UNL     1     -18.240  31.532  -1.946  1.00  0.00     0.000 C 
BRANCH   2   3
ATOM      3  C   UNL     1     -18.179  32.506  -0.754  1.00  0.00     0.000 C 
BRANCH   3   4
ATOM      4  C   UNL     1     -16.843  33.264  -0.666  1.00  0.00     0.000 C 
BRANCH   4   5
ATOM      5  C   UNL     1     -16.263  33.272   0.757  1.00  0.00     0.000 C 
BRANCH   5   6
ATOM      6  C   UNL     1     -16.761  32.088   1.606  1.00  0.00     0.006 C 
BRANCH   6   7
ATOM      7  C   UNL     1     -15.729  30.955   1.679  1.00  0.00     0.053 C 
BRANCH   7   8
ATOM      8  C   UNL     1     -15.757  30.261   3.006  1.00  0.00     0.041 C 
ATOM      9  O   UNL     1     -15.097  30.718   3.976  1.00  0.00    -0.550 OA
ATOM     10  O   UNL     1     -16.488  29.091   3.163  1.00  0.00    -0.550 OA
ENDBRANCH   7   8
ENDBRANCH   6   7
ENDBRANCH   5   6
ENDBRANCH   4   5
ENDBRANCH   3   4
ENDBRANCH   2   3
ENDBRANCH   1   2
BRANCH   1  11
ATOM     11  C   UNL     1     -17.430  29.464  -0.661  1.00  0.00     0.000 C 
BRANCH  11  12
ATOM     12  C   UNL     1     -17.520  27.930  -0.547  1.00  0.00     0.000 C 
BRANCH  12  13
ATOM     13  C   UNL     1     -16.470  27.276   0.373  1.00  0.00     0.000 C 
BRANCH  13  14
ATOM     14  C   UNL     1     -16.714  25.786   0.688  1.00  0.00     0.000 C 
BRANCH  14  15
ATOM     15  C   UNL     1     -18.191  25.346   0.644  1.00  0.00     0.000 C 
BRANCH  15  16
ATOM     16  C   UNL     1     -18.554  24.391  -0.512  1.00  0.00     0.006 C 
BRANCH  16  17
ATOM     17  C   UNL     1     -19.316  23.130  -0.079  1.00  0.00     0.053 C 
BRANCH  17  18
ATOM     18  C   UNL     1     -20.746  23.158  -0.525  1.00  0.00     0.041 C 
ATOM     19  O   UNL     1     -21.594  23.839   0.110  1.00  0.00    -0.550 OA
ATOM     20  O   UNL     1     -21.150  22.404  -1.620  1.00  0.00    -0.550 OA
ENDBRANCH  17  18
ENDBRANCH  16  17
ENDBRANCH  15  16
ENDBRANCH  14  15
ENDBRANCH  13  14
ENDBRANCH  12  13
ENDBRANCH  11  12
ENDBRANCH   1  11
TORSDOF 15
ENDMDL
MODEL 7
REMARK VINA RESULT:    -5.744      2.757      4.801
REMARK INTER + INTRA:         -11.633
REMARK INTER:                 -10.317
REMARK INTRA:                  -1.316
REMARK UNBOUND:                -0.852
REMARK SMILES O=C([O-])CCCCCCCCCCCCCCC(=O)[O-]
REMARK SMILES IDX 10 1 9 2 8 3 7 4 6 5 5 6 4 7 2 8 1 9 3 10 11 11 12 12 13 13
REMARK SMILES IDX 14 14 15 15 16 16 17 17 18 18 19 19 20 20
REMARK H PARENT
REMARK Flexibility Score: inf
ROOT
ATOM      1  C   UNL     1     -18.196  31.469  -1.936  1.00  0.00     0.000 C 
ENDROOT
BRANCH   1   2
ATOM      2  C   UNL     1     -18.446  30.002  -1.540  1.00  0.00     0.000 C 
BRANCH   2   3
ATOM      3  C   UNL     1     -17.357  29.363  -0.659  1.00  0.00     0.000 C 
BRANCH   3   4
ATOM      4  C   UNL     1     -17.620  27.877  -0.362  1.00  0.00     0.000 C 
BRANCH   4   5
ATOM      5  C   UNL     1     -16.816  27.365   0.844  1.00  0.00     0.000 C 
BRANCH   5   6
ATOM      6  C   UNL     1     -17.324  26.006   1.359  1.00  0.00     0.006 C 
BRANCH   6   7
ATOM      7  C   UNL     1     -18.160  25.265   0.308  1.00  0.00     0.053 C 
BRANCH   7   8
ATOM      8  C   UNL     1     -19.395  24.661   0.902  1.00  0.00     0.041 C 
ATOM      9  O   UNL     1     -20.533  25.021   0.504  1.00  0.00    -0.550 OA
ATOM     10  O   UNL     1     -19.288  23.721   1.920  1.00  0.00    -0.550 OA
ENDBRANCH   7   8
ENDBRANCH   6   7
ENDBRANCH   5   6
ENDBRANCH   4   5
ENDBRANCH   3   4
ENDBRANCH   2   3
ENDBRANCH   1   2
BRANCH   1  11
ATOM     11  C   UNL     1     -18.249  32.432  -0.738  1.00  0.00     0.000 C 
BRANCH  11  12
ATOM     12  C   UNL     1     -16.983  33.300  -0.610  1.00  0.00     0.000 C 
BRANCH  12  13
ATOM     13  C   UNL     1     -16.250  33.199   0.743  1.00  0.00     0.000 C 
BRANCH  13  14
ATOM     14  C   UNL     1     -15.854  31.770   1.167  1.00  0.00     0.000 C 
BRANCH  14  15
ATOM     15  C   UNL     1     -16.501  31.279   2.477  1.00  0.00     0.000 C 
BRANCH  15  16
ATOM     16  C   UNL     1     -15.760  30.118   3.175  1.00  0.00     0.006 C 
BRANCH  16  17
ATOM     17  C   UNL     1     -15.675  30.246   4.703  1.00  0.00     0.053 C 
BRANCH  17  18
ATOM     18  C   UNL     1     -17.008  30.547   5.317  1.00  0.00     0.041 C 
ATOM     19  O   UNL     1     -17.943  29.706   5.245  1.00  0.00    -0.550 OA
ATOM     20  O   UNL     1     -17.230  31.771   5.937  1.00  0.00    -0.550 OA
ENDBRANCH  17  18
ENDBRANCH  16  17
ENDBRANCH  15  16
ENDBRANCH  14  15
ENDBRANCH  13  14
ENDBRANCH  12  13
ENDBRANCH  11  12
ENDBRANCH   1  11
TORSDOF 15
ENDMDL
MODEL 8
REMARK VINA RESULT:    -5.603      1.986      7.786
REMARK INTER + INTRA:         -11.369
REMARK INTER:                 -10.196
REMARK INTRA:                  -1.173
REMARK UNBOUND:                -0.852
REMARK SMILES O=C([O-])CCCCCCCCCCCCCCC(=O)[O-]
REMARK SMILES IDX 10 1 9 2 8 3 7 4 6 5 5 6 4 7 2 8 1 9 3 10 11 11 12 12 13 13
REMARK SMILES IDX 14 14 15 15 16 16 17 17 18 18 19 19 20 20
REMARK H PARENT
REMARK Flexibility Score: inf
ROOT
ATOM      1  C   UNL     1     -18.515  28.972  -1.017  1.00  0.00     0.000 C 
ENDROOT
BRANCH   1   2
ATOM      2  C   UNL     1     -18.988  30.124  -1.922  1.00  0.00     0.000 C 
BRANCH   2   3
ATOM      3  C   UNL     1     -18.034  31.330  -2.006  1.00  0.00     0.000 C 
BRANCH   3   4
ATOM      4  C   UNL     1     -18.278  32.369  -0.899  1.00  0.00     0.000 C 
BRANCH   4   5
ATOM      5  C   UNL     1     -17.105  33.350  -0.740  1.00  0.00     0.000 C 
BRANCH   5   6
ATOM      6  C   UNL     1     -16.196  32.997   0.451  1.00  0.00     0.006 C 
BRANCH   6   7
ATOM      7  C   UNL     1     -16.924  32.148   1.501  1.00  0.00     0.053 C 
BRANCH   7   8
ATOM      8  C   UNL     1     -15.964  31.402   2.377  1.00  0.00     0.041 C 
ATOM      9  O   UNL     1     -16.119  31.396   3.626  1.00  0.00    -0.550 OA
ATOM     10  O   UNL     1     -14.881  30.739   1.815  1.00  0.00    -0.550 OA
ENDBRANCH   7   8
ENDBRANCH   6   7
ENDBRANCH   5   6
ENDBRANCH   4   5
ENDBRANCH   3   4
ENDBRANCH   2   3
ENDBRANCH   1   2
BRANCH   1  11
ATOM     11  C   UNL     1     -17.049  29.117  -0.575  1.00  0.00     0.000 C 
BRANCH  11  12
ATOM     12  C   UNL     1     -16.685  28.196   0.604  1.00  0.00     0.000 C 
BRANCH  12  13
ATOM     13  C   UNL     1     -16.117  26.817   0.210  1.00  0.00     0.000 C 
BRANCH  13  14
ATOM     14  C   UNL     1     -16.931  25.607   0.712  1.00  0.00     0.000 C 
BRANCH  14  15
ATOM     15  C   UNL     1     -18.353  25.493   0.126  1.00  0.00     0.000 C 
BRANCH  15  16
ATOM     16  C   UNL     1     -18.835  24.051  -0.139  1.00  0.00     0.006 C 
BRANCH  16  17
ATOM     17  C   UNL     1     -18.813  23.636  -1.618  1.00  0.00     0.053 C 
BRANCH  17  18
ATOM     18  C   UNL     1     -19.575  22.368  -1.856  1.00  0.00     0.041 C 
ATOM     19  O   UNL     1     -18.960  21.283  -2.032  1.00  0.00    -0.550 OA
ATOM     20  O   UNL     1     -20.963  22.391  -1.919  1.00  0.00    -0.550 OA
ENDBRANCH  17  18
ENDBRANCH  16  17
ENDBRANCH  15  16
ENDBRANCH  14  15
ENDBRANCH  13  14
ENDBRANCH  12  13
ENDBRANCH  11  12
ENDBRANCH   1  11
TORSDOF 15
ENDMDL
MODEL 9
REMARK VINA RESULT:    -5.447      4.464      8.923
REMARK INTER + INTRA:         -11.076
REMARK INTER:                 -10.271
REMARK INTRA:                  -0.805
REMARK UNBOUND:                -0.852
REMARK SMILES O=C([O-])CCCCCCCCCCCCCCC(=O)[O-]
REMARK SMILES IDX 10 1 9 2 8 3 7 4 6 5 5 6 4 7 2 8 1 9 3 10 11 11 12 12 13 13
REMARK SMILES IDX 14 14 15 15 16 16 17 17 18 18 19 19 20 20
REMARK H PARENT
REMARK Flexibility Score: inf
ROOT
ATOM      1  C   UNL     1     -20.048  22.470  -1.728  1.00  0.00     0.000 C 
ENDROOT
BRANCH   1   2
ATOM      2  C   UNL     1     -18.893  23.487  -1.683  1.00  0.00     0.000 C 
BRANCH   2   3
ATOM      3  C   UNL     1     -18.405  23.868  -0.272  1.00  0.00     0.000 C 
BRANCH   3   4
ATOM      4  C   UNL     1     -18.124  25.373  -0.120  1.00  0.00     0.000 C 
BRANCH   4   5
ATOM      5  C   UNL     1     -17.519  25.724   1.249  1.00  0.00     0.000 C 
BRANCH   5   6
ATOM      6  C   UNL     1     -16.332  26.698   1.137  1.00  0.00     0.006 C 
BRANCH   6   7
ATOM      7  C   UNL     1     -16.317  27.440  -0.206  1.00  0.00     0.053 C 
BRANCH   7   8
ATOM      8  C   UNL     1     -16.654  28.891  -0.045  1.00  0.00     0.041 C 
ATOM      9  O   UNL     1     -16.197  29.544   0.929  1.00  0.00    -0.550 OA
ATOM     10  O   UNL     1     -17.499  29.512  -0.955  1.00  0.00    -0.550 OA
ENDBRANCH   7   8
ENDBRANCH   6   7
ENDBRANCH   5   6
ENDBRANCH   4   5
ENDBRANCH   3   4
ENDBRANCH   2   3
ENDBRANCH   1   2
BRANCH   1  11
ATOM     11  C   UNL     1     -20.774  22.325  -0.380  1.00  0.00     0.000 C 
BRANCH  11  12
ATOM     12  C   UNL     1     -22.105  23.099  -0.329  1.00  0.00     0.000 C 
BRANCH  12  13
ATOM     13  C   UNL     1     -23.355  22.241  -0.045  1.00  0.00     0.000 C 
BRANCH  13  14
ATOM     14  C   UNL     1     -24.699  22.990  -0.146  1.00  0.00     0.000 C 
BRANCH  14  15
ATOM     15  C   UNL     1     -25.813  22.228  -0.890  1.00  0.00     0.000 C 
BRANCH  15  16
ATOM     16  C   UNL     1     -26.236  22.844  -2.240  1.00  0.00     0.006 C 
BRANCH  16  17
ATOM     17  C   UNL     1     -25.667  24.246  -2.505  1.00  0.00     0.053 C 
BRANCH  17  18
ATOM     18  C   UNL     1     -25.433  24.491  -3.965  1.00  0.00     0.041 C 
ATOM     19  O   UNL     1     -25.257  25.663  -4.390  1.00  0.00    -0.550 OA
ATOM     20  O   UNL     1     -25.445  23.428  -4.860  1.00  0.00    -0.550 OA
ENDBRANCH  17  18
ENDBRANCH  16  17
ENDBRANCH  15  16
ENDBRANCH  14  15
ENDBRANCH  13  14
ENDBRANCH  12  13
ENDBRANCH  11  12
ENDBRANCH   1  11
TORSDOF 15
ENDMDL
