MODEL 1
REMARK VINA RESULT:    -3.157      0.000      0.000
REMARK INTER + INTRA:          -4.885
REMARK INTER:                  -4.818
REMARK INTRA:                  -0.066
REMARK UNBOUND:                -0.066
REMARK SMILES CC1=CCC[C@H](C)C(=O)C[C@H](C(C)C)C(=O)C1
REMARK SMILES IDX 8 1 9 2 6 3 7 4 5 5 4 6 3 7 2 8 1 9 10 11 11 12 15 13 16 14
REMARK SMILES IDX 17 15 12 17 13 18 14 19
REMARK H PARENT
REMARK Flexibility Score: 70.00
ROOT
ATOM      1  C   UNL     1      -1.792  -8.280 -40.072  1.00  0.00     0.136 C 
ATOM      2  O   UNL     1      -2.921  -7.812 -40.018  1.00  0.00    -0.299 OA
ENDROOT
BRANCH   1   3
ATOM      3  C   UNL     1      -0.865  -8.160 -38.868  1.00  0.00     0.053 C 
ATOM      4  C   UNL     1      -1.430  -7.227 -37.785  1.00  0.00     0.016 C 
BRANCH   3   5
ATOM      5  C   UNL     1      -0.551  -9.557 -38.262  1.00  0.00     0.015 C 
BRANCH   5   6
ATOM      6  C   UNL     1      -1.745 -10.332 -37.665  1.00  0.00     0.028 C 
BRANCH   6   7
ATOM      7  C   UNL     1      -1.873 -11.811 -37.967  1.00  0.00    -0.028 C 
ATOM      8  C   UNL     1      -2.559 -12.388 -38.984  1.00  0.00    -0.070 CG0
ATOM      9  C   UNL     1      -2.727 -13.888 -38.941  1.00  0.00     0.039 C 
ATOM     10  G   UNL     1      -3.106 -11.641 -40.193  1.00  0.00     0.000 G0
ENDBRANCH   6   7
ENDBRANCH   5   6
ENDBRANCH   3   5
ENDBRANCH   1   3
BRANCH   1  11
ATOM     11  C   UNL     1      -1.352  -8.942 -41.369  1.00  0.00     0.087 C 
BRANCH  11  12
ATOM     12  C   UNL     1      -0.927 -10.421 -41.205  1.00  0.00     0.066 C 
BRANCH  12  13
ATOM     13  C   UNL     1      -2.066 -11.436 -41.274  1.00  0.00     0.140 C 
ATOM     14  O   UNL     1      -2.170 -12.089 -42.303  1.00  0.00    -0.299 OA
BRANCH  13  15
ATOM     15  C   UNL     1      -3.125 -11.618 -40.194  1.00  0.00     0.106 CG0
ATOM     16  G   UNL     1      -2.568 -12.385 -39.002  1.00  0.00     0.000 G0
ENDBRANCH  13  15
ENDBRANCH  12  13
BRANCH  12  17
ATOM     17  C   UNL     1       0.256 -10.792 -42.155  1.00  0.00    -0.006 C 
ATOM     18  C   UNL     1       0.844  -9.549 -42.842  1.00  0.00     0.008 C 
ATOM     19  C   UNL     1       1.375 -11.593 -41.471  1.00  0.00     0.008 C 
ENDBRANCH  12  17
ENDBRANCH  11  12
ENDBRANCH   1  11
TORSDOF 1
ENDMDL
MODEL 2
REMARK VINA RESULT:    -3.084      2.678      4.697
REMARK INTER + INTRA:          -4.773
REMARK INTER:                  -4.177
REMARK INTRA:                  -0.597
REMARK UNBOUND:                -0.066
REMARK SMILES CC1=CCC[C@H](C)C(=O)C[C@H](C(C)C)C(=O)C1
REMARK SMILES IDX 8 1 9 2 6 3 7 4 5 5 4 6 3 7 2 8 1 9 10 11 11 12 15 13 16 14
REMARK SMILES IDX 17 15 12 17 13 18 14 19
REMARK H PARENT
REMARK Flexibility Score: 70.00
ROOT
ATOM      1  C   UNL     1      -1.611 -10.973 -42.198  1.00  0.00     0.136 C 
ATOM      2  O   UNL     1      -0.524 -11.139 -42.737  1.00  0.00    -0.299 OA
ENDROOT
BRANCH   1   3
ATOM      3  C   UNL     1      -2.002  -9.588 -41.696  1.00  0.00     0.053 C 
ATOM      4  C   UNL     1      -0.855  -8.892 -40.946  1.00  0.00     0.016 C 
BRANCH   3   5
ATOM      5  C   UNL     1      -2.503  -8.691 -42.862  1.00  0.00     0.015 C 
BRANCH   5   6
ATOM      6  C   UNL     1      -3.880  -9.048 -43.463  1.00  0.00     0.028 C 
BRANCH   6   7
ATOM      7  C   UNL     1      -5.096  -9.010 -42.561  1.00  0.00    -0.028 C 
ATOM      8  C   UNL     1      -5.911 -10.043 -42.233  1.00  0.00    -0.070 CG0
ATOM      9  C   UNL     1      -7.190  -9.709 -41.502  1.00  0.00     0.039 C 
ATOM     10  G   UNL     1      -5.594 -11.511 -42.485  1.00  0.00     0.000 G0
ENDBRANCH   6   7
ENDBRANCH   5   6
ENDBRANCH   3   5
ENDBRANCH   1   3
BRANCH   1  11
ATOM     11  C   UNL     1      -2.517 -12.183 -42.025  1.00  0.00     0.087 C 
BRANCH  11  12
ATOM     12  C   UNL     1      -3.520 -12.051 -40.853  1.00  0.00     0.066 C 
BRANCH  12  13
ATOM     13  C   UNL     1      -4.993 -12.163 -41.243  1.00  0.00     0.140 C 
ATOM     14  O   UNL     1      -5.699 -12.884 -40.551  1.00  0.00    -0.299 OA
BRANCH  13  15
ATOM     15  C   UNL     1      -5.610 -11.518 -42.477  1.00  0.00     0.106 CG0
ATOM     16  G   UNL     1      -5.900 -10.042 -42.238  1.00  0.00     0.000 G0
ENDBRANCH  13  15
ENDBRANCH  12  13
BRANCH  12  17
ATOM     17  C   UNL     1      -3.147 -12.993 -39.665  1.00  0.00    -0.006 C 
ATOM     18  C   UNL     1      -2.552 -14.322 -40.157  1.00  0.00     0.008 C 
ATOM     19  C   UNL     1      -2.210 -12.348 -38.631  1.00  0.00     0.008 C 
ENDBRANCH  12  17
ENDBRANCH  11  12
ENDBRANCH   1  11
TORSDOF 1
ENDMDL
MODEL 3
REMARK VINA RESULT:    -3.061      1.917      2.515
REMARK INTER + INTRA:          -4.737
REMARK INTER:                  -4.659
REMARK INTRA:                  -0.078
REMARK UNBOUND:                -0.066
REMARK SMILES CC1=CCC[C@H](C)C(=O)C[C@H](C(C)C)C(=O)C1
REMARK SMILES IDX 8 1 9 2 6 3 7 4 5 5 4 6 3 7 2 8 1 9 10 11 11 12 15 13 16 14
REMARK SMILES IDX 17 15 12 17 13 18 14 19
REMARK H PARENT
REMARK Flexibility Score: 70.00
ROOT
ATOM      1  C   UNL     1      -0.747  -9.012 -39.782  1.00  0.00     0.136 C 
ATOM      2  O   UNL     1      -0.195  -8.943 -38.692  1.00  0.00    -0.299 OA
ENDROOT
BRANCH   1   3
ATOM      3  C   UNL     1      -2.203  -8.581 -39.922  1.00  0.00     0.053 C 
ATOM      4  C   UNL     1      -2.532  -7.348 -39.065  1.00  0.00     0.016 C 
BRANCH   3   5
ATOM      5  C   UNL     1      -2.567  -8.313 -41.409  1.00  0.00     0.015 C 
BRANCH   5   6
ATOM      6  C   UNL     1      -3.621  -9.249 -42.038  1.00  0.00     0.028 C 
BRANCH   6   7
ATOM      7  C   UNL     1      -4.063 -10.471 -41.261  1.00  0.00    -0.028 C 
ATOM      8  C   UNL     1      -3.486 -11.699 -41.258  1.00  0.00    -0.070 CG0
ATOM      9  C   UNL     1      -4.244 -12.816 -40.581  1.00  0.00     0.039 C 
ATOM     10  G   UNL     1      -2.107 -12.009 -41.824  1.00  0.00     0.000 G0
ENDBRANCH   6   7
ENDBRANCH   5   6
ENDBRANCH   3   5
ENDBRANCH   1   3
BRANCH   1  11
ATOM     11  C   UNL     1       0.049  -9.562 -40.956  1.00  0.00     0.087 C 
BRANCH  11  12
ATOM     12  C   UNL     1       0.256 -11.095 -40.910  1.00  0.00     0.066 C 
BRANCH  12  13
ATOM     13  C   UNL     1      -1.024 -11.919 -40.779  1.00  0.00     0.140 C 
ATOM     14  O   UNL     1      -1.142 -12.611 -39.776  1.00  0.00    -0.299 OA
BRANCH  13  15
ATOM     15  C   UNL     1      -2.105 -12.009 -41.848  1.00  0.00     0.106 CG0
ATOM     16  G   UNL     1      -3.477 -11.693 -41.269  1.00  0.00     0.000 G0
ENDBRANCH  13  15
ENDBRANCH  12  13
BRANCH  12  17
ATOM     17  C   UNL     1       1.165 -11.591 -42.077  1.00  0.00    -0.006 C 
ATOM     18  C   UNL     1       1.727 -10.420 -42.899  1.00  0.00     0.008 C 
ATOM     19  C   UNL     1       2.311 -12.512 -41.625  1.00  0.00     0.008 C 
ENDBRANCH  12  17
ENDBRANCH  11  12
ENDBRANCH   1  11
TORSDOF 1
ENDMDL
MODEL 4
REMARK VINA RESULT:    -3.022     12.775     14.942
REMARK INTER + INTRA:          -4.678
REMARK INTER:                  -4.335
REMARK INTRA:                  -0.343
REMARK UNBOUND:                -0.066
REMARK SMILES CC1=CCC[C@H](C)C(=O)C[C@H](C(C)C)C(=O)C1
REMARK SMILES IDX 8 1 9 2 6 3 7 4 5 5 4 6 3 7 2 8 1 9 10 11 11 12 15 13 16 14
REMARK SMILES IDX 17 15 12 17 13 18 14 19
REMARK H PARENT
REMARK Flexibility Score: 70.00
ROOT
ATOM      1  C   UNL     1       0.210 -22.474 -44.315  1.00  0.00     0.136 C 
ATOM      2  O   UNL     1      -0.020 -21.275 -44.400  1.00  0.00    -0.299 OA
ENDROOT
BRANCH   1   3
ATOM      3  C   UNL     1       0.250 -23.140 -42.944  1.00  0.00     0.053 C 
ATOM      4  C   UNL     1       1.017 -22.302 -41.908  1.00  0.00     0.016 C 
BRANCH   3   5
ATOM      5  C   UNL     1      -1.183 -23.448 -42.430  1.00  0.00     0.015 C 
BRANCH   5   6
ATOM      6  C   UNL     1      -1.667 -24.908 -42.571  1.00  0.00     0.028 C 
BRANCH   6   7
ATOM      7  C   UNL     1      -2.896 -25.186 -43.411  1.00  0.00    -0.028 C 
ATOM      8  C   UNL     1      -2.938 -25.706 -44.663  1.00  0.00    -0.070 CG0
ATOM      9  C   UNL     1      -4.267 -25.674 -45.380  1.00  0.00     0.039 C 
ATOM     10  G   UNL     1      -1.765 -26.381 -45.360  1.00  0.00     0.000 G0
ENDBRANCH   6   7
ENDBRANCH   5   6
ENDBRANCH   3   5
ENDBRANCH   1   3
BRANCH   1  11
ATOM     11  C   UNL     1       0.480 -23.246 -45.598  1.00  0.00     0.087 C 
BRANCH  11  12
ATOM     12  C   UNL     1       0.361 -24.781 -45.442  1.00  0.00     0.066 C 
BRANCH  12  13
ATOM     13  C   UNL     1      -0.882 -25.404 -46.075  1.00  0.00     0.140 C 
ATOM     14  O   UNL     1      -1.202 -25.004 -47.186  1.00  0.00    -0.299 OA
BRANCH  13  15
ATOM     15  C   UNL     1      -1.791 -26.409 -45.380  1.00  0.00     0.106 CG0
ATOM     16  G   UNL     1      -2.942 -25.709 -44.670  1.00  0.00     0.000 G0
ENDBRANCH  13  15
ENDBRANCH  12  13
BRANCH  12  17
ATOM     17  C   UNL     1       1.674 -25.509 -45.871  1.00  0.00    -0.006 C 
ATOM     18  C   UNL     1       2.683 -24.537 -46.504  1.00  0.00     0.008 C 
ATOM     19  C   UNL     1       2.346 -26.300 -44.737  1.00  0.00     0.008 C 
ENDBRANCH  12  17
ENDBRANCH  11  12
ENDBRANCH   1  11
TORSDOF 1
ENDMDL
MODEL 5
REMARK VINA RESULT:    -2.955      2.417      4.305
REMARK INTER + INTRA:          -4.577
REMARK INTER:                  -3.962
REMARK INTRA:                  -0.614
REMARK UNBOUND:                -0.066
REMARK SMILES CC1=CCC[C@H](C)C(=O)C[C@H](C(C)C)C(=O)C1
REMARK SMILES IDX 8 1 9 2 6 3 7 4 5 5 4 6 3 7 2 8 1 9 10 11 11 12 15 13 16 14
REMARK SMILES IDX 17 15 12 17 13 18 14 19
REMARK H PARENT
REMARK Flexibility Score: 70.00
ROOT
ATOM      1  C   UNL     1      -4.086  -8.522 -41.499  1.00  0.00     0.136 C 
ATOM      2  O   UNL     1      -4.088  -7.341 -41.175  1.00  0.00    -0.299 OA
ENDROOT
BRANCH   1   3
ATOM      3  C   UNL     1      -3.349  -8.959 -42.759  1.00  0.00     0.053 C 
ATOM      4  C   UNL     1      -3.834  -8.209 -44.011  1.00  0.00     0.016 C 
BRANCH   3   5
ATOM      5  C   UNL     1      -1.813  -8.791 -42.595  1.00  0.00     0.015 C 
BRANCH   5   6
ATOM      6  C   UNL     1      -1.214  -9.217 -41.237  1.00  0.00     0.028 C 
BRANCH   6   7
ATOM      7  C   UNL     1      -0.824 -10.667 -41.040  1.00  0.00    -0.028 C 
ATOM      8  C   UNL     1      -1.297 -11.528 -40.105  1.00  0.00    -0.070 CG0
ATOM      9  C   UNL     1      -0.587 -12.854 -39.964  1.00  0.00     0.039 C 
ATOM     10  G   UNL     1      -2.530 -11.282 -39.245  1.00  0.00     0.000 G0
ENDBRANCH   6   7
ENDBRANCH   5   6
ENDBRANCH   3   5
ENDBRANCH   1   3
BRANCH   1  11
ATOM     11  C   UNL     1      -4.859  -9.504 -40.632  1.00  0.00     0.087 C 
BRANCH  11  12
ATOM     12  C   UNL     1      -4.593 -10.989 -40.978  1.00  0.00     0.066 C 
BRANCH  12  13
ATOM     13  C   UNL     1      -3.815 -11.774 -39.924  1.00  0.00     0.140 C 
ATOM     14  O   UNL     1      -4.297 -12.835 -39.551  1.00  0.00    -0.299 OA
BRANCH  13  15
ATOM     15  C   UNL     1      -2.543 -11.281 -39.247  1.00  0.00     0.106 CG0
ATOM     16  G   UNL     1      -1.323 -11.530 -40.124  1.00  0.00     0.000 G0
ENDBRANCH  13  15
ENDBRANCH  12  13
BRANCH  12  17
ATOM     17  C   UNL     1      -5.899 -11.722 -41.420  1.00  0.00    -0.006 C 
ATOM     18  C   UNL     1      -7.156 -11.018 -40.884  1.00  0.00     0.008 C 
ATOM     19  C   UNL     1      -6.017 -11.922 -42.940  1.00  0.00     0.008 C 
ENDBRANCH  12  17
ENDBRANCH  11  12
ENDBRANCH   1  11
TORSDOF 1
ENDMDL
MODEL 6
REMARK VINA RESULT:    -2.914      2.046      3.506
REMARK INTER + INTRA:          -4.513
REMARK INTER:                  -4.401
REMARK INTRA:                  -0.112
REMARK UNBOUND:                -0.066
REMARK SMILES CC1=CCC[C@H](C)C(=O)C[C@H](C(C)C)C(=O)C1
REMARK SMILES IDX 8 1 9 2 6 3 7 4 5 5 4 6 3 7 2 8 1 9 10 11 11 12 15 13 16 14
REMARK SMILES IDX 17 15 12 17 13 18 14 19
REMARK H PARENT
REMARK Flexibility Score: 70.00
ROOT
ATOM      1  C   UNL     1      -1.082  -9.303 -41.316  1.00  0.00     0.136 C 
ATOM      2  O   UNL     1      -0.605  -8.963 -40.241  1.00  0.00    -0.299 OA
ENDROOT
BRANCH   1   3
ATOM      3  C   UNL     1      -0.200  -9.993 -42.350  1.00  0.00     0.053 C 
ATOM      4  C   UNL     1       1.269  -9.548 -42.257  1.00  0.00     0.016 C 
BRANCH   3   5
ATOM      5  C   UNL     1      -0.300 -11.539 -42.228  1.00  0.00     0.015 C 
BRANCH   5   6
ATOM      6  C   UNL     1      -0.227 -12.125 -40.802  1.00  0.00     0.028 C 
BRANCH   6   7
ATOM      7  C   UNL     1      -1.335 -13.048 -40.340  1.00  0.00    -0.028 C 
ATOM      8  C   UNL     1      -2.399 -12.733 -39.559  1.00  0.00    -0.070 CG0
ATOM      9  C   UNL     1      -3.242 -13.876 -39.046  1.00  0.00     0.039 C 
ATOM     10  G   UNL     1      -2.838 -11.314 -39.226  1.00  0.00     0.000 G0
ENDBRANCH   6   7
ENDBRANCH   5   6
ENDBRANCH   3   5
ENDBRANCH   1   3
BRANCH   1  11
ATOM     11  C   UNL     1      -2.546  -8.988 -41.583  1.00  0.00     0.087 C 
BRANCH  11  12
ATOM     12  C   UNL     1      -3.463 -10.235 -41.599  1.00  0.00     0.066 C 
BRANCH  12  13
ATOM     13  C   UNL     1      -3.841 -10.782 -40.224  1.00  0.00     0.140 C 
ATOM     14  O   UNL     1      -5.018 -10.710 -39.899  1.00  0.00    -0.299 OA
BRANCH  13  15
ATOM     15  C   UNL     1      -2.844 -11.318 -39.205  1.00  0.00     0.106 CG0
ATOM     16  G   UNL     1      -2.406 -12.733 -39.557  1.00  0.00     0.000 G0
ENDBRANCH  13  15
ENDBRANCH  12  13
BRANCH  12  17
ATOM     17  C   UNL     1      -4.708 -10.026 -42.517  1.00  0.00    -0.006 C 
ATOM     18  C   UNL     1      -4.528  -8.820 -43.454  1.00  0.00     0.008 C 
ATOM     19  C   UNL     1      -5.096 -11.270 -43.332  1.00  0.00     0.008 C 
ENDBRANCH  12  17
ENDBRANCH  11  12
ENDBRANCH   1  11
TORSDOF 1
ENDMDL
MODEL 7
REMARK VINA RESULT:    -2.910      1.988      4.271
REMARK INTER + INTRA:          -4.507
REMARK INTER:                  -4.314
REMARK INTRA:                  -0.192
REMARK UNBOUND:                -0.066
REMARK SMILES CC1=CCC[C@H](C)C(=O)C[C@H](C(C)C)C(=O)C1
REMARK SMILES IDX 8 1 9 2 6 3 7 4 5 5 4 6 3 7 2 8 1 9 10 11 11 12 15 13 16 14
REMARK SMILES IDX 17 15 12 17 13 18 14 19
REMARK H PARENT
REMARK Flexibility Score: 70.00
ROOT
ATOM      1  C   UNL     1      -0.806 -11.432 -41.550  1.00  0.00     0.136 C 
ATOM      2  O   UNL     1      -0.778 -11.617 -42.760  1.00  0.00    -0.299 OA
ENDROOT
BRANCH   1   3
ATOM      3  C   UNL     1       0.015 -10.303 -40.938  1.00  0.00     0.053 C 
ATOM      4  C   UNL     1       1.189  -9.881 -41.836  1.00  0.00     0.016 C 
BRANCH   3   5
ATOM      5  C   UNL     1      -0.878  -9.075 -40.610  1.00  0.00     0.015 C 
BRANCH   5   6
ATOM      6  C   UNL     1      -1.990  -8.740 -41.628  1.00  0.00     0.028 C 
BRANCH   6   7
ATOM      7  C   UNL     1      -3.364  -8.377 -41.107  1.00  0.00    -0.028 C 
ATOM      8  C   UNL     1      -4.446  -9.188 -40.997  1.00  0.00    -0.070 CG0
ATOM      9  C   UNL     1      -5.767  -8.537 -40.665  1.00  0.00     0.039 C 
ATOM     10  G   UNL     1      -4.405 -10.706 -41.115  1.00  0.00     0.000 G0
ENDBRANCH   6   7
ENDBRANCH   5   6
ENDBRANCH   3   5
ENDBRANCH   1   3
BRANCH   1  11
ATOM     11  C   UNL     1      -1.649 -12.372 -40.701  1.00  0.00     0.087 C 
BRANCH  11  12
ATOM     12  C   UNL     1      -2.428 -11.662 -39.567  1.00  0.00     0.066 C 
BRANCH  12  13
ATOM     13  C   UNL     1      -3.901 -11.389 -39.862  1.00  0.00     0.140 C 
ATOM     14  O   UNL     1      -4.719 -11.808 -39.053  1.00  0.00    -0.299 OA
BRANCH  13  15
ATOM     15  C   UNL     1      -4.417 -10.720 -41.129  1.00  0.00     0.106 CG0
ATOM     16  G   UNL     1      -4.420  -9.204 -40.987  1.00  0.00     0.000 G0
ENDBRANCH  13  15
ENDBRANCH  12  13
BRANCH  12  17
ATOM     17  C   UNL     1      -2.219 -12.371 -38.191  1.00  0.00    -0.006 C 
ATOM     18  C   UNL     1      -1.227 -13.541 -38.299  1.00  0.00     0.008 C 
ATOM     19  C   UNL     1      -1.792 -11.422 -37.061  1.00  0.00     0.008 C 
ENDBRANCH  12  17
ENDBRANCH  11  12
ENDBRANCH   1  11
TORSDOF 1
ENDMDL
MODEL 8
REMARK VINA RESULT:    -2.767      2.379      4.188
REMARK INTER + INTRA:          -4.289
REMARK INTER:                  -4.131
REMARK INTRA:                  -0.158
REMARK UNBOUND:                -0.066
REMARK SMILES CC1=CCC[C@H](C)C(=O)C[C@H](C(C)C)C(=O)C1
REMARK SMILES IDX 8 1 9 2 6 3 7 4 5 5 4 6 3 7 2 8 1 9 10 11 11 12 15 13 16 14
REMARK SMILES IDX 17 15 12 17 13 18 14 19
REMARK H PARENT
REMARK Flexibility Score: 70.00
ROOT
ATOM      1  C   UNL     1      -1.466 -12.154 -39.512  1.00  0.00     0.136 C 
ATOM      2  O   UNL     1      -1.627 -12.056 -38.302  1.00  0.00    -0.299 OA
ENDROOT
BRANCH   1   3
ATOM      3  C   UNL     1      -2.296 -13.155 -40.307  1.00  0.00     0.053 C 
ATOM      4  C   UNL     1      -2.187 -14.582 -39.745  1.00  0.00     0.016 C 
BRANCH   3   5
ATOM      5  C   UNL     1      -3.786 -12.718 -40.374  1.00  0.00     0.015 C 
BRANCH   5   6
ATOM      6  C   UNL     1      -4.256 -12.076 -41.697  1.00  0.00     0.028 C 
BRANCH   6   7
ATOM      7  C   UNL     1      -4.820 -10.671 -41.660  1.00  0.00    -0.028 C 
ATOM      8  C   UNL     1      -4.171  -9.515 -41.944  1.00  0.00    -0.070 CG0
ATOM      9  C   UNL     1      -4.881  -8.224 -41.613  1.00  0.00     0.039 C 
ATOM     10  G   UNL     1      -2.816  -9.429 -42.635  1.00  0.00     0.000 G0
ENDBRANCH   6   7
ENDBRANCH   5   6
ENDBRANCH   3   5
ENDBRANCH   1   3
BRANCH   1  11
ATOM     11  C   UNL     1      -0.407 -11.280 -40.167  1.00  0.00     0.087 C 
BRANCH  11  12
ATOM     12  C   UNL     1      -0.775 -10.816 -41.597  1.00  0.00     0.066 C 
BRANCH  12  13
ATOM     13  C   UNL     1      -1.664  -9.576 -41.670  1.00  0.00     0.140 C 
ATOM     14  O   UNL     1      -1.477  -8.706 -40.831  1.00  0.00    -0.299 OA
BRANCH  13  15
ATOM     15  C   UNL     1      -2.817  -9.399 -42.649  1.00  0.00     0.106 CG0
ATOM     16  G   UNL     1      -4.160  -9.526 -41.943  1.00  0.00     0.000 G0
ENDBRANCH  13  15
ENDBRANCH  12  13
BRANCH  12  17
ATOM     17  C   UNL     1       0.488 -10.696 -42.508  1.00  0.00    -0.006 C 
ATOM     18  C   UNL     1       1.410  -9.553 -42.054  1.00  0.00     0.008 C 
ATOM     19  C   UNL     1       1.291 -12.001 -42.634  1.00  0.00     0.008 C 
ENDBRANCH  12  17
ENDBRANCH  11  12
ENDBRANCH   1  11
TORSDOF 1
ENDMDL
MODEL 9
REMARK VINA RESULT:    -2.723     12.943     15.508
REMARK INTER + INTRA:          -4.222
REMARK INTER:                  -3.671
REMARK INTRA:                  -0.551
REMARK UNBOUND:                -0.066
REMARK SMILES CC1=CCC[C@H](C)C(=O)C[C@H](C(C)C)C(=O)C1
REMARK SMILES IDX 8 1 9 2 6 3 7 4 5 5 4 6 3 7 2 8 1 9 10 11 11 12 15 13 16 14
REMARK SMILES IDX 17 15 12 17 13 18 14 19
REMARK H PARENT
REMARK Flexibility Score: 70.00
ROOT
ATOM      1  C   UNL     1       0.599 -24.911 -45.456  1.00  0.00     0.136 C 
ATOM      2  O   UNL     1       0.709 -25.184 -46.644  1.00  0.00    -0.299 OA
ENDROOT
BRANCH   1   3
ATOM      3  C   UNL     1      -0.236 -25.807 -44.548  1.00  0.00     0.053 C 
ATOM      4  C   UNL     1      -1.594 -26.169 -45.172  1.00  0.00     0.016 C 
BRANCH   3   5
ATOM      5  C   UNL     1       0.541 -27.098 -44.169  1.00  0.00     0.015 C 
BRANCH   5   6
ATOM      6  C   UNL     1       2.072 -26.964 -44.027  1.00  0.00     0.028 C 
BRANCH   6   7
ATOM      7  C   UNL     1       2.659 -26.795 -42.641  1.00  0.00    -0.028 C 
ATOM      8  C   UNL     1       3.439 -25.779 -42.194  1.00  0.00    -0.070 CG0
ATOM      9  C   UNL     1       4.090 -25.950 -40.842  1.00  0.00     0.039 C 
ATOM     10  G   UNL     1       3.643 -24.458 -42.924  1.00  0.00     0.000 G0
ENDBRANCH   6   7
ENDBRANCH   5   6
ENDBRANCH   3   5
ENDBRANCH   1   3
BRANCH   1  11
ATOM     11  C   UNL     1       1.285 -23.654 -44.943  1.00  0.00     0.087 C 
BRANCH  11  12
ATOM     12  C   UNL     1       1.178 -23.463 -43.410  1.00  0.00     0.066 C 
BRANCH  12  13
ATOM     13  C   UNL     1       2.508 -23.467 -42.660  1.00  0.00     0.140 C 
ATOM     14  O   UNL     1       2.688 -22.577 -41.840  1.00  0.00    -0.299 OA
BRANCH  13  15
ATOM     15  C   UNL     1       3.649 -24.439 -42.931  1.00  0.00     0.106 CG0
ATOM     16  G   UNL     1       3.428 -25.760 -42.205  1.00  0.00     0.000 G0
ENDBRANCH  13  15
ENDBRANCH  12  13
BRANCH  12  17
ATOM     17  C   UNL     1       0.292 -22.231 -43.042  1.00  0.00    -0.006 C 
ATOM     18  C   UNL     1       0.001 -21.352 -44.269  1.00  0.00     0.008 C 
ATOM     19  C   UNL     1      -1.023 -22.599 -42.336  1.00  0.00     0.008 C 
ENDBRANCH  12  17
ENDBRANCH  11  12
ENDBRANCH   1  11
TORSDOF 1
ENDMDL
