MODEL 1
REMARK VINA RESULT:    -3.646      0.000      0.000
REMARK INTER + INTRA:          -4.331
REMARK INTER:                  -4.285
REMARK INTRA:                  -0.046
REMARK UNBOUND:                -0.046
REMARK SMILES O=C([O-])CCC(=O)[O-]
REMARK SMILES IDX 4 1 2 2 1 3 3 4 5 5 6 6 7 7 8 8
REMARK H PARENT
REMARK Flexibility Score: inf
ROOT
ATOM      1  C   UNL     1      -3.139   5.554   4.717  1.00  0.00     0.059 C 
ENDROOT
BRANCH   1   2
ATOM      2  C   UNL     1      -3.473   4.932   6.038  1.00  0.00     0.042 C 
ATOM      3  O   UNL     1      -3.553   3.681   6.146  1.00  0.00    -0.550 OA
ATOM      4  O   UNL     1      -3.656   5.732   7.158  1.00  0.00    -0.550 OA
ENDBRANCH   1   2
BRANCH   1   5
ATOM      5  C   UNL     1      -2.073   6.646   4.860  1.00  0.00     0.059 C 
BRANCH   5   6
ATOM      6  C   UNL     1      -2.687   8.011   4.937  1.00  0.00     0.042 C 
ATOM      7  O   UNL     1      -2.605   8.682   5.999  1.00  0.00    -0.550 OA
ATOM      8  O   UNL     1      -3.316   8.557   3.825  1.00  0.00    -0.550 OA
ENDBRANCH   5   6
ENDBRANCH   1   5
TORSDOF 3
ENDMDL
MODEL 2
REMARK VINA RESULT:    -3.525     13.447     14.362
REMARK INTER + INTRA:          -4.189
REMARK INTER:                  -4.085
REMARK INTRA:                  -0.104
REMARK UNBOUND:                -0.046
REMARK SMILES O=C([O-])CCC(=O)[O-]
REMARK SMILES IDX 4 1 2 2 1 3 3 4 5 5 6 6 7 7 8 8
REMARK H PARENT
REMARK Flexibility Score: inf
ROOT
ATOM      1  C   UNL     1      -5.525   3.028  -9.088  1.00  0.00     0.059 C 
ENDROOT
BRANCH   1   2
ATOM      2  C   UNL     1      -6.559   2.213  -8.375  1.00  0.00     0.042 C 
ATOM      3  O   UNL     1      -7.273   2.738  -7.481  1.00  0.00    -0.550 OA
ATOM      4  O   UNL     1      -6.764   0.885  -8.726  1.00  0.00    -0.550 OA
ENDBRANCH   1   2
BRANCH   1   5
ATOM      5  C   UNL     1      -4.104   2.610  -8.693  1.00  0.00     0.059 C 
BRANCH   5   6
ATOM      6  C   UNL     1      -3.455   3.629  -7.806  1.00  0.00     0.042 C 
ATOM      7  O   UNL     1      -2.326   4.100  -8.103  1.00  0.00    -0.550 OA
ATOM      8  O   UNL     1      -4.115   4.086  -6.672  1.00  0.00    -0.550 OA
ENDBRANCH   5   6
ENDBRANCH   1   5
TORSDOF 3
ENDMDL
MODEL 3
REMARK VINA RESULT:    -3.520     13.468     14.574
REMARK INTER + INTRA:          -4.184
REMARK INTER:                  -4.078
REMARK INTRA:                  -0.106
REMARK UNBOUND:                -0.046
REMARK SMILES O=C([O-])CCC(=O)[O-]
REMARK SMILES IDX 4 1 2 2 1 3 3 4 5 5 6 6 7 7 8 8
REMARK H PARENT
REMARK Flexibility Score: inf
ROOT
ATOM      1  C   UNL     1      -4.095   2.600  -8.707  1.00  0.00     0.059 C 
ENDROOT
BRANCH   1   2
ATOM      2  C   UNL     1      -3.451   3.626  -7.827  1.00  0.00     0.042 C 
ATOM      3  O   UNL     1      -2.321   4.094  -8.123  1.00  0.00    -0.550 OA
ATOM      4  O   UNL     1      -4.118   4.097  -6.703  1.00  0.00    -0.550 OA
ENDBRANCH   1   2
BRANCH   1   5
ATOM      5  C   UNL     1      -5.517   3.008  -9.106  1.00  0.00     0.059 C 
BRANCH   5   6
ATOM      6  C   UNL     1      -6.549   2.188  -8.392  1.00  0.00     0.042 C 
ATOM      7  O   UNL     1      -7.253   2.706  -7.487  1.00  0.00    -0.550 OA
ATOM      8  O   UNL     1      -6.758   0.863  -8.755  1.00  0.00    -0.550 OA
ENDBRANCH   5   6
ENDBRANCH   1   5
TORSDOF 3
ENDMDL
MODEL 4
REMARK VINA RESULT:    -3.334      1.663      3.989
REMARK INTER + INTRA:          -3.964
REMARK INTER:                  -3.905
REMARK INTRA:                  -0.059
REMARK UNBOUND:                -0.046
REMARK SMILES O=C([O-])CCC(=O)[O-]
REMARK SMILES IDX 4 1 2 2 1 3 3 4 5 5 6 6 7 7 8 8
REMARK H PARENT
REMARK Flexibility Score: inf
ROOT
ATOM      1  C   UNL     1      -2.180   8.245   6.313  1.00  0.00     0.059 C 
ENDROOT
BRANCH   1   2
ATOM      2  C   UNL     1      -3.011   9.486   6.433  1.00  0.00     0.042 C 
ATOM      3  O   UNL     1      -3.488  10.030   5.403  1.00  0.00    -0.550 OA
ATOM      4  O   UNL     1      -3.294  10.016   7.685  1.00  0.00    -0.550 OA
ENDBRANCH   1   2
BRANCH   1   5
ATOM      5  C   UNL     1      -2.547   7.438   5.064  1.00  0.00     0.059 C 
BRANCH   5   6
ATOM      6  C   UNL     1      -2.782   5.993   5.388  1.00  0.00     0.042 C 
ATOM      7  O   UNL     1      -2.320   5.093   4.639  1.00  0.00    -0.550 OA
ATOM      8  O   UNL     1      -3.477   5.642   6.538  1.00  0.00    -0.550 OA
ENDBRANCH   5   6
ENDBRANCH   1   5
TORSDOF 3
ENDMDL
MODEL 5
REMARK VINA RESULT:    -3.323      1.572      2.051
REMARK INTER + INTRA:          -3.952
REMARK INTER:                  -3.862
REMARK INTRA:                  -0.091
REMARK UNBOUND:                -0.046
REMARK SMILES O=C([O-])CCC(=O)[O-]
REMARK SMILES IDX 4 1 2 2 1 3 3 4 5 5 6 6 7 7 8 8
REMARK H PARENT
REMARK Flexibility Score: inf
ROOT
ATOM      1  C   UNL     1      -2.142   6.930   5.051  1.00  0.00     0.059 C 
ENDROOT
BRANCH   1   2
ATOM      2  C   UNL     1      -3.070   5.804   5.387  1.00  0.00     0.042 C 
ATOM      3  O   UNL     1      -3.464   5.018   4.486  1.00  0.00    -0.550 OA
ATOM      4  O   UNL     1      -3.467   5.598   6.702  1.00  0.00    -0.550 OA
ENDBRANCH   1   2
BRANCH   1   5
ATOM      5  C   UNL     1      -2.844   8.289   5.141  1.00  0.00     0.059 C 
BRANCH   5   6
ATOM      6  C   UNL     1      -2.582   8.961   6.455  1.00  0.00     0.042 C 
ATOM      7  O   UNL     1      -3.124  10.066   6.720  1.00  0.00    -0.550 OA
ATOM      8  O   UNL     1      -1.771   8.347   7.401  1.00  0.00    -0.550 OA
ENDBRANCH   5   6
ENDBRANCH   1   5
TORSDOF 3
ENDMDL
MODEL 6
REMARK VINA RESULT:    -3.243     12.342     14.131
REMARK INTER + INTRA:          -3.858
REMARK INTER:                  -3.764
REMARK INTRA:                  -0.094
REMARK UNBOUND:                -0.046
REMARK SMILES O=C([O-])CCC(=O)[O-]
REMARK SMILES IDX 4 1 2 2 1 3 3 4 5 5 6 6 7 7 8 8
REMARK H PARENT
REMARK Flexibility Score: inf
ROOT
ATOM      1  C   UNL     1       2.233  -4.890   7.871  1.00  0.00     0.059 C 
ENDROOT
BRANCH   1   2
ATOM      2  C   UNL     1       0.937  -5.484   7.411  1.00  0.00     0.042 C 
ATOM      3  O   UNL     1       0.769  -6.732   7.436  1.00  0.00    -0.550 OA
ATOM      4  O   UNL     1      -0.099  -4.659   6.994  1.00  0.00    -0.550 OA
ENDBRANCH   1   2
BRANCH   1   5
ATOM      5  C   UNL     1       3.351  -5.937   7.916  1.00  0.00     0.059 C 
BRANCH   5   6
ATOM      6  C   UNL     1       3.650  -6.366   9.320  1.00  0.00     0.042 C 
ATOM      7  O   UNL     1       4.194  -5.564  10.124  1.00  0.00    -0.550 OA
ATOM      8  O   UNL     1       3.292  -7.636   9.752  1.00  0.00    -0.550 OA
ENDBRANCH   5   6
ENDBRANCH   1   5
TORSDOF 3
ENDMDL
MODEL 7
REMARK VINA RESULT:    -3.222     12.344     14.022
REMARK INTER + INTRA:          -3.833
REMARK INTER:                  -3.713
REMARK INTRA:                  -0.120
REMARK UNBOUND:                -0.046
REMARK SMILES O=C([O-])CCC(=O)[O-]
REMARK SMILES IDX 4 1 2 2 1 3 3 4 5 5 6 6 7 7 8 8
REMARK H PARENT
REMARK Flexibility Score: inf
ROOT
ATOM      1  C   UNL     1       3.432  -5.784   7.841  1.00  0.00     0.059 C 
ENDROOT
BRANCH   1   2
ATOM      2  C   UNL     1       3.916  -6.287   9.166  1.00  0.00     0.042 C 
ATOM      3  O   UNL     1       3.302  -7.216   9.753  1.00  0.00    -0.550 OA
ATOM      4  O   UNL     1       5.069  -5.760   9.733  1.00  0.00    -0.550 OA
ENDBRANCH   1   2
BRANCH   1   5
ATOM      5  C   UNL     1       2.230  -4.846   7.997  1.00  0.00     0.059 C 
BRANCH   5   6
ATOM      6  C   UNL     1       0.975  -5.462   7.457  1.00  0.00     0.042 C 
ATOM      7  O   UNL     1       0.811  -6.709   7.503  1.00  0.00    -0.550 OA
ATOM      8  O   UNL     1      -0.030  -4.654   6.939  1.00  0.00    -0.550 OA
ENDBRANCH   5   6
ENDBRANCH   1   5
TORSDOF 3
ENDMDL
MODEL 8
REMARK VINA RESULT:    -3.134     12.607     14.564
REMARK INTER + INTRA:          -3.730
REMARK INTER:                  -3.638
REMARK INTRA:                  -0.092
REMARK UNBOUND:                -0.046
REMARK SMILES O=C([O-])CCC(=O)[O-]
REMARK SMILES IDX 4 1 2 2 1 3 3 4 5 5 6 6 7 7 8 8
REMARK H PARENT
REMARK Flexibility Score: inf
ROOT
ATOM      1  C   UNL     1       1.884  -6.608   8.092  1.00  0.00     0.059 C 
ENDROOT
BRANCH   1   2
ATOM      2  C   UNL     1       1.354  -5.341   7.493  1.00  0.00     0.042 C 
ATOM      3  O   UNL     1       2.130  -4.376   7.265  1.00  0.00    -0.550 OA
ATOM      4  O   UNL     1       0.012  -5.241   7.149  1.00  0.00    -0.550 OA
ENDBRANCH   1   2
BRANCH   1   5
ATOM      5  C   UNL     1       3.285  -6.411   8.681  1.00  0.00     0.059 C 
BRANCH   5   6
ATOM      6  C   UNL     1       4.332  -7.099   7.859  1.00  0.00     0.042 C 
ATOM      7  O   UNL     1       4.303  -8.350   7.715  1.00  0.00    -0.550 OA
ATOM      8  O   UNL     1       5.316  -6.355   7.220  1.00  0.00    -0.550 OA
ENDBRANCH   5   6
ENDBRANCH   1   5
TORSDOF 3
ENDMDL
MODEL 9
REMARK VINA RESULT:    -3.050     12.995     14.792
REMARK INTER + INTRA:          -3.631
REMARK INTER:                  -3.512
REMARK INTRA:                  -0.119
REMARK UNBOUND:                -0.046
REMARK SMILES O=C([O-])CCC(=O)[O-]
REMARK SMILES IDX 4 1 2 2 1 3 3 4 5 5 6 6 7 7 8 8
REMARK H PARENT
REMARK Flexibility Score: inf
ROOT
ATOM      1  C   UNL     1       3.987  -6.593   8.057  1.00  0.00     0.059 C 
ENDROOT
BRANCH   1   2
ATOM      2  C   UNL     1       3.759  -8.002   8.512  1.00  0.00     0.042 C 
ATOM      3  O   UNL     1       3.056  -8.232   9.531  1.00  0.00    -0.550 OA
ATOM      4  O   UNL     1       4.288  -9.063   7.788  1.00  0.00    -0.550 OA
ENDBRANCH   1   2
BRANCH   1   5
ATOM      5  C   UNL     1       2.991  -5.623   8.702  1.00  0.00     0.059 C 
BRANCH   5   6
ATOM      6  C   UNL     1       1.845  -5.318   7.786  1.00  0.00     0.042 C 
ATOM      7  O   UNL     1       1.830  -4.246   7.126  1.00  0.00    -0.550 OA
ATOM      8  O   UNL     1       0.813  -6.236   7.633  1.00  0.00    -0.550 OA
ENDBRANCH   5   6
ENDBRANCH   1   5
TORSDOF 3
ENDMDL
