MODEL 1
REMARK VINA RESULT:    -4.633      0.000      0.000
REMARK INTER + INTRA:          -7.275
REMARK INTER:                  -7.206
REMARK INTRA:                  -0.068
REMARK UNBOUND:                -0.068
REMARK SMILES COc1cc(CNC(=O)CCCCC=CC(C)C)ccc1O
REMARK SMILES IDX 11 1 12 2 13 3 14 4 15 5 16 6 17 7 18 8 10 9 8 10 9 11 7 12
REMARK SMILES IDX 6 14 5 15 4 16 19 17 3 18 20 19 21 20 2 21 1 22 22 23
REMARK H PARENT 7 13 22 24
REMARK Flexibility Score: inf
ROOT
ATOM      1  C   UNL     1      79.991  15.076   6.967  1.00  0.00     0.010 C 
ENDROOT
BRANCH   1   2
ATOM      2  C   UNL     1      79.800  14.900   8.485  1.00  0.00     0.005 C 
BRANCH   2   3
ATOM      3  C   UNL     1      81.114  14.601   9.220  1.00  0.00     0.027 C 
BRANCH   3   4
ATOM      4  C   UNL     1      81.508  15.751  10.111  1.00  0.00    -0.031 C 
ATOM      5  C   UNL     1      82.336  15.661  11.167  1.00  0.00    -0.028 C 
BRANCH   5   6
ATOM      6  C   UNL     1      82.964  14.381  11.678  1.00  0.00     0.005 C 
ATOM      7  C   UNL     1      82.187  13.877  12.895  1.00  0.00     0.012 C 
ATOM      8  C   UNL     1      84.430  14.634  12.038  1.00  0.00     0.012 C 
ENDBRANCH   5   6
ENDBRANCH   3   4
ENDBRANCH   2   3
ENDBRANCH   1   2
BRANCH   1   9
ATOM      9  C   UNL     1      79.379  13.950   6.115  1.00  0.00     0.100 C 
BRANCH   9  10
ATOM     10  C   UNL     1      79.223  14.355   4.678  1.00  0.00     0.220 C 
ATOM     11  O   UNL     1      78.141  14.877   4.296  1.00  0.00    -0.275 OA
ATOM     12  N   UNL     1      80.281  14.114   3.740  1.00  0.00    -0.352 N 
ATOM     13  H   UNL     1      81.207  13.786   4.093  1.00  0.00     0.163 HD
BRANCH  12  14
ATOM     14  C   UNL     1      80.050  14.083   2.298  1.00  0.00     0.151 C 
BRANCH  14  15
ATOM     15  C   UNL     1      79.511  15.413   1.847  1.00  0.00    -0.025 A 
ATOM     16  C   UNL     1      80.164  16.599   2.217  1.00  0.00     0.056 A 
ATOM     17  C   UNL     1      78.412  15.473   0.979  1.00  0.00     0.009 A 
ATOM     18  C   UNL     1      79.714  17.845   1.738  1.00  0.00     0.160 A 
ATOM     19  C   UNL     1      77.967  16.703   0.493  1.00  0.00     0.050 A 
ATOM     20  C   UNL     1      78.611  17.888   0.865  1.00  0.00     0.157 A 
BRANCH  18  21
ATOM     21  O   UNL     1      80.335  19.050   2.103  1.00  0.00    -0.493 OA
ATOM     22  C   UNL     1      81.592  19.496   1.603  1.00  0.00     0.278 C 
ENDBRANCH  18  21
BRANCH  20  23
ATOM     23  O   UNL     1      78.142  19.099   0.357  1.00  0.00    -0.504 OA
ATOM     24  H   UNL     1      77.787  19.834   0.956  1.00  0.00     0.293 HD
ENDBRANCH  20  23
ENDBRANCH  14  15
ENDBRANCH  12  14
ENDBRANCH   9  10
ENDBRANCH   1   9
TORSDOF 10
ENDMDL
MODEL 2
REMARK VINA RESULT:    -3.446      1.228      2.051
REMARK INTER + INTRA:          -5.427
REMARK INTER:                  -5.232
REMARK INTRA:                  -0.196
REMARK UNBOUND:                -0.068
REMARK SMILES COc1cc(CNC(=O)CCCCC=CC(C)C)ccc1O
REMARK SMILES IDX 11 1 12 2 13 3 14 4 15 5 16 6 17 7 18 8 10 9 8 10 9 11 7 12
REMARK SMILES IDX 6 14 5 15 4 16 19 17 3 18 20 19 21 20 2 21 1 22 22 23
REMARK H PARENT 7 13 22 24
REMARK Flexibility Score: inf
ROOT
ATOM      1  C   UNL     1      80.010  15.760   6.810  1.00  0.00     0.010 C 
ENDROOT
BRANCH   1   2
ATOM      2  C   UNL     1      79.917  16.208   8.280  1.00  0.00     0.005 C 
BRANCH   2   3
ATOM      3  C   UNL     1      80.764  15.341   9.222  1.00  0.00     0.027 C 
BRANCH   3   4
ATOM      4  C   UNL     1      81.635  16.197  10.105  1.00  0.00    -0.031 C 
ATOM      5  C   UNL     1      82.474  15.730  11.049  1.00  0.00    -0.028 C 
BRANCH   5   6
ATOM      6  C   UNL     1      82.639  14.273  11.425  1.00  0.00     0.005 C 
ATOM      7  C   UNL     1      82.124  14.046  12.848  1.00  0.00     0.012 C 
ATOM      8  C   UNL     1      84.114  13.875  11.313  1.00  0.00     0.012 C 
ENDBRANCH   5   6
ENDBRANCH   3   4
ENDBRANCH   2   3
ENDBRANCH   1   2
BRANCH   1   9
ATOM      9  C   UNL     1      78.940  14.736   6.389  1.00  0.00     0.100 C 
BRANCH   9  10
ATOM     10  C   UNL     1      79.014  14.419   4.923  1.00  0.00     0.220 C 
ATOM     11  O   UNL     1      80.052  13.876   4.459  1.00  0.00    -0.275 OA
ATOM     12  N   UNL     1      77.929  14.769   4.052  1.00  0.00    -0.352 N 
ATOM     13  H   UNL     1      77.035  15.114   4.469  1.00  0.00     0.163 HD
BRANCH  12  14
ATOM     14  C   UNL     1      78.098  14.883   2.606  1.00  0.00     0.151 C 
BRANCH  14  15
ATOM     15  C   UNL     1      78.800  16.172   2.282  1.00  0.00    -0.025 A 
ATOM     16  C   UNL     1      78.092  17.230   1.690  1.00  0.00     0.056 A 
ATOM     17  C   UNL     1      80.139  16.360   2.652  1.00  0.00     0.009 A 
ATOM     18  C   UNL     1      78.720  18.468   1.451  1.00  0.00     0.160 A 
ATOM     19  C   UNL     1      80.764  17.588   2.427  1.00  0.00     0.050 A 
ATOM     20  C   UNL     1      80.064  18.642   1.832  1.00  0.00     0.157 A 
BRANCH  18  21
ATOM     21  O   UNL     1      78.044  19.540   0.847  1.00  0.00    -0.493 OA
ATOM     22  C   UNL     1      76.644  19.568   0.583  1.00  0.00     0.278 C 
ENDBRANCH  18  21
BRANCH  20  23
ATOM     23  O   UNL     1      80.720  19.856   1.626  1.00  0.00    -0.504 OA
ATOM     24  H   UNL     1      80.220  20.735   1.564  1.00  0.00     0.293 HD
ENDBRANCH  20  23
ENDBRANCH  14  15
ENDBRANCH  12  14
ENDBRANCH   9  10
ENDBRANCH   1   9
TORSDOF 10
ENDMDL
MODEL 3
REMARK VINA RESULT:    -2.305      3.101      9.297
REMARK INTER + INTRA:          -3.653
REMARK INTER:                  -2.792
REMARK INTRA:                  -0.861
REMARK UNBOUND:                -0.068
REMARK SMILES COc1cc(CNC(=O)CCCCC=CC(C)C)ccc1O
REMARK SMILES IDX 11 1 12 2 13 3 14 4 15 5 16 6 17 7 18 8 10 9 8 10 9 11 7 12
REMARK SMILES IDX 6 14 5 15 4 16 19 17 3 18 20 19 21 20 2 21 1 22 22 23
REMARK H PARENT 7 13 22 24
REMARK Flexibility Score: inf
ROOT
ATOM      1  C   UNL     1      79.273  14.057   3.286  1.00  0.00     0.010 C 
ENDROOT
BRANCH   1   2
ATOM      2  C   UNL     1      80.041  14.113   1.953  1.00  0.00     0.005 C 
BRANCH   2   3
ATOM      3  C   UNL     1      79.219  14.741   0.818  1.00  0.00     0.027 C 
BRANCH   3   4
ATOM      4  C   UNL     1      77.971  15.393   1.353  1.00  0.00    -0.031 C 
ATOM      5  C   UNL     1      77.764  16.721   1.429  1.00  0.00    -0.028 C 
BRANCH   5   6
ATOM      6  C   UNL     1      78.773  17.784   1.049  1.00  0.00     0.005 C 
ATOM      7  C   UNL     1      79.716  18.045   2.226  1.00  0.00     0.012 C 
ATOM      8  C   UNL     1      78.043  19.068   0.646  1.00  0.00     0.012 C 
ENDBRANCH   5   6
ENDBRANCH   3   4
ENDBRANCH   2   3
ENDBRANCH   1   2
BRANCH   1   9
ATOM      9  C   UNL     1      80.167  13.902   4.528  1.00  0.00     0.100 C 
BRANCH   9  10
ATOM     10  C   UNL     1      79.640  14.679   5.700  1.00  0.00     0.220 C 
ATOM     11  O   UNL     1      78.942  15.708   5.496  1.00  0.00    -0.275 OA
ATOM     12  N   UNL     1      79.962  14.276   7.039  1.00  0.00    -0.352 N 
ATOM     13  H   UNL     1      80.444  13.362   7.192  1.00  0.00     0.163 HD
BRANCH  12  14
ATOM     14  C   UNL     1      79.854  15.190   8.173  1.00  0.00     0.151 C 
BRANCH  14  15
ATOM     15  C   UNL     1      80.995  14.950   9.123  1.00  0.00    -0.025 A 
ATOM     16  C   UNL     1      80.927  15.432  10.440  1.00  0.00     0.056 A 
ATOM     17  C   UNL     1      82.089  14.167   8.730  1.00  0.00     0.009 A 
ATOM     18  C   UNL     1      81.955  15.150  11.360  1.00  0.00     0.160 A 
ATOM     19  C   UNL     1      83.106  13.875   9.640  1.00  0.00     0.050 A 
ATOM     20  C   UNL     1      83.045  14.359  10.951  1.00  0.00     0.157 A 
BRANCH  18  21
ATOM     21  O   UNL     1      81.924  15.630  12.679  1.00  0.00    -0.493 OA
ATOM     22  C   UNL     1      80.953  15.260  13.653  1.00  0.00     0.278 C 
ENDBRANCH  18  21
BRANCH  20  23
ATOM     23  O   UNL     1      84.077  14.043  11.834  1.00  0.00    -0.504 OA
ATOM     24  H   UNL     1      84.303  13.087  12.081  1.00  0.00     0.293 HD
ENDBRANCH  20  23
ENDBRANCH  14  15
ENDBRANCH  12  14
ENDBRANCH   9  10
ENDBRANCH   1   9
TORSDOF 10
ENDMDL
