MODEL 1
REMARK VINA RESULT:    -4.441      0.000      0.000
REMARK INTER + INTRA:          -8.157
REMARK INTER:                  -6.777
REMARK INTRA:                  -1.380
REMARK UNBOUND:                -1.380
REMARK SMILES CCCCCCCCCC=CC(=O)[O-]
REMARK SMILES IDX 7 1 8 2 9 3 10 4 11 5 12 6 13 7 14 8 6 9 5 10 4 11 3 12 2 13
REMARK SMILES IDX 1 14
REMARK H PARENT
REMARK Flexibility Score: inf
ROOT
ATOM      1  C   UNL     1     -21.220  16.321  -1.201  1.00  0.00     0.000 C 
ENDROOT
BRANCH   1   2
ATOM      2  C   UNL     1     -21.624  15.614  -2.500  1.00  0.00     0.004 C 
BRANCH   2   3
ATOM      3  C   UNL     1     -20.998  16.304  -3.719  1.00  0.00     0.027 C 
BRANCH   3   4
ATOM      4  C   UNL     1     -21.680  15.887  -4.990  1.00  0.00    -0.025 C 
ATOM      5  C   UNL     1     -22.915  16.306  -5.290  1.00  0.00     0.020 C 
BRANCH   5   6
ATOM      6  C   UNL     1     -23.608  15.899  -6.523  1.00  0.00     0.064 C 
ATOM      7  O   UNL     1     -23.741  16.698  -7.489  1.00  0.00    -0.545 OA
ATOM      8  O   UNL     1     -24.125  14.614  -6.624  1.00  0.00    -0.545 OA
ENDBRANCH   5   6
ENDBRANCH   3   4
ENDBRANCH   2   3
ENDBRANCH   1   2
BRANCH   1   9
ATOM      9  C   UNL     1     -22.447  16.623  -0.333  1.00  0.00     0.000 C 
BRANCH   9  10
ATOM     10  C   UNL     1     -23.513  17.384  -1.134  1.00  0.00     0.000 C 
BRANCH  10  11
ATOM     11  C   UNL     1     -23.138  18.855  -1.388  1.00  0.00    -0.000 C 
BRANCH  11  12
ATOM     12  C   UNL     1     -22.929  19.226  -2.868  1.00  0.00    -0.000 C 
BRANCH  12  13
ATOM     13  C   UNL     1     -21.512  19.736  -3.163  1.00  0.00    -0.003 C 
ATOM     14  C   UNL     1     -20.744  20.003  -1.871  1.00  0.00     0.004 C 
ENDBRANCH  12  13
ENDBRANCH  11  12
ENDBRANCH  10  11
ENDBRANCH   9  10
ENDBRANCH   1   9
TORSDOF 9
ENDMDL
MODEL 2
REMARK VINA RESULT:    -4.069      1.174      3.229
REMARK INTER + INTRA:          -7.590
REMARK INTER:                  -6.320
REMARK INTRA:                  -1.270
REMARK UNBOUND:                -1.380
REMARK SMILES CCCCCCCCCC=CC(=O)[O-]
REMARK SMILES IDX 7 1 8 2 9 3 10 4 11 5 12 6 13 7 14 8 6 9 5 10 4 11 3 12 2 13
REMARK SMILES IDX 1 14
REMARK H PARENT
REMARK Flexibility Score: inf
ROOT
ATOM      1  C   UNL     1     -21.995  19.235  -3.459  1.00  0.00     0.000 C 
ENDROOT
BRANCH   1   2
ATOM      2  C   UNL     1     -23.494  19.265  -3.139  1.00  0.00     0.004 C 
BRANCH   2   3
ATOM      3  C   UNL     1     -24.125  17.879  -3.326  1.00  0.00     0.027 C 
BRANCH   3   4
ATOM      4  C   UNL     1     -23.994  17.410  -4.747  1.00  0.00    -0.025 C 
ATOM      5  C   UNL     1     -23.322  16.295  -5.055  1.00  0.00     0.020 C 
BRANCH   5   6
ATOM      6  C   UNL     1     -23.169  15.823  -6.441  1.00  0.00     0.064 C 
ATOM      7  O   UNL     1     -23.992  16.155  -7.336  1.00  0.00    -0.545 OA
ATOM      8  O   UNL     1     -22.100  14.999  -6.768  1.00  0.00    -0.545 OA
ENDBRANCH   5   6
ENDBRANCH   3   4
ENDBRANCH   2   3
ENDBRANCH   1   2
BRANCH   1   9
ATOM      9  C   UNL     1     -21.160  19.585  -2.222  1.00  0.00     0.000 C 
BRANCH   9  10
ATOM     10  C   UNL     1     -20.399  18.355  -1.706  1.00  0.00     0.000 C 
BRANCH  10  11
ATOM     11  C   UNL     1     -20.685  17.084  -2.526  1.00  0.00    -0.000 C 
BRANCH  11  12
ATOM     12  C   UNL     1     -21.348  15.938  -1.738  1.00  0.00    -0.000 C 
BRANCH  12  13
ATOM     13  C   UNL     1     -21.676  16.321  -0.289  1.00  0.00    -0.003 C 
ATOM     14  C   UNL     1     -23.138  16.740  -0.148  1.00  0.00     0.004 C 
ENDBRANCH  12  13
ENDBRANCH  11  12
ENDBRANCH  10  11
ENDBRANCH   9  10
ENDBRANCH   1   9
TORSDOF 9
ENDMDL
MODEL 3
REMARK VINA RESULT:    -4.055      0.840      2.533
REMARK INTER + INTRA:          -7.568
REMARK INTER:                  -6.227
REMARK INTRA:                  -1.342
REMARK UNBOUND:                -1.380
REMARK SMILES CCCCCCCCCC=CC(=O)[O-]
REMARK SMILES IDX 7 1 8 2 9 3 10 4 11 5 12 6 13 7 14 8 6 9 5 10 4 11 3 12 2 13
REMARK SMILES IDX 1 14
REMARK H PARENT
REMARK Flexibility Score: inf
ROOT
ATOM      1  C   UNL     1     -20.392  18.588  -2.279  1.00  0.00     0.000 C 
ENDROOT
BRANCH   1   2
ATOM      2  C   UNL     1     -20.615  17.917  -3.639  1.00  0.00     0.004 C 
BRANCH   2   3
ATOM      3  C   UNL     1     -20.920  16.423  -3.471  1.00  0.00     0.027 C 
BRANCH   3   4
ATOM      4  C   UNL     1     -21.640  15.877  -4.671  1.00  0.00    -0.025 C 
ATOM      5  C   UNL     1     -22.697  16.504  -5.197  1.00  0.00     0.020 C 
BRANCH   5   6
ATOM      6  C   UNL     1     -23.426  15.981  -6.363  1.00  0.00     0.064 C 
ATOM      7  O   UNL     1     -23.427  14.749  -6.632  1.00  0.00    -0.545 OA
ATOM      8  O   UNL     1     -24.125  16.859  -7.182  1.00  0.00    -0.545 OA
ENDBRANCH   5   6
ENDBRANCH   3   4
ENDBRANCH   2   3
ENDBRANCH   1   2
BRANCH   1   9
ATOM      9  C   UNL     1     -21.516  19.582  -1.964  1.00  0.00     0.000 C 
BRANCH   9  10
ATOM     10  C   UNL     1     -22.647  19.477  -2.996  1.00  0.00     0.000 C 
BRANCH  10  11
ATOM     11  C   UNL     1     -23.934  18.861  -2.418  1.00  0.00    -0.000 C 
BRANCH  11  12
ATOM     12  C   UNL     1     -23.872  18.516  -0.918  1.00  0.00    -0.000 C 
BRANCH  12  13
ATOM     13  C   UNL     1     -23.845  17.005  -0.652  1.00  0.00    -0.003 C 
ATOM     14  C   UNL     1     -22.487  16.567  -0.110  1.00  0.00     0.004 C 
ENDBRANCH  12  13
ENDBRANCH  11  12
ENDBRANCH  10  11
ENDBRANCH   9  10
ENDBRANCH   1   9
TORSDOF 9
ENDMDL
MODEL 4
REMARK VINA RESULT:    -3.769      1.252      2.086
REMARK INTER + INTRA:          -7.132
REMARK INTER:                  -5.932
REMARK INTRA:                  -1.200
REMARK UNBOUND:                -1.380
REMARK SMILES CCCCCCCCCC=CC(=O)[O-]
REMARK SMILES IDX 7 1 8 2 9 3 10 4 11 5 12 6 13 7 14 8 6 9 5 10 4 11 3 12 2 13
REMARK SMILES IDX 1 14
REMARK H PARENT
REMARK Flexibility Score: inf
ROOT
ATOM      1  C   UNL     1     -23.834  17.150  -0.853  1.00  0.00     0.000 C 
ENDROOT
BRANCH   1   2
ATOM      2  C   UNL     1     -23.948  16.684  -2.309  1.00  0.00     0.004 C 
BRANCH   2   3
ATOM      3  C   UNL     1     -24.125  17.878  -3.256  1.00  0.00     0.027 C 
BRANCH   3   4
ATOM      4  C   UNL     1     -23.889  17.479  -4.685  1.00  0.00    -0.025 C 
ATOM      5  C   UNL     1     -23.230  16.357  -4.997  1.00  0.00     0.020 C 
BRANCH   5   6
ATOM      6  C   UNL     1     -22.976  15.953  -6.389  1.00  0.00     0.064 C 
ATOM      7  O   UNL     1     -23.593  16.492  -7.347  1.00  0.00    -0.545 OA
ATOM      8  O   UNL     1     -22.040  14.961  -6.652  1.00  0.00    -0.545 OA
ENDBRANCH   5   6
ENDBRANCH   3   4
ENDBRANCH   2   3
ENDBRANCH   1   2
BRANCH   1   9
ATOM      9  C   UNL     1     -22.392  17.029  -0.347  1.00  0.00     0.000 C 
BRANCH   9  10
ATOM     10  C   UNL     1     -21.470  16.472  -1.442  1.00  0.00     0.000 C 
BRANCH  10  11
ATOM     11  C   UNL     1     -20.367  17.462  -1.859  1.00  0.00    -0.000 C 
BRANCH  11  12
ATOM     12  C   UNL     1     -20.686  18.303  -3.109  1.00  0.00    -0.000 C 
BRANCH  12  13
ATOM     13  C   UNL     1     -21.209  19.705  -2.768  1.00  0.00    -0.003 C 
ATOM     14  C   UNL     1     -20.410  20.328  -1.626  1.00  0.00     0.004 C 
ENDBRANCH  12  13
ENDBRANCH  11  12
ENDBRANCH  10  11
ENDBRANCH   9  10
ENDBRANCH   1   9
TORSDOF 9
ENDMDL
MODEL 5
REMARK VINA RESULT:    -3.554      3.874      6.042
REMARK INTER + INTRA:          -6.804
REMARK INTER:                  -6.172
REMARK INTRA:                  -0.632
REMARK UNBOUND:                -1.380
REMARK SMILES CCCCCCCCCC=CC(=O)[O-]
REMARK SMILES IDX 7 1 8 2 9 3 10 4 11 5 12 6 13 7 14 8 6 9 5 10 4 11 3 12 2 13
REMARK SMILES IDX 1 14
REMARK H PARENT
REMARK Flexibility Score: inf
ROOT
ATOM      1  C   UNL     1     -21.358  18.866  -1.908  1.00  0.00     0.000 C 
ENDROOT
BRANCH   1   2
ATOM      2  C   UNL     1     -22.823  18.496  -1.648  1.00  0.00     0.004 C 
BRANCH   2   3
ATOM      3  C   UNL     1     -22.981  16.983  -1.452  1.00  0.00     0.027 C 
BRANCH   3   4
ATOM      4  C   UNL     1     -23.019  16.624   0.006  1.00  0.00    -0.025 C 
ATOM      5  C   UNL     1     -21.939  16.153   0.639  1.00  0.00     0.020 C 
BRANCH   5   6
ATOM      6  C   UNL     1     -21.956  15.783   2.062  1.00  0.00     0.064 C 
ATOM      7  O   UNL     1     -20.902  15.798   2.753  1.00  0.00    -0.545 OA
ATOM      8  O   UNL     1     -23.155  15.409   2.656  1.00  0.00    -0.545 OA
ENDBRANCH   5   6
ENDBRANCH   3   4
ENDBRANCH   2   3
ENDBRANCH   1   2
BRANCH   1   9
ATOM      9  C   UNL     1     -20.563  17.652  -2.403  1.00  0.00     0.000 C 
BRANCH   9  10
ATOM     10  C   UNL     1     -20.620  17.545  -3.934  1.00  0.00     0.000 C 
BRANCH  10  11
ATOM     11  C   UNL     1     -21.119  16.174  -4.422  1.00  0.00    -0.000 C 
BRANCH  11  12
ATOM     12  C   UNL     1     -22.528  16.178  -5.044  1.00  0.00    -0.000 C 
BRANCH  12  13
ATOM     13  C   UNL     1     -22.597  15.413  -6.373  1.00  0.00    -0.003 C 
ATOM     14  C   UNL     1     -23.491  16.136  -7.378  1.00  0.00     0.004 C 
ENDBRANCH  12  13
ENDBRANCH  11  12
ENDBRANCH  10  11
ENDBRANCH   9  10
ENDBRANCH   1   9
TORSDOF 9
ENDMDL
MODEL 6
REMARK VINA RESULT:    -3.514      2.723      4.931
REMARK INTER + INTRA:          -6.743
REMARK INTER:                  -5.900
REMARK INTRA:                  -0.843
REMARK UNBOUND:                -1.380
REMARK SMILES CCCCCCCCCC=CC(=O)[O-]
REMARK SMILES IDX 7 1 8 2 9 3 10 4 11 5 12 6 13 7 14 8 6 9 5 10 4 11 3 12 2 13
REMARK SMILES IDX 1 14
REMARK H PARENT
REMARK Flexibility Score: inf
ROOT
ATOM      1  C   UNL     1     -21.924  16.364  -0.269  1.00  0.00     0.000 C 
ENDROOT
BRANCH   1   2
ATOM      2  C   UNL     1     -23.352  16.718  -0.701  1.00  0.00     0.004 C 
BRANCH   2   3
ATOM      3  C   UNL     1     -23.578  18.235  -0.658  1.00  0.00     0.027 C 
BRANCH   3   4
ATOM      4  C   UNL     1     -22.793  18.933  -1.732  1.00  0.00    -0.025 C 
ATOM      5  C   UNL     1     -21.581  19.445  -1.491  1.00  0.00     0.020 C 
BRANCH   5   6
ATOM      6  C   UNL     1     -20.800  20.144  -2.523  1.00  0.00     0.064 C 
ATOM      7  O   UNL     1     -20.792  19.742  -3.718  1.00  0.00    -0.545 OA
ATOM      8  O   UNL     1     -20.059  21.266  -2.175  1.00  0.00    -0.545 OA
ENDBRANCH   5   6
ENDBRANCH   3   4
ENDBRANCH   2   3
ENDBRANCH   1   2
BRANCH   1   9
ATOM      9  C   UNL     1     -21.109  15.822  -1.449  1.00  0.00     0.000 C 
BRANCH   9  10
ATOM     10  C   UNL     1     -22.003  15.602  -2.679  1.00  0.00     0.000 C 
BRANCH  10  11
ATOM     11  C   UNL     1     -21.440  16.253  -3.955  1.00  0.00    -0.000 C 
BRANCH  11  12
ATOM     12  C   UNL     1     -22.495  16.891  -4.878  1.00  0.00    -0.000 C 
BRANCH  12  13
ATOM     13  C   UNL     1     -23.097  15.892  -5.877  1.00  0.00    -0.003 C 
ATOM     14  C   UNL     1     -22.002  15.157  -6.646  1.00  0.00     0.004 C 
ENDBRANCH  12  13
ENDBRANCH  11  12
ENDBRANCH  10  11
ENDBRANCH   9  10
ENDBRANCH   1   9
TORSDOF 9
ENDMDL
MODEL 7
REMARK VINA RESULT:    -3.509      3.006      4.252
REMARK INTER + INTRA:          -6.735
REMARK INTER:                  -5.645
REMARK INTRA:                  -1.089
REMARK UNBOUND:                -1.380
REMARK SMILES CCCCCCCCCC=CC(=O)[O-]
REMARK SMILES IDX 7 1 8 2 9 3 10 4 11 5 12 6 13 7 14 8 6 9 5 10 4 11 3 12 2 13
REMARK SMILES IDX 1 14
REMARK H PARENT
REMARK Flexibility Score: inf
ROOT
ATOM      1  C   UNL     1     -23.128  16.174  -4.588  1.00  0.00     0.000 C 
ENDROOT
BRANCH   1   2
ATOM      2  C   UNL     1     -21.601  16.275  -4.691  1.00  0.00     0.004 C 
BRANCH   2   3
ATOM      3  C   UNL     1     -20.923  15.582  -3.502  1.00  0.00     0.027 C 
BRANCH   3   4
ATOM      4  C   UNL     1     -21.782  15.650  -2.271  1.00  0.00    -0.025 C 
ATOM      5  C   UNL     1     -21.364  16.266  -1.160  1.00  0.00     0.020 C 
BRANCH   5   6
ATOM      6  C   UNL     1     -22.182  16.333   0.061  1.00  0.00     0.064 C 
ATOM      7  O   UNL     1     -21.716  15.980   1.178  1.00  0.00    -0.545 OA
ATOM      8  O   UNL     1     -23.490  16.792  -0.018  1.00  0.00    -0.545 OA
ENDBRANCH   5   6
ENDBRANCH   3   4
ENDBRANCH   2   3
ENDBRANCH   1   2
BRANCH   1   9
ATOM      9  C   UNL     1     -23.773  17.565  -4.593  1.00  0.00     0.000 C 
BRANCH   9  10
ATOM     10  C   UNL     1     -24.049  18.048  -3.162  1.00  0.00     0.000 C 
BRANCH  10  11
ATOM     11  C   UNL     1     -23.400  19.409  -2.851  1.00  0.00    -0.000 C 
BRANCH  11  12
ATOM     12  C   UNL     1     -21.975  19.591  -3.404  1.00  0.00    -0.000 C 
BRANCH  12  13
ATOM     13  C   UNL     1     -20.886  19.272  -2.370  1.00  0.00    -0.003 C 
ATOM     14  C   UNL     1     -20.355  20.548  -1.720  1.00  0.00     0.004 C 
ENDBRANCH  12  13
ENDBRANCH  11  12
ENDBRANCH  10  11
ENDBRANCH   9  10
ENDBRANCH   1   9
TORSDOF 9
ENDMDL
MODEL 8
REMARK VINA RESULT:    -3.440      3.090      5.081
REMARK INTER + INTRA:          -6.631
REMARK INTER:                  -5.434
REMARK INTRA:                  -1.197
REMARK UNBOUND:                -1.380
REMARK SMILES CCCCCCCCCC=CC(=O)[O-]
REMARK SMILES IDX 7 1 8 2 9 3 10 4 11 5 12 6 13 7 14 8 6 9 5 10 4 11 3 12 2 13
REMARK SMILES IDX 1 14
REMARK H PARENT
REMARK Flexibility Score: inf
ROOT
ATOM      1  C   UNL     1     -23.483  16.389  -4.611  1.00  0.00     0.000 C 
ENDROOT
BRANCH   1   2
ATOM      2  C   UNL     1     -23.572  17.920  -4.591  1.00  0.00     0.004 C 
BRANCH   2   3
ATOM      3  C   UNL     1     -24.038  18.425  -3.219  1.00  0.00     0.027 C 
BRANCH   3   4
ATOM      4  C   UNL     1     -22.893  18.996  -2.433  1.00  0.00    -0.025 C 
ATOM      5  C   UNL     1     -21.777  19.424  -3.034  1.00  0.00     0.020 C 
BRANCH   5   6
ATOM      6  C   UNL     1     -20.637  19.975  -2.283  1.00  0.00     0.064 C 
ATOM      7  O   UNL     1     -20.334  21.196  -2.362  1.00  0.00    -0.545 OA
ATOM      8  O   UNL     1     -19.883  19.136  -1.473  1.00  0.00    -0.545 OA
ENDBRANCH   5   6
ENDBRANCH   3   4
ENDBRANCH   2   3
ENDBRANCH   1   2
BRANCH   1   9
ATOM      9  C   UNL     1     -22.056  15.925  -4.928  1.00  0.00     0.000 C 
BRANCH   9  10
ATOM     10  C   UNL     1     -21.137  16.104  -3.711  1.00  0.00     0.000 C 
BRANCH  10  11
ATOM     11  C   UNL     1     -21.728  15.512  -2.419  1.00  0.00    -0.000 C 
BRANCH  11  12
ATOM     12  C   UNL     1     -21.053  15.987  -1.119  1.00  0.00    -0.000 C 
BRANCH  12  13
ATOM     13  C   UNL     1     -22.061  16.324  -0.011  1.00  0.00    -0.003 C 
ATOM     14  C   UNL     1     -21.548  15.876   1.355  1.00  0.00     0.004 C 
ENDBRANCH  12  13
ENDBRANCH  11  12
ENDBRANCH  10  11
ENDBRANCH   9  10
ENDBRANCH   1   9
TORSDOF 9
ENDMDL
