MODEL 1
REMARK VINA RESULT:    -5.018      0.000      0.000
REMARK INTER + INTRA:          -9.584
REMARK INTER:                  -8.832
REMARK INTRA:                  -0.752
REMARK UNBOUND:                -0.752
REMARK SMILES CCCCCCCCCCCCCCC(=O)[O-]
REMARK SMILES IDX 9 1 10 2 11 3 12 4 13 5 14 6 15 7 16 8 17 9 8 10 7 11 6 12
REMARK SMILES IDX 5 13 4 14 3 15 2 16 1 17
REMARK H PARENT
REMARK Flexibility Score: inf
ROOT
ATOM      1  C   UNL     1    -129.304 112.025  43.777  1.00  0.00     0.000 C 
ENDROOT
BRANCH   1   2
ATOM      2  C   UNL     1    -129.302 110.669  43.051  1.00  0.00     0.000 C 
BRANCH   2   3
ATOM      3  C   UNL     1    -129.910 109.541  43.903  1.00  0.00     0.000 C 
BRANCH   3   4
ATOM      4  C   UNL     1    -130.115 108.243  43.106  1.00  0.00     0.000 C 
BRANCH   4   5
ATOM      5  C   UNL     1    -129.417 108.275  41.737  1.00  0.00     0.006 C 
BRANCH   5   6
ATOM      6  C   UNL     1    -128.659 106.970  41.479  1.00  0.00     0.053 C 
BRANCH   6   7
ATOM      7  C   UNL     1    -129.314 106.191  40.384  1.00  0.00     0.041 C 
ATOM      8  O   UNL     1    -129.669 104.999  40.579  1.00  0.00    -0.550 OA
ATOM      9  O   UNL     1    -129.576 106.796  39.162  1.00  0.00    -0.550 OA
ENDBRANCH   6   7
ENDBRANCH   5   6
ENDBRANCH   4   5
ENDBRANCH   3   4
ENDBRANCH   2   3
ENDBRANCH   1   2
BRANCH   1  10
ATOM     10  C   UNL     1    -129.717 113.185  42.860  1.00  0.00     0.000 C 
BRANCH  10  11
ATOM     11  C   UNL     1    -129.365 114.539  43.495  1.00  0.00    -0.000 C 
BRANCH  11  12
ATOM     12  C   UNL     1    -129.551 114.543  45.020  1.00  0.00    -0.000 C 
BRANCH  12  13
ATOM     13  C   UNL     1    -129.892 115.938  45.572  1.00  0.00    -0.000 C 
BRANCH  13  14
ATOM     14  C   UNL     1    -129.977 117.003  44.467  1.00  0.00    -0.000 C 
BRANCH  14  15
ATOM     15  C   UNL     1    -129.392 118.357  44.907  1.00  0.00    -0.000 C 
BRANCH  15  16
ATOM     16  C   UNL     1    -128.599 119.047  43.787  1.00  0.00    -0.003 C 
ATOM     17  C   UNL     1    -128.504 118.197  42.521  1.00  0.00     0.004 C 
ENDBRANCH  15  16
ENDBRANCH  14  15
ENDBRANCH  13  14
ENDBRANCH  12  13
ENDBRANCH  11  12
ENDBRANCH  10  11
ENDBRANCH   1  10
TORSDOF 13
ENDMDL
MODEL 2
REMARK VINA RESULT:    -4.944      1.529      2.596
REMARK INTER + INTRA:          -9.454
REMARK INTER:                  -8.548
REMARK INTRA:                  -0.906
REMARK UNBOUND:                -0.752
REMARK SMILES CCCCCCCCCCCCCCC(=O)[O-]
REMARK SMILES IDX 9 1 10 2 11 3 12 4 13 5 14 6 15 7 16 8 17 9 8 10 7 11 6 12
REMARK SMILES IDX 5 13 4 14 3 15 2 16 1 17
REMARK H PARENT
REMARK Flexibility Score: inf
ROOT
ATOM      1  C   UNL     1    -129.032 112.972  43.651  1.00  0.00     0.000 C 
ENDROOT
BRANCH   1   2
ATOM      2  C   UNL     1    -129.366 111.502  43.956  1.00  0.00     0.000 C 
BRANCH   2   3
ATOM      3  C   UNL     1    -129.418 110.632  42.687  1.00  0.00     0.000 C 
BRANCH   3   4
ATOM      4  C   UNL     1    -129.389 109.128  43.001  1.00  0.00     0.000 C 
BRANCH   4   5
ATOM      5  C   UNL     1    -129.318 108.261  41.734  1.00  0.00     0.006 C 
BRANCH   5   6
ATOM      6  C   UNL     1    -129.311 109.132  40.475  1.00  0.00     0.053 C 
BRANCH   6   7
ATOM      7  C   UNL     1    -130.401 108.712  39.541  1.00  0.00     0.041 C 
ATOM      8  O   UNL     1    -131.386 109.469  39.336  1.00  0.00    -0.550 OA
ATOM      9  O   UNL     1    -130.308 107.505  38.861  1.00  0.00    -0.550 OA
ENDBRANCH   6   7
ENDBRANCH   5   6
ENDBRANCH   4   5
ENDBRANCH   3   4
ENDBRANCH   2   3
ENDBRANCH   1   2
BRANCH   1  10
ATOM     10  C   UNL     1    -129.926 113.564  42.552  1.00  0.00     0.000 C 
BRANCH  10  11
ATOM     11  C   UNL     1    -129.473 114.984  42.182  1.00  0.00    -0.000 C 
BRANCH  11  12
ATOM     12  C   UNL     1    -130.292 116.071  42.895  1.00  0.00    -0.000 C 
BRANCH  12  13
ATOM     13  C   UNL     1    -129.439 117.284  43.302  1.00  0.00    -0.000 C 
BRANCH  13  14
ATOM     14  C   UNL     1    -129.303 117.424  44.827  1.00  0.00    -0.000 C 
BRANCH  14  15
ATOM     15  C   UNL     1    -129.785 116.170  45.579  1.00  0.00    -0.000 C 
BRANCH  15  16
ATOM     16  C   UNL     1    -130.791 116.502  46.691  1.00  0.00    -0.003 C 
ATOM     17  C   UNL     1    -130.983 118.006  46.885  1.00  0.00     0.004 C 
ENDBRANCH  15  16
ENDBRANCH  14  15
ENDBRANCH  13  14
ENDBRANCH  12  13
ENDBRANCH  11  12
ENDBRANCH  10  11
ENDBRANCH   1  10
TORSDOF 13
ENDMDL
MODEL 3
REMARK VINA RESULT:    -4.924      1.092      2.189
REMARK INTER + INTRA:          -9.418
REMARK INTER:                  -8.696
REMARK INTRA:                  -0.723
REMARK UNBOUND:                -0.752
REMARK SMILES CCCCCCCCCCCCCCC(=O)[O-]
REMARK SMILES IDX 9 1 10 2 11 3 12 4 13 5 14 6 15 7 16 8 17 9 8 10 7 11 6 12
REMARK SMILES IDX 5 13 4 14 3 15 2 16 1 17
REMARK H PARENT
REMARK Flexibility Score: inf
ROOT
ATOM      1  C   UNL     1    -129.337 111.750  44.081  1.00  0.00     0.000 C 
ENDROOT
BRANCH   1   2
ATOM      2  C   UNL     1    -129.312 110.886  42.808  1.00  0.00     0.000 C 
BRANCH   2   3
ATOM      3  C   UNL     1    -129.392 109.380  43.115  1.00  0.00     0.000 C 
BRANCH   3   4
ATOM      4  C   UNL     1    -128.549 108.535  42.147  1.00  0.00     0.000 C 
BRANCH   4   5
ATOM      5  C   UNL     1    -129.401 107.831  41.080  1.00  0.00     0.006 C 
BRANCH   5   6
ATOM      6  C   UNL     1    -129.086 106.333  41.029  1.00  0.00     0.053 C 
BRANCH   6   7
ATOM      7  C   UNL     1    -129.372 105.784  39.667  1.00  0.00     0.041 C 
ATOM      8  O   UNL     1    -129.797 106.541  38.755  1.00  0.00    -0.550 OA
ATOM      9  O   UNL     1    -129.125 104.445  39.391  1.00  0.00    -0.550 OA
ENDBRANCH   6   7
ENDBRANCH   5   6
ENDBRANCH   4   5
ENDBRANCH   3   4
ENDBRANCH   2   3
ENDBRANCH   1   2
BRANCH   1  10
ATOM     10  C   UNL     1    -129.043 113.229  43.796  1.00  0.00     0.000 C 
BRANCH  10  11
ATOM     11  C   UNL     1    -130.094 113.825  42.847  1.00  0.00    -0.000 C 
BRANCH  11  12
ATOM     12  C   UNL     1    -129.597 115.093  42.134  1.00  0.00    -0.000 C 
BRANCH  12  13
ATOM     13  C   UNL     1    -130.264 116.372  42.668  1.00  0.00    -0.000 C 
BRANCH  13  14
ATOM     14  C   UNL     1    -129.284 117.270  43.440  1.00  0.00    -0.000 C 
BRANCH  14  15
ATOM     15  C   UNL     1    -129.788 117.615  44.852  1.00  0.00    -0.000 C 
BRANCH  15  16
ATOM     16  C   UNL     1    -130.105 116.365  45.687  1.00  0.00    -0.003 C 
ATOM     17  C   UNL     1    -130.848 116.693  46.981  1.00  0.00     0.004 C 
ENDBRANCH  15  16
ENDBRANCH  14  15
ENDBRANCH  13  14
ENDBRANCH  12  13
ENDBRANCH  11  12
ENDBRANCH  10  11
ENDBRANCH   1  10
TORSDOF 13
ENDMDL
MODEL 4
REMARK VINA RESULT:    -4.846      1.052      2.108
REMARK INTER + INTRA:          -9.281
REMARK INTER:                  -8.566
REMARK INTRA:                  -0.714
REMARK UNBOUND:                -0.752
REMARK SMILES CCCCCCCCCCCCCCC(=O)[O-]
REMARK SMILES IDX 9 1 10 2 11 3 12 4 13 5 14 6 15 7 16 8 17 9 8 10 7 11 6 12
REMARK SMILES IDX 5 13 4 14 3 15 2 16 1 17
REMARK H PARENT
REMARK Flexibility Score: inf
ROOT
ATOM      1  C   UNL     1    -129.389 110.112  42.945  1.00  0.00     0.000 C 
ENDROOT
BRANCH   1   2
ATOM      2  C   UNL     1    -129.547 110.055  41.417  1.00  0.00     0.000 C 
BRANCH   2   3
ATOM      3  C   UNL     1    -129.743 108.620  40.895  1.00  0.00     0.000 C 
BRANCH   3   4
ATOM      4  C   UNL     1    -129.142 107.563  41.835  1.00  0.00     0.000 C 
BRANCH   4   5
ATOM      5  C   UNL     1    -128.527 106.378  41.075  1.00  0.00     0.006 C 
BRANCH   5   6
ATOM      6  C   UNL     1    -129.617 105.456  40.522  1.00  0.00     0.053 C 
BRANCH   6   7
ATOM      7  C   UNL     1    -129.497 105.336  39.036  1.00  0.00     0.041 C 
ATOM      8  O   UNL     1    -129.218 106.346  38.338  1.00  0.00    -0.550 OA
ATOM      9  O   UNL     1    -129.647 104.098  38.425  1.00  0.00    -0.550 OA
ENDBRANCH   6   7
ENDBRANCH   5   6
ENDBRANCH   4   5
ENDBRANCH   3   4
ENDBRANCH   2   3
ENDBRANCH   1   2
BRANCH   1  10
ATOM     10  C   UNL     1    -129.240 111.546  43.471  1.00  0.00     0.000 C 
BRANCH  10  11
ATOM     11  C   UNL     1    -129.756 112.564  42.442  1.00  0.00    -0.000 C 
BRANCH  11  12
ATOM     12  C   UNL     1    -129.801 113.996  42.998  1.00  0.00    -0.000 C 
BRANCH  12  13
ATOM     13  C   UNL     1    -129.751 114.037  44.535  1.00  0.00    -0.000 C 
BRANCH  13  14
ATOM     14  C   UNL     1    -129.390 115.429  45.076  1.00  0.00    -0.000 C 
BRANCH  14  15
ATOM     15  C   UNL     1    -129.777 116.558  44.104  1.00  0.00    -0.000 C 
BRANCH  15  16
ATOM     16  C   UNL     1    -129.357 117.945  44.614  1.00  0.00    -0.003 C 
ATOM     17  C   UNL     1    -128.647 118.777  43.547  1.00  0.00     0.004 C 
ENDBRANCH  15  16
ENDBRANCH  14  15
ENDBRANCH  13  14
ENDBRANCH  12  13
ENDBRANCH  11  12
ENDBRANCH  10  11
ENDBRANCH   1  10
TORSDOF 13
ENDMDL
MODEL 5
REMARK VINA RESULT:    -4.793      4.844      9.026
REMARK INTER + INTRA:          -9.188
REMARK INTER:                  -8.296
REMARK INTRA:                  -0.892
REMARK UNBOUND:                -0.752
REMARK SMILES CCCCCCCCCCCCCCC(=O)[O-]
REMARK SMILES IDX 9 1 10 2 11 3 12 4 13 5 14 6 15 7 16 8 17 9 8 10 7 11 6 12
REMARK SMILES IDX 5 13 4 14 3 15 2 16 1 17
REMARK H PARENT
REMARK Flexibility Score: inf
ROOT
ATOM      1  C   UNL     1    -130.010 113.661  42.586  1.00  0.00     0.000 C 
ENDROOT
BRANCH   1   2
ATOM      2  C   UNL     1    -129.486 115.014  42.078  1.00  0.00     0.000 C 
BRANCH   2   3
ATOM      3  C   UNL     1    -130.201 116.209  42.735  1.00  0.00     0.000 C 
BRANCH   3   4
ATOM      4  C   UNL     1    -129.227 117.324  43.150  1.00  0.00     0.000 C 
BRANCH   4   5
ATOM      5  C   UNL     1    -129.450 117.794  44.596  1.00  0.00     0.006 C 
BRANCH   5   6
ATOM      6  C   UNL     1    -129.938 116.641  45.478  1.00  0.00     0.053 C 
BRANCH   6   7
ATOM      7  C   UNL     1    -130.741 117.163  46.626  1.00  0.00     0.041 C 
ATOM      8  O   UNL     1    -130.742 118.394  46.891  1.00  0.00    -0.550 OA
ATOM      9  O   UNL     1    -131.526 116.297  47.376  1.00  0.00    -0.550 OA
ENDBRANCH   6   7
ENDBRANCH   5   6
ENDBRANCH   4   5
ENDBRANCH   3   4
ENDBRANCH   2   3
ENDBRANCH   1   2
BRANCH   1  10
ATOM     10  C   UNL     1    -129.405 113.263  43.940  1.00  0.00     0.000 C 
BRANCH  10  11
ATOM     11  C   UNL     1    -129.085 111.761  43.978  1.00  0.00    -0.000 C 
BRANCH  11  12
ATOM     12  C   UNL     1    -129.515 111.032  42.696  1.00  0.00    -0.000 C 
BRANCH  12  13
ATOM     13  C   UNL     1    -129.463 109.501  42.840  1.00  0.00    -0.000 C 
BRANCH  13  14
ATOM     14  C   UNL     1    -129.158 108.795  41.509  1.00  0.00    -0.000 C 
BRANCH  14  15
ATOM     15  C   UNL     1    -129.679 109.578  40.292  1.00  0.00    -0.000 C 
BRANCH  15  16
ATOM     16  C   UNL     1    -130.677 108.767  39.452  1.00  0.00    -0.003 C 
ATOM     17  C   UNL     1    -131.914 109.575  39.062  1.00  0.00     0.004 C 
ENDBRANCH  15  16
ENDBRANCH  14  15
ENDBRANCH  13  14
ENDBRANCH  12  13
ENDBRANCH  11  12
ENDBRANCH  10  11
ENDBRANCH   1  10
TORSDOF 13
ENDMDL
MODEL 6
REMARK VINA RESULT:    -4.783      1.647      2.152
REMARK INTER + INTRA:          -9.171
REMARK INTER:                  -8.313
REMARK INTRA:                  -0.858
REMARK UNBOUND:                -0.752
REMARK SMILES CCCCCCCCCCCCCCC(=O)[O-]
REMARK SMILES IDX 9 1 10 2 11 3 12 4 13 5 14 6 15 7 16 8 17 9 8 10 7 11 6 12
REMARK SMILES IDX 5 13 4 14 3 15 2 16 1 17
REMARK H PARENT
REMARK Flexibility Score: inf
ROOT
ATOM      1  C   UNL     1    -129.400 111.054  44.057  1.00  0.00     0.000 C 
ENDROOT
BRANCH   1   2
ATOM      2  C   UNL     1    -129.398 110.149  42.814  1.00  0.00     0.000 C 
BRANCH   2   3
ATOM      3  C   UNL     1    -129.822 108.703  43.134  1.00  0.00     0.000 C 
BRANCH   3   4
ATOM      4  C   UNL     1    -129.422 107.713  42.030  1.00  0.00     0.000 C 
BRANCH   4   5
ATOM      5  C   UNL     1    -129.031 108.414  40.720  1.00  0.00     0.006 C 
BRANCH   5   6
ATOM      6  C   UNL     1    -129.961 107.998  39.577  1.00  0.00     0.053 C 
BRANCH   6   7
ATOM      7  C   UNL     1    -130.933 109.091  39.267  1.00  0.00     0.041 C 
ATOM      8  O   UNL     1    -130.639 110.290  39.514  1.00  0.00    -0.550 OA
ATOM      9  O   UNL     1    -132.147 108.791  38.661  1.00  0.00    -0.550 OA
ENDBRANCH   6   7
ENDBRANCH   5   6
ENDBRANCH   4   5
ENDBRANCH   3   4
ENDBRANCH   2   3
ENDBRANCH   1   2
BRANCH   1  10
ATOM     10  C   UNL     1    -128.810 112.443  43.776  1.00  0.00     0.000 C 
BRANCH  10  11
ATOM     11  C   UNL     1    -129.743 113.262  42.871  1.00  0.00    -0.000 C 
BRANCH  11  12
ATOM     12  C   UNL     1    -129.955 114.696  43.382  1.00  0.00    -0.000 C 
BRANCH  12  13
ATOM     13  C   UNL     1    -129.907 114.791  44.917  1.00  0.00    -0.000 C 
BRANCH  13  14
ATOM     14  C   UNL     1    -129.405 116.158  45.407  1.00  0.00    -0.000 C 
BRANCH  14  15
ATOM     15  C   UNL     1    -129.996 117.328  44.601  1.00  0.00    -0.000 C 
BRANCH  15  16
ATOM     16  C   UNL     1    -128.954 118.410  44.283  1.00  0.00    -0.003 C 
ATOM     17  C   UNL     1    -128.605 118.475  42.797  1.00  0.00     0.004 C 
ENDBRANCH  15  16
ENDBRANCH  14  15
ENDBRANCH  13  14
ENDBRANCH  12  13
ENDBRANCH  11  12
ENDBRANCH  10  11
ENDBRANCH   1  10
TORSDOF 13
ENDMDL
MODEL 7
REMARK VINA RESULT:    -4.773      1.852      2.737
REMARK INTER + INTRA:          -9.153
REMARK INTER:                  -8.471
REMARK INTRA:                  -0.681
REMARK UNBOUND:                -0.752
REMARK SMILES CCCCCCCCCCCCCCC(=O)[O-]
REMARK SMILES IDX 9 1 10 2 11 3 12 4 13 5 14 6 15 7 16 8 17 9 8 10 7 11 6 12
REMARK SMILES IDX 5 13 4 14 3 15 2 16 1 17
REMARK H PARENT
REMARK Flexibility Score: inf
ROOT
ATOM      1  C   UNL     1    -129.982 111.678  41.143  1.00  0.00     0.000 C 
ENDROOT
BRANCH   1   2
ATOM      2  C   UNL     1    -129.399 111.686  39.720  1.00  0.00     0.000 C 
BRANCH   2   3
ATOM      3  C   UNL     1    -129.128 110.268  39.184  1.00  0.00     0.000 C 
BRANCH   3   4
ATOM      4  C   UNL     1    -129.673 109.172  40.113  1.00  0.00     0.000 C 
BRANCH   4   5
ATOM      5  C   UNL     1    -130.486 108.109  39.359  1.00  0.00     0.006 C 
BRANCH   5   6
ATOM      6  C   UNL     1    -129.581 106.978  38.861  1.00  0.00     0.053 C 
BRANCH   6   7
ATOM      7  C   UNL     1    -129.423 105.930  39.916  1.00  0.00     0.041 C 
ATOM      8  O   UNL     1    -130.152 104.904  39.904  1.00  0.00    -0.550 OA
ATOM      9  O   UNL     1    -128.439 106.064  40.887  1.00  0.00    -0.550 OA
ENDBRANCH   6   7
ENDBRANCH   5   6
ENDBRANCH   4   5
ENDBRANCH   3   4
ENDBRANCH   2   3
ENDBRANCH   1   2
BRANCH   1  10
ATOM     10  C   UNL     1    -130.118 113.089  41.732  1.00  0.00     0.000 C 
BRANCH  10  11
ATOM     11  C   UNL     1    -129.493 113.161  43.134  1.00  0.00    -0.000 C 
BRANCH  11  12
ATOM     12  C   UNL     1    -129.740 114.513  43.823  1.00  0.00    -0.000 C 
BRANCH  12  13
ATOM     13  C   UNL     1    -129.667 115.698  42.845  1.00  0.00    -0.000 C 
BRANCH  13  14
ATOM     14  C   UNL     1    -129.926 117.047  43.533  1.00  0.00    -0.000 C 
BRANCH  14  15
ATOM     15  C   UNL     1    -129.416 117.076  44.985  1.00  0.00    -0.000 C 
BRANCH  15  16
ATOM     16  C   UNL     1    -130.480 117.574  45.974  1.00  0.00    -0.003 C 
ATOM     17  C   UNL     1    -130.936 116.488  46.948  1.00  0.00     0.004 C 
ENDBRANCH  15  16
ENDBRANCH  14  15
ENDBRANCH  13  14
ENDBRANCH  12  13
ENDBRANCH  11  12
ENDBRANCH  10  11
ENDBRANCH   1  10
TORSDOF 13
ENDMDL
MODEL 8
REMARK VINA RESULT:    -4.738      1.575      2.894
REMARK INTER + INTRA:          -9.091
REMARK INTER:                  -8.366
REMARK INTRA:                  -0.725
REMARK UNBOUND:                -0.752
REMARK SMILES CCCCCCCCCCCCCCC(=O)[O-]
REMARK SMILES IDX 9 1 10 2 11 3 12 4 13 5 14 6 15 7 16 8 17 9 8 10 7 11 6 12
REMARK SMILES IDX 5 13 4 14 3 15 2 16 1 17
REMARK H PARENT
REMARK Flexibility Score: inf
ROOT
ATOM      1  C   UNL     1    -129.405 108.914  42.796  1.00  0.00     0.000 C 
ENDROOT
BRANCH   1   2
ATOM      2  C   UNL     1    -127.988 108.404  42.487  1.00  0.00     0.000 C 
BRANCH   2   3
ATOM      3  C   UNL     1    -127.991 107.017  41.820  1.00  0.00     0.000 C 
BRANCH   3   4
ATOM      4  C   UNL     1    -129.338 106.680  41.163  1.00  0.00     0.000 C 
BRANCH   4   5
ATOM      5  C   UNL     1    -129.219 106.471  39.645  1.00  0.00     0.006 C 
BRANCH   5   6
ATOM      6  C   UNL     1    -130.288 107.272  38.897  1.00  0.00     0.053 C 
BRANCH   6   7
ATOM      7  C   UNL     1    -130.212 108.719  39.265  1.00  0.00     0.041 C 
ATOM      8  O   UNL     1    -131.204 109.294  39.785  1.00  0.00    -0.550 OA
ATOM      9  O   UNL     1    -129.029 109.423  39.076  1.00  0.00    -0.550 OA
ENDBRANCH   6   7
ENDBRANCH   5   6
ENDBRANCH   4   5
ENDBRANCH   3   4
ENDBRANCH   2   3
ENDBRANCH   1   2
BRANCH   1  10
ATOM     10  C   UNL     1    -129.405 110.110  43.759  1.00  0.00     0.000 C 
BRANCH  10  11
ATOM     11  C   UNL     1    -129.380 111.437  42.985  1.00  0.00    -0.000 C 
BRANCH  11  12
ATOM     12  C   UNL     1    -129.109 112.647  43.894  1.00  0.00    -0.000 C 
BRANCH  12  13
ATOM     13  C   UNL     1    -129.709 113.950  43.340  1.00  0.00    -0.000 C 
BRANCH  13  14
ATOM     14  C   UNL     1    -129.547 115.132  44.310  1.00  0.00    -0.000 C 
BRANCH  14  15
ATOM     15  C   UNL     1    -129.924 116.478  43.666  1.00  0.00    -0.000 C 
BRANCH  15  16
ATOM     16  C   UNL     1    -129.617 117.674  44.580  1.00  0.00    -0.003 C 
ATOM     17  C   UNL     1    -128.685 118.693  43.926  1.00  0.00     0.004 C 
ENDBRANCH  15  16
ENDBRANCH  14  15
ENDBRANCH  13  14
ENDBRANCH  12  13
ENDBRANCH  11  12
ENDBRANCH  10  11
ENDBRANCH   1  10
TORSDOF 13
ENDMDL
MODEL 9
REMARK VINA RESULT:    -4.722      4.499      9.069
REMARK INTER + INTRA:          -9.062
REMARK INTER:                  -7.969
REMARK INTRA:                  -1.093
REMARK UNBOUND:                -0.752
REMARK SMILES CCCCCCCCCCCCCCC(=O)[O-]
REMARK SMILES IDX 9 1 10 2 11 3 12 4 13 5 14 6 15 7 16 8 17 9 8 10 7 11 6 12
REMARK SMILES IDX 5 13 4 14 3 15 2 16 1 17
REMARK H PARENT
REMARK Flexibility Score: inf
ROOT
ATOM      1  C   UNL     1    -129.362 110.536  42.658  1.00  0.00     0.000 C 
ENDROOT
BRANCH   1   2
ATOM      2  C   UNL     1    -129.364 111.280  44.004  1.00  0.00     0.000 C 
BRANCH   2   3
ATOM      3  C   UNL     1    -128.925 112.749  43.868  1.00  0.00     0.000 C 
BRANCH   3   4
ATOM      4  C   UNL     1    -129.798 113.537  42.879  1.00  0.00     0.000 C 
BRANCH   4   5
ATOM      5  C   UNL     1    -129.816 115.044  43.178  1.00  0.00     0.006 C 
BRANCH   5   6
ATOM      6  C   UNL     1    -129.636 115.308  44.675  1.00  0.00     0.053 C 
BRANCH   6   7
ATOM      7  C   UNL     1    -129.741 116.771  44.966  1.00  0.00     0.041 C 
ATOM      8  O   UNL     1    -129.192 117.610  44.204  1.00  0.00    -0.550 OA
ATOM      9  O   UNL     1    -130.485 117.212  46.052  1.00  0.00    -0.550 OA
ENDBRANCH   6   7
ENDBRANCH   5   6
ENDBRANCH   4   5
ENDBRANCH   3   4
ENDBRANCH   2   3
ENDBRANCH   1   2
BRANCH   1  10
ATOM     10  C   UNL     1    -129.341 109.011  42.827  1.00  0.00     0.000 C 
BRANCH  10  11
ATOM     11  C   UNL     1    -127.927 108.453  42.606  1.00  0.00    -0.000 C 
BRANCH  11  12
ATOM     12  C   UNL     1    -127.926 107.140  41.808  1.00  0.00    -0.000 C 
BRANCH  12  13
ATOM     13  C   UNL     1    -129.343 106.683  41.420  1.00  0.00    -0.000 C 
BRANCH  13  14
ATOM     14  C   UNL     1    -129.384 105.992  40.048  1.00  0.00    -0.000 C 
BRANCH  14  15
ATOM     15  C   UNL     1    -129.513 106.995  38.887  1.00  0.00    -0.000 C 
BRANCH  15  16
ATOM     16  C   UNL     1    -130.344 108.230  39.265  1.00  0.00    -0.003 C 
ATOM     17  C   UNL     1    -129.544 109.529  39.176  1.00  0.00     0.004 C 
ENDBRANCH  15  16
ENDBRANCH  14  15
ENDBRANCH  13  14
ENDBRANCH  12  13
ENDBRANCH  11  12
ENDBRANCH  10  11
ENDBRANCH   1  10
TORSDOF 13
ENDMDL
