MODEL 1
REMARK VINA RESULT:    -2.576      0.000      0.000
REMARK INTER + INTRA:          -2.889
REMARK INTER:                  -2.877
REMARK INTRA:                  -0.012
REMARK UNBOUND:                -0.012
REMARK SMILES CCCC(=O)[O-]
REMARK SMILES IDX 3 1 4 2 5 3 6 4 2 5 1 6
REMARK H PARENT
REMARK Flexibility Score: inf
ROOT
ATOM      1  C   UNL     1      19.849  23.142  45.347  1.00  0.00     0.052 C 
ENDROOT
BRANCH   1   2
ATOM      2  C   UNL     1      20.946  22.313  45.938  1.00  0.00     0.041 C 
ATOM      3  O   UNL     1      20.675  21.381  46.739  1.00  0.00    -0.550 OA
ATOM      4  O   UNL     1      22.265  22.540  45.566  1.00  0.00    -0.550 OA
ENDBRANCH   1   2
BRANCH   1   5
ATOM      5  C   UNL     1      18.852  23.560  46.431  1.00  0.00     0.003 C 
ATOM      6  C   UNL     1      17.547  24.057  45.818  1.00  0.00     0.004 C 
ENDBRANCH   1   5
TORSDOF 2
ENDMDL
MODEL 2
REMARK VINA RESULT:    -2.567      2.710      3.647
REMARK INTER + INTRA:          -2.879
REMARK INTER:                  -2.873
REMARK INTRA:                  -0.006
REMARK UNBOUND:                -0.012
REMARK SMILES CCCC(=O)[O-]
REMARK SMILES IDX 3 1 4 2 5 3 6 4 2 5 1 6
REMARK H PARENT
REMARK Flexibility Score: inf
ROOT
ATOM      1  C   UNL     1      19.292  23.498  45.759  1.00  0.00     0.052 C 
ENDROOT
BRANCH   1   2
ATOM      2  C   UNL     1      18.889  24.227  44.516  1.00  0.00     0.041 C 
ATOM      3  O   UNL     1      19.665  25.073  43.997  1.00  0.00    -0.550 OA
ATOM      4  O   UNL     1      17.678  23.938  43.902  1.00  0.00    -0.550 OA
ENDBRANCH   1   2
BRANCH   1   5
ATOM      5  C   UNL     1      20.518  22.621  45.492  1.00  0.00     0.003 C 
ATOM      6  C   UNL     1      20.757  21.644  46.639  1.00  0.00     0.004 C 
ENDBRANCH   1   5
TORSDOF 2
ENDMDL
MODEL 3
REMARK VINA RESULT:    -2.003     18.497     19.331
REMARK INTER + INTRA:          -2.249
REMARK INTER:                  -2.242
REMARK INTRA:                  -0.007
REMARK UNBOUND:                -0.012
REMARK SMILES CCCC(=O)[O-]
REMARK SMILES IDX 3 1 4 2 5 3 6 4 2 5 1 6
REMARK H PARENT
REMARK Flexibility Score: inf
ROOT
ATOM      1  C   UNL     1      30.732  24.643  30.004  1.00  0.00     0.052 C 
ENDROOT
BRANCH   1   2
ATOM      2  C   UNL     1      30.869  23.565  28.975  1.00  0.00     0.041 C 
ATOM      3  O   UNL     1      29.965  23.391  28.115  1.00  0.00    -0.550 OA
ATOM      4  O   UNL     1      32.016  22.783  28.935  1.00  0.00    -0.550 OA
ENDBRANCH   1   2
BRANCH   1   5
ATOM      5  C   UNL     1      30.315  24.047  31.351  1.00  0.00     0.003 C 
ATOM      6  C   UNL     1      29.507  25.048  32.170  1.00  0.00     0.004 C 
ENDBRANCH   1   5
TORSDOF 2
ENDMDL
MODEL 4
REMARK VINA RESULT:    -1.996      2.042      3.400
REMARK INTER + INTRA:          -2.241
REMARK INTER:                  -2.228
REMARK INTRA:                  -0.014
REMARK UNBOUND:                -0.012
REMARK SMILES CCCC(=O)[O-]
REMARK SMILES IDX 3 1 4 2 5 3 6 4 2 5 1 6
REMARK H PARENT
REMARK Flexibility Score: inf
ROOT
ATOM      1  C   UNL     1      21.110  22.409  46.412  1.00  0.00     0.052 C 
ENDROOT
BRANCH   1   2
ATOM      2  C   UNL     1      19.753  22.992  46.175  1.00  0.00     0.041 C 
ATOM      3  O   UNL     1      18.922  23.069  47.119  1.00  0.00    -0.550 OA
ATOM      4  O   UNL     1      19.420  23.495  44.924  1.00  0.00    -0.550 OA
ENDBRANCH   1   2
BRANCH   1   5
ATOM      5  C   UNL     1      22.033  22.704  45.226  1.00  0.00     0.003 C 
ATOM      6  C   UNL     1      23.470  22.924  45.688  1.00  0.00     0.004 C 
ENDBRANCH   1   5
TORSDOF 2
ENDMDL
MODEL 5
REMARK VINA RESULT:    -1.933     17.792     18.458
REMARK INTER + INTRA:          -2.170
REMARK INTER:                  -2.129
REMARK INTRA:                  -0.041
REMARK UNBOUND:                -0.012
REMARK SMILES CCCC(=O)[O-]
REMARK SMILES IDX 3 1 4 2 5 3 6 4 2 5 1 6
REMARK H PARENT
REMARK Flexibility Score: inf
ROOT
ATOM      1  C   UNL     1      30.362  24.007  31.809  1.00  0.00     0.052 C 
ENDROOT
BRANCH   1   2
ATOM      2  C   UNL     1      30.642  24.554  30.445  1.00  0.00     0.041 C 
ATOM      3  O   UNL     1      29.727  25.113  29.785  1.00  0.00    -0.550 OA
ATOM      4  O   UNL     1      31.927  24.491  29.921  1.00  0.00    -0.550 OA
ENDBRANCH   1   2
BRANCH   1   5
ATOM      5  C   UNL     1      30.539  25.097  32.870  1.00  0.00     0.003 C 
ATOM      6  C   UNL     1      31.961  25.105  33.420  1.00  0.00     0.004 C 
ENDBRANCH   1   5
TORSDOF 2
ENDMDL
MODEL 6
REMARK VINA RESULT:    -1.860     17.623     18.486
REMARK INTER + INTRA:          -2.089
REMARK INTER:                  -2.077
REMARK INTRA:                  -0.012
REMARK UNBOUND:                -0.012
REMARK SMILES CCCC(=O)[O-]
REMARK SMILES IDX 3 1 4 2 5 3 6 4 2 5 1 6
REMARK H PARENT
REMARK Flexibility Score: inf
ROOT
ATOM      1  C   UNL     1      30.495  24.097  30.525  1.00  0.00     0.052 C 
ENDROOT
BRANCH   1   2
ATOM      2  C   UNL     1      30.272  24.695  31.878  1.00  0.00     0.041 C 
ATOM      3  O   UNL     1      29.101  24.875  32.306  1.00  0.00    -0.550 OA
ATOM      4  O   UNL     1      31.356  25.011  32.686  1.00  0.00    -0.550 OA
ENDBRANCH   1   2
BRANCH   1   5
ATOM      5  C   UNL     1      30.200  25.125  29.429  1.00  0.00     0.003 C 
ATOM      6  C   UNL     1      29.697  24.448  28.159  1.00  0.00     0.004 C 
ENDBRANCH   1   5
TORSDOF 2
ENDMDL
MODEL 7
REMARK VINA RESULT:    -1.798     17.721     18.694
REMARK INTER + INTRA:          -2.020
REMARK INTER:                  -2.010
REMARK INTRA:                  -0.010
REMARK UNBOUND:                -0.012
REMARK SMILES CCCC(=O)[O-]
REMARK SMILES IDX 3 1 4 2 5 3 6 4 2 5 1 6
REMARK H PARENT
REMARK Flexibility Score: inf
ROOT
ATOM      1  C   UNL     1      31.027  25.056  30.604  1.00  0.00     0.052 C 
ENDROOT
BRANCH   1   2
ATOM      2  C   UNL     1      30.588  24.882  32.023  1.00  0.00     0.041 C 
ATOM      3  O   UNL     1      31.438  24.867  32.953  1.00  0.00    -0.550 OA
ATOM      4  O   UNL     1      29.236  24.784  32.326  1.00  0.00    -0.550 OA
ENDBRANCH   1   2
BRANCH   1   5
ATOM      5  C   UNL     1      30.757  23.781  29.800  1.00  0.00     0.003 C 
ATOM      6  C   UNL     1      31.979  23.375  28.983  1.00  0.00     0.004 C 
ENDBRANCH   1   5
TORSDOF 2
ENDMDL
MODEL 8
REMARK VINA RESULT:    -1.721     18.771     19.740
REMARK INTER + INTRA:          -1.934
REMARK INTER:                  -1.866
REMARK INTRA:                  -0.068
REMARK UNBOUND:                -0.012
REMARK SMILES CCCC(=O)[O-]
REMARK SMILES IDX 3 1 4 2 5 3 6 4 2 5 1 6
REMARK H PARENT
REMARK Flexibility Score: inf
ROOT
ATOM      1  C   UNL     1      31.905  24.849  30.183  1.00  0.00     0.052 C 
ENDROOT
BRANCH   1   2
ATOM      2  C   UNL     1      30.482  24.654  30.603  1.00  0.00     0.041 C 
ATOM      3  O   UNL     1      29.545  25.124  29.905  1.00  0.00    -0.550 OA
ATOM      4  O   UNL     1      30.188  23.912  31.739  1.00  0.00    -0.550 OA
ENDBRANCH   1   2
BRANCH   1   5
ATOM      5  C   UNL     1      32.111  24.359  28.747  1.00  0.00     0.003 C 
ATOM      6  C   UNL     1      32.106  22.836  28.678  1.00  0.00     0.004 C 
ENDBRANCH   1   5
TORSDOF 2
ENDMDL
MODEL 9
REMARK VINA RESULT:    -1.711     20.524     21.023
REMARK INTER + INTRA:          -1.922
REMARK INTER:                  -1.906
REMARK INTRA:                  -0.016
REMARK UNBOUND:                -0.012
REMARK SMILES CCCC(=O)[O-]
REMARK SMILES IDX 3 1 4 2 5 3 6 4 2 5 1 6
REMARK H PARENT
REMARK Flexibility Score: inf
ROOT
ATOM      1  C   UNL     1      30.899  23.318  28.945  1.00  0.00     0.052 C 
ENDROOT
BRANCH   1   2
ATOM      2  C   UNL     1      32.329  23.342  28.506  1.00  0.00     0.041 C 
ATOM      3  O   UNL     1      32.687  22.714  27.475  1.00  0.00    -0.550 OA
ATOM      4  O   UNL     1      33.260  24.097  29.209  1.00  0.00    -0.550 OA
ENDBRANCH   1   2
BRANCH   1   5
ATOM      5  C   UNL     1      29.985  23.800  27.816  1.00  0.00     0.003 C 
ATOM      6  C   UNL     1      29.236  25.067  28.216  1.00  0.00     0.004 C 
ENDBRANCH   1   5
TORSDOF 2
ENDMDL
