MODEL 1
REMARK VINA RESULT:    -3.915      0.000      0.000
REMARK INTER + INTRA:          -4.588
REMARK INTER:                  -4.487
REMARK INTRA:                  -0.101
REMARK UNBOUND:                -0.101
REMARK SMILES COc1cc(C(=O)[O-])ccc1O
REMARK SMILES IDX 5 1 9 2 4 3 10 4 3 5 11 6 6 7 7 8 8 9 2 10 1 11 12 12
REMARK H PARENT 12 13
REMARK Flexibility Score: inf
ROOT
ATOM      1  C   UNL     1      18.913  26.772  41.774  1.00  0.00     0.001 A 
ATOM      2  C   UNL     1      17.746  26.210  41.233  1.00  0.00     0.014 A 
ATOM      3  C   UNL     1      19.121  28.159  41.656  1.00  0.00     0.060 A 
ATOM      4  C   UNL     1      16.806  27.014  40.586  1.00  0.00     0.051 A 
ATOM      5  C   UNL     1      18.175  28.975  41.004  1.00  0.00     0.161 A 
ATOM      6  C   UNL     1      17.018  28.394  40.470  1.00  0.00     0.157 A 
ENDROOT
BRANCH   1   7
ATOM      7  C   UNL     1      19.905  25.914  42.459  1.00  0.00     0.072 C 
ATOM      8  O   UNL     1      19.569  24.794  42.927  1.00  0.00    -0.545 OA
ATOM      9  O   UNL     1      21.224  26.334  42.596  1.00  0.00    -0.545 OA
ENDBRANCH   1   7
BRANCH   5  10
ATOM     10  O   UNL     1      18.350  30.362  40.867  1.00  0.00    -0.493 OA
ATOM     11  C   UNL     1      19.164  30.979  39.875  1.00  0.00     0.278 C 
ENDBRANCH   5  10
BRANCH   6  12
ATOM     12  O   UNL     1      16.078  29.196  39.823  1.00  0.00    -0.504 OA
ATOM     13  H   UNL     1      15.260  29.548  40.306  1.00  0.00     0.293 HD
ENDBRANCH   6  12
TORSDOF 3
ENDMDL
MODEL 2
REMARK VINA RESULT:    -3.799      1.634      2.089
REMARK INTER + INTRA:          -4.456
REMARK INTER:                  -4.365
REMARK INTRA:                  -0.091
REMARK UNBOUND:                -0.101
REMARK SMILES COc1cc(C(=O)[O-])ccc1O
REMARK SMILES IDX 5 1 9 2 4 3 10 4 3 5 11 6 6 7 7 8 8 9 2 10 1 11 12 12
REMARK H PARENT 12 13
REMARK Flexibility Score: inf
ROOT
ATOM      1  C   UNL     1      19.497  26.688  41.554  1.00  0.00     0.001 A 
ATOM      2  C   UNL     1      18.206  27.174  41.811  1.00  0.00     0.014 A 
ATOM      3  C   UNL     1      20.496  27.587  41.137  1.00  0.00     0.060 A 
ATOM      4  C   UNL     1      17.915  28.530  41.653  1.00  0.00     0.051 A 
ATOM      5  C   UNL     1      20.207  28.957  40.976  1.00  0.00     0.161 A 
ATOM      6  C   UNL     1      18.912  29.422  41.237  1.00  0.00     0.157 A 
ENDROOT
BRANCH   1   7
ATOM      7  C   UNL     1      19.799  25.249  41.724  1.00  0.00     0.072 C 
ATOM      8  O   UNL     1      19.474  24.646  42.781  1.00  0.00    -0.545 OA
ATOM      9  O   UNL     1      20.446  24.542  40.717  1.00  0.00    -0.545 OA
ENDBRANCH   1   7
BRANCH   5  10
ATOM     10  O   UNL     1      21.178  29.883  40.561  1.00  0.00    -0.493 OA
ATOM     11  C   UNL     1      21.519  30.141  39.203  1.00  0.00     0.278 C 
ENDBRANCH   5  10
BRANCH   6  12
ATOM     12  O   UNL     1      18.620  30.777  41.080  1.00  0.00    -0.504 OA
ATOM     13  H   UNL     1      18.947  31.299  40.276  1.00  0.00     0.293 HD
ENDBRANCH   6  12
TORSDOF 3
ENDMDL
MODEL 3
REMARK VINA RESULT:    -3.738      1.505      4.543
REMARK INTER + INTRA:          -4.385
REMARK INTER:                  -4.304
REMARK INTRA:                  -0.081
REMARK UNBOUND:                -0.101
REMARK SMILES COc1cc(C(=O)[O-])ccc1O
REMARK SMILES IDX 5 1 9 2 4 3 10 4 3 5 11 6 6 7 7 8 8 9 2 10 1 11 12 12
REMARK H PARENT 12 13
REMARK Flexibility Score: inf
ROOT
ATOM      1  C   UNL     1      17.005  28.583  40.259  1.00  0.00     0.001 A 
ATOM      2  C   UNL     1      17.541  29.825  39.883  1.00  0.00     0.014 A 
ATOM      3  C   UNL     1      17.809  27.684  40.984  1.00  0.00     0.060 A 
ATOM      4  C   UNL     1      18.852  30.163  40.222  1.00  0.00     0.051 A 
ATOM      5  C   UNL     1      19.133  28.021  41.329  1.00  0.00     0.161 A 
ATOM      6  C   UNL     1      19.649  29.265  40.943  1.00  0.00     0.157 A 
ENDROOT
BRANCH   1   7
ATOM      7  C   UNL     1      15.615  28.231  39.896  1.00  0.00     0.072 C 
ATOM      8  O   UNL     1      15.236  27.029  39.902  1.00  0.00    -0.545 OA
ATOM      9  O   UNL     1      14.706  29.222  39.543  1.00  0.00    -0.545 OA
ENDBRANCH   1   7
BRANCH   5  10
ATOM     10  O   UNL     1      19.964  27.148  42.051  1.00  0.00    -0.493 OA
ATOM     11  C   UNL     1      19.668  25.779  42.308  1.00  0.00     0.278 C 
ENDBRANCH   5  10
BRANCH   6  12
ATOM     12  O   UNL     1      20.958  29.604  41.282  1.00  0.00    -0.504 OA
ATOM     13  H   UNL     1      21.273  30.567  41.283  1.00  0.00     0.293 HD
ENDBRANCH   6  12
TORSDOF 3
ENDMDL
MODEL 4
REMARK VINA RESULT:    -3.671      1.550      2.954
REMARK INTER + INTRA:          -4.309
REMARK INTER:                  -4.220
REMARK INTRA:                  -0.090
REMARK UNBOUND:                -0.101
REMARK SMILES COc1cc(C(=O)[O-])ccc1O
REMARK SMILES IDX 5 1 9 2 4 3 10 4 3 5 11 6 6 7 7 8 8 9 2 10 1 11 12 12
REMARK H PARENT 12 13
REMARK Flexibility Score: inf
ROOT
ATOM      1  C   UNL     1      17.815  26.217  40.992  1.00  0.00     0.001 A 
ATOM      2  C   UNL     1      18.779  26.875  41.772  1.00  0.00     0.014 A 
ATOM      3  C   UNL     1      16.894  26.984  40.254  1.00  0.00     0.060 A 
ATOM      4  C   UNL     1      18.824  28.269  41.817  1.00  0.00     0.051 A 
ATOM      5  C   UNL     1      16.935  28.392  40.296  1.00  0.00     0.161 A 
ATOM      6  C   UNL     1      17.905  29.029  41.082  1.00  0.00     0.157 A 
ENDROOT
BRANCH   1   7
ATOM      7  C   UNL     1      17.774  24.739  40.949  1.00  0.00     0.072 C 
ATOM      8  O   UNL     1      18.530  24.054  41.689  1.00  0.00    -0.545 OA
ATOM      9  O   UNL     1      16.899  24.083  40.089  1.00  0.00    -0.545 OA
ENDBRANCH   1   7
BRANCH   5  10
ATOM     10  O   UNL     1      16.032  29.189  39.574  1.00  0.00    -0.493 OA
ATOM     11  C   UNL     1      14.634  28.938  39.476  1.00  0.00     0.278 C 
ENDBRANCH   5  10
BRANCH   6  12
ATOM     12  O   UNL     1      17.950  30.422  41.127  1.00  0.00    -0.504 OA
ATOM     13  H   UNL     1      18.225  30.970  40.321  1.00  0.00     0.293 HD
ENDBRANCH   6  12
TORSDOF 3
ENDMDL
MODEL 5
REMARK VINA RESULT:    -3.601      1.182      2.549
REMARK INTER + INTRA:          -4.228
REMARK INTER:                  -4.132
REMARK INTRA:                  -0.096
REMARK UNBOUND:                -0.101
REMARK SMILES COc1cc(C(=O)[O-])ccc1O
REMARK SMILES IDX 5 1 9 2 4 3 10 4 3 5 11 6 6 7 7 8 8 9 2 10 1 11 12 12
REMARK H PARENT 12 13
REMARK Flexibility Score: inf
ROOT
ATOM      1  C   UNL     1      19.605  27.409  41.597  1.00  0.00     0.001 A 
ATOM      2  C   UNL     1      20.048  28.716  41.346  1.00  0.00     0.014 A 
ATOM      3  C   UNL     1      18.258  27.083  41.348  1.00  0.00     0.060 A 
ATOM      4  C   UNL     1      19.166  29.682  40.857  1.00  0.00     0.051 A 
ATOM      5  C   UNL     1      17.364  28.055  40.856  1.00  0.00     0.161 A 
ATOM      6  C   UNL     1      17.826  29.355  40.612  1.00  0.00     0.157 A 
ENDROOT
BRANCH   1   7
ATOM      7  C   UNL     1      20.545  26.389  42.114  1.00  0.00     0.072 C 
ATOM      8  O   UNL     1      20.428  25.946  43.288  1.00  0.00    -0.545 OA
ATOM      9  O   UNL     1      21.572  25.906  41.311  1.00  0.00    -0.545 OA
ENDBRANCH   1   7
BRANCH   5  10
ATOM     10  O   UNL     1      16.014  27.767  40.597  1.00  0.00    -0.493 OA
ATOM     11  C   UNL     1      15.538  27.114  39.424  1.00  0.00     0.278 C 
ENDBRANCH   5  10
BRANCH   6  12
ATOM     12  O   UNL     1      16.946  30.320  40.124  1.00  0.00    -0.504 OA
ATOM     13  H   UNL     1      16.338  30.133  39.336  1.00  0.00     0.293 HD
ENDBRANCH   6  12
TORSDOF 3
ENDMDL
MODEL 6
REMARK VINA RESULT:    -3.523      2.575      5.092
REMARK INTER + INTRA:          -4.139
REMARK INTER:                  -4.042
REMARK INTRA:                  -0.097
REMARK UNBOUND:                -0.101
REMARK SMILES COc1cc(C(=O)[O-])ccc1O
REMARK SMILES IDX 5 1 9 2 4 3 10 4 3 5 11 6 6 7 7 8 8 9 2 10 1 11 12 12
REMARK H PARENT 12 13
REMARK Flexibility Score: inf
ROOT
ATOM      1  C   UNL     1      18.646  29.645  38.091  1.00  0.00     0.001 A 
ATOM      2  C   UNL     1      19.143  30.793  38.727  1.00  0.00     0.014 A 
ATOM      3  C   UNL     1      18.006  28.658  38.864  1.00  0.00     0.060 A 
ATOM      4  C   UNL     1      19.007  30.954  40.107  1.00  0.00     0.051 A 
ATOM      5  C   UNL     1      17.866  28.816  40.258  1.00  0.00     0.161 A 
ATOM      6  C   UNL     1      18.370  29.969  40.873  1.00  0.00     0.157 A 
ENDROOT
BRANCH   1   7
ATOM      7  C   UNL     1      18.793  29.481  36.628  1.00  0.00     0.072 C 
ATOM      8  O   UNL     1      18.764  30.483  35.864  1.00  0.00    -0.545 OA
ATOM      9  O   UNL     1      18.966  28.217  36.074  1.00  0.00    -0.545 OA
ENDBRANCH   1   7
BRANCH   5  10
ATOM     10  O   UNL     1      17.235  27.852  41.060  1.00  0.00    -0.493 OA
ATOM     11  C   UNL     1      17.704  26.520  41.243  1.00  0.00     0.278 C 
ENDBRANCH   5  10
BRANCH   6  12
ATOM     12  O   UNL     1      18.235  30.131  42.251  1.00  0.00    -0.504 OA
ATOM     13  H   UNL     1      17.327  30.115  42.700  1.00  0.00     0.293 HD
ENDBRANCH   6  12
TORSDOF 3
ENDMDL
MODEL 7
REMARK VINA RESULT:    -3.447      2.110      2.868
REMARK INTER + INTRA:          -4.053
REMARK INTER:                  -3.961
REMARK INTRA:                  -0.091
REMARK UNBOUND:                -0.101
REMARK SMILES COc1cc(C(=O)[O-])ccc1O
REMARK SMILES IDX 5 1 9 2 4 3 10 4 3 5 11 6 6 7 7 8 8 9 2 10 1 11 12 12
REMARK H PARENT 12 13
REMARK Flexibility Score: inf
ROOT
ATOM      1  C   UNL     1      18.408  26.801  39.928  1.00  0.00     0.001 A 
ATOM      2  C   UNL     1      18.553  26.697  41.320  1.00  0.00     0.014 A 
ATOM      3  C   UNL     1      18.188  28.068  39.355  1.00  0.00     0.060 A 
ATOM      4  C   UNL     1      18.479  27.835  42.126  1.00  0.00     0.051 A 
ATOM      5  C   UNL     1      18.112  29.219  40.166  1.00  0.00     0.161 A 
ATOM      6  C   UNL     1      18.259  29.093  41.553  1.00  0.00     0.157 A 
ENDROOT
BRANCH   1   7
ATOM      7  C   UNL     1      18.487  25.592  39.078  1.00  0.00     0.072 C 
ATOM      8  O   UNL     1      19.523  24.874  39.080  1.00  0.00    -0.545 OA
ATOM      9  O   UNL     1      17.419  25.231  38.265  1.00  0.00    -0.545 OA
ENDBRANCH   1   7
BRANCH   5  10
ATOM     10  O   UNL     1      17.893  30.499  39.630  1.00  0.00    -0.493 OA
ATOM     11  C   UNL     1      18.733  31.125  38.665  1.00  0.00     0.278 C 
ENDBRANCH   5  10
BRANCH   6  12
ATOM     12  O   UNL     1      18.186  30.229  42.360  1.00  0.00    -0.504 OA
ATOM     13  H   UNL     1      18.447  30.202  43.338  1.00  0.00     0.293 HD
ENDBRANCH   6  12
TORSDOF 3
ENDMDL
MODEL 8
REMARK VINA RESULT:    -3.310      1.411      4.449
REMARK INTER + INTRA:          -3.895
REMARK INTER:                  -3.802
REMARK INTRA:                  -0.093
REMARK UNBOUND:                -0.101
REMARK SMILES COc1cc(C(=O)[O-])ccc1O
REMARK SMILES IDX 5 1 9 2 4 3 10 4 3 5 11 6 6 7 7 8 8 9 2 10 1 11 12 12
REMARK H PARENT 12 13
REMARK Flexibility Score: inf
ROOT
ATOM      1  C   UNL     1      19.317  28.087  41.279  1.00  0.00     0.001 A 
ATOM      2  C   UNL     1      18.057  27.495  41.101  1.00  0.00     0.014 A 
ATOM      3  C   UNL     1      20.373  27.308  41.789  1.00  0.00     0.060 A 
ATOM      4  C   UNL     1      17.852  26.153  41.426  1.00  0.00     0.051 A 
ATOM      5  C   UNL     1      20.171  25.953  42.119  1.00  0.00     0.161 A 
ATOM      6  C   UNL     1      18.905  25.381  41.934  1.00  0.00     0.157 A 
ENDROOT
BRANCH   1   7
ATOM      7  C   UNL     1      19.527  29.510  40.932  1.00  0.00     0.072 C 
ATOM      8  O   UNL     1      18.564  30.323  40.946  1.00  0.00    -0.545 OA
ATOM      9  O   UNL     1      20.793  29.971  40.586  1.00  0.00    -0.545 OA
ENDBRANCH   1   7
BRANCH   5  10
ATOM     10  O   UNL     1      21.200  25.145  42.630  1.00  0.00    -0.493 OA
ATOM     11  C   UNL     1      21.992  25.471  43.768  1.00  0.00     0.278 C 
ENDBRANCH   5  10
BRANCH   6  12
ATOM     12  O   UNL     1      18.699  24.041  42.259  1.00  0.00    -0.504 OA
ATOM     13  H   UNL     1      19.467  23.437  42.530  1.00  0.00     0.293 HD
ENDBRANCH   6  12
TORSDOF 3
ENDMDL
