MODEL 1
REMARK VINA RESULT:    -4.108      0.000      0.000
REMARK INTER + INTRA:          -5.678
REMARK INTER:                  -5.308
REMARK INTRA:                  -0.370
REMARK UNBOUND:                -0.370
REMARK SMILES CCCCCCC(=O)[O-]
REMARK SMILES IDX 5 1 6 2 7 3 8 4 9 5 4 6 3 7 2 8 1 9
REMARK H PARENT
REMARK Flexibility Score: inf
ROOT
ATOM      1  C   UNL     1      15.358  21.167  12.582  1.00  0.00     0.006 C 
ENDROOT
BRANCH   1   2
ATOM      2  C   UNL     1      15.345  22.314  13.597  1.00  0.00     0.053 C 
BRANCH   2   3
ATOM      3  C   UNL     1      15.518  21.784  14.987  1.00  0.00     0.041 C 
ATOM      4  O   UNL     1      15.594  22.578  15.961  1.00  0.00    -0.550 OA
ATOM      5  O   UNL     1      15.644  20.417  15.199  1.00  0.00    -0.550 OA
ENDBRANCH   2   3
ENDBRANCH   1   2
BRANCH   1   6
ATOM      6  C   UNL     1      16.231  21.515  11.371  1.00  0.00     0.000 C 
BRANCH   6   7
ATOM      7  C   UNL     1      17.628  20.887  11.501  1.00  0.00    -0.000 C 
BRANCH   7   8
ATOM      8  C   UNL     1      17.610  19.569  12.290  1.00  0.00    -0.003 C 
ATOM      9  C   UNL     1      18.613  19.556  13.443  1.00  0.00     0.004 C 
ENDBRANCH   7   8
ENDBRANCH   6   7
ENDBRANCH   1   6
TORSDOF 5
ENDMDL
MODEL 2
REMARK VINA RESULT:    -4.102     15.143     16.641
REMARK INTER + INTRA:          -5.672
REMARK INTER:                  -5.428
REMARK INTRA:                  -0.244
REMARK UNBOUND:                -0.370
REMARK SMILES CCCCCCC(=O)[O-]
REMARK SMILES IDX 5 1 6 2 7 3 8 4 9 5 4 6 3 7 2 8 1 9
REMARK H PARENT
REMARK Flexibility Score: inf
ROOT
ATOM      1  C   UNL     1      30.603  16.550   6.514  1.00  0.00     0.006 C 
ENDROOT
BRANCH   1   2
ATOM      2  C   UNL     1      31.598  17.011   7.583  1.00  0.00     0.053 C 
BRANCH   2   3
ATOM      3  C   UNL     1      32.901  17.396   6.954  1.00  0.00     0.041 C 
ATOM      4  O   UNL     1      33.357  16.732   5.987  1.00  0.00    -0.550 OA
ATOM      5  O   UNL     1      33.634  18.458   7.467  1.00  0.00    -0.550 OA
ENDBRANCH   2   3
ENDBRANCH   1   2
BRANCH   1   6
ATOM      6  C   UNL     1      29.866  17.744   5.897  1.00  0.00     0.000 C 
BRANCH   6   7
ATOM      7  C   UNL     1      28.472  17.331   5.397  1.00  0.00    -0.000 C 
BRANCH   7   8
ATOM      8  C   UNL     1      27.378  17.552   6.452  1.00  0.00    -0.003 C 
ATOM      9  C   UNL     1      27.662  18.751   7.357  1.00  0.00     0.004 C 
ENDBRANCH   7   8
ENDBRANCH   6   7
ENDBRANCH   1   6
TORSDOF 5
ENDMDL
MODEL 3
REMARK VINA RESULT:    -4.099     14.155     15.620
REMARK INTER + INTRA:          -5.668
REMARK INTER:                  -5.282
REMARK INTRA:                  -0.386
REMARK UNBOUND:                -0.370
REMARK SMILES CCCCCCC(=O)[O-]
REMARK SMILES IDX 5 1 6 2 7 3 8 4 9 5 4 6 3 7 2 8 1 9
REMARK H PARENT
REMARK Flexibility Score: inf
ROOT
ATOM      1  C   UNL     1      29.924  17.703   5.711  1.00  0.00     0.006 C 
ENDROOT
BRANCH   1   2
ATOM      2  C   UNL     1      30.685  16.704   6.587  1.00  0.00     0.053 C 
BRANCH   2   3
ATOM      3  C   UNL     1      31.611  17.424   7.518  1.00  0.00     0.041 C 
ATOM      4  O   UNL     1      31.633  18.682   7.540  1.00  0.00    -0.550 OA
ATOM      5  O   UNL     1      32.481  16.705   8.327  1.00  0.00    -0.550 OA
ENDBRANCH   2   3
ENDBRANCH   1   2
BRANCH   1   6
ATOM      6  C   UNL     1      28.443  17.321   5.599  1.00  0.00     0.000 C 
BRANCH   6   7
ATOM      7  C   UNL     1      27.629  17.940   6.746  1.00  0.00    -0.000 C 
BRANCH   7   8
ATOM      8  C   UNL     1      28.025  19.396   7.032  1.00  0.00    -0.003 C 
ATOM      9  C   UNL     1      28.358  19.641   8.503  1.00  0.00     0.004 C 
ENDBRANCH   7   8
ENDBRANCH   6   7
ENDBRANCH   1   6
TORSDOF 5
ENDMDL
MODEL 4
REMARK VINA RESULT:    -4.062      1.705      2.219
REMARK INTER + INTRA:          -5.619
REMARK INTER:                  -5.379
REMARK INTRA:                  -0.240
REMARK UNBOUND:                -0.370
REMARK SMILES CCCCCCC(=O)[O-]
REMARK SMILES IDX 5 1 6 2 7 3 8 4 9 5 4 6 3 7 2 8 1 9
REMARK H PARENT
REMARK Flexibility Score: inf
ROOT
ATOM      1  C   UNL     1      14.804  21.445  14.025  1.00  0.00     0.006 C 
ENDROOT
BRANCH   1   2
ATOM      2  C   UNL     1      15.592  21.517  15.336  1.00  0.00     0.053 C 
BRANCH   2   3
ATOM      3  C   UNL     1      16.655  20.463  15.366  1.00  0.00     0.041 C 
ATOM      4  O   UNL     1      17.665  20.604  16.103  1.00  0.00    -0.550 OA
ATOM      5  O   UNL     1      16.551  19.348  14.543  1.00  0.00    -0.550 OA
ENDBRANCH   2   3
ENDBRANCH   1   2
BRANCH   1   6
ATOM      6  C   UNL     1      15.458  22.310  12.941  1.00  0.00     0.000 C 
BRANCH   6   7
ATOM      7  C   UNL     1      15.771  21.476  11.688  1.00  0.00    -0.000 C 
BRANCH   7   8
ATOM      8  C   UNL     1      17.266  21.481  11.335  1.00  0.00    -0.003 C 
ATOM      9  C   UNL     1      17.617  20.478  10.236  1.00  0.00     0.004 C 
ENDBRANCH   7   8
ENDBRANCH   6   7
ENDBRANCH   1   6
TORSDOF 5
ENDMDL
MODEL 5
REMARK VINA RESULT:    -4.047      1.939      3.108
REMARK INTER + INTRA:          -5.600
REMARK INTER:                  -5.275
REMARK INTRA:                  -0.325
REMARK UNBOUND:                -0.370
REMARK SMILES CCCCCCC(=O)[O-]
REMARK SMILES IDX 5 1 6 2 7 3 8 4 9 5 4 6 3 7 2 8 1 9
REMARK H PARENT
REMARK Flexibility Score: inf
ROOT
ATOM      1  C   UNL     1      15.794  20.804  14.861  1.00  0.00     0.006 C 
ENDROOT
BRANCH   1   2
ATOM      2  C   UNL     1      16.537  19.501  14.550  1.00  0.00     0.053 C 
BRANCH   2   3
ATOM      3  C   UNL     1      18.008  19.672  14.773  1.00  0.00     0.041 C 
ATOM      4  O   UNL     1      18.439  20.041  15.895  1.00  0.00    -0.550 OA
ATOM      5  O   UNL     1      18.897  19.467  13.725  1.00  0.00    -0.550 OA
ENDBRANCH   2   3
ENDBRANCH   1   2
BRANCH   1   6
ATOM      6  C   UNL     1      14.834  21.174  13.724  1.00  0.00     0.000 C 
BRANCH   6   7
ATOM      7  C   UNL     1      15.513  22.114  12.716  1.00  0.00    -0.000 C 
BRANCH   7   8
ATOM      8  C   UNL     1      15.910  21.397  11.417  1.00  0.00    -0.003 C 
ATOM      9  C   UNL     1      17.416  21.435  11.156  1.00  0.00     0.004 C 
ENDBRANCH   7   8
ENDBRANCH   6   7
ENDBRANCH   1   6
TORSDOF 5
ENDMDL
MODEL 6
REMARK VINA RESULT:    -4.009      1.245      2.957
REMARK INTER + INTRA:          -5.550
REMARK INTER:                  -5.194
REMARK INTRA:                  -0.356
REMARK UNBOUND:                -0.370
REMARK SMILES CCCCCCC(=O)[O-]
REMARK SMILES IDX 5 1 6 2 7 3 8 4 9 5 4 6 3 7 2 8 1 9
REMARK H PARENT
REMARK Flexibility Score: inf
ROOT
ATOM      1  C   UNL     1      17.588  19.476  12.621  1.00  0.00     0.006 C 
ENDROOT
BRANCH   1   2
ATOM      2  C   UNL     1      18.406  19.518  13.915  1.00  0.00     0.053 C 
BRANCH   2   3
ATOM      3  C   UNL     1      17.501  19.611  15.104  1.00  0.00     0.041 C 
ATOM      4  O   UNL     1      17.067  20.729  15.483  1.00  0.00    -0.550 OA
ATOM      5  O   UNL     1      17.176  18.466  15.821  1.00  0.00    -0.550 OA
ENDBRANCH   2   3
ENDBRANCH   1   2
BRANCH   1   6
ATOM      6  C   UNL     1      17.891  20.693  11.739  1.00  0.00     0.000 C 
BRANCH   6   7
ATOM      7  C   UNL     1      16.593  21.350  11.245  1.00  0.00    -0.000 C 
BRANCH   7   8
ATOM      8  C   UNL     1      15.482  21.332  12.305  1.00  0.00    -0.003 C 
ATOM      9  C   UNL     1      15.395  22.639  13.093  1.00  0.00     0.004 C 
ENDBRANCH   7   8
ENDBRANCH   6   7
ENDBRANCH   1   6
TORSDOF 5
ENDMDL
MODEL 7
REMARK VINA RESULT:    -4.001     14.824     16.281
REMARK INTER + INTRA:          -5.541
REMARK INTER:                  -5.284
REMARK INTRA:                  -0.257
REMARK UNBOUND:                -0.370
REMARK SMILES CCCCCCC(=O)[O-]
REMARK SMILES IDX 5 1 6 2 7 3 8 4 9 5 4 6 3 7 2 8 1 9
REMARK H PARENT
REMARK Flexibility Score: inf
ROOT
ATOM      1  C   UNL     1      31.642  17.085   7.471  1.00  0.00     0.006 C 
ENDROOT
BRANCH   1   2
ATOM      2  C   UNL     1      31.115  18.389   8.076  1.00  0.00     0.053 C 
BRANCH   2   3
ATOM      3  C   UNL     1      32.204  19.416   8.135  1.00  0.00     0.041 C 
ATOM      4  O   UNL     1      33.407  19.069   8.018  1.00  0.00    -0.550 OA
ATOM      5  O   UNL     1      31.890  20.749   8.368  1.00  0.00    -0.550 OA
ENDBRANCH   2   3
ENDBRANCH   1   2
BRANCH   1   6
ATOM      6  C   UNL     1      30.687  16.550   6.398  1.00  0.00     0.000 C 
BRANCH   6   7
ATOM      7  C   UNL     1      29.857  17.689   5.785  1.00  0.00    -0.000 C 
BRANCH   7   8
ATOM      8  C   UNL     1      28.420  17.258   5.452  1.00  0.00    -0.003 C 
ATOM      9  C   UNL     1      27.409  17.708   6.507  1.00  0.00     0.004 C 
ENDBRANCH   7   8
ENDBRANCH   6   7
ENDBRANCH   1   6
TORSDOF 5
ENDMDL
MODEL 8
REMARK VINA RESULT:    -3.965     13.078     14.300
REMARK INTER + INTRA:          -5.494
REMARK INTER:                  -5.202
REMARK INTRA:                  -0.292
REMARK UNBOUND:                -0.370
REMARK SMILES CCCCCCC(=O)[O-]
REMARK SMILES IDX 5 1 6 2 7 3 8 4 9 5 4 6 3 7 2 8 1 9
REMARK H PARENT
REMARK Flexibility Score: inf
ROOT
ATOM      1  C   UNL     1      27.746  18.825   7.617  1.00  0.00     0.006 C 
ENDROOT
BRANCH   1   2
ATOM      2  C   UNL     1      28.432  20.175   7.851  1.00  0.00     0.053 C 
BRANCH   2   3
ATOM      3  C   UNL     1      29.436  20.066   8.957  1.00  0.00     0.041 C 
ATOM      4  O   UNL     1      30.667  20.058   8.695  1.00  0.00    -0.550 OA
ATOM      5  O   UNL     1      29.010  19.926  10.271  1.00  0.00    -0.550 OA
ENDBRANCH   2   3
ENDBRANCH   1   2
BRANCH   1   6
ATOM      6  C   UNL     1      27.594  18.539   6.118  1.00  0.00     0.000 C 
BRANCH   6   7
ATOM      7  C   UNL     1      28.433  17.320   5.703  1.00  0.00    -0.000 C 
BRANCH   7   8
ATOM      8  C   UNL     1      29.943  17.593   5.770  1.00  0.00    -0.003 C 
ATOM      9  C   UNL     1      30.667  16.678   6.758  1.00  0.00     0.004 C 
ENDBRANCH   7   8
ENDBRANCH   6   7
ENDBRANCH   1   6
TORSDOF 5
ENDMDL
MODEL 9
REMARK VINA RESULT:    -3.955     13.659     15.171
REMARK INTER + INTRA:          -5.481
REMARK INTER:                  -5.155
REMARK INTRA:                  -0.326
REMARK UNBOUND:                -0.370
REMARK SMILES CCCCCCC(=O)[O-]
REMARK SMILES IDX 5 1 6 2 7 3 8 4 9 5 4 6 3 7 2 8 1 9
REMARK H PARENT
REMARK Flexibility Score: inf
ROOT
ATOM      1  C   UNL     1      29.834  17.720   5.740  1.00  0.00     0.006 C 
ENDROOT
BRANCH   1   2
ATOM      2  C   UNL     1      28.413  17.288   5.367  1.00  0.00     0.053 C 
BRANCH   2   3
ATOM      3  C   UNL     1      27.411  17.963   6.252  1.00  0.00     0.041 C 
ATOM      4  O   UNL     1      26.199  18.006   5.918  1.00  0.00    -0.550 OA
ATOM      5  O   UNL     1      27.827  18.586   7.422  1.00  0.00    -0.550 OA
ENDBRANCH   2   3
ENDBRANCH   1   2
BRANCH   1   6
ATOM      6  C   UNL     1      30.585  16.587   6.451  1.00  0.00     0.000 C 
BRANCH   6   7
ATOM      7  C   UNL     1      31.470  17.139   7.579  1.00  0.00    -0.000 C 
BRANCH   7   8
ATOM      8  C   UNL     1      31.416  18.671   7.675  1.00  0.00    -0.003 C 
ATOM      9  C   UNL     1      30.977  19.163   9.054  1.00  0.00     0.004 C 
ENDBRANCH   7   8
ENDBRANCH   6   7
ENDBRANCH   1   6
TORSDOF 5
ENDMDL
