MODEL 1
REMARK VINA RESULT:    -3.588      0.000      0.000
REMARK INTER + INTRA:          -4.819
REMARK INTER:                  -4.637
REMARK INTRA:                  -0.182
REMARK UNBOUND:                -0.182
REMARK SMILES CCCCCCC(=O)[O-]
REMARK SMILES IDX 5 1 6 2 7 3 8 4 9 5 4 6 3 7 2 8 1 9
REMARK H PARENT
REMARK Flexibility Score: inf
ROOT
ATOM      1  C   UNL     1      -1.828   2.956  -8.743  1.00  0.00     0.006 C 
ENDROOT
BRANCH   1   2
ATOM      2  C   UNL     1      -0.791   2.959  -7.612  1.00  0.00     0.053 C 
BRANCH   2   3
ATOM      3  C   UNL     1       0.076   1.739  -7.649  1.00  0.00     0.041 C 
ATOM      4  O   UNL     1       0.298   1.087  -6.595  1.00  0.00    -0.550 OA
ATOM      5  O   UNL     1       0.612   1.301  -8.855  1.00  0.00    -0.550 OA
ENDBRANCH   2   3
ENDBRANCH   1   2
BRANCH   1   6
ATOM      6  C   UNL     1      -2.628   4.266  -8.802  1.00  0.00     0.000 C 
BRANCH   6   7
ATOM      7  C   UNL     1      -4.103   3.995  -9.117  1.00  0.00    -0.000 C 
BRANCH   7   8
ATOM      8  C   UNL     1      -4.333   2.515  -9.444  1.00  0.00    -0.003 C 
ATOM      9  C   UNL     1      -5.687   2.038  -8.925  1.00  0.00     0.004 C 
ENDBRANCH   7   8
ENDBRANCH   6   7
ENDBRANCH   1   6
TORSDOF 5
ENDMDL
MODEL 2
REMARK VINA RESULT:    -3.532      3.398      4.959
REMARK INTER + INTRA:          -4.746
REMARK INTER:                  -4.563
REMARK INTRA:                  -0.183
REMARK UNBOUND:                -0.182
REMARK SMILES CCCCCCC(=O)[O-]
REMARK SMILES IDX 5 1 6 2 7 3 8 4 9 5 4 6 3 7 2 8 1 9
REMARK H PARENT
REMARK Flexibility Score: inf
ROOT
ATOM      1  C   UNL     1      -3.985   4.126  -8.967  1.00  0.00     0.006 C 
ENDROOT
BRANCH   1   2
ATOM      2  C   UNL     1      -4.244   2.650  -9.299  1.00  0.00     0.053 C 
BRANCH   2   3
ATOM      3  C   UNL     1      -5.691   2.294  -9.154  1.00  0.00     0.041 C 
ATOM      4  O   UNL     1      -6.225   1.476  -9.950  1.00  0.00    -0.550 OA
ATOM      5  O   UNL     1      -6.443   2.838  -8.120  1.00  0.00    -0.550 OA
ENDBRANCH   2   3
ENDBRANCH   1   2
BRANCH   1   6
ATOM      6  C   UNL     1      -2.487   4.434  -8.820  1.00  0.00     0.000 C 
BRANCH   6   7
ATOM      7  C   UNL     1      -1.701   3.172  -8.447  1.00  0.00    -0.000 C 
BRANCH   7   8
ATOM      8  C   UNL     1      -0.383   3.094  -9.225  1.00  0.00    -0.003 C 
ATOM      9  C   UNL     1       0.210   1.689  -9.169  1.00  0.00     0.004 C 
ENDBRANCH   7   8
ENDBRANCH   6   7
ENDBRANCH   1   6
TORSDOF 5
ENDMDL
MODEL 3
REMARK VINA RESULT:    -3.528      3.391      5.004
REMARK INTER + INTRA:          -4.742
REMARK INTER:                  -4.617
REMARK INTRA:                  -0.125
REMARK UNBOUND:                -0.182
REMARK SMILES CCCCCCC(=O)[O-]
REMARK SMILES IDX 5 1 6 2 7 3 8 4 9 5 4 6 3 7 2 8 1 9
REMARK H PARENT
REMARK Flexibility Score: inf
ROOT
ATOM      1  C   UNL     1      -3.892   4.388  -8.856  1.00  0.00     0.006 C 
ENDROOT
BRANCH   1   2
ATOM      2  C   UNL     1      -5.217   4.051  -9.553  1.00  0.00     0.053 C 
BRANCH   2   3
ATOM      3  C   UNL     1      -5.955   2.957  -8.845  1.00  0.00     0.041 C 
ATOM      4  O   UNL     1      -6.627   3.212  -7.812  1.00  0.00    -0.550 OA
ATOM      5  O   UNL     1      -5.928   1.661  -9.347  1.00  0.00    -0.550 OA
ENDBRANCH   2   3
ENDBRANCH   1   2
BRANCH   1   6
ATOM      6  C   UNL     1      -2.818   3.317  -9.098  1.00  0.00     0.000 C 
BRANCH   6   7
ATOM      7  C   UNL     1      -1.427   3.840  -8.721  1.00  0.00    -0.000 C 
BRANCH   7   8
ATOM      8  C   UNL     1      -0.627   2.776  -7.960  1.00  0.00    -0.003 C 
ATOM      9  C   UNL     1       0.120   1.855  -8.920  1.00  0.00     0.004 C 
ENDBRANCH   7   8
ENDBRANCH   6   7
ENDBRANCH   1   6
TORSDOF 5
ENDMDL
MODEL 4
REMARK VINA RESULT:    -3.454      3.194      4.738
REMARK INTER + INTRA:          -4.646
REMARK INTER:                  -4.409
REMARK INTRA:                  -0.237
REMARK UNBOUND:                -0.182
REMARK SMILES CCCCCCC(=O)[O-]
REMARK SMILES IDX 5 1 6 2 7 3 8 4 9 5 4 6 3 7 2 8 1 9
REMARK H PARENT
REMARK Flexibility Score: inf
ROOT
ATOM      1  C   UNL     1      -1.008   3.635  -8.918  1.00  0.00     0.006 C 
ENDROOT
BRANCH   1   2
ATOM      2  C   UNL     1      -2.509   3.439  -9.172  1.00  0.00     0.053 C 
BRANCH   2   3
ATOM      3  C   UNL     1      -3.308   4.623  -8.724  1.00  0.00     0.041 C 
ATOM      4  O   UNL     1      -4.559   4.536  -8.609  1.00  0.00    -0.550 OA
ATOM      5  O   UNL     1      -2.668   5.814  -8.401  1.00  0.00    -0.550 OA
ENDBRANCH   2   3
ENDBRANCH   1   2
BRANCH   1   6
ATOM      6  C   UNL     1      -0.445   2.601  -7.932  1.00  0.00     0.000 C 
BRANCH   6   7
ATOM      7  C   UNL     1       0.288   1.478  -8.674  1.00  0.00    -0.000 C 
BRANCH   7   8
ATOM      8  C   UNL     1       0.812   1.964 -10.030  1.00  0.00    -0.003 C 
ATOM      9  C   UNL     1       0.333   1.062 -11.163  1.00  0.00     0.004 C 
ENDBRANCH   7   8
ENDBRANCH   6   7
ENDBRANCH   1   6
TORSDOF 5
ENDMDL
MODEL 5
REMARK VINA RESULT:    -3.435     13.442     14.313
REMARK INTER + INTRA:          -4.622
REMARK INTER:                  -4.473
REMARK INTRA:                  -0.149
REMARK UNBOUND:                -0.182
REMARK SMILES CCCCCCC(=O)[O-]
REMARK SMILES IDX 5 1 6 2 7 3 8 4 9 5 4 6 3 7 2 8 1 9
REMARK H PARENT
REMARK Flexibility Score: inf
ROOT
ATOM      1  C   UNL     1       0.118 -10.078  -4.449  1.00  0.00     0.006 C 
ENDROOT
BRANCH   1   2
ATOM      2  C   UNL     1      -1.270 -10.531  -3.977  1.00  0.00     0.053 C 
BRANCH   2   3
ATOM      3  C   UNL     1      -1.737  -9.749  -2.789  1.00  0.00     0.041 C 
ATOM      4  O   UNL     1      -2.182 -10.346  -1.773  1.00  0.00    -0.550 OA
ATOM      5  O   UNL     1      -1.649  -8.362  -2.790  1.00  0.00    -0.550 OA
ENDBRANCH   2   3
ENDBRANCH   1   2
BRANCH   1   6
ATOM      6  C   UNL     1       0.888 -11.203  -5.157  1.00  0.00     0.000 C 
BRANCH   6   7
ATOM      7  C   UNL     1       0.490 -11.295  -6.634  1.00  0.00    -0.000 C 
BRANCH   7   8
ATOM      8  C   UNL     1       1.723 -11.222  -7.542  1.00  0.00    -0.003 C 
ATOM      9  C   UNL     1       2.979 -10.888  -6.742  1.00  0.00     0.004 C 
ENDBRANCH   7   8
ENDBRANCH   6   7
ENDBRANCH   1   6
TORSDOF 5
ENDMDL
MODEL 6
REMARK VINA RESULT:    -3.359      2.929      4.233
REMARK INTER + INTRA:          -4.523
REMARK INTER:                  -4.145
REMARK INTRA:                  -0.378
REMARK UNBOUND:                -0.182
REMARK SMILES CCCCCCC(=O)[O-]
REMARK SMILES IDX 5 1 6 2 7 3 8 4 9 5 4 6 3 7 2 8 1 9
REMARK H PARENT
REMARK Flexibility Score: inf
ROOT
ATOM      1  C   UNL     1      -0.585   2.662  -7.748  1.00  0.00     0.006 C 
ENDROOT
BRANCH   1   2
ATOM      2  C   UNL     1      -0.983   3.892  -8.574  1.00  0.00     0.053 C 
BRANCH   2   3
ATOM      3  C   UNL     1      -2.467   3.990  -8.747  1.00  0.00     0.041 C 
ATOM      4  O   UNL     1      -3.134   2.976  -9.082  1.00  0.00    -0.550 OA
ATOM      5  O   UNL     1      -3.119   5.194  -8.504  1.00  0.00    -0.550 OA
ENDBRANCH   2   3
ENDBRANCH   1   2
BRANCH   1   6
ATOM      6  C   UNL     1       0.233   1.652  -8.567  1.00  0.00     0.000 C 
BRANCH   6   7
ATOM      7  C   UNL     1       0.568   2.213  -9.954  1.00  0.00    -0.000 C 
BRANCH   7   8
ATOM      8  C   UNL     1       0.260   1.188 -11.051  1.00  0.00    -0.003 C 
ATOM      9  C   UNL     1      -1.210   1.237 -11.456  1.00  0.00     0.004 C 
ENDBRANCH   7   8
ENDBRANCH   6   7
ENDBRANCH   1   6
TORSDOF 5
ENDMDL
MODEL 7
REMARK VINA RESULT:    -3.335      1.190      1.792
REMARK INTER + INTRA:          -4.491
REMARK INTER:                  -4.333
REMARK INTRA:                  -0.159
REMARK UNBOUND:                -0.182
REMARK SMILES CCCCCCC(=O)[O-]
REMARK SMILES IDX 5 1 6 2 7 3 8 4 9 5 4 6 3 7 2 8 1 9
REMARK H PARENT
REMARK Flexibility Score: inf
ROOT
ATOM      1  C   UNL     1      -1.970   2.873  -9.322  1.00  0.00     0.006 C 
ENDROOT
BRANCH   1   2
ATOM      2  C   UNL     1      -1.101   3.193  -8.098  1.00  0.00     0.053 C 
BRANCH   2   3
ATOM      3  C   UNL     1      -0.075   2.131  -7.851  1.00  0.00     0.041 C 
ATOM      4  O   UNL     1       0.132   1.710  -6.682  1.00  0.00    -0.550 OA
ATOM      5  O   UNL     1       0.629   1.582  -8.916  1.00  0.00    -0.550 OA
ENDBRANCH   2   3
ENDBRANCH   1   2
BRANCH   1   6
ATOM      6  C   UNL     1      -3.368   3.501  -9.222  1.00  0.00     0.000 C 
BRANCH   6   7
ATOM      7  C   UNL     1      -3.284   4.960  -8.759  1.00  0.00    -0.000 C 
BRANCH   7   8
ATOM      8  C   UNL     1      -3.970   5.896  -9.760  1.00  0.00    -0.003 C 
ATOM      9  C   UNL     1      -5.343   5.366 -10.160  1.00  0.00     0.004 C 
ENDBRANCH   7   8
ENDBRANCH   6   7
ENDBRANCH   1   6
TORSDOF 5
ENDMDL
MODEL 8
REMARK VINA RESULT:    -3.143      1.567      2.056
REMARK INTER + INTRA:          -4.244
REMARK INTER:                  -3.858
REMARK INTRA:                  -0.386
REMARK UNBOUND:                -0.182
REMARK SMILES CCCCCCC(=O)[O-]
REMARK SMILES IDX 5 1 6 2 7 3 8 4 9 5 4 6 3 7 2 8 1 9
REMARK H PARENT
REMARK Flexibility Score: inf
ROOT
ATOM      1  C   UNL     1      -0.860   4.620  -8.395  1.00  0.00     0.006 C 
ENDROOT
BRANCH   1   2
ATOM      2  C   UNL     1      -0.986   3.131  -8.046  1.00  0.00     0.053 C 
BRANCH   2   3
ATOM      3  C   UNL     1      -0.052   2.288  -8.858  1.00  0.00     0.041 C 
ATOM      4  O   UNL     1       0.225   2.611 -10.043  1.00  0.00    -0.550 OA
ATOM      5  O   UNL     1       0.539   1.163  -8.294  1.00  0.00    -0.550 OA
ENDBRANCH   2   3
ENDBRANCH   1   2
BRANCH   1   6
ATOM      6  C   UNL     1      -2.224   5.272  -8.665  1.00  0.00     0.000 C 
BRANCH   6   7
ATOM      7  C   UNL     1      -3.304   4.209  -8.898  1.00  0.00    -0.000 C 
BRANCH   7   8
ATOM      8  C   UNL     1      -3.734   4.174 -10.369  1.00  0.00    -0.003 C 
ATOM      9  C   UNL     1      -3.182   2.940 -11.076  1.00  0.00     0.004 C 
ENDBRANCH   7   8
ENDBRANCH   6   7
ENDBRANCH   1   6
TORSDOF 5
ENDMDL
MODEL 9
REMARK VINA RESULT:    -3.094      3.266      4.740
REMARK INTER + INTRA:          -4.180
REMARK INTER:                  -3.910
REMARK INTRA:                  -0.270
REMARK UNBOUND:                -0.182
REMARK SMILES CCCCCCC(=O)[O-]
REMARK SMILES IDX 5 1 6 2 7 3 8 4 9 5 4 6 3 7 2 8 1 9
REMARK H PARENT
REMARK Flexibility Score: inf
ROOT
ATOM      1  C   UNL     1      -2.811   3.008 -10.694  1.00  0.00     0.006 C 
ENDROOT
BRANCH   1   2
ATOM      2  C   UNL     1      -3.742   2.927  -9.477  1.00  0.00     0.053 C 
BRANCH   2   3
ATOM      3  C   UNL     1      -4.273   4.273  -9.092  1.00  0.00     0.041 C 
ATOM      4  O   UNL     1      -3.575   5.053  -8.392  1.00  0.00    -0.550 OA
ATOM      5  O   UNL     1      -5.526   4.679  -9.534  1.00  0.00    -0.550 OA
ENDBRANCH   2   3
ENDBRANCH   1   2
BRANCH   1   6
ATOM      6  C   UNL     1      -1.338   3.176 -10.290  1.00  0.00     0.000 C 
BRANCH   6   7
ATOM      7  C   UNL     1      -0.622   1.821 -10.250  1.00  0.00    -0.000 C 
BRANCH   7   8
ATOM      8  C   UNL     1       0.209   1.675  -8.970  1.00  0.00    -0.003 C 
ATOM      9  C   UNL     1      -0.376   2.509  -7.834  1.00  0.00     0.004 C 
ENDBRANCH   7   8
ENDBRANCH   6   7
ENDBRANCH   1   6
TORSDOF 5
ENDMDL
