MODEL 1
REMARK VINA RESULT:    -5.699      0.000      0.000
REMARK INTER + INTRA:          -7.271
REMARK INTER:                  -6.865
REMARK INTRA:                  -0.406
REMARK UNBOUND:                -0.406
REMARK SMILES CCCCc1oc(O)c2ccccc12
REMARK SMILES IDX 4 1 5 2 7 3 6 4 9 5 14 6 10 7 13 8 11 9 12 10 8 11 3 13 2 14
REMARK SMILES IDX 1 15
REMARK H PARENT 8 12
REMARK Flexibility Score: inf
ROOT
ATOM      1  C   UNL     1       6.626  20.441  47.615  1.00  0.00     0.076 C 
ENDROOT
BRANCH   1   2
ATOM      2  C   UNL     1       5.803  19.930  48.757  1.00  0.00     0.116 A 
ATOM      3  C   UNL     1       4.179  19.006  49.811  1.00  0.00     0.290 A 
ATOM      4  O   UNL     1       4.617  19.363  48.620  1.00  0.00    -0.430 OA
ATOM      5  C   UNL     1       5.111  19.345  50.769  1.00  0.00     0.066 A 
ATOM      6  C   UNL     1       6.150  19.932  50.096  1.00  0.00     0.027 A 
ATOM      7  C   UNL     1       5.130  19.178  52.153  1.00  0.00     0.016 A 
ATOM      8  C   UNL     1       7.287  20.393  50.760  1.00  0.00     0.012 A 
ATOM      9  C   UNL     1       6.262  19.635  52.851  1.00  0.00     0.001 A 
ATOM     10  C   UNL     1       7.336  20.239  52.159  1.00  0.00     0.001 A 
BRANCH   3  11
ATOM     11  O   UNL     1       2.956  18.380  50.032  1.00  0.00    -0.480 OA
ATOM     12  H   UNL     1       2.902  17.391  50.240  1.00  0.00     0.297 HD
ENDBRANCH   3  11
ENDBRANCH   1   2
BRANCH   1  13
ATOM     13  C   UNL     1       6.630  19.429  46.463  1.00  0.00     0.008 C 
BRANCH  13  14
ATOM     14  C   UNL     1       7.298  18.100  46.846  1.00  0.00    -0.003 C 
ATOM     15  C   UNL     1       6.431  16.886  46.515  1.00  0.00     0.004 C 
ENDBRANCH  13  14
ENDBRANCH   1  13
TORSDOF 4
ENDMDL
MODEL 2
REMARK VINA RESULT:    -5.428     14.904     16.844
REMARK INTER + INTRA:          -6.945
REMARK INTER:                  -6.473
REMARK INTRA:                  -0.472
REMARK UNBOUND:                -0.406
REMARK SMILES CCCCc1oc(O)c2ccccc12
REMARK SMILES IDX 4 1 5 2 7 3 6 4 9 5 14 6 10 7 13 8 11 9 12 10 8 11 3 13 2 14
REMARK SMILES IDX 1 15
REMARK H PARENT 8 12
REMARK Flexibility Score: inf
ROOT
ATOM      1  C   UNL     1       9.390  32.575  58.299  1.00  0.00     0.076 C 
ENDROOT
BRANCH   1   2
ATOM      2  C   UNL     1      10.835  32.218  58.460  1.00  0.00     0.116 A 
ATOM      3  C   UNL     1      12.908  31.956  57.975  1.00  0.00     0.290 A 
ATOM      4  O   UNL     1      11.736  32.326  57.499  1.00  0.00    -0.430 OA
ATOM      5  C   UNL     1      12.778  31.595  59.300  1.00  0.00     0.066 A 
ATOM      6  C   UNL     1      11.454  31.764  59.610  1.00  0.00     0.027 A 
ATOM      7  C   UNL     1      13.704  31.146  60.240  1.00  0.00     0.016 A 
ATOM      8  C   UNL     1      10.961  31.500  60.888  1.00  0.00     0.012 A 
ATOM      9  C   UNL     1      13.236  30.868  61.537  1.00  0.00     0.001 A 
ATOM     10  C   UNL     1      11.872  31.044  61.860  1.00  0.00     0.001 A 
BRANCH   3  11
ATOM     11  O   UNL     1      14.081  31.948  57.227  1.00  0.00    -0.480 OA
ATOM     12  H   UNL     1      14.938  31.556  57.597  1.00  0.00     0.297 HD
ENDBRANCH   3  11
ENDBRANCH   1   2
BRANCH   1  13
ATOM     13  C   UNL     1       8.672  31.531  57.435  1.00  0.00     0.008 C 
BRANCH  13  14
ATOM     14  C   UNL     1       8.087  30.379  58.267  1.00  0.00    -0.003 C 
ATOM     15  C   UNL     1       7.644  30.824  59.661  1.00  0.00     0.004 C 
ENDBRANCH  13  14
ENDBRANCH   1  13
TORSDOF 4
ENDMDL
MODEL 3
REMARK VINA RESULT:    -5.244     17.721     19.934
REMARK INTER + INTRA:          -6.723
REMARK INTER:                  -6.192
REMARK INTRA:                  -0.531
REMARK UNBOUND:                -0.406
REMARK SMILES CCCCc1oc(O)c2ccccc12
REMARK SMILES IDX 4 1 5 2 7 3 6 4 9 5 14 6 10 7 13 8 11 9 12 10 8 11 3 13 2 14
REMARK SMILES IDX 1 15
REMARK H PARENT 8 12
REMARK Flexibility Score: inf
ROOT
ATOM      1  C   UNL     1      21.071  28.074  61.276  1.00  0.00     0.076 C 
ENDROOT
BRANCH   1   2
ATOM      2  C   UNL     1      19.826  28.180  60.451  1.00  0.00     0.116 A 
ATOM      3  C   UNL     1      18.221  27.605  59.151  1.00  0.00     0.290 A 
ATOM      4  O   UNL     1      19.330  27.190  59.730  1.00  0.00    -0.430 OA
ATOM      5  C   UNL     1      17.972  28.914  59.506  1.00  0.00     0.066 A 
ATOM      6  C   UNL     1      18.996  29.281  60.339  1.00  0.00     0.027 A 
ATOM      7  C   UNL     1      16.941  29.792  59.174  1.00  0.00     0.016 A 
ATOM      8  C   UNL     1      19.061  30.554  60.904  1.00  0.00     0.012 A 
ATOM      9  C   UNL     1      16.981  31.085  59.727  1.00  0.00     0.001 A 
ATOM     10  C   UNL     1      18.035  31.464  60.588  1.00  0.00     0.001 A 
BRANCH   3  11
ATOM     11  O   UNL     1      17.439  26.812  58.315  1.00  0.00    -0.480 OA
ATOM     12  H   UNL     1      17.500  25.802  58.341  1.00  0.00     0.297 HD
ENDBRANCH   3  11
ENDBRANCH   1   2
BRANCH   1  13
ATOM     13  C   UNL     1      20.899  27.018  62.375  1.00  0.00     0.008 C 
BRANCH  13  14
ATOM     14  C   UNL     1      19.747  27.350  63.336  1.00  0.00    -0.003 C 
ATOM     15  C   UNL     1      19.968  28.661  64.091  1.00  0.00     0.004 C 
ENDBRANCH  13  14
ENDBRANCH   1  13
TORSDOF 4
ENDMDL
MODEL 4
REMARK VINA RESULT:    -5.141     14.969     17.124
REMARK INTER + INTRA:          -6.599
REMARK INTER:                  -6.307
REMARK INTRA:                  -0.292
REMARK UNBOUND:                -0.406
REMARK SMILES CCCCc1oc(O)c2ccccc12
REMARK SMILES IDX 4 1 5 2 7 3 6 4 9 5 14 6 10 7 13 8 11 9 12 10 8 11 3 13 2 14
REMARK SMILES IDX 1 15
REMARK H PARENT 8 12
REMARK Flexibility Score: inf
ROOT
ATOM      1  C   UNL     1       9.484  32.790  59.469  1.00  0.00     0.076 C 
ENDROOT
BRANCH   1   2
ATOM      2  C   UNL     1      10.587  32.119  60.227  1.00  0.00     0.116 A 
ATOM      3  C   UNL     1      11.622  31.151  61.837  1.00  0.00     0.290 A 
ATOM      4  O   UNL     1      10.487  31.723  61.484  1.00  0.00    -0.430 OA
ATOM      5  C   UNL     1      12.500  31.164  60.774  1.00  0.00     0.066 A 
ATOM      6  C   UNL     1      11.839  31.781  59.744  1.00  0.00     0.027 A 
ATOM      7  C   UNL     1      13.802  30.686  60.632  1.00  0.00     0.016 A 
ATOM      8  C   UNL     1      12.431  31.960  58.494  1.00  0.00     0.012 A 
ATOM      9  C   UNL     1      14.428  30.854  59.384  1.00  0.00     0.001 A 
ATOM     10  C   UNL     1      13.746  31.487  58.319  1.00  0.00     0.001 A 
BRANCH   3  11
ATOM     11  O   UNL     1      11.861  30.619  63.101  1.00  0.00    -0.480 OA
ATOM     12  H   UNL     1      12.763  30.232  63.346  1.00  0.00     0.297 HD
ENDBRANCH   3  11
ENDBRANCH   1   2
BRANCH   1  13
ATOM     13  C   UNL     1       8.958  31.869  58.360  1.00  0.00     0.008 C 
BRANCH  13  14
ATOM     14  C   UNL     1       8.127  30.700  58.910  1.00  0.00    -0.003 C 
ATOM     15  C   UNL     1       7.724  29.701  57.825  1.00  0.00     0.004 C 
ENDBRANCH  13  14
ENDBRANCH   1  13
TORSDOF 4
ENDMDL
MODEL 5
REMARK VINA RESULT:    -5.052      1.532      2.937
REMARK INTER + INTRA:          -6.491
REMARK INTER:                  -6.151
REMARK INTRA:                  -0.340
REMARK UNBOUND:                -0.406
REMARK SMILES CCCCc1oc(O)c2ccccc12
REMARK SMILES IDX 4 1 5 2 7 3 6 4 9 5 14 6 10 7 13 8 11 9 12 10 8 11 3 13 2 14
REMARK SMILES IDX 1 15
REMARK H PARENT 8 12
REMARK Flexibility Score: inf
ROOT
ATOM      1  C   UNL     1       3.022  18.297  49.402  1.00  0.00     0.076 C 
ENDROOT
BRANCH   1   2
ATOM      2  C   UNL     1       4.328  19.009  49.576  1.00  0.00     0.116 A 
ATOM      3  C   UNL     1       6.083  20.139  49.086  1.00  0.00     0.290 A 
ATOM      4  O   UNL     1       4.995  19.584  48.591  1.00  0.00    -0.430 OA
ATOM      5  C   UNL     1       6.135  19.928  50.448  1.00  0.00     0.066 A 
ATOM      6  C   UNL     1       5.012  19.208  50.762  1.00  0.00     0.027 A 
ATOM      7  C   UNL     1       7.060  20.311  51.418  1.00  0.00     0.016 A 
ATOM      8  C   UNL     1       4.731  18.822  52.072  1.00  0.00     0.012 A 
ATOM      9  C   UNL     1       6.805  19.934  52.749  1.00  0.00     0.001 A 
ATOM     10  C   UNL     1       5.647  19.194  53.075  1.00  0.00     0.001 A 
BRANCH   3  11
ATOM     11  O   UNL     1       7.017  20.832  48.320  1.00  0.00    -0.480 OA
ATOM     12  H   UNL     1       6.736  21.576  47.695  1.00  0.00     0.297 HD
ENDBRANCH   3  11
ENDBRANCH   1   2
BRANCH   1  13
ATOM     13  C   UNL     1       2.876  17.791  47.961  1.00  0.00     0.008 C 
BRANCH  13  14
ATOM     14  C   UNL     1       3.535  16.420  47.748  1.00  0.00    -0.003 C 
ATOM     15  C   UNL     1       4.716  16.478  46.779  1.00  0.00     0.004 C 
ENDBRANCH  13  14
ENDBRANCH   1  13
TORSDOF 4
ENDMDL
MODEL 6
REMARK VINA RESULT:    -5.038     17.549     19.251
REMARK INTER + INTRA:          -6.475
REMARK INTER:                  -6.248
REMARK INTRA:                  -0.227
REMARK UNBOUND:                -0.406
REMARK SMILES CCCCc1oc(O)c2ccccc12
REMARK SMILES IDX 4 1 5 2 7 3 6 4 9 5 14 6 10 7 13 8 11 9 12 10 8 11 3 13 2 14
REMARK SMILES IDX 1 15
REMARK H PARENT 8 12
REMARK Flexibility Score: inf
ROOT
ATOM      1  C   UNL     1      16.496  31.439  59.926  1.00  0.00     0.076 C 
ENDROOT
BRANCH   1   2
ATOM      2  C   UNL     1      17.298  30.203  59.660  1.00  0.00     0.116 A 
ATOM      3  C   UNL     1      17.882  28.335  58.783  1.00  0.00     0.290 A 
ATOM      4  O   UNL     1      16.951  29.268  58.792  1.00  0.00    -0.430 OA
ATOM      5  C   UNL     1      18.882  28.667  59.673  1.00  0.00     0.066 A 
ATOM      6  C   UNL     1      18.510  29.861  60.232  1.00  0.00     0.027 A 
ATOM      7  C   UNL     1      20.071  28.028  60.023  1.00  0.00     0.016 A 
ATOM      8  C   UNL     1      19.304  30.506  61.180  1.00  0.00     0.012 A 
ATOM      9  C   UNL     1      20.891  28.652  60.980  1.00  0.00     0.001 A 
ATOM     10  C   UNL     1      20.511  29.886  61.555  1.00  0.00     0.001 A 
BRANCH   3  11
ATOM     11  O   UNL     1      17.834  27.199  57.979  1.00  0.00    -0.480 OA
ATOM     12  H   UNL     1      18.676  26.798  57.586  1.00  0.00     0.297 HD
ENDBRANCH   3  11
ENDBRANCH   1   2
BRANCH   1  13
ATOM     13  C   UNL     1      15.383  31.148  60.940  1.00  0.00     0.008 C 
BRANCH  13  14
ATOM     14  C   UNL     1      14.207  30.378  60.321  1.00  0.00    -0.003 C 
ATOM     15  C   UNL     1      12.872  30.701  60.991  1.00  0.00     0.004 C 
ENDBRANCH  13  14
ENDBRANCH   1  13
TORSDOF 4
ENDMDL
MODEL 7
REMARK VINA RESULT:    -4.994     17.722     19.244
REMARK INTER + INTRA:          -6.422
REMARK INTER:                  -5.925
REMARK INTRA:                  -0.497
REMARK UNBOUND:                -0.406
REMARK SMILES CCCCc1oc(O)c2ccccc12
REMARK SMILES IDX 4 1 5 2 7 3 6 4 9 5 14 6 10 7 13 8 11 9 12 10 8 11 3 13 2 14
REMARK SMILES IDX 1 15
REMARK H PARENT 8 12
REMARK Flexibility Score: inf
ROOT
ATOM      1  C   UNL     1      16.245  29.196  60.477  1.00  0.00     0.076 C 
ENDROOT
BRANCH   1   2
ATOM      2  C   UNL     1      17.178  28.031  60.608  1.00  0.00     0.116 A 
ATOM      3  C   UNL     1      17.917  26.022  60.475  1.00  0.00     0.290 A 
ATOM      4  O   UNL     1      16.872  26.795  60.255  1.00  0.00    -0.430 OA
ATOM      5  C   UNL     1      18.953  26.776  60.986  1.00  0.00     0.066 A 
ATOM      6  C   UNL     1      18.482  28.060  61.069  1.00  0.00     0.027 A 
ATOM      7  C   UNL     1      20.250  26.441  61.371  1.00  0.00     0.016 A 
ATOM      8  C   UNL     1      19.277  29.104  61.540  1.00  0.00     0.012 A 
ATOM      9  C   UNL     1      21.076  27.472  61.853  1.00  0.00     0.001 A 
ATOM     10  C   UNL     1      20.593  28.798  61.936  1.00  0.00     0.001 A 
BRANCH   3  11
ATOM     11  O   UNL     1      17.939  24.655  60.214  1.00  0.00    -0.480 OA
ATOM     12  H   UNL     1      17.348  24.246  59.502  1.00  0.00     0.297 HD
ENDBRANCH   3  11
ENDBRANCH   1   2
BRANCH   1  13
ATOM     13  C   UNL     1      16.623  30.051  59.262  1.00  0.00     0.008 C 
BRANCH  13  14
ATOM     14  C   UNL     1      17.064  31.470  59.653  1.00  0.00    -0.003 C 
ATOM     15  C   UNL     1      16.711  31.820  61.099  1.00  0.00     0.004 C 
ENDBRANCH  13  14
ENDBRANCH   1  13
TORSDOF 4
ENDMDL
MODEL 8
REMARK VINA RESULT:    -4.933      1.147      4.435
REMARK INTER + INTRA:          -6.348
REMARK INTER:                  -6.084
REMARK INTRA:                  -0.264
REMARK UNBOUND:                -0.406
REMARK SMILES CCCCc1oc(O)c2ccccc12
REMARK SMILES IDX 4 1 5 2 7 3 6 4 9 5 14 6 10 7 13 8 11 9 12 10 8 11 3 13 2 14
REMARK SMILES IDX 1 15
REMARK H PARENT 8 12
REMARK Flexibility Score: inf
ROOT
ATOM      1  C   UNL     1       7.452  20.200  50.417  1.00  0.00     0.076 C 
ENDROOT
BRANCH   1   2
ATOM      2  C   UNL     1       6.279  19.578  49.725  1.00  0.00     0.116 A 
ATOM      3  C   UNL     1       4.250  19.008  49.324  1.00  0.00     0.290 A 
ATOM      4  O   UNL     1       5.038  19.629  50.179  1.00  0.00    -0.430 OA
ATOM      5  C   UNL     1       4.995  18.533  48.265  1.00  0.00     0.066 A 
ATOM      6  C   UNL     1       6.291  18.899  48.520  1.00  0.00     0.027 A 
ATOM      7  C   UNL     1       4.641  17.829  47.116  1.00  0.00     0.016 A 
ATOM      8  C   UNL     1       7.327  18.589  47.640  1.00  0.00     0.012 A 
ATOM      9  C   UNL     1       5.665  17.498  46.210  1.00  0.00     0.001 A 
ATOM     10  C   UNL     1       7.002  17.877  46.469  1.00  0.00     0.001 A 
BRANCH   3  11
ATOM     11  O   UNL     1       2.875  18.874  49.493  1.00  0.00    -0.480 OA
ATOM     12  H   UNL     1       2.479  18.069  49.961  1.00  0.00     0.297 HD
ENDBRANCH   3  11
ENDBRANCH   1   2
BRANCH   1  13
ATOM     13  C   UNL     1       7.046  20.710  51.806  1.00  0.00     0.008 C 
BRANCH  13  14
ATOM     14  C   UNL     1       7.177  19.632  52.892  1.00  0.00    -0.003 C 
ATOM     15  C   UNL     1       5.831  19.242  53.502  1.00  0.00     0.004 C 
ENDBRANCH  13  14
ENDBRANCH   1  13
TORSDOF 4
ENDMDL
MODEL 9
REMARK VINA RESULT:    -4.772     17.671     19.998
REMARK INTER + INTRA:          -6.154
REMARK INTER:                  -5.734
REMARK INTRA:                  -0.421
REMARK UNBOUND:                -0.406
REMARK SMILES CCCCc1oc(O)c2ccccc12
REMARK SMILES IDX 4 1 5 2 7 3 6 4 9 5 14 6 10 7 13 8 11 9 12 10 8 11 3 13 2 14
REMARK SMILES IDX 1 15
REMARK H PARENT 8 12
REMARK Flexibility Score: inf
ROOT
ATOM      1  C   UNL     1      21.359  28.932  60.015  1.00  0.00     0.076 C 
ENDROOT
BRANCH   1   2
ATOM      2  C   UNL     1      20.108  28.114  60.120  1.00  0.00     0.116 A 
ATOM      3  C   UNL     1      18.837  26.394  60.279  1.00  0.00     0.290 A 
ATOM      4  O   UNL     1      20.088  26.793  60.162  1.00  0.00    -0.430 OA
ATOM      5  C   UNL     1      18.001  27.490  60.322  1.00  0.00     0.066 A 
ATOM      6  C   UNL     1      18.813  28.589  60.223  1.00  0.00     0.027 A 
ATOM      7  C   UNL     1      16.617  27.605  60.446  1.00  0.00     0.016 A 
ATOM      8  C   UNL     1      18.298  29.886  60.244  1.00  0.00     0.012 A 
ATOM      9  C   UNL     1      16.068  28.899  60.467  1.00  0.00     0.001 A 
ATOM     10  C   UNL     1      16.904  30.035  60.367  1.00  0.00     0.001 A 
BRANCH   3  11
ATOM     11  O   UNL     1      18.454  25.058  60.352  1.00  0.00    -0.480 OA
ATOM     12  H   UNL     1      19.121  24.331  60.575  1.00  0.00     0.297 HD
ENDBRANCH   3  11
ENDBRANCH   1   2
BRANCH   1  13
ATOM     13  C   UNL     1      22.037  29.051  61.386  1.00  0.00     0.008 C 
BRANCH  13  14
ATOM     14  C   UNL     1      21.464  30.199  62.230  1.00  0.00    -0.003 C 
ATOM     15  C   UNL     1      21.461  29.887  63.726  1.00  0.00     0.004 C 
ENDBRANCH  13  14
ENDBRANCH   1  13
TORSDOF 4
ENDMDL
