MODEL 1
REMARK VINA RESULT:    -3.889      0.000      0.000
REMARK INTER + INTRA:          -7.026
REMARK INTER:                  -5.935
REMARK INTRA:                  -1.091
REMARK UNBOUND:                -1.091
REMARK SMILES CCCCCCCCCCC(=O)[O-]
REMARK SMILES IDX 7 1 8 2 9 3 10 4 11 5 12 6 13 7 6 8 5 9 4 10 3 11 2 12 1 13
REMARK H PARENT
REMARK Flexibility Score: inf
ROOT
ATOM      1  C   UNL     1      -4.454  -7.564 -18.487  1.00  0.00     0.000 C 
ENDROOT
BRANCH   1   2
ATOM      2  C   UNL     1      -4.374  -6.895 -17.110  1.00  0.00     0.000 C 
BRANCH   2   3
ATOM      3  C   UNL     1      -5.149  -7.703 -16.059  1.00  0.00     0.006 C 
BRANCH   3   4
ATOM      4  C   UNL     1      -4.771  -9.190 -16.074  1.00  0.00     0.053 C 
BRANCH   4   5
ATOM      5  C   UNL     1      -5.958 -10.068 -15.816  1.00  0.00     0.041 C 
ATOM      6  O   UNL     1      -6.041 -11.197 -16.366  1.00  0.00    -0.550 OA
ATOM      7  O   UNL     1      -6.986  -9.624 -14.994  1.00  0.00    -0.550 OA
ENDBRANCH   4   5
ENDBRANCH   3   4
ENDBRANCH   2   3
ENDBRANCH   1   2
BRANCH   1   8
ATOM      8  C   UNL     1      -3.079  -7.587 -19.170  1.00  0.00     0.000 C 
BRANCH   8   9
ATOM      9  C   UNL     1      -1.931  -7.220 -18.213  1.00  0.00    -0.000 C 
BRANCH   9  10
ATOM     10  C   UNL     1      -0.964  -8.373 -17.883  1.00  0.00    -0.000 C 
BRANCH  10  11
ATOM     11  C   UNL     1      -0.341  -8.323 -16.474  1.00  0.00    -0.000 C 
BRANCH  11  12
ATOM     12  C   UNL     1      -1.019  -7.342 -15.501  1.00  0.00    -0.003 C 
ATOM     13  C   UNL     1      -1.394  -7.989 -14.169  1.00  0.00     0.004 C 
ENDBRANCH  11  12
ENDBRANCH  10  11
ENDBRANCH   9  10
ENDBRANCH   8   9
ENDBRANCH   1   8
TORSDOF 9
ENDMDL
MODEL 2
REMARK VINA RESULT:    -3.847      1.365      3.191
REMARK INTER + INTRA:          -6.962
REMARK INTER:                  -5.784
REMARK INTRA:                  -1.178
REMARK UNBOUND:                -1.091
REMARK SMILES CCCCCCCCCCC(=O)[O-]
REMARK SMILES IDX 7 1 8 2 9 3 10 4 11 5 12 6 13 7 6 8 5 9 4 10 3 11 2 12 1 13
REMARK H PARENT
REMARK Flexibility Score: inf
ROOT
ATOM      1  C   UNL     1      -2.220  -9.405 -15.322  1.00  0.00     0.000 C 
ENDROOT
BRANCH   1   2
ATOM      2  C   UNL     1      -3.651  -9.679 -14.848  1.00  0.00     0.000 C 
BRANCH   2   3
ATOM      3  C   UNL     1      -4.469  -8.381 -14.784  1.00  0.00     0.006 C 
BRANCH   3   4
ATOM      4  C   UNL     1      -5.948  -8.608 -15.127  1.00  0.00     0.053 C 
BRANCH   4   5
ATOM      5  C   UNL     1      -6.443  -9.924 -14.610  1.00  0.00     0.041 C 
ATOM      6  O   UNL     1      -6.694 -10.865 -15.407  1.00  0.00    -0.550 OA
ATOM      7  O   UNL     1      -6.660 -10.098 -13.249  1.00  0.00    -0.550 OA
ENDBRANCH   4   5
ENDBRANCH   3   4
ENDBRANCH   2   3
ENDBRANCH   1   2
BRANCH   1   8
ATOM      8  C   UNL     1      -1.793  -7.969 -14.986  1.00  0.00     0.000 C 
BRANCH   8   9
ATOM      9  C   UNL     1      -1.205  -7.221 -16.196  1.00  0.00    -0.000 C 
BRANCH   9  10
ATOM     10  C   UNL     1      -2.236  -6.481 -17.069  1.00  0.00    -0.000 C 
BRANCH  10  11
ATOM     11  C   UNL     1      -2.697  -7.242 -18.328  1.00  0.00    -0.000 C 
BRANCH  11  12
ATOM     12  C   UNL     1      -4.215  -7.481 -18.420  1.00  0.00    -0.003 C 
ATOM     13  C   UNL     1      -4.577  -8.960 -18.546  1.00  0.00     0.004 C 
ENDBRANCH  11  12
ENDBRANCH  10  11
ENDBRANCH   9  10
ENDBRANCH   8   9
ENDBRANCH   1   8
TORSDOF 9
ENDMDL
MODEL 3
REMARK VINA RESULT:    -3.842      1.824      3.282
REMARK INTER + INTRA:          -6.954
REMARK INTER:                  -5.644
REMARK INTRA:                  -1.310
REMARK UNBOUND:                -1.091
REMARK SMILES CCCCCCCCCCC(=O)[O-]
REMARK SMILES IDX 7 1 8 2 9 3 10 4 11 5 12 6 13 7 6 8 5 9 4 10 3 11 2 12 1 13
REMARK H PARENT
REMARK Flexibility Score: inf
ROOT
ATOM      1  C   UNL     1      -5.325  -7.631 -16.214  1.00  0.00     0.000 C 
ENDROOT
BRANCH   1   2
ATOM      2  C   UNL     1      -4.256  -6.889 -17.024  1.00  0.00     0.000 C 
BRANCH   2   3
ATOM      3  C   UNL     1      -4.319  -7.278 -18.508  1.00  0.00     0.006 C 
BRANCH   3   4
ATOM      4  C   UNL     1      -3.338  -8.405 -18.856  1.00  0.00     0.053 C 
BRANCH   4   5
ATOM      5  C   UNL     1      -4.015  -9.741 -18.889  1.00  0.00     0.041 C 
ATOM      6  O   UNL     1      -5.256  -9.818 -19.087  1.00  0.00    -0.550 OA
ATOM      7  O   UNL     1      -3.280 -10.899 -18.668  1.00  0.00    -0.550 OA
ENDBRANCH   4   5
ENDBRANCH   3   4
ENDBRANCH   2   3
ENDBRANCH   1   2
BRANCH   1   8
ATOM      8  C   UNL     1      -4.739  -8.192 -14.911  1.00  0.00     0.000 C 
BRANCH   8   9
ATOM      9  C   UNL     1      -4.047  -9.554 -15.105  1.00  0.00    -0.000 C 
BRANCH   9  10
ATOM     10  C   UNL     1      -2.511  -9.494 -15.219  1.00  0.00    -0.000 C 
BRANCH  10  11
ATOM     11  C   UNL     1      -1.837  -8.364 -14.416  1.00  0.00    -0.000 C 
BRANCH  11  12
ATOM     12  C   UNL     1      -0.955  -7.417 -15.249  1.00  0.00    -0.003 C 
ATOM     13  C   UNL     1      -0.464  -8.051 -16.549  1.00  0.00     0.004 C 
ENDBRANCH  11  12
ENDBRANCH  10  11
ENDBRANCH   9  10
ENDBRANCH   8   9
ENDBRANCH   1   8
TORSDOF 9
ENDMDL
MODEL 4
REMARK VINA RESULT:    -3.818      2.511      3.884
REMARK INTER + INTRA:          -6.918
REMARK INTER:                  -6.087
REMARK INTRA:                  -0.831
REMARK UNBOUND:                -1.091
REMARK SMILES CCCCCCCCCCC(=O)[O-]
REMARK SMILES IDX 7 1 8 2 9 3 10 4 11 5 12 6 13 7 6 8 5 9 4 10 3 11 2 12 1 13
REMARK H PARENT
REMARK Flexibility Score: inf
ROOT
ATOM      1  C   UNL     1      -4.034  -8.505 -15.257  1.00  0.00     0.000 C 
ENDROOT
BRANCH   1   2
ATOM      2  C   UNL     1      -4.847  -9.622 -14.594  1.00  0.00     0.000 C 
BRANCH   2   3
ATOM      3  C   UNL     1      -6.268  -9.147 -14.260  1.00  0.00     0.006 C 
BRANCH   3   4
ATOM      4  C   UNL     1      -7.318 -10.241 -14.499  1.00  0.00     0.053 C 
BRANCH   4   5
ATOM      5  C   UNL     1      -7.696 -10.937 -13.227  1.00  0.00     0.041 C 
ATOM      6  O   UNL     1      -6.806 -11.441 -12.493  1.00  0.00    -0.550 OA
ATOM      7  O   UNL     1      -9.033 -11.057 -12.870  1.00  0.00    -0.550 OA
ENDBRANCH   4   5
ENDBRANCH   3   4
ENDBRANCH   2   3
ENDBRANCH   1   2
BRANCH   1   8
ATOM      8  C   UNL     1      -4.937  -7.590 -16.096  1.00  0.00     0.000 C 
BRANCH   8   9
ATOM      9  C   UNL     1      -4.169  -6.841 -17.200  1.00  0.00    -0.000 C 
BRANCH   9  10
ATOM     10  C   UNL     1      -4.431  -7.346 -18.633  1.00  0.00    -0.000 C 
BRANCH  10  11
ATOM     11  C   UNL     1      -3.863  -8.743 -18.949  1.00  0.00    -0.000 C 
BRANCH  11  12
ATOM     12  C   UNL     1      -4.885  -9.892 -18.862  1.00  0.00    -0.003 C 
ATOM     13  C   UNL     1      -4.410 -11.044 -17.978  1.00  0.00     0.004 C 
ENDBRANCH  11  12
ENDBRANCH  10  11
ENDBRANCH   9  10
ENDBRANCH   8   9
ENDBRANCH   1   8
TORSDOF 9
ENDMDL
MODEL 5
REMARK VINA RESULT:    -3.817      1.522      2.974
REMARK INTER + INTRA:          -6.916
REMARK INTER:                  -5.703
REMARK INTRA:                  -1.213
REMARK UNBOUND:                -1.091
REMARK SMILES CCCCCCCCCCC(=O)[O-]
REMARK SMILES IDX 7 1 8 2 9 3 10 4 11 5 12 6 13 7 6 8 5 9 4 10 3 11 2 12 1 13
REMARK H PARENT
REMARK Flexibility Score: inf
ROOT
ATOM      1  C   UNL     1      -4.354  -7.238 -18.435  1.00  0.00     0.000 C 
ENDROOT
BRANCH   1   2
ATOM      2  C   UNL     1      -3.158  -8.116 -18.820  1.00  0.00     0.000 C 
BRANCH   2   3
ATOM      3  C   UNL     1      -3.623  -9.442 -19.437  1.00  0.00     0.006 C 
BRANCH   3   4
ATOM      4  C   UNL     1      -4.994  -9.881 -18.906  1.00  0.00     0.053 C 
BRANCH   4   5
ATOM      5  C   UNL     1      -4.867 -10.873 -17.791  1.00  0.00     0.041 C 
ATOM      6  O   UNL     1      -5.825 -11.057 -16.994  1.00  0.00    -0.550 OA
ATOM      7  O   UNL     1      -3.680 -11.570 -17.611  1.00  0.00    -0.550 OA
ENDBRANCH   4   5
ENDBRANCH   3   4
ENDBRANCH   2   3
ENDBRANCH   1   2
BRANCH   1   8
ATOM      8  C   UNL     1      -4.260  -6.790 -16.969  1.00  0.00     0.000 C 
BRANCH   8   9
ATOM      9  C   UNL     1      -5.159  -7.617 -16.033  1.00  0.00    -0.000 C 
BRANCH   9  10
ATOM     10  C   UNL     1      -4.413  -8.392 -14.929  1.00  0.00    -0.000 C 
BRANCH  10  11
ATOM     11  C   UNL     1      -2.981  -8.833 -15.291  1.00  0.00    -0.000 C 
BRANCH  11  12
ATOM     12  C   UNL     1      -1.868  -8.147 -14.478  1.00  0.00    -0.003 C 
ATOM     13  C   UNL     1      -0.900  -7.350 -15.351  1.00  0.00     0.004 C 
ENDBRANCH  11  12
ENDBRANCH  10  11
ENDBRANCH   9  10
ENDBRANCH   8   9
ENDBRANCH   1   8
TORSDOF 9
ENDMDL
MODEL 6
REMARK VINA RESULT:    -3.781      1.676      2.418
REMARK INTER + INTRA:          -6.862
REMARK INTER:                  -6.087
REMARK INTRA:                  -0.775
REMARK UNBOUND:                -1.091
REMARK SMILES CCCCCCCCCCC(=O)[O-]
REMARK SMILES IDX 7 1 8 2 9 3 10 4 11 5 12 6 13 7 6 8 5 9 4 10 3 11 2 12 1 13
REMARK H PARENT
REMARK Flexibility Score: inf
ROOT
ATOM      1  C   UNL     1      -4.982  -8.638 -16.409  1.00  0.00     0.000 C 
ENDROOT
BRANCH   1   2
ATOM      2  C   UNL     1      -4.767  -8.711 -14.893  1.00  0.00     0.000 C 
BRANCH   2   3
ATOM      3  C   UNL     1      -6.108  -8.782 -14.148  1.00  0.00     0.006 C 
BRANCH   3   4
ATOM      4  C   UNL     1      -6.998  -9.922 -14.660  1.00  0.00     0.053 C 
BRANCH   4   5
ATOM      5  C   UNL     1      -7.240 -10.956 -13.604  1.00  0.00     0.041 C 
ATOM      6  O   UNL     1      -6.269 -11.531 -13.046  1.00  0.00    -0.550 OA
ATOM      7  O   UNL     1      -8.539 -11.309 -13.259  1.00  0.00    -0.550 OA
ENDBRANCH   4   5
ENDBRANCH   3   4
ENDBRANCH   2   3
ENDBRANCH   1   2
BRANCH   1   8
ATOM      8  C   UNL     1      -4.755  -7.212 -16.929  1.00  0.00     0.000 C 
BRANCH   8   9
ATOM      9  C   UNL     1      -3.980  -7.177 -18.259  1.00  0.00    -0.000 C 
BRANCH   9  10
ATOM     10  C   UNL     1      -2.446  -7.225 -18.119  1.00  0.00    -0.000 C 
BRANCH  10  11
ATOM     11  C   UNL     1      -1.886  -6.616 -16.819  1.00  0.00    -0.000 C 
BRANCH  11  12
ATOM     12  C   UNL     1      -0.838  -7.482 -16.097  1.00  0.00    -0.003 C 
ATOM     13  C   UNL     1      -1.199  -7.758 -14.638  1.00  0.00     0.004 C 
ENDBRANCH  11  12
ENDBRANCH  10  11
ENDBRANCH   9  10
ENDBRANCH   8   9
ENDBRANCH   1   8
TORSDOF 9
ENDMDL
MODEL 7
REMARK VINA RESULT:    -3.771      1.620      2.949
REMARK INTER + INTRA:          -6.846
REMARK INTER:                  -5.600
REMARK INTRA:                  -1.247
REMARK UNBOUND:                -1.091
REMARK SMILES CCCCCCCCCCC(=O)[O-]
REMARK SMILES IDX 7 1 8 2 9 3 10 4 11 5 12 6 13 7 6 8 5 9 4 10 3 11 2 12 1 13
REMARK H PARENT
REMARK Flexibility Score: inf
ROOT
ATOM      1  C   UNL     1      -4.419  -6.841 -17.152  1.00  0.00     0.000 C 
ENDROOT
BRANCH   1   2
ATOM      2  C   UNL     1      -5.224  -7.570 -16.070  1.00  0.00     0.000 C 
BRANCH   2   3
ATOM      3  C   UNL     1      -4.411  -8.717 -15.455  1.00  0.00     0.006 C 
BRANCH   3   4
ATOM      4  C   UNL     1      -5.218  -9.515 -14.423  1.00  0.00     0.053 C 
BRANCH   4   5
ATOM      5  C   UNL     1      -6.421 -10.162 -15.036  1.00  0.00     0.041 C 
ATOM      6  O   UNL     1      -7.578  -9.835 -14.660  1.00  0.00    -0.550 OA
ATOM      7  O   UNL     1      -6.265 -11.150 -16.000  1.00  0.00    -0.550 OA
ENDBRANCH   4   5
ENDBRANCH   3   4
ENDBRANCH   2   3
ENDBRANCH   1   2
BRANCH   1   8
ATOM      8  C   UNL     1      -2.923  -7.168 -17.039  1.00  0.00     0.000 C 
BRANCH   8   9
ATOM      9  C   UNL     1      -2.221  -7.235 -18.407  1.00  0.00    -0.000 C 
BRANCH   9  10
ATOM     10  C   UNL     1      -2.780  -8.296 -19.375  1.00  0.00    -0.000 C 
BRANCH  10  11
ATOM     11  C   UNL     1      -2.556  -9.759 -18.945  1.00  0.00    -0.000 C 
BRANCH  11  12
ATOM     12  C   UNL     1      -3.836 -10.525 -18.564  1.00  0.00    -0.003 C 
ATOM     13  C   UNL     1      -5.110  -9.822 -19.030  1.00  0.00     0.004 C 
ENDBRANCH  11  12
ENDBRANCH  10  11
ENDBRANCH   9  10
ENDBRANCH   8   9
ENDBRANCH   1   8
TORSDOF 9
ENDMDL
MODEL 8
REMARK VINA RESULT:    -3.767      1.771      3.835
REMARK INTER + INTRA:          -6.840
REMARK INTER:                  -5.555
REMARK INTRA:                  -1.285
REMARK UNBOUND:                -1.091
REMARK SMILES CCCCCCCCCCC(=O)[O-]
REMARK SMILES IDX 7 1 8 2 9 3 10 4 11 5 12 6 13 7 6 8 5 9 4 10 3 11 2 12 1 13
REMARK H PARENT
REMARK Flexibility Score: inf
ROOT
ATOM      1  C   UNL     1      -1.110  -7.602 -16.559  1.00  0.00     0.000 C 
ENDROOT
BRANCH   1   2
ATOM      2  C   UNL     1      -2.122  -6.657 -17.218  1.00  0.00     0.000 C 
BRANCH   2   3
ATOM      3  C   UNL     1      -2.619  -7.227 -18.555  1.00  0.00     0.006 C 
BRANCH   3   4
ATOM      4  C   UNL     1      -4.062  -7.740 -18.467  1.00  0.00     0.053 C 
BRANCH   4   5
ATOM      5  C   UNL     1      -4.129  -9.233 -18.568  1.00  0.00     0.041 C 
ATOM      6  O   UNL     1      -5.243  -9.819 -18.572  1.00  0.00    -0.550 OA
ATOM      7  O   UNL     1      -2.959  -9.980 -18.623  1.00  0.00    -0.550 OA
ENDBRANCH   4   5
ENDBRANCH   3   4
ENDBRANCH   2   3
ENDBRANCH   1   2
BRANCH   1   8
ATOM      8  C   UNL     1      -0.942  -7.276 -15.068  1.00  0.00     0.000 C 
BRANCH   8   9
ATOM      9  C   UNL     1      -1.583  -8.333 -14.150  1.00  0.00    -0.000 C 
BRANCH   9  10
ATOM     10  C   UNL     1      -2.114  -9.587 -14.871  1.00  0.00    -0.000 C 
BRANCH  10  11
ATOM     11  C   UNL     1      -3.649  -9.727 -14.900  1.00  0.00    -0.000 C 
BRANCH  11  12
ATOM     12  C   UNL     1      -4.421  -8.397 -14.839  1.00  0.00    -0.003 C 
ATOM     13  C   UNL     1      -5.900  -8.551 -15.191  1.00  0.00     0.004 C 
ENDBRANCH  11  12
ENDBRANCH  10  11
ENDBRANCH   9  10
ENDBRANCH   8   9
ENDBRANCH   1   8
TORSDOF 9
ENDMDL
MODEL 9
REMARK VINA RESULT:    -3.754      2.619      4.466
REMARK INTER + INTRA:          -6.821
REMARK INTER:                  -5.364
REMARK INTRA:                  -1.457
REMARK UNBOUND:                -1.091
REMARK SMILES CCCCCCCCCCC(=O)[O-]
REMARK SMILES IDX 7 1 8 2 9 3 10 4 11 5 12 6 13 7 6 8 5 9 4 10 3 11 2 12 1 13
REMARK H PARENT
REMARK Flexibility Score: inf
ROOT
ATOM      1  C   UNL     1      -4.376  -7.353 -18.556  1.00  0.00     0.000 C 
ENDROOT
BRANCH   1   2
ATOM      2  C   UNL     1      -4.606  -8.869 -18.586  1.00  0.00     0.000 C 
BRANCH   2   3
ATOM      3  C   UNL     1      -3.294  -9.621 -18.850  1.00  0.00     0.006 C 
BRANCH   3   4
ATOM      4  C   UNL     1      -2.683 -10.193 -17.564  1.00  0.00     0.053 C 
BRANCH   4   5
ATOM      5  C   UNL     1      -1.654  -9.274 -16.980  1.00  0.00     0.041 C 
ATOM      6  O   UNL     1      -1.011  -8.489 -17.725  1.00  0.00    -0.550 OA
ATOM      7  O   UNL     1      -1.383  -9.309 -15.618  1.00  0.00    -0.550 OA
ENDBRANCH   4   5
ENDBRANCH   3   4
ENDBRANCH   2   3
ENDBRANCH   1   2
BRANCH   1   8
ATOM      8  C   UNL     1      -4.351  -6.828 -17.114  1.00  0.00     0.000 C 
BRANCH   8   9
ATOM      9  C   UNL     1      -5.323  -7.580 -16.187  1.00  0.00    -0.000 C 
BRANCH   9  10
ATOM     10  C   UNL     1      -4.682  -8.182 -14.922  1.00  0.00    -0.000 C 
BRANCH  10  11
ATOM     11  C   UNL     1      -4.976  -9.677 -14.685  1.00  0.00    -0.000 C 
BRANCH  11  12
ATOM     12  C   UNL     1      -6.227 -10.212 -15.405  1.00  0.00    -0.003 C 
ATOM     13  C   UNL     1      -5.942 -11.455 -16.246  1.00  0.00     0.004 C 
ENDBRANCH  11  12
ENDBRANCH  10  11
ENDBRANCH   9  10
ENDBRANCH   8   9
ENDBRANCH   1   8
TORSDOF 9
ENDMDL
