MODEL 1
REMARK VINA RESULT:    -4.565      0.000      0.000
REMARK INTER + INTRA:         -10.952
REMARK INTER:                  -8.834
REMARK INTRA:                  -2.118
REMARK UNBOUND:                -2.118
REMARK SMILES CCCCCCCCCCCCCCCCCC(=O)[O-]
REMARK SMILES IDX 10 1 11 2 12 3 13 4 14 5 15 6 16 7 17 8 18 9 19 10 20 11
REMARK SMILES IDX 9 12 8 13 7 14 6 15 5 16 4 17 3 18 2 19 1 20
REMARK H PARENT
REMARK Flexibility Score: inf
ROOT
ATOM      1  C   UNL     1     -29.985 -12.480  16.244  1.00  0.00     0.000 C 
ENDROOT
BRANCH   1   2
ATOM      2  C   UNL     1     -29.903 -14.014  16.197  1.00  0.00     0.000 C 
BRANCH   2   3
ATOM      3  C   UNL     1     -30.674 -14.640  17.364  1.00  0.00     0.000 C 
BRANCH   3   4
ATOM      4  C   UNL     1     -32.032 -15.184  16.900  1.00  0.00     0.000 C 
BRANCH   4   5
ATOM      5  C   UNL     1     -32.008 -15.671  15.442  1.00  0.00     0.000 C 
BRANCH   5   6
ATOM      6  C   UNL     1     -31.574 -17.141  15.318  1.00  0.00     0.000 C 
BRANCH   6   7
ATOM      7  C   UNL     1     -31.005 -17.476  13.927  1.00  0.00     0.006 C 
BRANCH   7   8
ATOM      8  C   UNL     1     -29.700 -16.737  13.585  1.00  0.00     0.053 C 
BRANCH   8   9
ATOM      9  C   UNL     1     -28.776 -17.583  12.766  1.00  0.00     0.041 C 
ATOM     10  O   UNL     1     -28.493 -18.754  13.134  1.00  0.00    -0.550 OA
ATOM     11  O   UNL     1     -28.254 -17.092  11.577  1.00  0.00    -0.550 OA
ENDBRANCH   8   9
ENDBRANCH   7   8
ENDBRANCH   6   7
ENDBRANCH   5   6
ENDBRANCH   4   5
ENDBRANCH   3   4
ENDBRANCH   2   3
ENDBRANCH   1   2
BRANCH   1  12
ATOM     12  C   UNL     1     -29.609 -11.909  17.621  1.00  0.00     0.000 C 
BRANCH  12  13
ATOM     13  C   UNL     1     -28.479 -10.871  17.544  1.00  0.00    -0.000 C 
BRANCH  13  14
ATOM     14  C   UNL     1     -27.341 -11.365  16.639  1.00  0.00    -0.000 C 
BRANCH  14  15
ATOM     15  C   UNL     1     -26.031 -11.629  17.405  1.00  0.00    -0.000 C 
BRANCH  15  16
ATOM     16  C   UNL     1     -25.522 -13.082  17.354  1.00  0.00    -0.000 C 
BRANCH  16  17
ATOM     17  C   UNL     1     -26.569 -14.102  17.831  1.00  0.00    -0.000 C 
BRANCH  17  18
ATOM     18  C   UNL     1     -26.203 -15.552  17.464  1.00  0.00    -0.000 C 
BRANCH  18  19
ATOM     19  C   UNL     1     -27.392 -16.442  17.057  1.00  0.00    -0.003 C 
ATOM     20  C   UNL     1     -26.969 -17.690  16.282  1.00  0.00     0.004 C 
ENDBRANCH  18  19
ENDBRANCH  17  18
ENDBRANCH  16  17
ENDBRANCH  15  16
ENDBRANCH  14  15
ENDBRANCH  13  14
ENDBRANCH  12  13
ENDBRANCH   1  12
TORSDOF 16
ENDMDL
MODEL 2
REMARK VINA RESULT:    -4.551      2.639      5.736
REMARK INTER + INTRA:         -10.926
REMARK INTER:                  -9.206
REMARK INTRA:                  -1.720
REMARK UNBOUND:                -2.118
REMARK SMILES CCCCCCCCCCCCCCCCCC(=O)[O-]
REMARK SMILES IDX 10 1 11 2 12 3 13 4 14 5 15 6 16 7 17 8 18 9 19 10 20 11
REMARK SMILES IDX 9 12 8 13 7 14 6 15 5 16 4 17 3 18 2 19 1 20
REMARK H PARENT
REMARK Flexibility Score: inf
ROOT
ATOM      1  C   UNL     1     -25.503 -13.516  17.788  1.00  0.00     0.000 C 
ENDROOT
BRANCH   1   2
ATOM      2  C   UNL     1     -25.584 -12.033  17.394  1.00  0.00     0.000 C 
BRANCH   2   3
ATOM      3  C   UNL     1     -26.905 -11.726  16.680  1.00  0.00     0.000 C 
BRANCH   3   4
ATOM      4  C   UNL     1     -27.680 -10.618  17.406  1.00  0.00     0.000 C 
BRANCH   4   5
ATOM      5  C   UNL     1     -29.164 -10.966  17.606  1.00  0.00     0.000 C 
BRANCH   5   6
ATOM      6  C   UNL     1     -29.638 -12.090  16.668  1.00  0.00     0.000 C 
BRANCH   6   7
ATOM      7  C   UNL     1     -30.610 -13.066  17.356  1.00  0.00     0.006 C 
BRANCH   7   8
ATOM      8  C   UNL     1     -31.514 -13.843  16.386  1.00  0.00     0.053 C 
BRANCH   8   9
ATOM      9  C   UNL     1     -32.743 -14.367  17.063  1.00  0.00     0.041 C 
ATOM     10  O   UNL     1     -33.611 -13.570  17.508  1.00  0.00    -0.550 OA
ATOM     11  O   UNL     1     -32.947 -15.737  17.171  1.00  0.00    -0.550 OA
ENDBRANCH   8   9
ENDBRANCH   7   8
ENDBRANCH   6   7
ENDBRANCH   5   6
ENDBRANCH   4   5
ENDBRANCH   3   4
ENDBRANCH   2   3
ENDBRANCH   1   2
BRANCH   1  12
ATOM     12  C   UNL     1     -26.888 -14.152  17.988  1.00  0.00     0.000 C 
BRANCH  12  13
ATOM     13  C   UNL     1     -26.988 -15.558  17.379  1.00  0.00    -0.000 C 
BRANCH  13  14
ATOM     14  C   UNL     1     -28.443 -15.903  17.030  1.00  0.00    -0.000 C 
BRANCH  14  15
ATOM     15  C   UNL     1     -28.563 -16.942  15.899  1.00  0.00    -0.000 C 
BRANCH  15  16
ATOM     16  C   UNL     1     -29.834 -16.829  15.036  1.00  0.00    -0.000 C 
BRANCH  16  17
ATOM     17  C   UNL     1     -29.578 -17.127  13.549  1.00  0.00    -0.000 C 
BRANCH  17  18
ATOM     18  C   UNL     1     -28.493 -18.197  13.331  1.00  0.00    -0.000 C 
BRANCH  18  19
ATOM     19  C   UNL     1     -27.722 -18.085  12.003  1.00  0.00    -0.003 C 
ATOM     20  C   UNL     1     -28.448 -17.236  10.959  1.00  0.00     0.004 C 
ENDBRANCH  18  19
ENDBRANCH  17  18
ENDBRANCH  16  17
ENDBRANCH  15  16
ENDBRANCH  14  15
ENDBRANCH  13  14
ENDBRANCH  12  13
ENDBRANCH   1  12
TORSDOF 16
ENDMDL
MODEL 3
REMARK VINA RESULT:    -4.461      1.377      3.474
REMARK INTER + INTRA:         -10.752
REMARK INTER:                  -8.848
REMARK INTRA:                  -1.903
REMARK UNBOUND:                -2.118
REMARK SMILES CCCCCCCCCCCCCCCCCC(=O)[O-]
REMARK SMILES IDX 10 1 11 2 12 3 13 4 14 5 15 6 16 7 17 8 18 9 19 10 20 11
REMARK SMILES IDX 9 12 8 13 7 14 6 15 5 16 4 17 3 18 2 19 1 20
REMARK H PARENT
REMARK Flexibility Score: inf
ROOT
ATOM      1  C   UNL     1     -26.357 -15.025  17.429  1.00  0.00     0.000 C 
ENDROOT
BRANCH   1   2
ATOM      2  C   UNL     1     -27.622 -15.796  17.838  1.00  0.00     0.000 C 
BRANCH   2   3
ATOM      3  C   UNL     1     -28.472 -16.146  16.611  1.00  0.00     0.000 C 
BRANCH   3   4
ATOM      4  C   UNL     1     -29.266 -17.440  16.841  1.00  0.00     0.000 C 
BRANCH   4   5
ATOM      5  C   UNL     1     -29.374 -18.302  15.573  1.00  0.00     0.000 C 
BRANCH   5   6
ATOM      6  C   UNL     1     -29.444 -17.457  14.289  1.00  0.00     0.000 C 
BRANCH   6   7
ATOM      7  C   UNL     1     -28.650 -18.078  13.126  1.00  0.00     0.006 C 
BRANCH   7   8
ATOM      8  C   UNL     1     -28.580 -17.197  11.869  1.00  0.00     0.053 C 
BRANCH   8   9
ATOM      9  C   UNL     1     -27.941 -17.911  10.718  1.00  0.00     0.041 C 
ATOM     10  O   UNL     1     -27.123 -18.845  10.927  1.00  0.00    -0.550 OA
ATOM     11  O   UNL     1     -28.277 -17.569   9.415  1.00  0.00    -0.550 OA
ENDBRANCH   8   9
ENDBRANCH   7   8
ENDBRANCH   6   7
ENDBRANCH   5   6
ENDBRANCH   4   5
ENDBRANCH   3   4
ENDBRANCH   2   3
ENDBRANCH   1   2
BRANCH   1  12
ATOM     12  C   UNL     1     -26.279 -13.632  18.073  1.00  0.00     0.000 C 
BRANCH  12  13
ATOM     13  C   UNL     1     -25.640 -12.586  17.147  1.00  0.00    -0.000 C 
BRANCH  13  14
ATOM     14  C   UNL     1     -26.610 -11.427  16.876  1.00  0.00    -0.000 C 
BRANCH  14  15
ATOM     15  C   UNL     1     -27.850 -11.452  17.790  1.00  0.00    -0.000 C 
BRANCH  15  16
ATOM     16  C   UNL     1     -29.205 -11.398  17.059  1.00  0.00    -0.000 C 
BRANCH  16  17
ATOM     17  C   UNL     1     -29.762 -12.792  16.724  1.00  0.00    -0.000 C 
BRANCH  17  18
ATOM     18  C   UNL     1     -30.820 -13.273  17.734  1.00  0.00    -0.000 C 
BRANCH  18  19
ATOM     19  C   UNL     1     -31.655 -14.484  17.278  1.00  0.00    -0.003 C 
ATOM     20  C   UNL     1     -31.838 -14.548  15.762  1.00  0.00     0.004 C 
ENDBRANCH  18  19
ENDBRANCH  17  18
ENDBRANCH  16  17
ENDBRANCH  15  16
ENDBRANCH  14  15
ENDBRANCH  13  14
ENDBRANCH  12  13
ENDBRANCH   1  12
TORSDOF 16
ENDMDL
MODEL 4
REMARK VINA RESULT:    -4.359      1.541      2.668
REMARK INTER + INTRA:         -10.555
REMARK INTER:                  -9.096
REMARK INTRA:                  -1.459
REMARK UNBOUND:                -2.118
REMARK SMILES CCCCCCCCCCCCCCCCCC(=O)[O-]
REMARK SMILES IDX 10 1 11 2 12 3 13 4 14 5 15 6 16 7 17 8 18 9 19 10 20 11
REMARK SMILES IDX 9 12 8 13 7 14 6 15 5 16 4 17 3 18 2 19 1 20
REMARK H PARENT
REMARK Flexibility Score: inf
ROOT
ATOM      1  C   UNL     1     -30.901 -14.073  16.209  1.00  0.00     0.000 C 
ENDROOT
BRANCH   1   2
ATOM      2  C   UNL     1     -30.777 -15.102  15.075  1.00  0.00     0.000 C 
BRANCH   2   3
ATOM      3  C   UNL     1     -31.446 -16.426  15.460  1.00  0.00     0.000 C 
BRANCH   3   4
ATOM      4  C   UNL     1     -31.340 -17.450  14.320  1.00  0.00     0.000 C 
BRANCH   4   5
ATOM      5  C   UNL     1     -30.016 -18.229  14.345  1.00  0.00     0.000 C 
BRANCH   5   6
ATOM      6  C   UNL     1     -28.993 -17.687  13.332  1.00  0.00     0.000 C 
BRANCH   6   7
ATOM      7  C   UNL     1     -28.020 -18.772  12.834  1.00  0.00     0.006 C 
BRANCH   7   8
ATOM      8  C   UNL     1     -27.372 -18.461  11.475  1.00  0.00     0.053 C 
BRANCH   8   9
ATOM      9  C   UNL     1     -27.221 -19.690  10.632  1.00  0.00     0.041 C 
ATOM     10  O   UNL     1     -27.138 -19.594   9.379  1.00  0.00    -0.550 OA
ATOM     11  O   UNL     1     -27.135 -20.939  11.233  1.00  0.00    -0.550 OA
ENDBRANCH   8   9
ENDBRANCH   7   8
ENDBRANCH   6   7
ENDBRANCH   5   6
ENDBRANCH   4   5
ENDBRANCH   3   4
ENDBRANCH   2   3
ENDBRANCH   1   2
BRANCH   1  12
ATOM     12  C   UNL     1     -29.724 -13.085  16.243  1.00  0.00     0.000 C 
BRANCH  12  13
ATOM     13  C   UNL     1     -29.802 -12.110  17.427  1.00  0.00    -0.000 C 
BRANCH  13  14
ATOM     14  C   UNL     1     -28.562 -11.206  17.477  1.00  0.00    -0.000 C 
BRANCH  14  15
ATOM     15  C   UNL     1     -27.390 -11.742  16.634  1.00  0.00    -0.000 C 
BRANCH  15  16
ATOM     16  C   UNL     1     -26.004 -11.643  17.299  1.00  0.00    -0.000 C 
BRANCH  16  17
ATOM     17  C   UNL     1     -25.434 -13.013  17.706  1.00  0.00    -0.000 C 
BRANCH  17  18
ATOM     18  C   UNL     1     -26.529 -14.037  18.055  1.00  0.00    -0.000 C 
BRANCH  18  19
ATOM     19  C   UNL     1     -26.340 -15.433  17.432  1.00  0.00    -0.003 C 
ATOM     20  C   UNL     1     -27.659 -16.097  17.039  1.00  0.00     0.004 C 
ENDBRANCH  18  19
ENDBRANCH  17  18
ENDBRANCH  16  17
ENDBRANCH  15  16
ENDBRANCH  14  15
ENDBRANCH  13  14
ENDBRANCH  12  13
ENDBRANCH   1  12
TORSDOF 16
ENDMDL
MODEL 5
REMARK VINA RESULT:    -4.285      2.524      5.114
REMARK INTER + INTRA:         -10.411
REMARK INTER:                  -8.006
REMARK INTRA:                  -2.405
REMARK UNBOUND:                -2.118
REMARK SMILES CCCCCCCCCCCCCCCCCC(=O)[O-]
REMARK SMILES IDX 10 1 11 2 12 3 13 4 14 5 15 6 16 7 17 8 18 9 19 10 20 11
REMARK SMILES IDX 9 12 8 13 7 14 6 15 5 16 4 17 3 18 2 19 1 20
REMARK H PARENT
REMARK Flexibility Score: inf
ROOT
ATOM      1  C   UNL     1     -26.004 -13.178  17.428  1.00  0.00     0.000 C 
ENDROOT
BRANCH   1   2
ATOM      2  C   UNL     1     -27.262 -12.608  18.102  1.00  0.00     0.000 C 
BRANCH   2   3
ATOM      3  C   UNL     1     -27.861 -11.468  17.271  1.00  0.00     0.000 C 
BRANCH   3   4
ATOM      4  C   UNL     1     -29.373 -11.659  17.083  1.00  0.00     0.000 C 
BRANCH   4   5
ATOM      5  C   UNL     1     -29.741 -13.086  16.648  1.00  0.00     0.000 C 
BRANCH   5   6
ATOM      6  C   UNL     1     -30.694 -13.779  17.637  1.00  0.00     0.000 C 
BRANCH   6   7
ATOM      7  C   UNL     1     -32.172 -13.647  17.227  1.00  0.00     0.006 C 
BRANCH   7   8
ATOM      8  C   UNL     1     -32.455 -14.011  15.760  1.00  0.00     0.053 C 
BRANCH   8   9
ATOM      9  C   UNL     1     -33.579 -14.992  15.633  1.00  0.00     0.041 C 
ATOM     10  O   UNL     1     -33.337 -16.218  15.482  1.00  0.00    -0.550 OA
ATOM     11  O   UNL     1     -34.895 -14.556  15.718  1.00  0.00    -0.550 OA
ENDBRANCH   8   9
ENDBRANCH   7   8
ENDBRANCH   6   7
ENDBRANCH   5   6
ENDBRANCH   4   5
ENDBRANCH   3   4
ENDBRANCH   2   3
ENDBRANCH   1   2
BRANCH   1  12
ATOM     12  C   UNL     1     -25.879 -14.701  17.598  1.00  0.00     0.000 C 
BRANCH  12  13
ATOM     13  C   UNL     1     -27.194 -15.357  18.046  1.00  0.00    -0.000 C 
BRANCH  13  14
ATOM     14  C   UNL     1     -27.700 -16.348  16.988  1.00  0.00    -0.000 C 
BRANCH  14  15
ATOM     15  C   UNL     1     -28.984 -17.084  17.415  1.00  0.00    -0.000 C 
BRANCH  15  16
ATOM     16  C   UNL     1     -30.070 -17.195  16.328  1.00  0.00    -0.000 C 
BRANCH  16  17
ATOM     17  C   UNL     1     -29.723 -16.408  15.052  1.00  0.00    -0.000 C 
BRANCH  17  18
ATOM     18  C   UNL     1     -30.295 -17.055  13.777  1.00  0.00    -0.000 C 
BRANCH  18  19
ATOM     19  C   UNL     1     -29.253 -17.391  12.693  1.00  0.00    -0.003 C 
ATOM     20  C   UNL     1     -28.204 -18.398  13.163  1.00  0.00     0.004 C 
ENDBRANCH  18  19
ENDBRANCH  17  18
ENDBRANCH  16  17
ENDBRANCH  15  16
ENDBRANCH  14  15
ENDBRANCH  13  14
ENDBRANCH  12  13
ENDBRANCH   1  12
TORSDOF 16
ENDMDL
MODEL 6
REMARK VINA RESULT:    -4.230      1.052      3.318
REMARK INTER + INTRA:         -10.305
REMARK INTER:                  -8.202
REMARK INTRA:                  -2.103
REMARK UNBOUND:                -2.118
REMARK SMILES CCCCCCCCCCCCCCCCCC(=O)[O-]
REMARK SMILES IDX 10 1 11 2 12 3 13 4 14 5 15 6 16 7 17 8 18 9 19 10 20 11
REMARK SMILES IDX 9 12 8 13 7 14 6 15 5 16 4 17 3 18 2 19 1 20
REMARK H PARENT
REMARK Flexibility Score: inf
ROOT
ATOM      1  C   UNL     1     -27.881 -15.884  17.207  1.00  0.00     0.000 C 
ENDROOT
BRANCH   1   2
ATOM      2  C   UNL     1     -28.805 -17.092  17.421  1.00  0.00     0.000 C 
BRANCH   2   3
ATOM      3  C   UNL     1     -30.212 -16.642  17.828  1.00  0.00     0.000 C 
BRANCH   3   4
ATOM      4  C   UNL     1     -31.261 -17.134  16.820  1.00  0.00     0.000 C 
BRANCH   4   5
ATOM      5  C   UNL     1     -31.876 -15.990  15.998  1.00  0.00     0.000 C 
BRANCH   5   6
ATOM      6  C   UNL     1     -31.241 -15.859  14.603  1.00  0.00     0.000 C 
BRANCH   6   7
ATOM      7  C   UNL     1     -30.700 -17.197  14.069  1.00  0.00     0.006 C 
BRANCH   7   8
ATOM      8  C   UNL     1     -29.204 -17.176  13.716  1.00  0.00     0.053 C 
BRANCH   8   9
ATOM      9  C   UNL     1     -28.635 -18.557  13.604  1.00  0.00     0.041 C 
ATOM     10  O   UNL     1     -28.126 -18.947  12.520  1.00  0.00    -0.550 OA
ATOM     11  O   UNL     1     -28.634 -19.401  14.707  1.00  0.00    -0.550 OA
ENDBRANCH   8   9
ENDBRANCH   7   8
ENDBRANCH   6   7
ENDBRANCH   5   6
ENDBRANCH   4   5
ENDBRANCH   3   4
ENDBRANCH   2   3
ENDBRANCH   1   2
BRANCH   1  12
ATOM     12  C   UNL     1     -26.399 -16.225  17.431  1.00  0.00     0.000 C 
BRANCH  12  13
ATOM     13  C   UNL     1     -25.628 -15.091  18.124  1.00  0.00    -0.000 C 
BRANCH  13  14
ATOM     14  C   UNL     1     -26.354 -13.749  17.953  1.00  0.00    -0.000 C 
BRANCH  14  15
ATOM     15  C   UNL     1     -25.402 -12.586  17.616  1.00  0.00    -0.000 C 
BRANCH  15  16
ATOM     16  C   UNL     1     -26.090 -11.245  17.301  1.00  0.00    -0.000 C 
BRANCH  16  17
ATOM     17  C   UNL     1     -27.472 -11.419  16.648  1.00  0.00    -0.000 C 
BRANCH  17  18
ATOM     18  C   UNL     1     -28.631 -11.036  17.587  1.00  0.00    -0.000 C 
BRANCH  18  19
ATOM     19  C   UNL     1     -29.806 -12.031  17.613  1.00  0.00    -0.003 C 
ATOM     20  C   UNL     1     -29.883 -12.900  16.358  1.00  0.00     0.004 C 
ENDBRANCH  18  19
ENDBRANCH  17  18
ENDBRANCH  16  17
ENDBRANCH  15  16
ENDBRANCH  14  15
ENDBRANCH  13  14
ENDBRANCH  12  13
ENDBRANCH   1  12
TORSDOF 16
ENDMDL
MODEL 7
REMARK VINA RESULT:    -4.187      1.920      5.536
REMARK INTER + INTRA:         -10.222
REMARK INTER:                  -8.591
REMARK INTRA:                  -1.631
REMARK UNBOUND:                -2.118
REMARK SMILES CCCCCCCCCCCCCCCCCC(=O)[O-]
REMARK SMILES IDX 10 1 11 2 12 3 13 4 14 5 15 6 16 7 17 8 18 9 19 10 20 11
REMARK SMILES IDX 9 12 8 13 7 14 6 15 5 16 4 17 3 18 2 19 1 20
REMARK H PARENT
REMARK Flexibility Score: inf
ROOT
ATOM      1  C   UNL     1     -26.556 -14.365  18.111  1.00  0.00     0.000 C 
ENDROOT
BRANCH   1   2
ATOM      2  C   UNL     1     -25.541 -13.237  17.870  1.00  0.00     0.000 C 
BRANCH   2   3
ATOM      3  C   UNL     1     -26.192 -12.062  17.130  1.00  0.00     0.000 C 
BRANCH   3   4
ATOM      4  C   UNL     1     -27.543 -11.693  17.760  1.00  0.00     0.000 C 
BRANCH   4   5
ATOM      5  C   UNL     1     -28.713 -11.828  16.774  1.00  0.00     0.000 C 
BRANCH   5   6
ATOM      6  C   UNL     1     -29.967 -12.437  17.425  1.00  0.00     0.000 C 
BRANCH   6   7
ATOM      7  C   UNL     1     -30.194 -13.905  17.018  1.00  0.00     0.006 C 
BRANCH   7   8
ATOM      8  C   UNL     1     -31.587 -14.189  16.433  1.00  0.00     0.053 C 
BRANCH   8   9
ATOM      9  C   UNL     1     -31.550 -15.270  15.399  1.00  0.00     0.041 C 
ATOM     10  O   UNL     1     -30.734 -15.205  14.441  1.00  0.00    -0.550 OA
ATOM     11  O   UNL     1     -32.393 -16.369  15.510  1.00  0.00    -0.550 OA
ENDBRANCH   8   9
ENDBRANCH   7   8
ENDBRANCH   6   7
ENDBRANCH   5   6
ENDBRANCH   4   5
ENDBRANCH   3   4
ENDBRANCH   2   3
ENDBRANCH   1   2
BRANCH   1  12
ATOM     12  C   UNL     1     -26.204 -15.651  17.347  1.00  0.00     0.000 C 
BRANCH  12  13
ATOM     13  C   UNL     1     -27.255 -16.756  17.529  1.00  0.00    -0.000 C 
BRANCH  13  14
ATOM     14  C   UNL     1     -28.210 -16.808  16.328  1.00  0.00    -0.000 C 
BRANCH  14  15
ATOM     15  C   UNL     1     -29.101 -18.065  16.319  1.00  0.00    -0.000 C 
BRANCH  15  16
ATOM     16  C   UNL     1     -29.550 -18.541  14.925  1.00  0.00    -0.000 C 
BRANCH  16  17
ATOM     17  C   UNL     1     -28.399 -18.582  13.905  1.00  0.00    -0.000 C 
BRANCH  17  18
ATOM     18  C   UNL     1     -28.605 -17.609  12.730  1.00  0.00    -0.000 C 
BRANCH  18  19
ATOM     19  C   UNL     1     -27.896 -18.007  11.422  1.00  0.00    -0.003 C 
ATOM     20  C   UNL     1     -28.525 -17.369  10.183  1.00  0.00     0.004 C 
ENDBRANCH  18  19
ENDBRANCH  17  18
ENDBRANCH  16  17
ENDBRANCH  15  16
ENDBRANCH  14  15
ENDBRANCH  13  14
ENDBRANCH  12  13
ENDBRANCH   1  12
TORSDOF 16
ENDMDL
MODEL 8
REMARK VINA RESULT:    -4.119      2.462      4.251
REMARK INTER + INTRA:         -10.089
REMARK INTER:                  -7.816
REMARK INTRA:                  -2.273
REMARK UNBOUND:                -2.118
REMARK SMILES CCCCCCCCCCCCCCCCCC(=O)[O-]
REMARK SMILES IDX 10 1 11 2 12 3 13 4 14 5 15 6 16 7 17 8 18 9 19 10 20 11
REMARK SMILES IDX 9 12 8 13 7 14 6 15 5 16 4 17 3 18 2 19 1 20
REMARK H PARENT
REMARK Flexibility Score: inf
ROOT
ATOM      1  C   UNL     1     -26.228 -14.949  17.372  1.00  0.00     0.000 C 
ENDROOT
BRANCH   1   2
ATOM      2  C   UNL     1     -27.548 -15.596  17.820  1.00  0.00     0.000 C 
BRANCH   2   3
ATOM      3  C   UNL     1     -27.440 -17.125  17.813  1.00  0.00     0.000 C 
BRANCH   3   4
ATOM      4  C   UNL     1     -27.609 -17.683  16.393  1.00  0.00     0.000 C 
BRANCH   4   5
ATOM      5  C   UNL     1     -28.782 -17.037  15.638  1.00  0.00     0.000 C 
BRANCH   5   6
ATOM      6  C   UNL     1     -29.851 -18.061  15.220  1.00  0.00     0.000 C 
BRANCH   6   7
ATOM      7  C   UNL     1     -31.213 -17.803  15.890  1.00  0.00     0.006 C 
BRANCH   7   8
ATOM      8  C   UNL     1     -32.292 -17.262  14.938  1.00  0.00     0.053 C 
BRANCH   8   9
ATOM      9  C   UNL     1     -33.499 -16.773  15.677  1.00  0.00     0.041 C 
ATOM     10  O   UNL     1     -33.709 -17.143  16.863  1.00  0.00    -0.550 OA
ATOM     11  O   UNL     1     -34.373 -15.882  15.070  1.00  0.00    -0.550 OA
ENDBRANCH   8   9
ENDBRANCH   7   8
ENDBRANCH   6   7
ENDBRANCH   5   6
ENDBRANCH   4   5
ENDBRANCH   3   4
ENDBRANCH   2   3
ENDBRANCH   1   2
BRANCH   1  12
ATOM     12  C   UNL     1     -25.972 -13.594  18.050  1.00  0.00     0.000 C 
BRANCH  12  13
ATOM     13  C   UNL     1     -25.292 -12.582  17.116  1.00  0.00    -0.000 C 
BRANCH  13  14
ATOM     14  C   UNL     1     -26.186 -11.354  16.894  1.00  0.00    -0.000 C 
BRANCH  14  15
ATOM     15  C   UNL     1     -27.365 -11.278  17.882  1.00  0.00    -0.000 C 
BRANCH  15  16
ATOM     16  C   UNL     1     -28.724 -10.911  17.256  1.00  0.00    -0.000 C 
BRANCH  16  17
ATOM     17  C   UNL     1     -29.787 -12.006  17.446  1.00  0.00    -0.000 C 
BRANCH  17  18
ATOM     18  C   UNL     1     -29.778 -13.051  16.316  1.00  0.00    -0.000 C 
BRANCH  18  19
ATOM     19  C   UNL     1     -30.934 -14.068  16.357  1.00  0.00    -0.003 C 
ATOM     20  C   UNL     1     -31.177 -14.642  17.753  1.00  0.00     0.004 C 
ENDBRANCH  18  19
ENDBRANCH  17  18
ENDBRANCH  16  17
ENDBRANCH  15  16
ENDBRANCH  14  15
ENDBRANCH  13  14
ENDBRANCH  12  13
ENDBRANCH   1  12
TORSDOF 16
ENDMDL
MODEL 9
REMARK VINA RESULT:    -4.110      1.640      4.321
REMARK INTER + INTRA:         -10.072
REMARK INTER:                  -8.134
REMARK INTRA:                  -1.939
REMARK UNBOUND:                -2.118
REMARK SMILES CCCCCCCCCCCCCCCCCC(=O)[O-]
REMARK SMILES IDX 10 1 11 2 12 3 13 4 14 5 15 6 16 7 17 8 18 9 19 10 20 11
REMARK SMILES IDX 9 12 8 13 7 14 6 15 5 16 4 17 3 18 2 19 1 20
REMARK H PARENT
REMARK Flexibility Score: inf
ROOT
ATOM      1  C   UNL     1     -30.799 -16.996  13.972  1.00  0.00     0.000 C 
ENDROOT
BRANCH   1   2
ATOM      2  C   UNL     1     -30.942 -17.922  15.189  1.00  0.00     0.000 C 
BRANCH   2   3
ATOM      3  C   UNL     1     -30.020 -19.140  15.062  1.00  0.00     0.000 C 
BRANCH   3   4
ATOM      4  C   UNL     1     -28.692 -18.905  15.796  1.00  0.00     0.000 C 
BRANCH   4   5
ATOM      5  C   UNL     1     -27.667 -18.146  14.937  1.00  0.00     0.000 C 
BRANCH   5   6
ATOM      6  C   UNL     1     -26.626 -19.080  14.297  1.00  0.00     0.000 C 
BRANCH   6   7
ATOM      7  C   UNL     1     -26.672 -19.053  12.758  1.00  0.00     0.006 C 
BRANCH   7   8
ATOM      8  C   UNL     1     -27.738 -18.111  12.175  1.00  0.00     0.053 C 
BRANCH   8   9
ATOM      9  C   UNL     1     -27.744 -18.130  10.678  1.00  0.00     0.041 C 
ATOM     10  O   UNL     1     -27.088 -19.003  10.052  1.00  0.00    -0.550 OA
ATOM     11  O   UNL     1     -28.504 -17.204   9.974  1.00  0.00    -0.550 OA
ENDBRANCH   8   9
ENDBRANCH   7   8
ENDBRANCH   6   7
ENDBRANCH   5   6
ENDBRANCH   4   5
ENDBRANCH   3   4
ENDBRANCH   2   3
ENDBRANCH   1   2
BRANCH   1  12
ATOM     12  C   UNL     1     -30.352 -15.577  14.357  1.00  0.00     0.000 C 
BRANCH  12  13
ATOM     13  C   UNL     1     -30.975 -15.096  15.676  1.00  0.00    -0.000 C 
BRANCH  13  14
ATOM     14  C   UNL     1     -29.907 -14.492  16.599  1.00  0.00    -0.000 C 
BRANCH  14  15
ATOM     15  C   UNL     1     -29.099 -15.557  17.365  1.00  0.00    -0.000 C 
BRANCH  15  16
ATOM     16  C   UNL     1     -27.585 -15.288  17.462  1.00  0.00    -0.000 C 
BRANCH  16  17
ATOM     17  C   UNL     1     -27.259 -13.856  17.921  1.00  0.00    -0.000 C 
BRANCH  17  18
ATOM     18  C   UNL     1     -25.829 -13.421  17.553  1.00  0.00    -0.000 C 
BRANCH  18  19
ATOM     19  C   UNL     1     -25.673 -11.934  17.184  1.00  0.00    -0.003 C 
ATOM     20  C   UNL     1     -27.005 -11.253  16.867  1.00  0.00     0.004 C 
ENDBRANCH  18  19
ENDBRANCH  17  18
ENDBRANCH  16  17
ENDBRANCH  15  16
ENDBRANCH  14  15
ENDBRANCH  13  14
ENDBRANCH  12  13
ENDBRANCH   1  12
TORSDOF 16
ENDMDL
