MODEL 1
REMARK VINA RESULT:    47.873      0.000      0.000
REMARK INTER + INTRA:          69.900
REMARK INTER:                  68.862
REMARK INTRA:                   1.038
REMARK UNBOUND:                 1.038
REMARK SMILES O=c1c(O[C@H]2O[C@H](CO)[C@H](O)[C@@H](O)[C@@H]2O)c(-c2ccc(O)cc2)oc2cc(O)cc(O)c12
REMARK SMILES IDX 4 1 3 2 16 3 24 4 2 5 25 6 1 7 32 8 26 9 30 10 27 11 29 12
REMARK SMILES IDX 17 13 18 14 19 15 20 16 23 17 22 18 21 19 31 21 28 23 5 25
REMARK SMILES IDX 14 26 6 27 12 28 7 29 10 30 15 31 13 33 8 35 9 36 11 38
REMARK H PARENT 21 20 31 22 28 24 15 32 13 34 9 37 11 39
REMARK Flexibility Score: inf
ROOT
ATOM      1  O   UNL     1     -15.417  -3.544  10.681  1.00  0.00    -0.454 OA
ENDROOT
BRANCH   1   2
ATOM      2  C   UNL     1     -16.159  -2.441  10.238  1.00  0.00     0.214 A 
ATOM      3  C   UNL     1     -17.362  -2.070  10.877  1.00  0.00     0.180 A 
ATOM      4  O   UNL     1     -18.006  -0.982  10.467  1.00  0.00    -0.452 OA
ATOM      5  C   UNL     1     -15.740  -1.721   9.111  1.00  0.00     0.239 A 
ATOM      6  C   UNL     1     -17.589  -0.208   9.469  1.00  0.00     0.146 A 
ATOM      7  O   UNL     1     -14.774  -2.167   8.442  1.00  0.00    -0.285 OA
ATOM      8  C   UNL     1     -16.409  -0.532   8.744  1.00  0.00     0.111 A 
ATOM      9  C   UNL     1     -18.331   0.932   9.145  1.00  0.00     0.094 A 
ATOM     10  C   UNL     1     -15.995   0.342   7.694  1.00  0.00     0.134 A 
ATOM     11  C   UNL     1     -17.915   1.778   8.118  1.00  0.00     0.123 A 
ATOM     12  C   UNL     1     -16.764   1.470   7.393  1.00  0.00     0.093 A 
BRANCH   3  13
ATOM     13  C   UNL     1     -17.934  -2.833  12.018  1.00  0.00     0.021 A 
ATOM     14  C   UNL     1     -17.696  -2.390  13.332  1.00  0.00     0.016 A 
ATOM     15  C   UNL     1     -18.128  -3.142  14.429  1.00  0.00     0.047 A 
ATOM     16  C   UNL     1     -18.775  -4.362  14.231  1.00  0.00     0.115 A 
ATOM     17  C   UNL     1     -18.702  -3.998  11.831  1.00  0.00     0.016 A 
ATOM     18  C   UNL     1     -19.071  -4.782  12.929  1.00  0.00     0.047 A 
BRANCH  16  19
ATOM     19  O   UNL     1     -19.123  -5.150  15.326  1.00  0.00    -0.508 OA
ATOM     20  H   UNL     1     -18.482  -5.278  16.108  1.00  0.00     0.293 HD
ENDBRANCH  16  19
ENDBRANCH   3  13
BRANCH  10  21
ATOM     21  O   UNL     1     -14.838   0.163   6.935  1.00  0.00    -0.507 OA
ATOM     22  H   UNL     1     -14.529   0.765   6.189  1.00  0.00     0.293 HD
ENDBRANCH  10  21
BRANCH  11  23
ATOM     23  O   UNL     1     -18.635   2.934   7.841  1.00  0.00    -0.508 OA
ATOM     24  H   UNL     1     -19.327   3.285   8.489  1.00  0.00     0.293 HD
ENDBRANCH  11  23
ENDBRANCH   1   2
BRANCH   1  25
ATOM     25  C   UNL     1     -14.304  -3.518  11.588  1.00  0.00     0.339 C 
ATOM     26  C   UNL     1     -13.868  -4.939  12.077  1.00  0.00     0.214 C 
ATOM     27  O   UNL     1     -14.419  -2.513  12.591  1.00  0.00    -0.332 OA
ATOM     28  C   UNL     1     -14.385  -5.323  13.480  1.00  0.00     0.180 C 
ATOM     29  C   UNL     1     -15.093  -2.947  13.760  1.00  0.00     0.179 C 
ATOM     30  C   UNL     1     -14.359  -4.118  14.433  1.00  0.00     0.177 C 
BRANCH  26  31
ATOM     31  O   UNL     1     -12.468  -5.074  12.040  1.00  0.00    -0.384 OA
ATOM     32  H   UNL     1     -12.081  -4.206  11.767  1.00  0.00     0.211 HD
ENDBRANCH  26  31
BRANCH  28  33
ATOM     33  O   UNL     1     -15.696  -5.822  13.379  1.00  0.00    -0.387 OA
ATOM     34  H   UNL     1     -16.203  -5.487  14.164  1.00  0.00     0.211 HD
ENDBRANCH  28  33
BRANCH  29  35
ATOM     35  C   UNL     1     -15.254  -1.751  14.717  1.00  0.00     0.191 C 
BRANCH  35  36
ATOM     36  O   UNL     1     -14.038  -1.421  15.337  1.00  0.00    -0.394 OA
ATOM     37  H   UNL     1     -13.766  -0.536  14.977  1.00  0.00     0.210 HD
ENDBRANCH  35  36
ENDBRANCH  29  35
BRANCH  30  38
ATOM     38  O   UNL     1     -13.034  -3.756  14.735  1.00  0.00    -0.387 OA
ATOM     39  H   UNL     1     -13.000  -3.563  15.708  1.00  0.00     0.211 HD
ENDBRANCH  30  38
ENDBRANCH   1  25
TORSDOF 11
ENDMDL
MODEL 2
REMARK VINA RESULT:    47.995      3.321      6.528
REMARK INTER + INTRA:          70.077
REMARK INTER:                  69.989
REMARK INTRA:                   0.088
REMARK UNBOUND:                 1.038
REMARK SMILES O=c1c(O[C@H]2O[C@H](CO)[C@H](O)[C@@H](O)[C@@H]2O)c(-c2ccc(O)cc2)oc2cc(O)cc(O)c12
REMARK SMILES IDX 4 1 3 2 16 3 24 4 2 5 25 6 1 7 32 8 26 9 30 10 27 11 29 12
REMARK SMILES IDX 17 13 18 14 19 15 20 16 23 17 22 18 21 19 31 21 28 23 5 25
REMARK SMILES IDX 14 26 6 27 12 28 7 29 10 30 15 31 13 33 8 35 9 36 11 38
REMARK H PARENT 21 20 31 22 28 24 15 32 13 34 9 37 11 39
REMARK Flexibility Score: inf
ROOT
ATOM      1  O   UNL     1     -18.324   0.122   8.161  1.00  0.00    -0.454 OA
ENDROOT
BRANCH   1   2
ATOM      2  C   UNL     1     -18.382   1.241   7.319  1.00  0.00     0.214 A 
ATOM      3  C   UNL     1     -18.516   1.093   5.922  1.00  0.00     0.180 A 
ATOM      4  O   UNL     1     -18.629   2.178   5.162  1.00  0.00    -0.452 OA
ATOM      5  C   UNL     1     -18.251   2.528   7.855  1.00  0.00     0.239 A 
ATOM      6  C   UNL     1     -18.616   3.419   5.639  1.00  0.00     0.146 A 
ATOM      7  O   UNL     1     -17.949   2.642   9.070  1.00  0.00    -0.285 OA
ATOM      8  C   UNL     1     -18.443   3.660   7.030  1.00  0.00     0.111 A 
ATOM      9  C   UNL     1     -18.776   4.485   4.749  1.00  0.00     0.094 A 
ATOM     10  C   UNL     1     -18.455   5.010   7.493  1.00  0.00     0.134 A 
ATOM     11  C   UNL     1     -18.787   5.799   5.214  1.00  0.00     0.123 A 
ATOM     12  C   UNL     1     -18.612   6.052   6.574  1.00  0.00     0.093 A 
BRANCH   3  13
ATOM     13  C   UNL     1     -18.565  -0.236   5.255  1.00  0.00     0.021 A 
ATOM     14  C   UNL     1     -18.383  -0.315   3.863  1.00  0.00     0.016 A 
ATOM     15  C   UNL     1     -18.528  -1.533   3.191  1.00  0.00     0.047 A 
ATOM     16  C   UNL     1     -18.889  -2.682   3.894  1.00  0.00     0.115 A 
ATOM     17  C   UNL     1     -18.799  -1.426   5.970  1.00  0.00     0.016 A 
ATOM     18  C   UNL     1     -19.012  -2.628   5.288  1.00  0.00     0.047 A 
BRANCH  16  19
ATOM     19  O   UNL     1     -19.121  -3.873   3.209  1.00  0.00    -0.508 OA
ATOM     20  H   UNL     1     -18.438  -4.629   3.221  1.00  0.00     0.293 HD
ENDBRANCH  16  19
ENDBRANCH   3  13
BRANCH  10  21
ATOM     21  O   UNL     1     -18.338   5.381   8.833  1.00  0.00    -0.507 OA
ATOM     22  H   UNL     1     -18.201   4.748   9.605  1.00  0.00     0.293 HD
ENDBRANCH  10  21
BRANCH  11  23
ATOM     23  O   UNL     1     -18.997   6.845   4.323  1.00  0.00    -0.508 OA
ATOM     24  H   UNL     1     -19.811   6.864   3.724  1.00  0.00     0.293 HD
ENDBRANCH  11  23
ENDBRANCH   1   2
BRANCH   1  25
ATOM     25  C   UNL     1     -17.222  -0.262   8.998  1.00  0.00     0.339 C 
ATOM     26  C   UNL     1     -16.247  -1.279   8.315  1.00  0.00     0.214 C 
ATOM     27  O   UNL     1     -17.609  -0.561  10.336  1.00  0.00    -0.332 OA
ATOM     28  C   UNL     1     -16.455  -2.750   8.734  1.00  0.00     0.180 C 
ATOM     29  C   UNL     1     -17.965  -1.919  10.538  1.00  0.00     0.179 C 
ATOM     30  C   UNL     1     -16.791  -2.862  10.229  1.00  0.00     0.177 C 
BRANCH  26  31
ATOM     31  O   UNL     1     -14.907  -0.914   8.535  1.00  0.00    -0.384 OA
ATOM     32  H   UNL     1     -14.868  -0.364   9.356  1.00  0.00     0.211 HD
ENDBRANCH  26  31
BRANCH  28  33
ATOM     33  O   UNL     1     -17.492  -3.316   7.970  1.00  0.00    -0.387 OA
ATOM     34  H   UNL     1     -18.079  -2.575   7.671  1.00  0.00     0.211 HD
ENDBRANCH  28  33
BRANCH  29  35
ATOM     35  C   UNL     1     -18.470  -2.093  11.983  1.00  0.00     0.191 C 
BRANCH  35  36
ATOM     36  O   UNL     1     -18.264  -3.403  12.444  1.00  0.00    -0.394 OA
ATOM     37  H   UNL     1     -18.012  -3.948  11.652  1.00  0.00     0.210 HD
ENDBRANCH  35  36
ENDBRANCH  29  35
BRANCH  30  38
ATOM     38  O   UNL     1     -15.673  -2.524  11.013  1.00  0.00    -0.387 OA
ATOM     39  H   UNL     1     -14.870  -2.650  10.443  1.00  0.00     0.211 HD
ENDBRANCH  30  38
ENDBRANCH   1  25
TORSDOF 11
ENDMDL
MODEL 3
REMARK VINA RESULT:    48.436      2.516      5.227
REMARK INTER + INTRA:          70.711
REMARK INTER:                  66.050
REMARK INTRA:                   4.660
REMARK UNBOUND:                 1.038
REMARK SMILES O=c1c(O[C@H]2O[C@H](CO)[C@H](O)[C@@H](O)[C@@H]2O)c(-c2ccc(O)cc2)oc2cc(O)cc(O)c12
REMARK SMILES IDX 4 1 3 2 16 3 24 4 2 5 25 6 1 7 32 8 26 9 30 10 27 11 29 12
REMARK SMILES IDX 17 13 18 14 19 15 20 16 23 17 22 18 21 19 31 21 28 23 5 25
REMARK SMILES IDX 14 26 6 27 12 28 7 29 10 30 15 31 13 33 8 35 9 36 11 38
REMARK H PARENT 21 20 31 22 28 24 15 32 13 34 9 37 11 39
REMARK Flexibility Score: inf
ROOT
ATOM      1  O   UNL     1     -17.645   0.208  10.032  1.00  0.00    -0.454 OA
ENDROOT
BRANCH   1   2
ATOM      2  C   UNL     1     -17.761   0.945   8.845  1.00  0.00     0.214 A 
ATOM      3  C   UNL     1     -17.495   0.352   7.593  1.00  0.00     0.180 A 
ATOM      4  O   UNL     1     -17.675   1.064   6.485  1.00  0.00    -0.452 OA
ATOM      5  C   UNL     1     -18.092   2.305   8.895  1.00  0.00     0.239 A 
ATOM      6  C   UNL     1     -18.090   2.328   6.479  1.00  0.00     0.146 A 
ATOM      7  O   UNL     1     -18.147   2.866  10.018  1.00  0.00    -0.285 OA
ATOM      8  C   UNL     1     -18.341   3.015   7.698  1.00  0.00     0.111 A 
ATOM      9  C   UNL     1     -18.276   2.970   5.251  1.00  0.00     0.094 A 
ATOM     10  C   UNL     1     -18.803   4.365   7.636  1.00  0.00     0.134 A 
ATOM     11  C   UNL     1     -18.729   4.288   5.204  1.00  0.00     0.123 A 
ATOM     12  C   UNL     1     -18.973   4.977   6.391  1.00  0.00     0.093 A 
BRANCH   3  13
ATOM     13  C   UNL     1     -17.043  -1.059   7.451  1.00  0.00     0.021 A 
ATOM     14  C   UNL     1     -17.993  -2.064   7.194  1.00  0.00     0.016 A 
ATOM     15  C   UNL     1     -17.618  -3.411   7.160  1.00  0.00     0.047 A 
ATOM     16  C   UNL     1     -16.296  -3.776   7.416  1.00  0.00     0.115 A 
ATOM     17  C   UNL     1     -15.691  -1.430   7.577  1.00  0.00     0.016 A 
ATOM     18  C   UNL     1     -15.332  -2.780   7.613  1.00  0.00     0.047 A 
BRANCH  16  19
ATOM     19  O   UNL     1     -15.946  -5.123   7.472  1.00  0.00    -0.508 OA
ATOM     20  H   UNL     1     -15.971  -5.638   8.350  1.00  0.00     0.293 HD
ENDBRANCH  16  19
ENDBRANCH   3  13
BRANCH  10  21
ATOM     21  O   UNL     1     -19.125   5.136   8.753  1.00  0.00    -0.507 OA
ATOM     22  H   UNL     1     -19.754   4.862   9.491  1.00  0.00     0.293 HD
ENDBRANCH  10  21
BRANCH  11  23
ATOM     23  O   UNL     1     -18.957   4.896   3.975  1.00  0.00    -0.508 OA
ATOM     24  H   UNL     1     -19.683   4.564   3.356  1.00  0.00     0.293 HD
ENDBRANCH  11  23
ENDBRANCH   1   2
BRANCH   1  25
ATOM     25  C   UNL     1     -17.621  -1.223  10.151  1.00  0.00     0.339 C 
ATOM     26  C   UNL     1     -18.289  -1.748  11.466  1.00  0.00     0.214 C 
ATOM     27  O   UNL     1     -16.360  -1.795   9.812  1.00  0.00    -0.332 OA
ATOM     28  C   UNL     1     -17.296  -2.117  12.589  1.00  0.00     0.180 C 
ATOM     29  C   UNL     1     -15.466  -1.897  10.908  1.00  0.00     0.179 C 
ATOM     30  C   UNL     1     -16.037  -2.790  12.021  1.00  0.00     0.177 C 
BRANCH  26  31
ATOM     31  O   UNL     1     -19.125  -2.848  11.199  1.00  0.00    -0.384 OA
ATOM     32  H   UNL     1     -18.787  -3.301  10.387  1.00  0.00     0.211 HD
ENDBRANCH  26  31
BRANCH  28  33
ATOM     33  O   UNL     1     -16.937  -0.958  13.301  1.00  0.00    -0.387 OA
ATOM     34  H   UNL     1     -16.942  -1.189  14.266  1.00  0.00     0.211 HD
ENDBRANCH  28  33
BRANCH  29  35
ATOM     35  C   UNL     1     -14.109  -2.420  10.398  1.00  0.00     0.191 C 
BRANCH  35  36
ATOM     36  O   UNL     1     -13.248  -1.364  10.058  1.00  0.00    -0.394 OA
ATOM     37  H   UNL     1     -12.838  -1.047  10.906  1.00  0.00     0.210 HD
ENDBRANCH  35  36
ENDBRANCH  29  35
BRANCH  30  38
ATOM     38  O   UNL     1     -16.343  -4.066  11.516  1.00  0.00    -0.387 OA
ATOM     39  H   UNL     1     -16.619  -3.946  10.571  1.00  0.00     0.211 HD
ENDBRANCH  30  38
ENDBRANCH   1  25
TORSDOF 11
ENDMDL
MODEL 4
REMARK VINA RESULT:    48.516     11.695     13.901
REMARK INTER + INTRA:          70.826
REMARK INTER:                  71.238
REMARK INTRA:                  -0.413
REMARK UNBOUND:                 1.038
REMARK SMILES O=c1c(O[C@H]2O[C@H](CO)[C@H](O)[C@@H](O)[C@@H]2O)c(-c2ccc(O)cc2)oc2cc(O)cc(O)c12
REMARK SMILES IDX 4 1 3 2 16 3 24 4 2 5 25 6 1 7 32 8 26 9 30 10 27 11 29 12
REMARK SMILES IDX 17 13 18 14 19 15 20 16 23 17 22 18 21 19 31 21 28 23 5 25
REMARK SMILES IDX 14 26 6 27 12 28 7 29 10 30 15 31 13 33 8 35 9 36 11 38
REMARK H PARENT 21 20 31 22 28 24 15 32 13 34 9 37 11 39
REMARK Flexibility Score: inf
ROOT
ATOM      1  O   UNL     1      -5.869   2.827  11.754  1.00  0.00    -0.454 OA
ENDROOT
BRANCH   1   2
ATOM      2  C   UNL     1      -4.688   3.463  12.159  1.00  0.00     0.214 A 
ATOM      3  C   UNL     1      -3.579   2.717  12.613  1.00  0.00     0.180 A 
ATOM      4  O   UNL     1      -2.455   3.352  12.932  1.00  0.00    -0.452 OA
ATOM      5  C   UNL     1      -4.614   4.862  12.171  1.00  0.00     0.239 A 
ATOM      6  C   UNL     1      -2.305   4.671  12.857  1.00  0.00     0.146 A 
ATOM      7  O   UNL     1      -5.661   5.518  11.941  1.00  0.00    -0.285 OA
ATOM      8  C   UNL     1      -3.385   5.502  12.449  1.00  0.00     0.111 A 
ATOM      9  C   UNL     1      -1.066   5.227  13.186  1.00  0.00     0.094 A 
ATOM     10  C   UNL     1      -3.165   6.910  12.368  1.00  0.00     0.134 A 
ATOM     11  C   UNL     1      -0.864   6.604  13.101  1.00  0.00     0.123 A 
ATOM     12  C   UNL     1      -1.914   7.433  12.710  1.00  0.00     0.093 A 
BRANCH   3  13
ATOM     13  C   UNL     1      -3.602   1.234  12.728  1.00  0.00     0.021 A 
ATOM     14  C   UNL     1      -3.880   0.459  11.588  1.00  0.00     0.016 A 
ATOM     15  C   UNL     1      -4.013  -0.930  11.682  1.00  0.00     0.047 A 
ATOM     16  C   UNL     1      -3.904  -1.561  12.921  1.00  0.00     0.115 A 
ATOM     17  C   UNL     1      -3.364   0.572  13.948  1.00  0.00     0.016 A 
ATOM     18  C   UNL     1      -3.567  -0.807  14.052  1.00  0.00     0.047 A 
BRANCH  16  19
ATOM     19  O   UNL     1      -4.128  -2.932  13.025  1.00  0.00    -0.508 OA
ATOM     20  H   UNL     1      -3.453  -3.605  12.664  1.00  0.00     0.293 HD
ENDBRANCH  16  19
ENDBRANCH   3  13
BRANCH  10  21
ATOM     21  O   UNL     1      -4.125   7.830  11.943  1.00  0.00    -0.507 OA
ATOM     22  H   UNL     1      -4.167   8.799  12.216  1.00  0.00     0.293 HD
ENDBRANCH  10  21
BRANCH  11  23
ATOM     23  O   UNL     1       0.388   7.137  13.384  1.00  0.00    -0.508 OA
ATOM     24  H   UNL     1       0.720   7.967  12.911  1.00  0.00     0.293 HD
ENDBRANCH  11  23
ENDBRANCH   1   2
BRANCH   1  25
ATOM     25  C   UNL     1      -6.331   2.661  10.404  1.00  0.00     0.339 C 
ATOM     26  C   UNL     1      -6.607   4.015   9.671  1.00  0.00     0.214 C 
ATOM     27  O   UNL     1      -7.334   1.656  10.273  1.00  0.00    -0.332 OA
ATOM     28  C   UNL     1      -8.094   4.429   9.621  1.00  0.00     0.180 C 
ATOM     29  C   UNL     1      -8.655   2.141  10.444  1.00  0.00     0.179 C 
ATOM     30  C   UNL     1      -9.004   3.211   9.397  1.00  0.00     0.177 C 
BRANCH  26  31
ATOM     31  O   UNL     1      -6.082   3.995   8.366  1.00  0.00    -0.384 OA
ATOM     32  H   UNL     1      -6.811   4.223   7.737  1.00  0.00     0.211 HD
ENDBRANCH  26  31
BRANCH  28  33
ATOM     33  O   UNL     1      -8.446   5.072  10.821  1.00  0.00    -0.387 OA
ATOM     34  H   UNL     1      -8.384   6.050  10.663  1.00  0.00     0.211 HD
ENDBRANCH  28  33
BRANCH  29  35
ATOM     35  C   UNL     1      -9.634   0.953  10.393  1.00  0.00     0.191 C 
BRANCH  35  36
ATOM     36  O   UNL     1      -9.460   0.097  11.493  1.00  0.00    -0.394 OA
ATOM     37  H   UNL     1     -10.289  -0.446  11.565  1.00  0.00     0.210 HD
ENDBRANCH  35  36
ENDBRANCH  29  35
BRANCH  30  38
ATOM     38  O   UNL     1      -8.833   2.699   8.099  1.00  0.00    -0.387 OA
ATOM     39  H   UNL     1      -8.879   3.469   7.474  1.00  0.00     0.211 HD
ENDBRANCH  30  38
ENDBRANCH   1  25
TORSDOF 11
ENDMDL
MODEL 5
REMARK VINA RESULT:    48.571      2.151      3.171
REMARK INTER + INTRA:          70.905
REMARK INTER:                  70.351
REMARK INTRA:                   0.554
REMARK UNBOUND:                 1.038
REMARK SMILES O=c1c(O[C@H]2O[C@H](CO)[C@H](O)[C@@H](O)[C@@H]2O)c(-c2ccc(O)cc2)oc2cc(O)cc(O)c12
REMARK SMILES IDX 4 1 3 2 16 3 24 4 2 5 25 6 1 7 32 8 26 9 30 10 27 11 29 12
REMARK SMILES IDX 17 13 18 14 19 15 20 16 23 17 22 18 21 19 31 21 28 23 5 25
REMARK SMILES IDX 14 26 6 27 12 28 7 29 10 30 15 31 13 33 8 35 9 36 11 38
REMARK H PARENT 21 20 31 22 28 24 15 32 13 34 9 37 11 39
REMARK Flexibility Score: inf
ROOT
ATOM      1  O   UNL     1     -15.153  -2.465  12.401  1.00  0.00    -0.454 OA
ENDROOT
BRANCH   1   2
ATOM      2  C   UNL     1     -15.888  -2.621  11.219  1.00  0.00     0.214 A 
ATOM      3  C   UNL     1     -17.046  -3.428  11.184  1.00  0.00     0.180 A 
ATOM      4  O   UNL     1     -17.752  -3.504  10.060  1.00  0.00    -0.452 OA
ATOM      5  C   UNL     1     -15.447  -2.019  10.034  1.00  0.00     0.239 A 
ATOM      6  C   UNL     1     -17.428  -2.864   8.940  1.00  0.00     0.146 A 
ATOM      7  O   UNL     1     -14.322  -1.456  10.032  1.00  0.00    -0.285 OA
ATOM      8  C   UNL     1     -16.255  -2.063   8.875  1.00  0.00     0.111 A 
ATOM      9  C   UNL     1     -18.263  -2.991   7.826  1.00  0.00     0.094 A 
ATOM     10  C   UNL     1     -15.963  -1.382   7.655  1.00  0.00     0.134 A 
ATOM     11  C   UNL     1     -17.968  -2.320   6.640  1.00  0.00     0.123 A 
ATOM     12  C   UNL     1     -16.817  -1.536   6.559  1.00  0.00     0.093 A 
BRANCH   3  13
ATOM     13  C   UNL     1     -17.534  -4.185  12.369  1.00  0.00     0.021 A 
ATOM     14  C   UNL     1     -16.946  -5.422  12.685  1.00  0.00     0.016 A 
ATOM     15  C   UNL     1     -17.451  -6.208  13.727  1.00  0.00     0.047 A 
ATOM     16  C   UNL     1     -18.570  -5.785  14.444  1.00  0.00     0.115 A 
ATOM     17  C   UNL     1     -18.579  -3.709  13.184  1.00  0.00     0.016 A 
ATOM     18  C   UNL     1     -19.125  -4.527  14.177  1.00  0.00     0.047 A 
BRANCH  16  19
ATOM     19  O   UNL     1     -19.124  -6.611  15.419  1.00  0.00    -0.508 OA
ATOM     20  H   UNL     1     -19.924  -6.309  15.973  1.00  0.00     0.293 HD
ENDBRANCH  16  19
ENDBRANCH   3  13
BRANCH  10  21
ATOM     21  O   UNL     1     -14.870  -0.534   7.472  1.00  0.00    -0.507 OA
ATOM     22  H   UNL     1     -14.814   0.423   7.781  1.00  0.00     0.293 HD
ENDBRANCH  10  21
BRANCH  11  23
ATOM     23  O   UNL     1     -18.834  -2.416   5.558  1.00  0.00    -0.508 OA
ATOM     24  H   UNL     1     -19.382  -3.251   5.402  1.00  0.00     0.293 HD
ENDBRANCH  11  23
ENDBRANCH   1   2
BRANCH   1  25
ATOM     25  C   UNL     1     -15.564  -2.853  13.722  1.00  0.00     0.339 C 
ATOM     26  C   UNL     1     -15.946  -1.640  14.634  1.00  0.00     0.214 C 
ATOM     27  O   UNL     1     -14.720  -3.841  14.306  1.00  0.00    -0.332 OA
ATOM     28  C   UNL     1     -14.844  -1.207  15.625  1.00  0.00     0.180 C 
ATOM     29  C   UNL     1     -13.627  -3.302  15.031  1.00  0.00     0.179 C 
ATOM     30  C   UNL     1     -14.101  -2.423  16.199  1.00  0.00     0.177 C 
BRANCH  26  31
ATOM     31  O   UNL     1     -17.135  -1.899  15.341  1.00  0.00    -0.384 OA
ATOM     32  H   UNL     1     -16.963  -1.741  16.302  1.00  0.00     0.211 HD
ENDBRANCH  26  31
BRANCH  28  33
ATOM     33  O   UNL     1     -13.932  -0.356  14.973  1.00  0.00    -0.387 OA
ATOM     34  H   UNL     1     -13.500  -0.882  14.250  1.00  0.00     0.211 HD
ENDBRANCH  28  33
BRANCH  29  35
ATOM     35  C   UNL     1     -12.731  -4.458  15.515  1.00  0.00     0.191 C 
BRANCH  35  36
ATOM     36  O   UNL     1     -11.940  -4.071  16.609  1.00  0.00    -0.394 OA
ATOM     37  H   UNL     1     -11.322  -4.827  16.796  1.00  0.00     0.210 HD
ENDBRANCH  35  36
ENDBRANCH  29  35
BRANCH  30  38
ATOM     38  O   UNL     1     -14.943  -3.158  17.053  1.00  0.00    -0.387 OA
ATOM     39  H   UNL     1     -15.870  -2.844  16.888  1.00  0.00     0.211 HD
ENDBRANCH  30  38
ENDBRANCH   1  25
TORSDOF 11
ENDMDL
MODEL 6
REMARK VINA RESULT:    49.260      2.035      7.459
REMARK INTER + INTRA:          71.896
REMARK INTER:                  72.340
REMARK INTRA:                  -0.445
REMARK UNBOUND:                 1.038
REMARK SMILES O=c1c(O[C@H]2O[C@H](CO)[C@H](O)[C@@H](O)[C@@H]2O)c(-c2ccc(O)cc2)oc2cc(O)cc(O)c12
REMARK SMILES IDX 4 1 3 2 16 3 24 4 2 5 25 6 1 7 32 8 26 9 30 10 27 11 29 12
REMARK SMILES IDX 17 13 18 14 19 15 20 16 23 17 22 18 21 19 31 21 28 23 5 25
REMARK SMILES IDX 14 26 6 27 12 28 7 29 10 30 15 31 13 33 8 35 9 36 11 38
REMARK H PARENT 21 20 31 22 28 24 15 32 13 34 9 37 11 39
REMARK Flexibility Score: inf
ROOT
ATOM      1  O   UNL     1     -17.986  -0.687   9.955  1.00  0.00    -0.454 OA
ENDROOT
BRANCH   1   2
ATOM      2  C   UNL     1     -17.179  -1.609  10.636  1.00  0.00     0.214 A 
ATOM      3  C   UNL     1     -16.563  -2.679   9.954  1.00  0.00     0.180 A 
ATOM      4  O   UNL     1     -15.756  -3.498  10.623  1.00  0.00    -0.452 OA
ATOM      5  C   UNL     1     -17.019  -1.508  12.024  1.00  0.00     0.239 A 
ATOM      6  C   UNL     1     -15.492  -3.377  11.920  1.00  0.00     0.146 A 
ATOM      7  O   UNL     1     -17.715  -0.666  12.647  1.00  0.00    -0.285 OA
ATOM      8  C   UNL     1     -16.102  -2.351  12.693  1.00  0.00     0.111 A 
ATOM      9  C   UNL     1     -14.600  -4.276  12.512  1.00  0.00     0.094 A 
ATOM     10  C   UNL     1     -15.770  -2.253  14.078  1.00  0.00     0.134 A 
ATOM     11  C   UNL     1     -14.283  -4.169  13.866  1.00  0.00     0.123 A 
ATOM     12  C   UNL     1     -14.879  -3.173  14.638  1.00  0.00     0.093 A 
BRANCH   3  13
ATOM     13  C   UNL     1     -16.755  -2.922   8.499  1.00  0.00     0.021 A 
ATOM     14  C   UNL     1     -15.629  -3.008   7.660  1.00  0.00     0.016 A 
ATOM     15  C   UNL     1     -15.778  -3.129   6.275  1.00  0.00     0.047 A 
ATOM     16  C   UNL     1     -17.050  -3.132   5.704  1.00  0.00     0.115 A 
ATOM     17  C   UNL     1     -18.033  -3.059   7.924  1.00  0.00     0.016 A 
ATOM     18  C   UNL     1     -18.178  -3.109   6.534  1.00  0.00     0.047 A 
BRANCH  16  19
ATOM     19  O   UNL     1     -17.191  -3.161   4.318  1.00  0.00    -0.508 OA
ATOM     20  H   UNL     1     -16.930  -2.360   3.746  1.00  0.00     0.293 HD
ENDBRANCH  16  19
ENDBRANCH   3  13
BRANCH  10  21
ATOM     21  O   UNL     1     -16.265  -1.270  14.936  1.00  0.00    -0.507 OA
ATOM     22  H   UNL     1     -15.818  -0.953  15.781  1.00  0.00     0.293 HD
ENDBRANCH  10  21
BRANCH  11  23
ATOM     23  O   UNL     1     -13.357  -5.039  14.429  1.00  0.00    -0.508 OA
ATOM     24  H   UNL     1     -13.656  -5.860  14.938  1.00  0.00     0.293 HD
ENDBRANCH  11  23
ENDBRANCH   1   2
BRANCH   1  25
ATOM     25  C   UNL     1     -17.591   0.610   9.482  1.00  0.00     0.339 C 
ATOM     26  C   UNL     1     -18.621   1.250   8.493  1.00  0.00     0.214 C 
ATOM     27  O   UNL     1     -16.221   0.674   9.095  1.00  0.00    -0.332 OA
ATOM     28  C   UNL     1     -18.247   1.121   7.000  1.00  0.00     0.180 C 
ATOM     29  C   UNL     1     -15.994   0.340   7.736  1.00  0.00     0.179 C 
ATOM     30  C   UNL     1     -16.735   1.296   6.788  1.00  0.00     0.177 C 
BRANCH  26  31
ATOM     31  O   UNL     1     -18.841   2.604   8.805  1.00  0.00    -0.384 OA
ATOM     32  H   UNL     1     -19.551   2.946   8.207  1.00  0.00     0.211 HD
ENDBRANCH  26  31
BRANCH  28  33
ATOM     33  O   UNL     1     -18.653  -0.137   6.519  1.00  0.00    -0.387 OA
ATOM     34  H   UNL     1     -19.378  -0.463   7.114  1.00  0.00     0.211 HD
ENDBRANCH  28  33
BRANCH  29  35
ATOM     35  C   UNL     1     -14.477   0.335   7.469  1.00  0.00     0.191 C 
BRANCH  35  36
ATOM     36  O   UNL     1     -14.158  -0.429   6.335  1.00  0.00    -0.394 OA
ATOM     37  H   UNL     1     -13.225  -0.747   6.459  1.00  0.00     0.210 HD
ENDBRANCH  35  36
ENDBRANCH  29  35
BRANCH  30  38
ATOM     38  O   UNL     1     -16.352   2.626   7.037  1.00  0.00    -0.387 OA
ATOM     39  H   UNL     1     -16.059   2.671   7.984  1.00  0.00     0.211 HD
ENDBRANCH  30  38
ENDBRANCH   1  25
TORSDOF 11
ENDMDL
MODEL 7
REMARK VINA RESULT:    49.916      2.017      7.368
REMARK INTER + INTRA:          72.839
REMARK INTER:                  68.137
REMARK INTRA:                   4.702
REMARK UNBOUND:                 1.038
REMARK SMILES O=c1c(O[C@H]2O[C@H](CO)[C@H](O)[C@@H](O)[C@@H]2O)c(-c2ccc(O)cc2)oc2cc(O)cc(O)c12
REMARK SMILES IDX 4 1 3 2 16 3 24 4 2 5 25 6 1 7 32 8 26 9 30 10 27 11 29 12
REMARK SMILES IDX 17 13 18 14 19 15 20 16 23 17 22 18 21 19 31 21 28 23 5 25
REMARK SMILES IDX 14 26 6 27 12 28 7 29 10 30 15 31 13 33 8 35 9 36 11 38
REMARK H PARENT 21 20 31 22 28 24 15 32 13 34 9 37 11 39
REMARK Flexibility Score: inf
ROOT
ATOM      1  O   UNL     1     -17.676  -0.703  10.283  1.00  0.00    -0.454 OA
ENDROOT
BRANCH   1   2
ATOM      2  C   UNL     1     -16.885  -1.618  10.992  1.00  0.00     0.214 A 
ATOM      3  C   UNL     1     -16.309  -2.733  10.346  1.00  0.00     0.180 A 
ATOM      4  O   UNL     1     -15.515  -3.546  11.037  1.00  0.00    -0.452 OA
ATOM      5  C   UNL     1     -16.703  -1.466  12.372  1.00  0.00     0.239 A 
ATOM      6  C   UNL     1     -15.229  -3.379  12.325  1.00  0.00     0.146 A 
ATOM      7  O   UNL     1     -17.366  -0.580  12.968  1.00  0.00    -0.285 OA
ATOM      8  C   UNL     1     -15.800  -2.306  13.062  1.00  0.00     0.111 A 
ATOM      9  C   UNL     1     -14.355  -4.278  12.942  1.00  0.00     0.094 A 
ATOM     10  C   UNL     1     -15.446  -2.161  14.438  1.00  0.00     0.134 A 
ATOM     11  C   UNL     1     -14.015  -4.126  14.286  1.00  0.00     0.123 A 
ATOM     12  C   UNL     1     -14.572  -3.082  15.024  1.00  0.00     0.093 A 
BRANCH   3  13
ATOM     13  C   UNL     1     -16.529  -3.029   8.904  1.00  0.00     0.021 A 
ATOM     14  C   UNL     1     -15.422  -3.093   8.038  1.00  0.00     0.016 A 
ATOM     15  C   UNL     1     -15.601  -3.263   6.661  1.00  0.00     0.047 A 
ATOM     16  C   UNL     1     -16.887  -3.340   6.127  1.00  0.00     0.115 A 
ATOM     17  C   UNL     1     -17.813  -3.239   8.370  1.00  0.00     0.016 A 
ATOM     18  C   UNL     1     -17.993  -3.339   6.986  1.00  0.00     0.047 A 
BRANCH  16  19
ATOM     19  O   UNL     1     -17.063  -3.418   4.747  1.00  0.00    -0.508 OA
ATOM     20  H   UNL     1     -16.335  -3.108   4.105  1.00  0.00     0.293 HD
ENDBRANCH  16  19
ENDBRANCH   3  13
BRANCH  10  21
ATOM     21  O   UNL     1     -15.901  -1.131  15.261  1.00  0.00    -0.507 OA
ATOM     22  H   UNL     1     -16.670  -1.197  15.909  1.00  0.00     0.293 HD
ENDBRANCH  10  21
BRANCH  11  23
ATOM     23  O   UNL     1     -13.106  -4.998  14.872  1.00  0.00    -0.508 OA
ATOM     24  H   UNL     1     -12.807  -4.873  15.829  1.00  0.00     0.293 HD
ENDBRANCH  11  23
ENDBRANCH   1   2
BRANCH   1  25
ATOM     25  C   UNL     1     -17.554  -0.364   8.893  1.00  0.00     0.339 C 
ATOM     26  C   UNL     1     -16.072  -0.171   8.429  1.00  0.00     0.214 C 
ATOM     27  O   UNL     1     -18.481   0.634   8.474  1.00  0.00    -0.332 OA
ATOM     28  C   UNL     1     -15.612   1.300   8.335  1.00  0.00     0.180 C 
ATOM     29  C   UNL     1     -18.001   1.960   8.625  1.00  0.00     0.179 C 
ATOM     30  C   UNL     1     -16.733   2.200   7.791  1.00  0.00     0.177 C 
BRANCH  26  31
ATOM     31  O   UNL     1     -15.844  -0.813   7.198  1.00  0.00    -0.384 OA
ATOM     32  H   UNL     1     -14.929  -0.587   6.898  1.00  0.00     0.211 HD
ENDBRANCH  26  31
BRANCH  28  33
ATOM     33  O   UNL     1     -15.214   1.752   9.606  1.00  0.00    -0.387 OA
ATOM     34  H   UNL     1     -15.091   0.952  10.181  1.00  0.00     0.211 HD
ENDBRANCH  28  33
BRANCH  29  35
ATOM     35  C   UNL     1     -19.125   2.944   8.250  1.00  0.00     0.191 C 
BRANCH  35  36
ATOM     36  O   UNL     1     -18.844   3.608   7.044  1.00  0.00    -0.394 OA
ATOM     37  H   UNL     1     -18.038   3.172   6.660  1.00  0.00     0.210 HD
ENDBRANCH  35  36
ENDBRANCH  29  35
BRANCH  30  38
ATOM     38  O   UNL     1     -16.978   1.918   6.435  1.00  0.00    -0.387 OA
ATOM     39  H   UNL     1     -16.508   1.069   6.225  1.00  0.00     0.211 HD
ENDBRANCH  30  38
ENDBRANCH   1  25
TORSDOF 11
ENDMDL
MODEL 8
REMARK VINA RESULT:    50.153     12.137     14.420
REMARK INTER + INTRA:          73.181
REMARK INTER:                  72.887
REMARK INTRA:                   0.294
REMARK UNBOUND:                 1.038
REMARK SMILES O=c1c(O[C@H]2O[C@H](CO)[C@H](O)[C@@H](O)[C@@H]2O)c(-c2ccc(O)cc2)oc2cc(O)cc(O)c12
REMARK SMILES IDX 4 1 3 2 16 3 24 4 2 5 25 6 1 7 32 8 26 9 30 10 27 11 29 12
REMARK SMILES IDX 17 13 18 14 19 15 20 16 23 17 22 18 21 19 31 21 28 23 5 25
REMARK SMILES IDX 14 26 6 27 12 28 7 29 10 30 15 31 13 33 8 35 9 36 11 38
REMARK H PARENT 21 20 31 22 28 24 15 32 13 34 9 37 11 39
REMARK Flexibility Score: inf
ROOT
ATOM      1  O   UNL     1      -5.405   4.652  11.994  1.00  0.00    -0.454 OA
ENDROOT
BRANCH   1   2
ATOM      2  C   UNL     1      -5.171   3.270  12.017  1.00  0.00     0.214 A 
ATOM      3  C   UNL     1      -5.150   2.557  13.235  1.00  0.00     0.180 A 
ATOM      4  O   UNL     1      -4.985   1.238  13.212  1.00  0.00    -0.452 OA
ATOM      5  C   UNL     1      -4.897   2.586  10.826  1.00  0.00     0.239 A 
ATOM      6  C   UNL     1      -4.827   0.532  12.096  1.00  0.00     0.146 A 
ATOM      7  O   UNL     1      -4.736   3.257   9.775  1.00  0.00    -0.285 OA
ATOM      8  C   UNL     1      -4.794   1.177  10.828  1.00  0.00     0.111 A 
ATOM      9  C   UNL     1      -4.695  -0.856  12.190  1.00  0.00     0.094 A 
ATOM     10  C   UNL     1      -4.640   0.371   9.660  1.00  0.00     0.134 A 
ATOM     11  C   UNL     1      -4.546  -1.632  11.041  1.00  0.00     0.123 A 
ATOM     12  C   UNL     1      -4.505  -1.014   9.791  1.00  0.00     0.093 A 
BRANCH   3  13
ATOM     13  C   UNL     1      -5.333   3.216  14.556  1.00  0.00     0.021 A 
ATOM     14  C   UNL     1      -6.496   3.971  14.793  1.00  0.00     0.016 A 
ATOM     15  C   UNL     1      -6.651   4.690  15.983  1.00  0.00     0.047 A 
ATOM     16  C   UNL     1      -5.634   4.692  16.937  1.00  0.00     0.115 A 
ATOM     17  C   UNL     1      -4.374   3.120  15.581  1.00  0.00     0.016 A 
ATOM     18  C   UNL     1      -4.500   3.895  16.738  1.00  0.00     0.047 A 
BRANCH  16  19
ATOM     19  O   UNL     1      -5.753   5.481  18.079  1.00  0.00    -0.508 OA
ATOM     20  H   UNL     1      -5.999   6.468  18.014  1.00  0.00     0.293 HD
ENDBRANCH  16  19
ENDBRANCH   3  13
BRANCH  10  21
ATOM     21  O   UNL     1      -4.633   0.872   8.357  1.00  0.00    -0.507 OA
ATOM     22  H   UNL     1      -3.815   0.995   7.783  1.00  0.00     0.293 HD
ENDBRANCH  10  21
BRANCH  11  23
ATOM     23  O   UNL     1      -4.466  -3.015  11.147  1.00  0.00    -0.508 OA
ATOM     24  H   UNL     1      -3.838  -3.452  11.807  1.00  0.00     0.293 HD
ENDBRANCH  11  23
ENDBRANCH   1   2
BRANCH   1  25
ATOM     25  C   UNL     1      -4.666   5.656  12.707  1.00  0.00     0.339 C 
ATOM     26  C   UNL     1      -4.441   6.965  11.879  1.00  0.00     0.214 C 
ATOM     27  O   UNL     1      -3.529   5.139  13.391  1.00  0.00    -0.332 OA
ATOM     28  C   UNL     1      -3.045   7.083  11.228  1.00  0.00     0.180 C 
ATOM     29  C   UNL     1      -2.348   5.124  12.607  1.00  0.00     0.179 C 
ATOM     30  C   UNL     1      -1.950   6.539  12.158  1.00  0.00     0.177 C 
BRANCH  26  31
ATOM     31  O   UNL     1      -4.689   8.105  12.665  1.00  0.00    -0.384 OA
ATOM     32  H   UNL     1      -3.947   8.201  13.312  1.00  0.00     0.211 HD
ENDBRANCH  26  31
BRANCH  28  33
ATOM     33  O   UNL     1      -3.031   6.378  10.011  1.00  0.00    -0.387 OA
ATOM     34  H   UNL     1      -3.180   7.037   9.284  1.00  0.00     0.211 HD
ENDBRANCH  28  33
BRANCH  29  35
ATOM     35  C   UNL     1      -1.223   4.443  13.410  1.00  0.00     0.191 C 
BRANCH  35  36
ATOM     36  O   UNL     1      -0.780   5.258  14.464  1.00  0.00    -0.394 OA
ATOM     37  H   UNL     1      -1.002   4.781  15.306  1.00  0.00     0.210 HD
ENDBRANCH  35  36
ENDBRANCH  29  35
BRANCH  30  38
ATOM     38  O   UNL     1      -1.787   7.378  13.274  1.00  0.00    -0.387 OA
ATOM     39  H   UNL     1      -1.006   7.038  13.783  1.00  0.00     0.211 HD
ENDBRANCH  30  38
ENDBRANCH   1  25
TORSDOF 11
ENDMDL
MODEL 9
REMARK VINA RESULT:    50.225      2.434      7.221
REMARK INTER + INTRA:          73.284
REMARK INTER:                  69.234
REMARK INTRA:                   4.049
REMARK UNBOUND:                 1.038
REMARK SMILES O=c1c(O[C@H]2O[C@H](CO)[C@H](O)[C@@H](O)[C@@H]2O)c(-c2ccc(O)cc2)oc2cc(O)cc(O)c12
REMARK SMILES IDX 4 1 3 2 16 3 24 4 2 5 25 6 1 7 32 8 26 9 30 10 27 11 29 12
REMARK SMILES IDX 17 13 18 14 19 15 20 16 23 17 22 18 21 19 31 21 28 23 5 25
REMARK SMILES IDX 14 26 6 27 12 28 7 29 10 30 15 31 13 33 8 35 9 36 11 38
REMARK H PARENT 21 20 31 22 28 24 15 32 13 34 9 37 11 39
REMARK Flexibility Score: inf
ROOT
ATOM      1  O   UNL     1     -18.988  -2.914   9.210  1.00  0.00    -0.454 OA
ENDROOT
BRANCH   1   2
ATOM      2  C   UNL     1     -18.414  -2.652  10.461  1.00  0.00     0.214 A 
ATOM      3  C   UNL     1     -17.621  -1.503  10.670  1.00  0.00     0.180 A 
ATOM      4  O   UNL     1     -17.143  -1.256  11.886  1.00  0.00    -0.452 OA
ATOM      5  C   UNL     1     -18.574  -3.565  11.511  1.00  0.00     0.239 A 
ATOM      6  C   UNL     1     -17.359  -2.041  12.938  1.00  0.00     0.146 A 
ATOM      7  O   UNL     1     -19.124  -4.669  11.265  1.00  0.00    -0.285 OA
ATOM      8  C   UNL     1     -18.112  -3.240  12.806  1.00  0.00     0.111 A 
ATOM      9  C   UNL     1     -16.834  -1.665  14.177  1.00  0.00     0.094 A 
ATOM     10  C   UNL     1     -18.330  -4.038  13.970  1.00  0.00     0.134 A 
ATOM     11  C   UNL     1     -17.055  -2.452  15.307  1.00  0.00     0.123 A 
ATOM     12  C   UNL     1     -17.785  -3.634  15.193  1.00  0.00     0.093 A 
BRANCH   3  13
ATOM     13  C   UNL     1     -17.316  -0.529   9.588  1.00  0.00     0.021 A 
ATOM     14  C   UNL     1     -15.998  -0.424   9.108  1.00  0.00     0.016 A 
ATOM     15  C   UNL     1     -15.655   0.553   8.168  1.00  0.00     0.047 A 
ATOM     16  C   UNL     1     -16.615   1.460   7.719  1.00  0.00     0.115 A 
ATOM     17  C   UNL     1     -18.302   0.305   9.029  1.00  0.00     0.016 A 
ATOM     18  C   UNL     1     -17.943   1.326   8.143  1.00  0.00     0.047 A 
BRANCH  16  19
ATOM     19  O   UNL     1     -16.249   2.488   6.852  1.00  0.00    -0.508 OA
ATOM     20  H   UNL     1     -15.324   2.912   6.900  1.00  0.00     0.293 HD
ENDBRANCH  16  19
ENDBRANCH   3  13
BRANCH  10  21
ATOM     21  O   UNL     1     -19.083  -5.212  13.987  1.00  0.00    -0.507 OA
ATOM     22  H   UNL     1     -19.412  -5.684  14.813  1.00  0.00     0.293 HD
ENDBRANCH  10  21
BRANCH  11  23
ATOM     23  O   UNL     1     -16.569  -2.039  16.542  1.00  0.00    -0.508 OA
ATOM     24  H   UNL     1     -17.089  -2.212  17.391  1.00  0.00     0.293 HD
ENDBRANCH  11  23
ENDBRANCH   1   2
BRANCH   1  25
ATOM     25  C   UNL     1     -18.394  -3.657   8.134  1.00  0.00     0.339 C 
ATOM     26  C   UNL     1     -16.908  -4.065   8.408  1.00  0.00     0.214 C 
ATOM     27  O   UNL     1     -18.670  -3.106   6.849  1.00  0.00    -0.332 OA
ATOM     28  C   UNL     1     -15.857  -3.161   7.727  1.00  0.00     0.180 C 
ATOM     29  C   UNL     1     -17.724  -2.138   6.427  1.00  0.00     0.179 C 
ATOM     30  C   UNL     1     -16.312  -2.737   6.323  1.00  0.00     0.177 C 
BRANCH  26  31
ATOM     31  O   UNL     1     -16.680  -5.405   8.044  1.00  0.00    -0.384 OA
ATOM     32  H   UNL     1     -17.496  -5.923   8.254  1.00  0.00     0.211 HD
ENDBRANCH  26  31
BRANCH  28  33
ATOM     33  O   UNL     1     -15.631  -2.021   8.519  1.00  0.00    -0.387 OA
ATOM     34  H   UNL     1     -14.878  -2.229   9.132  1.00  0.00     0.211 HD
ENDBRANCH  28  33
BRANCH  29  35
ATOM     35  C   UNL     1     -18.188  -1.538   5.087  1.00  0.00     0.191 C 
BRANCH  35  36
ATOM     36  O   UNL     1     -19.125  -2.367   4.449  1.00  0.00    -0.394 OA
ATOM     37  H   UNL     1     -19.528  -2.938   5.156  1.00  0.00     0.210 HD
ENDBRANCH  35  36
ENDBRANCH  29  35
BRANCH  30  38
ATOM     38  O   UNL     1     -16.311  -3.839   5.449  1.00  0.00    -0.387 OA
ATOM     39  H   UNL     1     -15.378  -4.173   5.403  1.00  0.00     0.211 HD
ENDBRANCH  30  38
ENDBRANCH   1  25
TORSDOF 11
ENDMDL
