MODEL 1
REMARK VINA RESULT:    -3.595      0.000      0.000
REMARK INTER + INTRA:          -5.263
REMARK INTER:                  -5.486
REMARK INTRA:                   0.223
REMARK UNBOUND:                 0.223
REMARK SMILES CC1=CCC[C@@H](C)C(=O)C[C@H](C(C)C)C(=O)C1
REMARK SMILES IDX 8 1 9 2 6 3 7 4 5 5 4 6 3 7 2 8 1 9 10 11 11 12 15 13 16 14
REMARK SMILES IDX 17 15 12 17 13 18 14 19
REMARK H PARENT
REMARK Flexibility Score: 70.00
ROOT
ATOM      1  C   UNL     1      55.151  17.716  -3.660  1.00  0.00     0.136 C 
ATOM      2  O   UNL     1      55.114  18.321  -2.598  1.00  0.00    -0.299 OA
ENDROOT
BRANCH   1   3
ATOM      3  C   UNL     1      55.331  18.518  -4.940  1.00  0.00     0.053 C 
ATOM      4  C   UNL     1      56.570  19.422  -4.844  1.00  0.00     0.016 C 
BRANCH   3   5
ATOM      5  C   UNL     1      54.073  19.340  -5.314  1.00  0.00     0.015 C 
BRANCH   5   6
ATOM      6  C   UNL     1      52.828  18.514  -5.703  1.00  0.00     0.028 C 
BRANCH   6   7
ATOM      7  C   UNL     1      51.704  18.457  -4.694  1.00  0.00    -0.028 C 
ATOM      8  C   UNL     1      51.446  17.441  -3.834  1.00  0.00    -0.070 CG0
ATOM      9  C   UNL     1      50.375  17.657  -2.794  1.00  0.00     0.039 C 
ATOM     10  G   UNL     1      52.117  16.084  -3.905  1.00  0.00     0.000 G0
ENDBRANCH   6   7
ENDBRANCH   5   6
ENDBRANCH   3   5
ENDBRANCH   1   3
BRANCH   1  11
ATOM     11  C   UNL     1      54.985  16.204  -3.627  1.00  0.00     0.087 C 
BRANCH  11  12
ATOM     12  C   UNL     1      54.235  15.675  -2.375  1.00  0.00     0.066 C 
BRANCH  12  13
ATOM     13  C   UNL     1      52.728  15.711  -2.558  1.00  0.00     0.140 C 
ATOM     14  O   UNL     1      51.995  15.382  -1.637  1.00  0.00    -0.299 OA
BRANCH  13  15
ATOM     15  C   UNL     1      52.117  16.068  -3.894  1.00  0.00     0.106 CG0
ATOM     16  G   UNL     1      51.459  17.431  -3.814  1.00  0.00     0.000 G0
ENDBRANCH  13  15
ENDBRANCH  12  13
BRANCH  12  17
ATOM     17  C   UNL     1      54.778  14.295  -1.885  1.00  0.00    -0.006 C 
ATOM     18  C   UNL     1      55.663  14.350  -0.625  1.00  0.00     0.008 C 
ATOM     19  C   UNL     1      55.529  13.568  -3.012  1.00  0.00     0.008 C 
ENDBRANCH  12  17
ENDBRANCH  11  12
ENDBRANCH   1  11
TORSDOF 1
ENDMDL
MODEL 2
REMARK VINA RESULT:    -3.541      2.026      4.603
REMARK INTER + INTRA:          -5.181
REMARK INTER:                  -5.739
REMARK INTRA:                   0.558
REMARK UNBOUND:                 0.223
REMARK SMILES CC1=CCC[C@@H](C)C(=O)C[C@H](C(C)C)C(=O)C1
REMARK SMILES IDX 8 1 9 2 6 3 7 4 5 5 4 6 3 7 2 8 1 9 10 11 11 12 15 13 16 14
REMARK SMILES IDX 17 15 12 17 13 18 14 19
REMARK H PARENT
REMARK Flexibility Score: 70.00
ROOT
ATOM      1  C   UNL     1      55.046  15.147  -3.821  1.00  0.00     0.136 C 
ATOM      2  O   UNL     1      54.121  14.725  -4.501  1.00  0.00    -0.299 OA
ENDROOT
BRANCH   1   3
ATOM      3  C   UNL     1      55.727  14.185  -2.858  1.00  0.00     0.053 C 
ATOM      4  C   UNL     1      55.728  12.758  -3.427  1.00  0.00     0.016 C 
BRANCH   3   5
ATOM      5  C   UNL     1      55.105  14.216  -1.440  1.00  0.00     0.015 C 
BRANCH   5   6
ATOM      6  C   UNL     1      55.114  15.590  -0.736  1.00  0.00     0.028 C 
BRANCH   6   7
ATOM      7  C   UNL     1      53.772  16.175  -0.362  1.00  0.00    -0.028 C 
ATOM      8  C   UNL     1      53.164  17.236  -0.946  1.00  0.00    -0.070 CG0
ATOM      9  C   UNL     1      51.751  17.553  -0.528  1.00  0.00     0.039 C 
ATOM     10  G   UNL     1      53.847  18.159  -1.936  1.00  0.00     0.000 G0
ENDBRANCH   6   7
ENDBRANCH   5   6
ENDBRANCH   3   5
ENDBRANCH   1   3
BRANCH   1  11
ATOM     11  C   UNL     1      55.431  16.611  -3.964  1.00  0.00     0.087 C 
BRANCH  11  12
ATOM     12  C   UNL     1      54.278  17.524  -4.461  1.00  0.00     0.066 C 
BRANCH  12  13
ATOM     13  C   UNL     1      53.320  17.891  -3.342  1.00  0.00     0.140 C 
ATOM     14  O   UNL     1      52.127  18.018  -3.579  1.00  0.00    -0.299 OA
BRANCH  13  15
ATOM     15  C   UNL     1      53.829  18.186  -1.950  1.00  0.00     0.106 CG0
ATOM     16  G   UNL     1      53.194  17.236  -0.954  1.00  0.00     0.000 G0
ENDBRANCH  13  15
ENDBRANCH  12  13
BRANCH  12  17
ATOM     17  C   UNL     1      54.791  18.752  -5.280  1.00  0.00    -0.006 C 
ATOM     18  C   UNL     1      56.123  19.353  -4.793  1.00  0.00     0.008 C 
ATOM     19  C   UNL     1      53.721  19.853  -5.348  1.00  0.00     0.008 C 
ENDBRANCH  12  17
ENDBRANCH  11  12
ENDBRANCH   1  11
TORSDOF 1
ENDMDL
MODEL 3
REMARK VINA RESULT:    -3.432      1.963      4.324
REMARK INTER + INTRA:          -5.014
REMARK INTER:                  -5.394
REMARK INTRA:                   0.379
REMARK UNBOUND:                 0.223
REMARK SMILES CC1=CCC[C@@H](C)C(=O)C[C@H](C(C)C)C(=O)C1
REMARK SMILES IDX 8 1 9 2 6 3 7 4 5 5 4 6 3 7 2 8 1 9 10 11 11 12 15 13 16 14
REMARK SMILES IDX 17 15 12 17 13 18 14 19
REMARK H PARENT
REMARK Flexibility Score: 70.00
ROOT
ATOM      1  C   UNL     1      54.952  18.477  -4.429  1.00  0.00     0.136 C 
ATOM      2  O   UNL     1      56.028  18.996  -4.690  1.00  0.00    -0.299 OA
ENDROOT
BRANCH   1   3
ATOM      3  C   UNL     1      54.561  18.327  -2.966  1.00  0.00     0.053 C 
ATOM      4  C   UNL     1      55.294  19.362  -2.100  1.00  0.00     0.016 C 
BRANCH   3   5
ATOM      5  C   UNL     1      54.791  16.893  -2.429  1.00  0.00     0.015 C 
BRANCH   5   6
ATOM      6  C   UNL     1      53.522  16.130  -1.993  1.00  0.00     0.028 C 
BRANCH   6   7
ATOM      7  C   UNL     1      52.803  15.334  -3.058  1.00  0.00    -0.028 C 
ATOM      8  C   UNL     1      51.975  15.827  -4.011  1.00  0.00    -0.070 CG0
ATOM      9  C   UNL     1      51.493  14.880  -5.081  1.00  0.00     0.039 C 
ATOM     10  G   UNL     1      51.452  17.250  -4.020  1.00  0.00     0.000 G0
ENDBRANCH   6   7
ENDBRANCH   5   6
ENDBRANCH   3   5
ENDBRANCH   1   3
BRANCH   1  11
ATOM     11  C   UNL     1      54.092  17.992  -5.587  1.00  0.00     0.087 C 
BRANCH  11  12
ATOM     12  C   UNL     1      52.749  18.754  -5.742  1.00  0.00     0.066 C 
BRANCH  12  13
ATOM     13  C   UNL     1      51.558  17.885  -5.382  1.00  0.00     0.140 C 
ATOM     14  O   UNL     1      50.648  17.736  -6.185  1.00  0.00    -0.299 OA
BRANCH  13  15
ATOM     15  C   UNL     1      51.435  17.265  -4.009  1.00  0.00     0.106 CG0
ATOM     16  G   UNL     1      51.964  15.845  -4.033  1.00  0.00     0.000 G0
ENDBRANCH  13  15
ENDBRANCH  12  13
BRANCH  12  17
ATOM     17  C   UNL     1      52.756  20.142  -5.025  1.00  0.00    -0.006 C 
ATOM     18  C   UNL     1      51.543  20.416  -4.117  1.00  0.00     0.008 C 
ATOM     19  C   UNL     1      52.910  21.285  -6.042  1.00  0.00     0.008 C 
ENDBRANCH  12  17
ENDBRANCH  11  12
ENDBRANCH   1  11
TORSDOF 1
ENDMDL
MODEL 4
REMARK VINA RESULT:    -3.407      2.022      3.605
REMARK INTER + INTRA:          -4.976
REMARK INTER:                  -4.727
REMARK INTRA:                  -0.249
REMARK UNBOUND:                 0.223
REMARK SMILES CC1=CCC[C@@H](C)C(=O)C[C@H](C(C)C)C(=O)C1
REMARK SMILES IDX 8 1 9 2 6 3 7 4 5 5 4 6 3 7 2 8 1 9 10 11 11 12 15 13 16 14
REMARK SMILES IDX 17 15 12 17 13 18 14 19
REMARK H PARENT
REMARK Flexibility Score: 70.00
ROOT
ATOM      1  C   UNL     1      52.681  19.179  -5.583  1.00  0.00     0.136 C 
ATOM      2  O   UNL     1      52.885  20.349  -5.294  1.00  0.00    -0.299 OA
ENDROOT
BRANCH   1   3
ATOM      3  C   UNL     1      51.304  18.796  -6.106  1.00  0.00     0.053 C 
ATOM      4  C   UNL     1      50.663  19.973  -6.857  1.00  0.00     0.016 C 
BRANCH   3   5
ATOM      5  C   UNL     1      50.365  18.271  -4.993  1.00  0.00     0.015 C 
BRANCH   5   6
ATOM      6  C   UNL     1      50.033  16.765  -5.053  1.00  0.00     0.028 C 
BRANCH   6   7
ATOM      7  C   UNL     1      50.337  15.949  -3.817  1.00  0.00    -0.028 C 
ATOM      8  C   UNL     1      51.546  15.452  -3.457  1.00  0.00    -0.070 CG0
ATOM      9  C   UNL     1      51.663  14.806  -2.100  1.00  0.00     0.039 C 
ATOM     10  G   UNL     1      52.759  15.445  -4.365  1.00  0.00     0.000 G0
ENDBRANCH   6   7
ENDBRANCH   5   6
ENDBRANCH   3   5
ENDBRANCH   1   3
BRANCH   1  11
ATOM     11  C   UNL     1      53.811  18.182  -5.372  1.00  0.00     0.087 C 
BRANCH  11  12
ATOM     12  C   UNL     1      53.991  17.730  -3.898  1.00  0.00     0.066 C 
BRANCH  12  13
ATOM     13  C   UNL     1      53.901  16.221  -3.751  1.00  0.00     0.140 C 
ATOM     14  O   UNL     1      54.789  15.613  -3.173  1.00  0.00    -0.299 OA
BRANCH  13  15
ATOM     15  C   UNL     1      52.770  15.445  -4.385  1.00  0.00     0.106 CG0
ATOM     16  G   UNL     1      51.562  15.451  -3.470  1.00  0.00     0.000 G0
ENDBRANCH  13  15
ENDBRANCH  12  13
BRANCH  12  17
ATOM     17  C   UNL     1      55.254  18.356  -3.225  1.00  0.00    -0.006 C 
ATOM     18  C   UNL     1      54.964  19.336  -2.072  1.00  0.00     0.008 C 
ATOM     19  C   UNL     1      56.152  19.037  -4.269  1.00  0.00     0.008 C 
ENDBRANCH  12  17
ENDBRANCH  11  12
ENDBRANCH   1  11
TORSDOF 1
ENDMDL
MODEL 5
REMARK VINA RESULT:    -3.378      2.561      3.925
REMARK INTER + INTRA:          -4.932
REMARK INTER:                  -5.043
REMARK INTRA:                   0.111
REMARK UNBOUND:                 0.223
REMARK SMILES CC1=CCC[C@@H](C)C(=O)C[C@H](C(C)C)C(=O)C1
REMARK SMILES IDX 8 1 9 2 6 3 7 4 5 5 4 6 3 7 2 8 1 9 10 11 11 12 15 13 16 14
REMARK SMILES IDX 17 15 12 17 13 18 14 19
REMARK H PARENT
REMARK Flexibility Score: 70.00
ROOT
ATOM      1  C   UNL     1      52.526  20.573  -5.676  1.00  0.00     0.136 C 
ATOM      2  O   UNL     1      52.902  21.655  -6.104  1.00  0.00    -0.299 OA
ENDROOT
BRANCH   1   3
ATOM      3  C   UNL     1      51.069  20.431  -5.259  1.00  0.00     0.053 C 
ATOM      4  C   UNL     1      50.148  21.161  -6.248  1.00  0.00     0.016 C 
BRANCH   3   5
ATOM      5  C   UNL     1      50.812  20.906  -3.808  1.00  0.00     0.015 C 
BRANCH   5   6
ATOM      6  C   UNL     1      50.698  19.788  -2.749  1.00  0.00     0.028 C 
BRANCH   6   7
ATOM      7  C   UNL     1      49.982  18.524  -3.165  1.00  0.00    -0.028 C 
ATOM      8  C   UNL     1      50.503  17.273  -3.189  1.00  0.00    -0.070 CG0
ATOM      9  C   UNL     1      49.567  16.127  -3.478  1.00  0.00     0.039 C 
ATOM     10  G   UNL     1      51.979  16.971  -3.015  1.00  0.00     0.000 G0
ENDBRANCH   6   7
ENDBRANCH   5   6
ENDBRANCH   3   5
ENDBRANCH   1   3
BRANCH   1  11
ATOM     11  C   UNL     1      53.549  19.453  -5.563  1.00  0.00     0.087 C 
BRANCH  11  12
ATOM     12  C   UNL     1      53.558  18.738  -4.185  1.00  0.00     0.066 C 
BRANCH  12  13
ATOM     13  C   UNL     1      52.767  17.443  -4.211  1.00  0.00     0.140 C 
ATOM     14  O   UNL     1      52.703  16.790  -5.243  1.00  0.00    -0.299 OA
BRANCH  13  15
ATOM     15  C   UNL     1      51.983  16.987  -3.002  1.00  0.00     0.106 CG0
ATOM     16  G   UNL     1      50.510  17.286  -3.198  1.00  0.00     0.000 G0
ENDBRANCH  13  15
ENDBRANCH  12  13
BRANCH  12  17
ATOM     17  C   UNL     1      54.996  18.588  -3.593  1.00  0.00    -0.006 C 
ATOM     18  C   UNL     1      55.221  19.282  -2.236  1.00  0.00     0.008 C 
ATOM     19  C   UNL     1      56.057  19.063  -4.599  1.00  0.00     0.008 C 
ENDBRANCH  12  17
ENDBRANCH  11  12
ENDBRANCH   1  11
TORSDOF 1
ENDMDL
MODEL 6
REMARK VINA RESULT:    -3.361      1.944      4.201
REMARK INTER + INTRA:          -4.906
REMARK INTER:                  -5.037
REMARK INTRA:                   0.131
REMARK UNBOUND:                 0.223
REMARK SMILES CC1=CCC[C@@H](C)C(=O)C[C@H](C(C)C)C(=O)C1
REMARK SMILES IDX 8 1 9 2 6 3 7 4 5 5 4 6 3 7 2 8 1 9 10 11 11 12 15 13 16 14
REMARK SMILES IDX 17 15 12 17 13 18 14 19
REMARK H PARENT
REMARK Flexibility Score: 70.00
ROOT
ATOM      1  C   UNL     1      54.664  15.939  -1.202  1.00  0.00     0.136 C 
ATOM      2  O   UNL     1      55.428  16.431  -0.384  1.00  0.00    -0.299 OA
ENDROOT
BRANCH   1   3
ATOM      3  C   UNL     1      54.756  14.442  -1.462  1.00  0.00     0.053 C 
ATOM      4  C   UNL     1      55.963  14.119  -2.355  1.00  0.00     0.016 C 
BRANCH   3   5
ATOM      5  C   UNL     1      53.453  13.857  -2.059  1.00  0.00     0.015 C 
BRANCH   5   6
ATOM      6  C   UNL     1      53.510  13.488  -3.558  1.00  0.00     0.028 C 
BRANCH   6   7
ATOM      7  C   UNL     1      52.300  13.836  -4.394  1.00  0.00    -0.028 C 
ATOM      8  C   UNL     1      52.202  14.850  -5.287  1.00  0.00    -0.070 CG0
ATOM      9  C   UNL     1      50.959  14.919  -6.137  1.00  0.00     0.039 C 
ATOM     10  G   UNL     1      53.233  15.953  -5.427  1.00  0.00     0.000 G0
ENDBRANCH   6   7
ENDBRANCH   5   6
ENDBRANCH   3   5
ENDBRANCH   1   3
BRANCH   1  11
ATOM     11  C   UNL     1      53.696  16.863  -1.925  1.00  0.00     0.087 C 
BRANCH  11  12
ATOM     12  C   UNL     1      54.153  17.270  -3.351  1.00  0.00     0.066 C 
BRANCH  12  13
ATOM     13  C   UNL     1      53.072  17.016  -4.388  1.00  0.00     0.140 C 
ATOM     14  O   UNL     1      52.013  17.623  -4.324  1.00  0.00    -0.299 OA
BRANCH  13  15
ATOM     15  C   UNL     1      53.251  15.958  -5.452  1.00  0.00     0.106 CG0
ATOM     16  G   UNL     1      52.217  14.864  -5.273  1.00  0.00     0.000 G0
ENDBRANCH  13  15
ENDBRANCH  12  13
BRANCH  12  17
ATOM     17  C   UNL     1      54.752  18.712  -3.405  1.00  0.00    -0.006 C 
ATOM     18  C   UNL     1      55.912  18.902  -4.400  1.00  0.00     0.008 C 
ATOM     19  C   UNL     1      55.189  19.177  -2.007  1.00  0.00     0.008 C 
ENDBRANCH  12  17
ENDBRANCH  11  12
ENDBRANCH   1  11
TORSDOF 1
ENDMDL
MODEL 7
REMARK VINA RESULT:    -3.348      1.556      2.007
REMARK INTER + INTRA:          -4.886
REMARK INTER:                  -4.963
REMARK INTRA:                   0.077
REMARK UNBOUND:                 0.223
REMARK SMILES CC1=CCC[C@@H](C)C(=O)C[C@H](C(C)C)C(=O)C1
REMARK SMILES IDX 8 1 9 2 6 3 7 4 5 5 4 6 3 7 2 8 1 9 10 11 11 12 15 13 16 14
REMARK SMILES IDX 17 15 12 17 13 18 14 19
REMARK H PARENT
REMARK Flexibility Score: 70.00
ROOT
ATOM      1  C   UNL     1      54.979  18.062  -3.339  1.00  0.00     0.136 C 
ATOM      2  O   UNL     1      54.854  18.944  -2.502  1.00  0.00    -0.299 OA
ENDROOT
BRANCH   1   3
ATOM      3  C   UNL     1      55.171  18.470  -4.793  1.00  0.00     0.053 C 
ATOM      4  C   UNL     1      56.390  19.394  -4.940  1.00  0.00     0.016 C 
BRANCH   3   5
ATOM      5  C   UNL     1      53.906  19.121  -5.405  1.00  0.00     0.015 C 
BRANCH   5   6
ATOM      6  C   UNL     1      52.563  18.469  -5.011  1.00  0.00     0.028 C 
BRANCH   6   7
ATOM      7  C   UNL     1      52.004  17.431  -5.956  1.00  0.00    -0.028 C 
ATOM      8  C   UNL     1      52.265  16.102  -5.938  1.00  0.00    -0.070 CG0
ATOM      9  C   UNL     1      51.472  15.218  -6.868  1.00  0.00     0.039 C 
ATOM     10  G   UNL     1      53.351  15.467  -5.093  1.00  0.00     0.000 G0
ENDBRANCH   6   7
ENDBRANCH   5   6
ENDBRANCH   3   5
ENDBRANCH   1   3
BRANCH   1  11
ATOM     11  C   UNL     1      54.904  16.616  -2.872  1.00  0.00     0.087 C 
BRANCH  11  12
ATOM     12  C   UNL     1      53.468  16.131  -2.539  1.00  0.00     0.066 C 
BRANCH  12  13
ATOM     13  C   UNL     1      52.874  15.302  -3.664  1.00  0.00     0.140 C 
ATOM     14  O   UNL     1      52.041  14.443  -3.412  1.00  0.00    -0.299 OA
BRANCH  13  15
ATOM     15  C   UNL     1      53.359  15.461  -5.086  1.00  0.00     0.106 CG0
ATOM     16  G   UNL     1      52.269  16.081  -5.938  1.00  0.00     0.000 G0
ENDBRANCH  13  15
ENDBRANCH  12  13
BRANCH  12  17
ATOM     17  C   UNL     1      53.370  15.452  -1.136  1.00  0.00    -0.006 C 
ATOM     18  C   UNL     1      53.199  16.422   0.049  1.00  0.00     0.008 C 
ATOM     19  C   UNL     1      54.578  14.536  -0.883  1.00  0.00     0.008 C 
ENDBRANCH  12  17
ENDBRANCH  11  12
ENDBRANCH   1  11
TORSDOF 1
ENDMDL
MODEL 8
REMARK VINA RESULT:    -3.289      2.240      5.324
REMARK INTER + INTRA:          -4.795
REMARK INTER:                  -4.705
REMARK INTRA:                  -0.091
REMARK UNBOUND:                 0.223
REMARK SMILES CC1=CCC[C@@H](C)C(=O)C[C@H](C(C)C)C(=O)C1
REMARK SMILES IDX 8 1 9 2 6 3 7 4 5 5 4 6 3 7 2 8 1 9 10 11 11 12 15 13 16 14
REMARK SMILES IDX 17 15 12 17 13 18 14 19
REMARK H PARENT
REMARK Flexibility Score: 70.00
ROOT
ATOM      1  C   UNL     1      52.264  15.745  -5.470  1.00  0.00     0.136 C 
ATOM      2  O   UNL     1      51.042  15.706  -5.485  1.00  0.00    -0.299 OA
ENDROOT
BRANCH   1   3
ATOM      3  C   UNL     1      53.010  14.635  -4.744  1.00  0.00     0.053 C 
ATOM      4  C   UNL     1      52.374  13.269  -5.042  1.00  0.00     0.016 C 
BRANCH   3   5
ATOM      5  C   UNL     1      53.110  14.879  -3.218  1.00  0.00     0.015 C 
BRANCH   5   6
ATOM      6  C   UNL     1      54.518  15.222  -2.686  1.00  0.00     0.028 C 
BRANCH   6   7
ATOM      7  C   UNL     1      54.703  16.594  -2.080  1.00  0.00    -0.028 C 
ATOM      8  C   UNL     1      54.931  17.748  -2.752  1.00  0.00    -0.070 CG0
ATOM      9  C   UNL     1      54.920  19.034  -1.965  1.00  0.00     0.039 C 
ATOM     10  G   UNL     1      55.268  17.811  -4.229  1.00  0.00     0.000 G0
ENDBRANCH   6   7
ENDBRANCH   5   6
ENDBRANCH   3   5
ENDBRANCH   1   3
BRANCH   1  11
ATOM     11  C   UNL     1      52.951  16.917  -6.155  1.00  0.00     0.087 C 
BRANCH  11  12
ATOM     12  C   UNL     1      52.918  18.236  -5.339  1.00  0.00     0.066 C 
BRANCH  12  13
ATOM     13  C   UNL     1      54.312  18.715  -4.975  1.00  0.00     0.140 C 
ATOM     14  O   UNL     1      54.693  19.817  -5.344  1.00  0.00    -0.299 OA
BRANCH  13  15
ATOM     15  C   UNL     1      55.274  17.815  -4.234  1.00  0.00     0.106 CG0
ATOM     16  G   UNL     1      54.914  17.775  -2.762  1.00  0.00     0.000 G0
ENDBRANCH  13  15
ENDBRANCH  12  13
BRANCH  12  17
ATOM     17  C   UNL     1      52.027  19.334  -6.003  1.00  0.00    -0.006 C 
ATOM     18  C   UNL     1      51.280  20.255  -5.019  1.00  0.00     0.008 C 
ATOM     19  C   UNL     1      51.025  18.708  -6.986  1.00  0.00     0.008 C 
ENDBRANCH  12  17
ENDBRANCH  11  12
ENDBRANCH   1  11
TORSDOF 1
ENDMDL
MODEL 9
REMARK VINA RESULT:    -3.109      2.348      4.597
REMARK INTER + INTRA:          -4.521
REMARK INTER:                  -4.866
REMARK INTRA:                   0.345
REMARK UNBOUND:                 0.223
REMARK SMILES CC1=CCC[C@@H](C)C(=O)C[C@H](C(C)C)C(=O)C1
REMARK SMILES IDX 8 1 9 2 6 3 7 4 5 5 4 6 3 7 2 8 1 9 10 11 11 12 15 13 16 14
REMARK SMILES IDX 17 15 12 17 13 18 14 19
REMARK H PARENT
REMARK Flexibility Score: 70.00
ROOT
ATOM      1  C   UNL     1      54.048  18.643  -5.268  1.00  0.00     0.136 C 
ATOM      2  O   UNL     1      54.174  17.593  -5.882  1.00  0.00    -0.299 OA
ENDROOT
BRANCH   1   3
ATOM      3  C   UNL     1      55.166  19.064  -4.324  1.00  0.00     0.053 C 
ATOM      4  C   UNL     1      56.452  19.367  -5.107  1.00  0.00     0.016 C 
BRANCH   3   5
ATOM      5  C   UNL     1      55.429  18.024  -3.207  1.00  0.00     0.015 C 
BRANCH   5   6
ATOM      6  C   UNL     1      54.388  17.991  -2.066  1.00  0.00     0.028 C 
BRANCH   6   7
ATOM      7  C   UNL     1      53.343  16.902  -2.127  1.00  0.00    -0.028 C 
ATOM      8  C   UNL     1      52.003  17.076  -2.225  1.00  0.00    -0.070 CG0
ATOM      9  C   UNL     1      51.149  15.851  -2.439  1.00  0.00     0.039 C 
ATOM     10  G   UNL     1      51.312  18.415  -2.059  1.00  0.00     0.000 G0
ENDBRANCH   6   7
ENDBRANCH   5   6
ENDBRANCH   3   5
ENDBRANCH   1   3
BRANCH   1  11
ATOM     11  C   UNL     1      52.769  19.441  -5.470  1.00  0.00     0.087 C 
BRANCH  11  12
ATOM     12  C   UNL     1      51.570  18.945  -4.618  1.00  0.00     0.066 C 
BRANCH  12  13
ATOM     13  C   UNL     1      51.697  19.360  -3.163  1.00  0.00     0.140 C 
ATOM     14  O   UNL     1      52.193  20.440  -2.879  1.00  0.00    -0.299 OA
BRANCH  13  15
ATOM     15  C   UNL     1      51.298  18.418  -2.050  1.00  0.00     0.106 CG0
ATOM     16  G   UNL     1      51.996  17.085  -2.225  1.00  0.00     0.000 G0
ENDBRANCH  13  15
ENDBRANCH  12  13
BRANCH  12  17
ATOM     17  C   UNL     1      50.189  19.297  -5.256  1.00  0.00    -0.006 C 
ATOM     18  C   UNL     1      50.031  18.898  -6.736  1.00  0.00     0.008 C 
ATOM     19  C   UNL     1      49.871  20.791  -5.087  1.00  0.00     0.008 C 
ENDBRANCH  12  17
ENDBRANCH  11  12
ENDBRANCH   1  11
TORSDOF 1
ENDMDL
