MODEL 1
REMARK VINA RESULT:    -6.853      0.000      0.000
REMARK INTER + INTRA:         -11.558
REMARK INTER:                 -10.058
REMARK INTRA:                  -1.500
REMARK UNBOUND:                -1.500
REMARK SMILES O=c1c(O[C@@H]2O[C@H](CO)[C@@H](O)[C@@H](O)[C@@H]2O)c(-c2ccc(O)c(O)c2)oc2cc(O)cc(O)c12
REMARK SMILES IDX 4 1 3 2 16 3 25 4 2 5 26 6 1 7 33 8 27 9 31 10 28 11 30 12
REMARK SMILES IDX 17 13 18 14 19 15 20 16 24 17 22 18 21 19 23 21 32 23 29 25
REMARK SMILES IDX 5 27 14 28 6 29 12 30 7 31 10 32 15 33 13 35 8 37 9 38 11 40
REMARK H PARENT 21 20 23 22 32 24 29 26 15 34 13 36 9 39 11 41
REMARK Flexibility Score: inf
ROOT
ATOM      1  O   UNL     1       0.957 -21.448  26.673  1.00  0.00    -0.454 OA
ENDROOT
BRANCH   1   2
ATOM      2  C   UNL     1       0.409 -22.084  27.802  1.00  0.00     0.214 A 
ATOM      3  C   UNL     1      -0.346 -21.407  28.784  1.00  0.00     0.180 A 
ATOM      4  O   UNL     1      -0.975 -22.101  29.726  1.00  0.00    -0.452 OA
ATOM      5  C   UNL     1       0.590 -23.467  27.932  1.00  0.00     0.239 A 
ATOM      6  C   UNL     1      -0.876 -23.418  29.852  1.00  0.00     0.146 A 
ATOM      7  O   UNL     1       1.270 -24.065  27.059  1.00  0.00    -0.285 OA
ATOM      8  C   UNL     1      -0.035 -24.169  28.991  1.00  0.00     0.111 A 
ATOM      9  C   UNL     1      -1.612 -24.051  30.856  1.00  0.00     0.094 A 
ATOM     10  C   UNL     1       0.087 -25.573  29.215  1.00  0.00     0.134 A 
ATOM     11  C   UNL     1      -1.532 -25.434  31.026  1.00  0.00     0.123 A 
ATOM     12  C   UNL     1      -0.689 -26.184  30.207  1.00  0.00     0.093 A 
BRANCH   3  13
ATOM     13  C   UNL     1      -0.446 -19.939  28.839  1.00  0.00     0.025 A 
ATOM     14  C   UNL     1       0.584 -19.189  29.422  1.00  0.00     0.016 A 
ATOM     15  C   UNL     1       0.509 -17.794  29.451  1.00  0.00     0.051 A 
ATOM     16  C   UNL     1      -0.586 -17.134  28.884  1.00  0.00     0.157 A 
ATOM     17  C   UNL     1      -1.532 -19.277  28.245  1.00  0.00     0.062 A 
ATOM     18  C   UNL     1      -1.611 -17.877  28.274  1.00  0.00     0.158 A 
BRANCH  16  19
ATOM     19  O   UNL     1      -0.636 -15.741  28.933  1.00  0.00    -0.504 OA
ATOM     20  H   UNL     1      -0.331 -15.221  29.746  1.00  0.00     0.293 HD
ENDBRANCH  16  19
BRANCH  18  21
ATOM     21  O   UNL     1      -2.701 -17.225  27.700  1.00  0.00    -0.504 OA
ATOM     22  H   UNL     1      -3.653 -17.514  27.890  1.00  0.00     0.293 HD
ENDBRANCH  18  21
ENDBRANCH   3  13
BRANCH  10  23
ATOM     23  O   UNL     1       0.968 -26.401  28.513  1.00  0.00    -0.507 OA
ATOM     24  H   UNL     1       0.689 -27.093  27.834  1.00  0.00     0.293 HD
ENDBRANCH  10  23
BRANCH  11  25
ATOM     25  O   UNL     1      -2.279 -26.072  32.013  1.00  0.00    -0.508 OA
ATOM     26  H   UNL     1      -1.834 -26.546  32.791  1.00  0.00     0.293 HD
ENDBRANCH  11  25
ENDBRANCH   1   2
BRANCH   1  27
ATOM     27  C   UNL     1       0.215 -21.038  25.518  1.00  0.00     0.339 C 
ATOM     28  C   UNL     1       0.901 -19.829  24.857  1.00  0.00     0.214 C 
ATOM     29  O   UNL     1       0.019 -22.137  24.631  1.00  0.00    -0.332 OA
ATOM     30  C   UNL     1       2.307 -20.220  24.346  1.00  0.00     0.180 C 
ATOM     31  C   UNL     1       0.986 -22.268  23.592  1.00  0.00     0.179 C 
ATOM     32  C   UNL     1       2.389 -21.722  23.965  1.00  0.00     0.177 C 
BRANCH  28  33
ATOM     33  O   UNL     1       0.991 -18.777  25.781  1.00  0.00    -0.384 OA
ATOM     34  H   UNL     1       1.012 -19.191  26.683  1.00  0.00     0.211 HD
ENDBRANCH  28  33
BRANCH  30  35
ATOM     35  O   UNL     1       2.683 -19.387  23.277  1.00  0.00    -0.387 OA
ATOM     36  H   UNL     1       3.085 -19.962  22.575  1.00  0.00     0.211 HD
ENDBRANCH  30  35
BRANCH  31  37
ATOM     37  C   UNL     1       1.051 -23.749  23.195  1.00  0.00     0.191 C 
BRANCH  37  38
ATOM     38  O   UNL     1      -0.229 -24.222  22.875  1.00  0.00    -0.394 OA
ATOM     39  H   UNL     1      -0.198 -25.206  22.997  1.00  0.00     0.210 HD
ENDBRANCH  37  38
ENDBRANCH  31  37
BRANCH  32  40
ATOM     40  O   UNL     1       3.283 -21.914  22.897  1.00  0.00    -0.387 OA
ATOM     41  H   UNL     1       4.096 -22.339  23.279  1.00  0.00     0.211 HD
ENDBRANCH  32  40
ENDBRANCH   1  27
TORSDOF 12
ENDMDL
MODEL 2
REMARK VINA RESULT:    -6.838      1.994      7.469
REMARK INTER + INTRA:         -11.535
REMARK INTER:                  -9.788
REMARK INTRA:                  -1.747
REMARK UNBOUND:                -1.500
REMARK SMILES O=c1c(O[C@@H]2O[C@H](CO)[C@@H](O)[C@@H](O)[C@@H]2O)c(-c2ccc(O)c(O)c2)oc2cc(O)cc(O)c12
REMARK SMILES IDX 4 1 3 2 16 3 25 4 2 5 26 6 1 7 33 8 27 9 31 10 28 11 30 12
REMARK SMILES IDX 17 13 18 14 19 15 20 16 24 17 22 18 21 19 23 21 32 23 29 25
REMARK SMILES IDX 5 27 14 28 6 29 12 30 7 31 10 32 15 33 13 35 8 37 9 38 11 40
REMARK H PARENT 21 20 23 22 32 24 29 26 15 34 13 36 9 39 11 41
REMARK Flexibility Score: inf
ROOT
ATOM      1  O   UNL     1      -1.154 -20.763  28.602  1.00  0.00    -0.454 OA
ENDROOT
BRANCH   1   2
ATOM      2  C   UNL     1      -1.049 -19.526  27.940  1.00  0.00     0.214 A 
ATOM      3  C   UNL     1      -0.367 -19.356  26.715  1.00  0.00     0.180 A 
ATOM      4  O   UNL     1      -0.458 -18.202  26.066  1.00  0.00    -0.452 OA
ATOM      5  C   UNL     1      -1.690 -18.418  28.508  1.00  0.00     0.239 A 
ATOM      6  C   UNL     1      -1.102 -17.144  26.542  1.00  0.00     0.146 A 
ATOM      7  O   UNL     1      -2.289 -18.572  29.604  1.00  0.00    -0.285 OA
ATOM      8  C   UNL     1      -1.706 -17.178  27.825  1.00  0.00     0.111 A 
ATOM      9  C   UNL     1      -1.167 -15.991  25.757  1.00  0.00     0.094 A 
ATOM     10  C   UNL     1      -2.327 -15.991  28.317  1.00  0.00     0.134 A 
ATOM     11  C   UNL     1      -1.830 -14.854  26.223  1.00  0.00     0.123 A 
ATOM     12  C   UNL     1      -2.405 -14.861  27.493  1.00  0.00     0.093 A 
BRANCH   3  13
ATOM     13  C   UNL     1       0.483 -20.404  26.126  1.00  0.00     0.025 A 
ATOM     14  C   UNL     1       1.817 -20.534  26.535  1.00  0.00     0.016 A 
ATOM     15  C   UNL     1       2.621 -21.544  26.001  1.00  0.00     0.051 A 
ATOM     16  C   UNL     1       2.097 -22.445  25.067  1.00  0.00     0.157 A 
ATOM     17  C   UNL     1      -0.052 -21.323  25.209  1.00  0.00     0.062 A 
ATOM     18  C   UNL     1       0.753 -22.337  24.671  1.00  0.00     0.158 A 
BRANCH  16  19
ATOM     19  O   UNL     1       2.925 -23.440  24.548  1.00  0.00    -0.504 OA
ATOM     20  H   UNL     1       2.884 -23.719  23.575  1.00  0.00     0.293 HD
ENDBRANCH  16  19
BRANCH  18  21
ATOM     21  O   UNL     1       0.223 -23.236  23.747  1.00  0.00    -0.504 OA
ATOM     22  H   UNL     1      -0.379 -23.998  24.035  1.00  0.00     0.293 HD
ENDBRANCH  18  21
ENDBRANCH   3  13
BRANCH  10  23
ATOM     23  O   UNL     1      -2.853 -15.862  29.605  1.00  0.00    -0.507 OA
ATOM     24  H   UNL     1      -3.662 -16.357  29.947  1.00  0.00     0.293 HD
ENDBRANCH  10  23
BRANCH  11  25
ATOM     25  O   UNL     1      -1.914 -13.709  25.435  1.00  0.00    -0.508 OA
ATOM     26  H   UNL     1      -2.804 -13.365  25.094  1.00  0.00     0.293 HD
ENDBRANCH  11  25
ENDBRANCH   1   2
BRANCH   1  27
ATOM     27  C   UNL     1      -0.489 -21.101  29.825  1.00  0.00     0.339 C 
ATOM     28  C   UNL     1      -1.483 -21.770  30.792  1.00  0.00     0.214 C 
ATOM     29  O   UNL     1       0.670 -21.888  29.566  1.00  0.00    -0.332 OA
ATOM     30  C   UNL     1      -1.997 -23.103  30.201  1.00  0.00     0.180 C 
ATOM     31  C   UNL     1       0.482 -23.300  29.629  1.00  0.00     0.179 C 
ATOM     32  C   UNL     1      -0.953 -23.761  29.260  1.00  0.00     0.177 C 
BRANCH  28  33
ATOM     33  O   UNL     1      -2.556 -20.899  31.040  1.00  0.00    -0.384 OA
ATOM     34  H   UNL     1      -3.325 -21.237  30.511  1.00  0.00     0.211 HD
ENDBRANCH  28  33
BRANCH  30  35
ATOM     35  O   UNL     1      -2.390 -23.972  31.235  1.00  0.00    -0.387 OA
ATOM     36  H   UNL     1      -2.293 -24.902  30.900  1.00  0.00     0.211 HD
ENDBRANCH  30  35
BRANCH  31  37
ATOM     37  C   UNL     1       1.530 -23.955  28.719  1.00  0.00     0.191 C 
BRANCH  37  38
ATOM     38  O   UNL     1       0.923 -24.443  27.553  1.00  0.00    -0.394 OA
ATOM     39  H   UNL     1       1.648 -24.532  26.881  1.00  0.00     0.210 HD
ENDBRANCH  37  38
ENDBRANCH  31  37
BRANCH  32  40
ATOM     40  O   UNL     1      -1.042 -25.163  29.322  1.00  0.00    -0.387 OA
ATOM     41  H   UNL     1      -0.903 -25.415  30.273  1.00  0.00     0.211 HD
ENDBRANCH  32  40
ENDBRANCH   1  27
TORSDOF 12
ENDMDL
MODEL 3
REMARK VINA RESULT:    -6.824      2.203      5.756
REMARK INTER + INTRA:         -11.515
REMARK INTER:                  -9.898
REMARK INTRA:                  -1.618
REMARK UNBOUND:                -1.500
REMARK SMILES O=c1c(O[C@@H]2O[C@H](CO)[C@@H](O)[C@@H](O)[C@@H]2O)c(-c2ccc(O)c(O)c2)oc2cc(O)cc(O)c12
REMARK SMILES IDX 4 1 3 2 16 3 25 4 2 5 26 6 1 7 33 8 27 9 31 10 28 11 30 12
REMARK SMILES IDX 17 13 18 14 19 15 20 16 24 17 22 18 21 19 23 21 32 23 29 25
REMARK SMILES IDX 5 27 14 28 6 29 12 30 7 31 10 32 15 33 13 35 8 37 9 38 11 40
REMARK H PARENT 21 20 23 22 32 24 29 26 15 34 13 36 9 39 11 41
REMARK Flexibility Score: inf
ROOT
ATOM      1  O   UNL     1      -0.365 -18.824  26.519  1.00  0.00    -0.454 OA
ENDROOT
BRANCH   1   2
ATOM      2  C   UNL     1      -0.501 -19.846  27.476  1.00  0.00     0.214 A 
ATOM      3  C   UNL     1       0.208 -21.066  27.415  1.00  0.00     0.180 A 
ATOM      4  O   UNL     1       0.159 -21.907  28.441  1.00  0.00    -0.452 OA
ATOM      5  C   UNL     1      -1.353 -19.621  28.565  1.00  0.00     0.239 A 
ATOM      6  C   UNL     1      -0.592 -21.706  29.517  1.00  0.00     0.146 A 
ATOM      7  O   UNL     1      -1.988 -18.535  28.611  1.00  0.00    -0.285 OA
ATOM      8  C   UNL     1      -1.439 -20.572  29.609  1.00  0.00     0.111 A 
ATOM      9  C   UNL     1      -0.537 -22.639  30.555  1.00  0.00     0.094 A 
ATOM     10  C   UNL     1      -2.275 -20.440  30.758  1.00  0.00     0.134 A 
ATOM     11  C   UNL     1      -1.314 -22.467  31.701  1.00  0.00     0.123 A 
ATOM     12  C   UNL     1      -2.173 -21.374  31.797  1.00  0.00     0.093 A 
BRANCH   3  13
ATOM     13  C   UNL     1       0.985 -21.476  26.235  1.00  0.00     0.025 A 
ATOM     14  C   UNL     1       2.384 -21.386  26.253  1.00  0.00     0.016 A 
ATOM     15  C   UNL     1       3.130 -21.801  25.146  1.00  0.00     0.051 A 
ATOM     16  C   UNL     1       2.489 -22.325  24.018  1.00  0.00     0.157 A 
ATOM     17  C   UNL     1       0.343 -22.027  25.115  1.00  0.00     0.062 A 
ATOM     18  C   UNL     1       1.088 -22.442  24.002  1.00  0.00     0.158 A 
BRANCH  16  19
ATOM     19  O   UNL     1       3.259 -22.726  22.927  1.00  0.00    -0.504 OA
ATOM     20  H   UNL     1       2.853 -23.193  22.126  1.00  0.00     0.293 HD
ENDBRANCH  16  19
BRANCH  18  21
ATOM     21  O   UNL     1       0.444 -22.972  22.885  1.00  0.00    -0.504 OA
ATOM     22  H   UNL     1       0.798 -23.793  22.409  1.00  0.00     0.293 HD
ENDBRANCH  18  21
ENDBRANCH   3  13
BRANCH  10  23
ATOM     23  O   UNL     1      -3.234 -19.434  30.914  1.00  0.00    -0.507 OA
ATOM     24  H   UNL     1      -4.154 -19.573  31.303  1.00  0.00     0.293 HD
ENDBRANCH  10  23
BRANCH  11  25
ATOM     25  O   UNL     1      -1.248 -23.384  32.747  1.00  0.00    -0.508 OA
ATOM     26  H   UNL     1      -1.663 -23.188  33.651  1.00  0.00     0.293 HD
ENDBRANCH  11  25
ENDBRANCH   1   2
BRANCH   1  27
ATOM     27  C   UNL     1       0.625 -17.788  26.556  1.00  0.00     0.339 C 
ATOM     28  C   UNL     1       1.058 -17.428  25.124  1.00  0.00     0.214 C 
ATOM     29  O   UNL     1       0.154 -16.671  27.307  1.00  0.00    -0.332 OA
ATOM     30  C   UNL     1      -0.136 -16.852  24.327  1.00  0.00     0.180 C 
ATOM     31  C   UNL     1      -0.467 -15.637  26.546  1.00  0.00     0.179 C 
ATOM     32  C   UNL     1      -1.158 -16.137  25.250  1.00  0.00     0.177 C 
BRANCH  28  33
ATOM     33  O   UNL     1       1.567 -18.569  24.485  1.00  0.00    -0.384 OA
ATOM     34  H   UNL     1       1.196 -19.354  24.967  1.00  0.00     0.211 HD
ENDBRANCH  28  33
BRANCH  30  35
ATOM     35  O   UNL     1       0.328 -16.005  23.304  1.00  0.00    -0.387 OA
ATOM     36  H   UNL     1      -0.429 -15.425  23.028  1.00  0.00     0.211 HD
ENDBRANCH  30  35
BRANCH  31  37
ATOM     37  C   UNL     1      -1.460 -14.911  27.464  1.00  0.00     0.191 C 
BRANCH  37  38
ATOM     38  O   UNL     1      -2.762 -15.377  27.235  1.00  0.00    -0.394 OA
ATOM     39  H   UNL     1      -3.316 -14.573  27.058  1.00  0.00     0.210 HD
ENDBRANCH  37  38
ENDBRANCH  31  37
BRANCH  32  40
ATOM     40  O   UNL     1      -1.764 -15.060  24.579  1.00  0.00    -0.387 OA
ATOM     41  H   UNL     1      -1.052 -14.386  24.421  1.00  0.00     0.211 HD
ENDBRANCH  32  40
ENDBRANCH   1  27
TORSDOF 12
ENDMDL
MODEL 4
REMARK VINA RESULT:    -6.823      2.044      6.185
REMARK INTER + INTRA:         -11.514
REMARK INTER:                  -9.945
REMARK INTRA:                  -1.569
REMARK UNBOUND:                -1.500
REMARK SMILES O=c1c(O[C@@H]2O[C@H](CO)[C@@H](O)[C@@H](O)[C@@H]2O)c(-c2ccc(O)c(O)c2)oc2cc(O)cc(O)c12
REMARK SMILES IDX 4 1 3 2 16 3 25 4 2 5 26 6 1 7 33 8 27 9 31 10 28 11 30 12
REMARK SMILES IDX 17 13 18 14 19 15 20 16 24 17 22 18 21 19 23 21 32 23 29 25
REMARK SMILES IDX 5 27 14 28 6 29 12 30 7 31 10 32 15 33 13 35 8 37 9 38 11 40
REMARK H PARENT 21 20 23 22 32 24 29 26 15 34 13 36 9 39 11 41
REMARK Flexibility Score: inf
ROOT
ATOM      1  O   UNL     1       0.974 -19.856  25.490  1.00  0.00    -0.454 OA
ENDROOT
BRANCH   1   2
ATOM      2  C   UNL     1       0.068 -18.982  26.119  1.00  0.00     0.214 A 
ATOM      3  C   UNL     1      -0.497 -19.233  27.389  1.00  0.00     0.180 A 
ATOM      4  O   UNL     1      -1.205 -18.286  27.992  1.00  0.00    -0.452 OA
ATOM      5  C   UNL     1      -0.255 -17.785  25.467  1.00  0.00     0.239 A 
ATOM      6  C   UNL     1      -1.487 -17.115  27.433  1.00  0.00     0.146 A 
ATOM      7  O   UNL     1       0.245 -17.571  24.332  1.00  0.00    -0.285 OA
ATOM      8  C   UNL     1      -1.074 -16.825  26.108  1.00  0.00     0.111 A 
ATOM      9  C   UNL     1      -2.209 -16.177  28.174  1.00  0.00     0.094 A 
ATOM     10  C   UNL     1      -1.463 -15.579  25.531  1.00  0.00     0.134 A 
ATOM     11  C   UNL     1      -2.531 -14.936  27.622  1.00  0.00     0.123 A 
ATOM     12  C   UNL     1      -2.156 -14.645  26.311  1.00  0.00     0.093 A 
BRANCH   3  13
ATOM     13  C   UNL     1      -0.368 -20.528  28.076  1.00  0.00     0.025 A 
ATOM     14  C   UNL     1       0.900 -20.999  28.446  1.00  0.00     0.016 A 
ATOM     15  C   UNL     1       1.027 -22.214  29.124  1.00  0.00     0.051 A 
ATOM     16  C   UNL     1      -0.108 -22.962  29.455  1.00  0.00     0.157 A 
ATOM     17  C   UNL     1      -1.510 -21.263  28.431  1.00  0.00     0.062 A 
ATOM     18  C   UNL     1      -1.384 -22.483  29.110  1.00  0.00     0.158 A 
BRANCH  16  19
ATOM     19  O   UNL     1       0.050 -24.173  30.128  1.00  0.00    -0.504 OA
ATOM     20  H   UNL     1      -0.672 -24.883  30.134  1.00  0.00     0.293 HD
ENDBRANCH  16  19
BRANCH  18  21
ATOM     21  O   UNL     1      -2.520 -23.219  29.445  1.00  0.00    -0.504 OA
ATOM     22  H   UNL     1      -2.941 -23.870  28.792  1.00  0.00     0.293 HD
ENDBRANCH  18  21
ENDBRANCH   3  13
BRANCH  10  23
ATOM     23  O   UNL     1      -1.218 -15.224  24.201  1.00  0.00    -0.507 OA
ATOM     24  H   UNL     1      -0.305 -15.039  23.815  1.00  0.00     0.293 HD
ENDBRANCH  10  23
BRANCH  11  25
ATOM     25  O   UNL     1      -3.232 -13.989  28.364  1.00  0.00    -0.508 OA
ATOM     26  H   UNL     1      -2.809 -13.109  28.635  1.00  0.00     0.293 HD
ENDBRANCH  11  25
ENDBRANCH   1   2
BRANCH   1  27
ATOM     27  C   UNL     1       0.650 -20.740  24.410  1.00  0.00     0.339 C 
ATOM     28  C   UNL     1       1.759 -20.691  23.344  1.00  0.00     0.214 C 
ATOM     29  O   UNL     1       0.387 -22.053  24.898  1.00  0.00    -0.332 OA
ATOM     30  C   UNL     1       3.095 -21.203  23.931  1.00  0.00     0.180 C 
ATOM     31  C   UNL     1       1.500 -22.944  24.896  1.00  0.00     0.179 C 
ATOM     32  C   UNL     1       2.871 -22.239  25.064  1.00  0.00     0.177 C 
BRANCH  28  33
ATOM     33  O   UNL     1       1.903 -19.376  22.875  1.00  0.00    -0.384 OA
ATOM     34  H   UNL     1       1.515 -18.782  23.570  1.00  0.00     0.211 HD
ENDBRANCH  28  33
BRANCH  30  35
ATOM     35  O   UNL     1       3.909 -21.717  22.905  1.00  0.00    -0.387 OA
ATOM     36  H   UNL     1       4.208 -22.622  23.183  1.00  0.00     0.211 HD
ENDBRANCH  30  35
BRANCH  31  37
ATOM     37  C   UNL     1       1.269 -23.986  25.999  1.00  0.00     0.191 C 
BRANCH  37  38
ATOM     38  O   UNL     1       2.103 -25.095  25.802  1.00  0.00    -0.394 OA
ATOM     39  H   UNL     1       3.024 -24.788  26.009  1.00  0.00     0.210 HD
ENDBRANCH  37  38
ENDBRANCH  31  37
BRANCH  32  40
ATOM     40  O   UNL     1       3.906 -23.190  25.078  1.00  0.00    -0.387 OA
ATOM     41  H   UNL     1       3.533 -24.023  24.687  1.00  0.00     0.211 HD
ENDBRANCH  32  40
ENDBRANCH   1  27
TORSDOF 12
ENDMDL
MODEL 5
REMARK VINA RESULT:    -6.805      2.021      5.708
REMARK INTER + INTRA:         -11.488
REMARK INTER:                  -9.739
REMARK INTRA:                  -1.749
REMARK UNBOUND:                -1.500
REMARK SMILES O=c1c(O[C@@H]2O[C@H](CO)[C@@H](O)[C@@H](O)[C@@H]2O)c(-c2ccc(O)c(O)c2)oc2cc(O)cc(O)c12
REMARK SMILES IDX 4 1 3 2 16 3 25 4 2 5 26 6 1 7 33 8 27 9 31 10 28 11 30 12
REMARK SMILES IDX 17 13 18 14 19 15 20 16 24 17 22 18 21 19 23 21 32 23 29 25
REMARK SMILES IDX 5 27 14 28 6 29 12 30 7 31 10 32 15 33 13 35 8 37 9 38 11 40
REMARK H PARENT 21 20 23 22 32 24 29 26 15 34 13 36 9 39 11 41
REMARK Flexibility Score: inf
ROOT
ATOM      1  O   UNL     1      -0.036 -19.552  28.760  1.00  0.00    -0.454 OA
ENDROOT
BRANCH   1   2
ATOM      2  C   UNL     1      -0.523 -20.818  29.137  1.00  0.00     0.214 A 
ATOM      3  C   UNL     1      -0.416 -21.965  28.321  1.00  0.00     0.180 A 
ATOM      4  O   UNL     1      -0.741 -23.155  28.813  1.00  0.00    -0.452 OA
ATOM      5  C   UNL     1      -1.106 -20.949  30.404  1.00  0.00     0.239 A 
ATOM      6  C   UNL     1      -1.244 -23.331  30.028  1.00  0.00     0.146 A 
ATOM      7  O   UNL     1      -1.207 -19.922  31.124  1.00  0.00    -0.285 OA
ATOM      8  C   UNL     1      -1.510 -22.223  30.871  1.00  0.00     0.111 A 
ATOM      9  C   UNL     1      -1.514 -24.632  30.457  1.00  0.00     0.094 A 
ATOM     10  C   UNL     1      -2.115 -22.464  32.142  1.00  0.00     0.134 A 
ATOM     11  C   UNL     1      -2.048 -24.861  31.726  1.00  0.00     0.123 A 
ATOM     12  C   UNL     1      -2.343 -23.782  32.558  1.00  0.00     0.093 A 
BRANCH   3  13
ATOM     13  C   UNL     1       0.014 -21.903  26.914  1.00  0.00     0.025 A 
ATOM     14  C   UNL     1       1.022 -22.761  26.453  1.00  0.00     0.016 A 
ATOM     15  C   UNL     1       1.414 -22.727  25.112  1.00  0.00     0.051 A 
ATOM     16  C   UNL     1       0.792 -21.851  24.216  1.00  0.00     0.157 A 
ATOM     17  C   UNL     1      -0.630 -21.044  26.010  1.00  0.00     0.062 A 
ATOM     18  C   UNL     1      -0.237 -21.007  24.665  1.00  0.00     0.158 A 
BRANCH  16  19
ATOM     19  O   UNL     1       1.208 -21.837  22.885  1.00  0.00    -0.504 OA
ATOM     20  H   UNL     1       1.157 -22.660  22.297  1.00  0.00     0.293 HD
ENDBRANCH  16  19
BRANCH  18  21
ATOM     21  O   UNL     1      -0.867 -20.138  23.775  1.00  0.00    -0.504 OA
ATOM     22  H   UNL     1      -1.762 -19.715  23.991  1.00  0.00     0.293 HD
ENDBRANCH  18  21
ENDBRANCH   3  13
BRANCH  10  23
ATOM     23  O   UNL     1      -2.531 -21.453  33.012  1.00  0.00    -0.507 OA
ATOM     24  H   UNL     1      -3.493 -21.240  33.227  1.00  0.00     0.293 HD
ENDBRANCH  10  23
BRANCH  11  25
ATOM     25  O   UNL     1      -2.301 -26.158  32.167  1.00  0.00    -0.508 OA
ATOM     26  H   UNL     1      -2.225 -26.954  31.544  1.00  0.00     0.293 HD
ENDBRANCH  11  25
ENDBRANCH   1   2
BRANCH   1  27
ATOM     27  C   UNL     1       1.346 -19.174  28.741  1.00  0.00     0.339 C 
ATOM     28  C   UNL     1       1.518 -17.864  27.952  1.00  0.00     0.214 C 
ATOM     29  O   UNL     1       1.868 -19.115  30.065  1.00  0.00    -0.332 OA
ATOM     30  C   UNL     1       0.767 -16.708  28.655  1.00  0.00     0.180 C 
ATOM     31  C   UNL     1       1.835 -17.830  30.682  1.00  0.00     0.179 C 
ATOM     32  C   UNL     1       0.677 -16.924  30.189  1.00  0.00     0.177 C 
BRANCH  28  33
ATOM     33  O   UNL     1       1.038 -18.035  26.645  1.00  0.00    -0.384 OA
ATOM     34  H   UNL     1       1.826 -17.985  26.043  1.00  0.00     0.211 HD
ENDBRANCH  28  33
BRANCH  30  35
ATOM     35  O   UNL     1       1.365 -15.476  28.334  1.00  0.00    -0.387 OA
ATOM     36  H   UNL     1       2.224 -15.420  28.829  1.00  0.00     0.211 HD
ENDBRANCH  30  35
BRANCH  31  37
ATOM     37  C   UNL     1       1.772 -18.040  32.201  1.00  0.00     0.191 C 
BRANCH  37  38
ATOM     38  O   UNL     1       0.443 -17.987  32.643  1.00  0.00    -0.394 OA
ATOM     39  H   UNL     1      -0.047 -17.435  31.981  1.00  0.00     0.210 HD
ENDBRANCH  37  38
ENDBRANCH  31  37
BRANCH  32  40
ATOM     40  O   UNL     1       0.704 -15.692  30.866  1.00  0.00    -0.387 OA
ATOM     41  H   UNL     1       0.812 -14.989  30.173  1.00  0.00     0.211 HD
ENDBRANCH  32  40
ENDBRANCH   1  27
TORSDOF 12
ENDMDL
MODEL 6
REMARK VINA RESULT:    -6.800      1.551      4.982
REMARK INTER + INTRA:         -11.479
REMARK INTER:                  -9.617
REMARK INTRA:                  -1.862
REMARK UNBOUND:                -1.500
REMARK SMILES O=c1c(O[C@@H]2O[C@H](CO)[C@@H](O)[C@@H](O)[C@@H]2O)c(-c2ccc(O)c(O)c2)oc2cc(O)cc(O)c12
REMARK SMILES IDX 4 1 3 2 16 3 25 4 2 5 26 6 1 7 33 8 27 9 31 10 28 11 30 12
REMARK SMILES IDX 17 13 18 14 19 15 20 16 24 17 22 18 21 19 23 21 32 23 29 25
REMARK SMILES IDX 5 27 14 28 6 29 12 30 7 31 10 32 15 33 13 35 8 37 9 38 11 40
REMARK H PARENT 21 20 23 22 32 24 29 26 15 34 13 36 9 39 11 41
REMARK Flexibility Score: inf
ROOT
ATOM      1  O   UNL     1      -0.512 -19.810  28.451  1.00  0.00    -0.454 OA
ENDROOT
BRANCH   1   2
ATOM      2  C   UNL     1      -0.463 -21.214  28.533  1.00  0.00     0.214 A 
ATOM      3  C   UNL     1       0.275 -22.019  27.638  1.00  0.00     0.180 A 
ATOM      4  O   UNL     1       0.413 -23.317  27.881  1.00  0.00    -0.452 OA
ATOM      5  C   UNL     1      -1.151 -21.837  29.582  1.00  0.00     0.239 A 
ATOM      6  C   UNL     1      -0.175 -23.937  28.896  1.00  0.00     0.146 A 
ATOM      7  O   UNL     1      -1.814 -21.116  30.373  1.00  0.00    -0.285 OA
ATOM      8  C   UNL     1      -1.042 -23.236  29.772  1.00  0.00     0.111 A 
ATOM      9  C   UNL     1       0.071 -25.300  29.079  1.00  0.00     0.094 A 
ATOM     10  C   UNL     1      -1.702 -23.967  30.805  1.00  0.00     0.134 A 
ATOM     11  C   UNL     1      -0.532 -25.991  30.131  1.00  0.00     0.123 A 
ATOM     12  C   UNL     1      -1.409 -25.324  30.985  1.00  0.00     0.093 A 
BRANCH   3  13
ATOM     13  C   UNL     1       0.882 -21.488  26.407  1.00  0.00     0.025 A 
ATOM     14  C   UNL     1       2.239 -21.136  26.392  1.00  0.00     0.016 A 
ATOM     15  C   UNL     1       2.828 -20.658  25.219  1.00  0.00     0.051 A 
ATOM     16  C   UNL     1       2.076 -20.545  24.045  1.00  0.00     0.157 A 
ATOM     17  C   UNL     1       0.132 -21.401  25.223  1.00  0.00     0.062 A 
ATOM     18  C   UNL     1       0.721 -20.921  24.045  1.00  0.00     0.158 A 
BRANCH  16  19
ATOM     19  O   UNL     1       2.690 -20.060  22.890  1.00  0.00    -0.504 OA
ATOM     20  H   UNL     1       2.161 -19.640  22.137  1.00  0.00     0.293 HD
ENDBRANCH  16  19
BRANCH  18  21
ATOM     21  O   UNL     1      -0.032 -20.818  22.877  1.00  0.00    -0.504 OA
ATOM     22  H   UNL     1      -0.474 -21.628  22.458  1.00  0.00     0.293 HD
ENDBRANCH  18  21
ENDBRANCH   3  13
BRANCH  10  23
ATOM     23  O   UNL     1      -2.664 -23.417  31.657  1.00  0.00    -0.507 OA
ATOM     24  H   UNL     1      -3.265 -22.642  31.421  1.00  0.00     0.293 HD
ENDBRANCH  10  23
BRANCH  11  25
ATOM     25  O   UNL     1      -0.275 -27.346  30.331  1.00  0.00    -0.508 OA
ATOM     26  H   UNL     1       0.019 -27.947  29.570  1.00  0.00     0.293 HD
ENDBRANCH  11  25
ENDBRANCH   1   2
BRANCH   1  27
ATOM     27  C   UNL     1      -1.602 -19.054  27.910  1.00  0.00     0.339 C 
ATOM     28  C   UNL     1      -1.936 -17.878  28.844  1.00  0.00     0.214 C 
ATOM     29  O   UNL     1      -1.322 -18.657  26.571  1.00  0.00    -0.332 OA
ATOM     30  C   UNL     1      -0.740 -16.901  28.932  1.00  0.00     0.180 C 
ATOM     31  C   UNL     1      -0.744 -17.362  26.422  1.00  0.00     0.179 C 
ATOM     32  C   UNL     1       0.113 -16.911  27.635  1.00  0.00     0.177 C 
BRANCH  28  33
ATOM     33  O   UNL     1      -2.262 -18.366  30.119  1.00  0.00    -0.384 OA
ATOM     34  H   UNL     1      -3.238 -18.550  30.112  1.00  0.00     0.211 HD
ENDBRANCH  28  33
BRANCH  30  35
ATOM     35  O   UNL     1      -1.192 -15.608  29.251  1.00  0.00    -0.387 OA
ATOM     36  H   UNL     1      -0.518 -15.193  29.851  1.00  0.00     0.211 HD
ENDBRANCH  30  35
BRANCH  31  37
ATOM     37  C   UNL     1       0.079 -17.361  25.127  1.00  0.00     0.191 C 
BRANCH  37  38
ATOM     38  O   UNL     1       1.449 -17.319  25.422  1.00  0.00    -0.394 OA
ATOM     39  H   UNL     1       1.576 -16.549  26.035  1.00  0.00     0.210 HD
ENDBRANCH  37  38
ENDBRANCH  31  37
BRANCH  32  40
ATOM     40  O   UNL     1       0.663 -15.641  27.393  1.00  0.00    -0.387 OA
ATOM     41  H   UNL     1       1.107 -15.358  28.235  1.00  0.00     0.211 HD
ENDBRANCH  32  40
ENDBRANCH   1  27
TORSDOF 12
ENDMDL
MODEL 7
REMARK VINA RESULT:    -6.765      2.154      6.246
REMARK INTER + INTRA:         -11.428
REMARK INTER:                  -9.825
REMARK INTRA:                  -1.603
REMARK UNBOUND:                -1.500
REMARK SMILES O=c1c(O[C@@H]2O[C@H](CO)[C@@H](O)[C@@H](O)[C@@H]2O)c(-c2ccc(O)c(O)c2)oc2cc(O)cc(O)c12
REMARK SMILES IDX 4 1 3 2 16 3 25 4 2 5 26 6 1 7 33 8 27 9 31 10 28 11 30 12
REMARK SMILES IDX 17 13 18 14 19 15 20 16 24 17 22 18 21 19 23 21 32 23 29 25
REMARK SMILES IDX 5 27 14 28 6 29 12 30 7 31 10 32 15 33 13 35 8 37 9 38 11 40
REMARK H PARENT 21 20 23 22 32 24 29 26 15 34 13 36 9 39 11 41
REMARK Flexibility Score: inf
ROOT
ATOM      1  O   UNL     1       0.830 -20.353  26.120  1.00  0.00    -0.454 OA
ENDROOT
BRANCH   1   2
ATOM      2  C   UNL     1       0.017 -19.262  26.482  1.00  0.00     0.214 A 
ATOM      3  C   UNL     1      -0.574 -19.124  27.757  1.00  0.00     0.180 A 
ATOM      4  O   UNL     1      -1.182 -17.989  28.080  1.00  0.00    -0.452 OA
ATOM      5  C   UNL     1      -0.178 -18.245  25.540  1.00  0.00     0.239 A 
ATOM      6  C   UNL     1      -1.341 -16.978  27.236  1.00  0.00     0.146 A 
ATOM      7  O   UNL     1       0.344 -18.376  24.402  1.00  0.00    -0.285 OA
ATOM      8  C   UNL     1      -0.895 -17.077  25.893  1.00  0.00     0.111 A 
ATOM      9  C   UNL     1      -1.963 -15.815  27.695  1.00  0.00     0.094 A 
ATOM     10  C   UNL     1      -1.153 -15.986  25.009  1.00  0.00     0.134 A 
ATOM     11  C   UNL     1      -2.154 -14.730  26.837  1.00  0.00     0.123 A 
ATOM     12  C   UNL     1      -1.748 -14.820  25.507  1.00  0.00     0.093 A 
BRANCH   3  13
ATOM     13  C   UNL     1      -0.580 -20.208  28.752  1.00  0.00     0.025 A 
ATOM     14  C   UNL     1       0.375 -20.221  29.778  1.00  0.00     0.016 A 
ATOM     15  C   UNL     1       0.357 -21.231  30.743  1.00  0.00     0.051 A 
ATOM     16  C   UNL     1      -0.625 -22.228  30.704  1.00  0.00     0.157 A 
ATOM     17  C   UNL     1      -1.582 -21.191  28.728  1.00  0.00     0.062 A 
ATOM     18  C   UNL     1      -1.602 -22.207  29.694  1.00  0.00     0.158 A 
BRANCH  16  19
ATOM     19  O   UNL     1      -0.614 -23.226  31.678  1.00  0.00    -0.504 OA
ATOM     20  H   UNL     1       0.117 -23.926  31.723  1.00  0.00     0.293 HD
ENDBRANCH  16  19
BRANCH  18  21
ATOM     21  O   UNL     1      -2.587 -23.192  29.655  1.00  0.00    -0.504 OA
ATOM     22  H   UNL     1      -2.995 -23.567  30.503  1.00  0.00     0.293 HD
ENDBRANCH  18  21
ENDBRANCH   3  13
BRANCH  10  23
ATOM     23  O   UNL     1      -0.869 -16.007  23.640  1.00  0.00    -0.507 OA
ATOM     24  H   UNL     1      -1.103 -15.270  22.994  1.00  0.00     0.293 HD
ENDBRANCH  10  23
BRANCH  11  25
ATOM     25  O   UNL     1      -2.756 -13.561  27.295  1.00  0.00    -0.508 OA
ATOM     26  H   UNL     1      -3.073 -13.468  28.253  1.00  0.00     0.293 HD
ENDBRANCH  11  25
ENDBRANCH   1   2
BRANCH   1  27
ATOM     27  C   UNL     1       0.350 -21.650  25.748  1.00  0.00     0.339 C 
ATOM     28  C   UNL     1       0.667 -21.919  24.266  1.00  0.00     0.214 C 
ATOM     29  O   UNL     1       0.860 -22.646  26.630  1.00  0.00    -0.332 OA
ATOM     30  C   UNL     1       2.196 -21.947  24.038  1.00  0.00     0.180 C 
ATOM     31  C   UNL     1       2.054 -23.296  26.199  1.00  0.00     0.179 C 
ATOM     32  C   UNL     1       2.963 -22.413  25.304  1.00  0.00     0.177 C 
BRANCH  28  33
ATOM     33  O   UNL     1       0.072 -20.928  23.470  1.00  0.00    -0.384 OA
ATOM     34  H   UNL     1      -0.907 -20.983  23.630  1.00  0.00     0.211 HD
ENDBRANCH  28  33
BRANCH  30  35
ATOM     35  O   UNL     1       2.504 -22.740  22.917  1.00  0.00    -0.387 OA
ATOM     36  H   UNL     1       1.822 -22.554  22.221  1.00  0.00     0.211 HD
ENDBRANCH  30  35
BRANCH  31  37
ATOM     37  C   UNL     1       2.802 -23.781  27.448  1.00  0.00     0.191 C 
BRANCH  37  38
ATOM     38  O   UNL     1       3.392 -25.029  27.206  1.00  0.00    -0.394 OA
ATOM     39  H   UNL     1       3.628 -25.041  26.242  1.00  0.00     0.210 HD
ENDBRANCH  37  38
ENDBRANCH  31  37
BRANCH  32  40
ATOM     40  O   UNL     1       4.125 -23.120  24.948  1.00  0.00    -0.387 OA
ATOM     41  H   UNL     1       3.853 -23.791  24.268  1.00  0.00     0.211 HD
ENDBRANCH  32  40
ENDBRANCH   1  27
TORSDOF 12
ENDMDL
MODEL 8
REMARK VINA RESULT:    -6.657      1.583      2.811
REMARK INTER + INTRA:         -11.270
REMARK INTER:                  -9.585
REMARK INTRA:                  -1.685
REMARK UNBOUND:                -1.500
REMARK SMILES O=c1c(O[C@@H]2O[C@H](CO)[C@@H](O)[C@@H](O)[C@@H]2O)c(-c2ccc(O)c(O)c2)oc2cc(O)cc(O)c12
REMARK SMILES IDX 4 1 3 2 16 3 25 4 2 5 26 6 1 7 33 8 27 9 31 10 28 11 30 12
REMARK SMILES IDX 17 13 18 14 19 15 20 16 24 17 22 18 21 19 23 21 32 23 29 25
REMARK SMILES IDX 5 27 14 28 6 29 12 30 7 31 10 32 15 33 13 35 8 37 9 38 11 40
REMARK H PARENT 21 20 23 22 32 24 29 26 15 34 13 36 9 39 11 41
REMARK Flexibility Score: inf
ROOT
ATOM      1  O   UNL     1       1.345 -22.187  26.320  1.00  0.00    -0.454 OA
ENDROOT
BRANCH   1   2
ATOM      2  C   UNL     1       0.695 -22.850  27.378  1.00  0.00     0.214 A 
ATOM      3  C   UNL     1      -0.436 -22.329  28.042  1.00  0.00     0.180 A 
ATOM      4  O   UNL     1      -1.097 -23.085  28.910  1.00  0.00    -0.452 OA
ATOM      5  C   UNL     1       1.174 -24.110  27.761  1.00  0.00     0.239 A 
ATOM      6  C   UNL     1      -0.710 -24.306  29.259  1.00  0.00     0.146 A 
ATOM      7  O   UNL     1       2.188 -24.567  27.171  1.00  0.00    -0.285 OA
ATOM      8  C   UNL     1       0.488 -24.863  28.743  1.00  0.00     0.111 A 
ATOM      9  C   UNL     1      -1.503 -25.029  30.153  1.00  0.00     0.094 A 
ATOM     10  C   UNL     1       0.893 -26.151  29.205  1.00  0.00     0.134 A 
ATOM     11  C   UNL     1      -1.129 -26.313  30.550  1.00  0.00     0.123 A 
ATOM     12  C   UNL     1       0.060 -26.866  30.074  1.00  0.00     0.093 A 
BRANCH   3  13
ATOM     13  C   UNL     1      -0.910 -20.949  27.843  1.00  0.00     0.025 A 
ATOM     14  C   UNL     1      -1.466 -20.571  26.613  1.00  0.00     0.016 A 
ATOM     15  C   UNL     1      -1.944 -19.271  26.427  1.00  0.00     0.051 A 
ATOM     16  C   UNL     1      -1.887 -18.342  27.471  1.00  0.00     0.157 A 
ATOM     17  C   UNL     1      -0.877 -20.026  28.900  1.00  0.00     0.062 A 
ATOM     18  C   UNL     1      -1.354 -18.720  28.716  1.00  0.00     0.158 A 
BRANCH  16  19
ATOM     19  O   UNL     1      -2.367 -17.050  27.255  1.00  0.00    -0.504 OA
ATOM     20  H   UNL     1      -3.171 -16.686  27.751  1.00  0.00     0.293 HD
ENDBRANCH  16  19
BRANCH  18  21
ATOM     21  O   UNL     1      -1.303 -17.801  29.763  1.00  0.00    -0.504 OA
ATOM     22  H   UNL     1      -1.244 -16.804  29.590  1.00  0.00     0.293 HD
ENDBRANCH  18  21
ENDBRANCH   3  13
BRANCH  10  23
ATOM     23  O   UNL     1       2.106 -26.757  28.862  1.00  0.00    -0.507 OA
ATOM     24  H   UNL     1       2.746 -26.407  28.167  1.00  0.00     0.293 HD
ENDBRANCH  10  23
BRANCH  11  25
ATOM     25  O   UNL     1      -1.926 -27.047  31.425  1.00  0.00    -0.508 OA
ATOM     26  H   UNL     1      -1.524 -27.584  32.185  1.00  0.00     0.293 HD
ENDBRANCH  11  25
ENDBRANCH   1   2
BRANCH   1  27
ATOM     27  C   UNL     1       2.566 -21.446  26.439  1.00  0.00     0.339 C 
ATOM     28  C   UNL     1       3.493 -21.772  25.255  1.00  0.00     0.214 C 
ATOM     29  O   UNL     1       2.296 -20.055  26.585  1.00  0.00    -0.332 OA
ATOM     30  C   UNL     1       2.846 -21.322  23.924  1.00  0.00     0.180 C 
ATOM     31  C   UNL     1       2.304 -19.297  25.378  1.00  0.00     0.179 C 
ATOM     32  C   UNL     1       1.898 -20.110  24.121  1.00  0.00     0.177 C 
BRANCH  28  33
ATOM     33  O   UNL     1       3.756 -23.151  25.229  1.00  0.00    -0.384 OA
ATOM     34  H   UNL     1       3.247 -23.552  25.981  1.00  0.00     0.211 HD
ENDBRANCH  28  33
BRANCH  30  35
ATOM     35  O   UNL     1       3.842 -21.058  22.966  1.00  0.00    -0.387 OA
ATOM     36  H   UNL     1       4.629 -21.621  23.188  1.00  0.00     0.211 HD
ENDBRANCH  30  35
BRANCH  31  37
ATOM     37  C   UNL     1       1.387 -18.083  25.578  1.00  0.00     0.191 C 
BRANCH  37  38
ATOM     38  O   UNL     1       1.967 -16.938  25.015  1.00  0.00    -0.394 OA
ATOM     39  H   UNL     1       2.151 -16.321  25.770  1.00  0.00     0.210 HD
ENDBRANCH  37  38
ENDBRANCH  31  37
BRANCH  32  40
ATOM     40  O   UNL     1       1.908 -19.282  22.985  1.00  0.00    -0.387 OA
ATOM     41  H   UNL     1       1.847 -19.882  22.195  1.00  0.00     0.211 HD
ENDBRANCH  32  40
ENDBRANCH   1  27
TORSDOF 12
ENDMDL
MODEL 9
REMARK VINA RESULT:    -6.648      1.728      4.524
REMARK INTER + INTRA:         -11.257
REMARK INTER:                 -10.045
REMARK INTRA:                  -1.212
REMARK UNBOUND:                -1.500
REMARK SMILES O=c1c(O[C@@H]2O[C@H](CO)[C@@H](O)[C@@H](O)[C@@H]2O)c(-c2ccc(O)c(O)c2)oc2cc(O)cc(O)c12
REMARK SMILES IDX 4 1 3 2 16 3 25 4 2 5 26 6 1 7 33 8 27 9 31 10 28 11 30 12
REMARK SMILES IDX 17 13 18 14 19 15 20 16 24 17 22 18 21 19 23 21 32 23 29 25
REMARK SMILES IDX 5 27 14 28 6 29 12 30 7 31 10 32 15 33 13 35 8 37 9 38 11 40
REMARK H PARENT 21 20 23 22 32 24 29 26 15 34 13 36 9 39 11 41
REMARK Flexibility Score: inf
ROOT
ATOM      1  O   UNL     1       0.910 -19.859  28.154  1.00  0.00    -0.454 OA
ENDROOT
BRANCH   1   2
ATOM      2  C   UNL     1       0.317 -21.068  28.562  1.00  0.00     0.214 A 
ATOM      3  C   UNL     1       0.514 -22.294  27.891  1.00  0.00     0.180 A 
ATOM      4  O   UNL     1       0.064 -23.420  28.432  1.00  0.00    -0.452 OA
ATOM      5  C   UNL     1      -0.476 -21.057  29.717  1.00  0.00     0.239 A 
ATOM      6  C   UNL     1      -0.643 -23.460  29.555  1.00  0.00     0.146 A 
ATOM      7  O   UNL     1      -0.655 -19.959  30.307  1.00  0.00    -0.285 OA
ATOM      8  C   UNL     1      -1.003 -22.266  30.229  1.00  0.00     0.111 A 
ATOM      9  C   UNL     1      -1.033 -24.705  30.054  1.00  0.00     0.094 A 
ATOM     10  C   UNL     1      -1.822 -22.363  31.394  1.00  0.00     0.134 A 
ATOM     11  C   UNL     1      -1.783 -24.791  31.229  1.00  0.00     0.123 A 
ATOM     12  C   UNL     1      -2.169 -23.626  31.890  1.00  0.00     0.093 A 
BRANCH   3  13
ATOM     13  C   UNL     1       1.176 -22.386  26.580  1.00  0.00     0.025 A 
ATOM     14  C   UNL     1       2.555 -22.159  26.475  1.00  0.00     0.016 A 
ATOM     15  C   UNL     1       3.194 -22.273  25.238  1.00  0.00     0.051 A 
ATOM     16  C   UNL     1       2.468 -22.631  24.097  1.00  0.00     0.157 A 
ATOM     17  C   UNL     1       0.450 -22.773  25.442  1.00  0.00     0.062 A 
ATOM     18  C   UNL     1       1.089 -22.886  24.198  1.00  0.00     0.158 A 
BRANCH  16  19
ATOM     19  O   UNL     1       3.132 -22.732  22.875  1.00  0.00    -0.504 OA
ATOM     20  H   UNL     1       4.140 -22.819  22.817  1.00  0.00     0.293 HD
ENDBRANCH  16  19
BRANCH  18  21
ATOM     21  O   UNL     1       0.361 -23.252  23.067  1.00  0.00    -0.504 OA
ATOM     22  H   UNL     1      -0.361 -22.654  22.686  1.00  0.00     0.293 HD
ENDBRANCH  18  21
ENDBRANCH   3  13
BRANCH  10  23
ATOM     23  O   UNL     1      -2.338 -21.259  32.079  1.00  0.00    -0.507 OA
ATOM     24  H   UNL     1      -1.832 -20.406  32.257  1.00  0.00     0.293 HD
ENDBRANCH  10  23
BRANCH  11  25
ATOM     25  O   UNL     1      -2.157 -26.030  31.743  1.00  0.00    -0.508 OA
ATOM     26  H   UNL     1      -1.474 -26.756  31.926  1.00  0.00     0.293 HD
ENDBRANCH  11  25
ENDBRANCH   1   2
BRANCH   1  27
ATOM     27  C   UNL     1       0.194 -18.691  27.733  1.00  0.00     0.339 C 
ATOM     28  C   UNL     1       1.186 -17.567  27.387  1.00  0.00     0.214 C 
ATOM     29  O   UNL     1      -0.702 -19.008  26.671  1.00  0.00    -0.332 OA
ATOM     30  C   UNL     1       2.074 -17.980  26.190  1.00  0.00     0.180 C 
ATOM     31  C   UNL     1      -0.192 -18.803  25.355  1.00  0.00     0.179 C 
ATOM     32  C   UNL     1       1.346 -18.970  25.242  1.00  0.00     0.177 C 
BRANCH  28  33
ATOM     33  O   UNL     1       1.980 -17.278  28.508  1.00  0.00    -0.384 OA
ATOM     34  H   UNL     1       1.440 -17.511  29.307  1.00  0.00     0.211 HD
ENDBRANCH  28  33
BRANCH  30  35
ATOM     35  O   UNL     1       2.527 -16.837  25.505  1.00  0.00    -0.387 OA
ATOM     36  H   UNL     1       3.173 -17.137  24.814  1.00  0.00     0.211 HD
ENDBRANCH  30  35
BRANCH  31  37
ATOM     37  C   UNL     1      -0.929 -19.763  24.411  1.00  0.00     0.191 C 
BRANCH  37  38
ATOM     38  O   UNL     1      -1.864 -20.523  25.126  1.00  0.00    -0.394 OA
ATOM     39  H   UNL     1      -1.345 -21.221  25.605  1.00  0.00     0.210 HD
ENDBRANCH  37  38
ENDBRANCH  31  37
BRANCH  32  40
ATOM     40  O   UNL     1       1.757 -18.777  23.912  1.00  0.00    -0.387 OA
ATOM     41  H   UNL     1       2.671 -18.391  23.950  1.00  0.00     0.211 HD
ENDBRANCH  32  40
ENDBRANCH   1  27
TORSDOF 12
ENDMDL
