MODEL 1
REMARK VINA RESULT:    -4.684      0.000      0.000
REMARK INTER + INTRA:         -12.910
REMARK INTER:                 -10.160
REMARK INTRA:                  -2.750
REMARK UNBOUND:                -2.750
REMARK SMILES CCCCCCCCCCCCCCCCCCCCCC(=O)[O-]
REMARK SMILES IDX 12 1 11 2 10 3 9 4 8 5 7 6 6 7 5 8 4 9 3 10 2 11 1 12 13 13
REMARK SMILES IDX 14 14 15 15 16 16 17 17 18 18 19 19 20 20 21 21 22 22 23 23
REMARK SMILES IDX 24 24
REMARK H PARENT
REMARK Flexibility Score: inf
ROOT
ATOM      1  C   UNL     1      41.692  18.232  10.134  1.00  0.00     0.000 C 
ENDROOT
BRANCH   1   2
ATOM      2  C   UNL     1      40.451  18.098  11.031  1.00  0.00     0.000 C 
BRANCH   2   3
ATOM      3  C   UNL     1      40.191  19.357  11.877  1.00  0.00     0.000 C 
BRANCH   3   4
ATOM      4  C   UNL     1      40.793  19.242  13.291  1.00  0.00    -0.000 C 
BRANCH   4   5
ATOM      5  C   UNL     1      41.483  20.532  13.773  1.00  0.00    -0.000 C 
BRANCH   5   6
ATOM      6  C   UNL     1      42.612  20.978  12.828  1.00  0.00    -0.000 C 
BRANCH   6   7
ATOM      7  C   UNL     1      43.937  20.221  13.073  1.00  0.00    -0.000 C 
BRANCH   7   8
ATOM      8  C   UNL     1      44.103  18.951  12.216  1.00  0.00    -0.000 C 
BRANCH   8   9
ATOM      9  C   UNL     1      43.882  17.632  12.975  1.00  0.00    -0.000 C 
BRANCH   9  10
ATOM     10  C   UNL     1      44.015  16.378  12.081  1.00  0.00    -0.000 C 
BRANCH  10  11
ATOM     11  C   UNL     1      45.167  15.467  12.525  1.00  0.00    -0.003 C 
ATOM     12  C   UNL     1      44.921  14.021  12.105  1.00  0.00     0.004 C 
ENDBRANCH  10  11
ENDBRANCH   9  10
ENDBRANCH   8   9
ENDBRANCH   7   8
ENDBRANCH   6   7
ENDBRANCH   5   6
ENDBRANCH   4   5
ENDBRANCH   3   4
ENDBRANCH   2   3
ENDBRANCH   1   2
BRANCH   1  13
ATOM     13  C   UNL     1      41.333  18.431   8.651  1.00  0.00     0.000 C 
BRANCH  13  14
ATOM     14  C   UNL     1      41.771  19.805   8.120  1.00  0.00     0.000 C 
BRANCH  14  15
ATOM     15  C   UNL     1      40.811  20.933   8.529  1.00  0.00     0.000 C 
BRANCH  15  16
ATOM     16  C   UNL     1      41.543  21.999   9.357  1.00  0.00     0.000 C 
BRANCH  16  17
ATOM     17  C   UNL     1      43.075  21.884   9.259  1.00  0.00     0.000 C 
BRANCH  17  18
ATOM     18  C   UNL     1      43.777  23.090   8.603  1.00  0.00     0.000 C 
BRANCH  18  19
ATOM     19  C   UNL     1      44.173  22.895   7.125  1.00  0.00     0.000 C 
BRANCH  19  20
ATOM     20  C   UNL     1      44.798  21.527   6.795  1.00  0.00     0.006 C 
BRANCH  20  21
ATOM     21  C   UNL     1      44.213  20.899   5.524  1.00  0.00     0.053 C 
BRANCH  21  22
ATOM     22  C   UNL     1      45.249  20.828   4.445  1.00  0.00     0.041 C 
ATOM     23  O   UNL     1      44.968  20.314   3.329  1.00  0.00    -0.550 OA
ATOM     24  O   UNL     1      46.529  21.318   4.672  1.00  0.00    -0.550 OA
ENDBRANCH  21  22
ENDBRANCH  20  21
ENDBRANCH  19  20
ENDBRANCH  18  19
ENDBRANCH  17  18
ENDBRANCH  16  17
ENDBRANCH  15  16
ENDBRANCH  14  15
ENDBRANCH  13  14
ENDBRANCH   1  13
TORSDOF 20
ENDMDL
MODEL 2
REMARK VINA RESULT:    -4.662      1.900      3.927
REMARK INTER + INTRA:         -12.863
REMARK INTER:                 -10.154
REMARK INTRA:                  -2.709
REMARK UNBOUND:                -2.750
REMARK SMILES CCCCCCCCCCCCCCCCCCCCCC(=O)[O-]
REMARK SMILES IDX 12 1 11 2 10 3 9 4 8 5 7 6 6 7 5 8 4 9 3 10 2 11 1 12 13 13
REMARK SMILES IDX 14 14 15 15 16 16 17 17 18 18 19 19 20 20 21 21 22 22 23 23
REMARK SMILES IDX 24 24
REMARK H PARENT
REMARK Flexibility Score: inf
ROOT
ATOM      1  C   UNL     1      40.922  21.520   9.277  1.00  0.00     0.000 C 
ENDROOT
BRANCH   1   2
ATOM      2  C   UNL     1      42.325  21.688   9.881  1.00  0.00     0.000 C 
BRANCH   2   3
ATOM      3  C   UNL     1      42.441  22.935  10.776  1.00  0.00     0.000 C 
BRANCH   3   4
ATOM      4  C   UNL     1      43.001  22.601  12.172  1.00  0.00    -0.000 C 
BRANCH   4   5
ATOM      5  C   UNL     1      42.434  21.298  12.767  1.00  0.00    -0.000 C 
BRANCH   5   6
ATOM      6  C   UNL     1      43.541  20.356  13.269  1.00  0.00    -0.000 C 
BRANCH   6   7
ATOM      7  C   UNL     1      43.986  19.327  12.204  1.00  0.00    -0.000 C 
BRANCH   7   8
ATOM      8  C   UNL     1      43.083  18.081  12.119  1.00  0.00    -0.000 C 
BRANCH   8   9
ATOM      9  C   UNL     1      41.956  18.175  11.078  1.00  0.00    -0.000 C 
BRANCH   9  10
ATOM     10  C   UNL     1      40.565  17.803  11.642  1.00  0.00    -0.000 C 
BRANCH  10  11
ATOM     11  C   UNL     1      39.578  18.977  11.576  1.00  0.00    -0.003 C 
ATOM     12  C   UNL     1      38.557  18.777  10.459  1.00  0.00     0.004 C 
ENDBRANCH  10  11
ENDBRANCH   9  10
ENDBRANCH   8   9
ENDBRANCH   7   8
ENDBRANCH   6   7
ENDBRANCH   5   6
ENDBRANCH   4   5
ENDBRANCH   3   4
ENDBRANCH   2   3
ENDBRANCH   1   2
BRANCH   1  13
ATOM     13  C   UNL     1      40.900  20.533   8.096  1.00  0.00     0.000 C 
BRANCH  13  14
ATOM     14  C   UNL     1      42.278  19.906   7.830  1.00  0.00     0.000 C 
BRANCH  14  15
ATOM     15  C   UNL     1      42.843  20.278   6.450  1.00  0.00     0.000 C 
BRANCH  15  16
ATOM     16  C   UNL     1      43.990  21.290   6.584  1.00  0.00     0.000 C 
BRANCH  16  17
ATOM     17  C   UNL     1      44.486  21.814   5.224  1.00  0.00     0.000 C 
BRANCH  17  18
ATOM     18  C   UNL     1      44.917  20.722   4.225  1.00  0.00     0.000 C 
BRANCH  18  19
ATOM     19  C   UNL     1      46.056  21.124   3.265  1.00  0.00     0.000 C 
BRANCH  19  20
ATOM     20  C   UNL     1      46.978  22.243   3.783  1.00  0.00     0.006 C 
BRANCH  20  21
ATOM     21  C   UNL     1      48.220  21.704   4.502  1.00  0.00     0.053 C 
BRANCH  21  22
ATOM     22  C   UNL     1      48.009  21.689   5.984  1.00  0.00     0.041 C 
ATOM     23  O   UNL     1      47.745  20.609   6.576  1.00  0.00    -0.550 OA
ATOM     24  O   UNL     1      48.090  22.870   6.713  1.00  0.00    -0.550 OA
ENDBRANCH  21  22
ENDBRANCH  20  21
ENDBRANCH  19  20
ENDBRANCH  18  19
ENDBRANCH  17  18
ENDBRANCH  16  17
ENDBRANCH  15  16
ENDBRANCH  14  15
ENDBRANCH  13  14
ENDBRANCH   1  13
TORSDOF 20
ENDMDL
MODEL 3
REMARK VINA RESULT:    -4.612      2.077      4.516
REMARK INTER + INTRA:         -12.754
REMARK INTER:                 -10.414
REMARK INTRA:                  -2.340
REMARK UNBOUND:                -2.750
REMARK SMILES CCCCCCCCCCCCCCCCCCCCCC(=O)[O-]
REMARK SMILES IDX 12 1 11 2 10 3 9 4 8 5 7 6 6 7 5 8 4 9 3 10 2 11 1 12 13 13
REMARK SMILES IDX 14 14 15 15 16 16 17 17 18 18 19 19 20 20 21 21 22 22 23 23
REMARK SMILES IDX 24 24
REMARK H PARENT
REMARK Flexibility Score: inf
ROOT
ATOM      1  C   UNL     1      43.127  22.069  10.972  1.00  0.00     0.000 C 
ENDROOT
BRANCH   1   2
ATOM      2  C   UNL     1      42.714  22.368  12.422  1.00  0.00     0.000 C 
BRANCH   2   3
ATOM      3  C   UNL     1      43.043  21.211  13.383  1.00  0.00     0.000 C 
BRANCH   3   4
ATOM      4  C   UNL     1      43.886  20.114  12.707  1.00  0.00    -0.000 C 
BRANCH   4   5
ATOM      5  C   UNL     1      43.203  18.734  12.689  1.00  0.00    -0.000 C 
BRANCH   5   6
ATOM      6  C   UNL     1      41.714  18.825  12.312  1.00  0.00    -0.000 C 
BRANCH   6   7
ATOM      7  C   UNL     1      41.336  17.904  11.129  1.00  0.00    -0.000 C 
BRANCH   7   8
ATOM      8  C   UNL     1      39.926  18.160  10.559  1.00  0.00    -0.000 C 
BRANCH   8   9
ATOM      9  C   UNL     1      38.981  18.918  11.506  1.00  0.00    -0.000 C 
BRANCH   9  10
ATOM     10  C   UNL     1      37.518  18.962  11.009  1.00  0.00    -0.000 C 
BRANCH  10  11
ATOM     11  C   UNL     1      36.548  18.300  11.996  1.00  0.00    -0.003 C 
ATOM     12  C   UNL     1      35.164  18.939  11.924  1.00  0.00     0.004 C 
ENDBRANCH  10  11
ENDBRANCH   9  10
ENDBRANCH   8   9
ENDBRANCH   7   8
ENDBRANCH   6   7
ENDBRANCH   5   6
ENDBRANCH   4   5
ENDBRANCH   3   4
ENDBRANCH   2   3
ENDBRANCH   1   2
BRANCH   1  13
ATOM     13  C   UNL     1      42.051  22.483   9.953  1.00  0.00     0.000 C 
BRANCH  13  14
ATOM     14  C   UNL     1      41.023  21.368   9.701  1.00  0.00     0.000 C 
BRANCH  14  15
ATOM     15  C   UNL     1      40.934  20.965   8.221  1.00  0.00     0.000 C 
BRANCH  15  16
ATOM     16  C   UNL     1      42.027  19.947   7.866  1.00  0.00     0.000 C 
BRANCH  16  17
ATOM     17  C   UNL     1      42.895  20.393   6.675  1.00  0.00     0.000 C 
BRANCH  17  18
ATOM     18  C   UNL     1      43.939  21.478   7.002  1.00  0.00     0.000 C 
BRANCH  18  19
ATOM     19  C   UNL     1      44.180  22.516   5.886  1.00  0.00     0.000 C 
BRANCH  19  20
ATOM     20  C   UNL     1      45.491  22.332   5.100  1.00  0.00     0.006 C 
BRANCH  20  21
ATOM     21  C   UNL     1      46.173  20.990   5.390  1.00  0.00     0.053 C 
BRANCH  21  22
ATOM     22  C   UNL     1      47.401  21.191   6.224  1.00  0.00     0.041 C 
ATOM     23  O   UNL     1      48.075  22.249   6.115  1.00  0.00    -0.550 OA
ATOM     24  O   UNL     1      47.809  20.205   7.114  1.00  0.00    -0.550 OA
ENDBRANCH  21  22
ENDBRANCH  20  21
ENDBRANCH  19  20
ENDBRANCH  18  19
ENDBRANCH  17  18
ENDBRANCH  16  17
ENDBRANCH  15  16
ENDBRANCH  14  15
ENDBRANCH  13  14
ENDBRANCH   1  13
TORSDOF 20
ENDMDL
MODEL 4
REMARK VINA RESULT:    -4.574      3.471      7.797
REMARK INTER + INTRA:         -12.672
REMARK INTER:                  -9.881
REMARK INTRA:                  -2.791
REMARK UNBOUND:                -2.750
REMARK SMILES CCCCCCCCCCCCCCCCCCCCCC(=O)[O-]
REMARK SMILES IDX 12 1 11 2 10 3 9 4 8 5 7 6 6 7 5 8 4 9 3 10 2 11 1 12 13 13
REMARK SMILES IDX 14 14 15 15 16 16 17 17 18 18 19 19 20 20 21 21 22 22 23 23
REMARK SMILES IDX 24 24
REMARK H PARENT
REMARK Flexibility Score: inf
ROOT
ATOM      1  C   UNL     1      41.286  21.621   9.502  1.00  0.00     0.000 C 
ENDROOT
BRANCH   1   2
ATOM      2  C   UNL     1      41.050  20.702   8.293  1.00  0.00     0.000 C 
BRANCH   2   3
ATOM      3  C   UNL     1      42.310  19.914   7.892  1.00  0.00     0.000 C 
BRANCH   3   4
ATOM      4  C   UNL     1      42.926  20.429   6.577  1.00  0.00    -0.000 C 
BRANCH   4   5
ATOM      5  C   UNL     1      44.027  21.487   6.785  1.00  0.00    -0.000 C 
BRANCH   5   6
ATOM      6  C   UNL     1      44.546  22.058   5.455  1.00  0.00    -0.000 C 
BRANCH   6   7
ATOM      7  C   UNL     1      44.753  20.973   4.373  1.00  0.00    -0.000 C 
BRANCH   7   8
ATOM      8  C   UNL     1      46.063  21.123   3.575  1.00  0.00    -0.000 C 
BRANCH   8   9
ATOM      9  C   UNL     1      46.729  22.505   3.691  1.00  0.00    -0.000 C 
BRANCH   9  10
ATOM     10  C   UNL     1      48.261  22.434   3.883  1.00  0.00    -0.000 C 
BRANCH  10  11
ATOM     11  C   UNL     1      48.651  21.729   5.188  1.00  0.00    -0.003 C 
ATOM     12  C   UNL     1      48.157  22.505   6.406  1.00  0.00     0.004 C 
ENDBRANCH  10  11
ENDBRANCH   9  10
ENDBRANCH   8   9
ENDBRANCH   7   8
ENDBRANCH   6   7
ENDBRANCH   5   6
ENDBRANCH   4   5
ENDBRANCH   3   4
ENDBRANCH   2   3
ENDBRANCH   1   2
BRANCH   1  13
ATOM     13  C   UNL     1      42.586  21.288  10.255  1.00  0.00     0.000 C 
BRANCH  13  14
ATOM     14  C   UNL     1      42.700  22.041  11.590  1.00  0.00     0.000 C 
BRANCH  14  15
ATOM     15  C   UNL     1      42.941  21.104  12.783  1.00  0.00     0.000 C 
BRANCH  15  16
ATOM     16  C   UNL     1      43.885  19.957  12.395  1.00  0.00     0.000 C 
BRANCH  16  17
ATOM     17  C   UNL     1      43.309  18.570  12.728  1.00  0.00     0.000 C 
BRANCH  17  18
ATOM     18  C   UNL     1      43.101  17.642  11.515  1.00  0.00     0.000 C 
BRANCH  18  19
ATOM     19  C   UNL     1      41.728  17.762  10.823  1.00  0.00     0.000 C 
BRANCH  19  20
ATOM     20  C   UNL     1      40.524  17.839  11.779  1.00  0.00     0.006 C 
BRANCH  20  21
ATOM     21  C   UNL     1      39.690  19.111  11.582  1.00  0.00     0.053 C 
BRANCH  21  22
ATOM     22  C   UNL     1      38.355  18.780  10.990  1.00  0.00     0.041 C 
ATOM     23  O   UNL     1      38.235  18.621   9.746  1.00  0.00    -0.550 OA
ATOM     24  O   UNL     1      37.238  18.660  11.808  1.00  0.00    -0.550 OA
ENDBRANCH  21  22
ENDBRANCH  20  21
ENDBRANCH  19  20
ENDBRANCH  18  19
ENDBRANCH  17  18
ENDBRANCH  16  17
ENDBRANCH  15  16
ENDBRANCH  14  15
ENDBRANCH  13  14
ENDBRANCH   1  13
TORSDOF 20
ENDMDL
MODEL 5
REMARK VINA RESULT:    -4.506      1.178      2.019
REMARK INTER + INTRA:         -12.525
REMARK INTER:                  -9.938
REMARK INTRA:                  -2.587
REMARK UNBOUND:                -2.750
REMARK SMILES CCCCCCCCCCCCCCCCCCCCCC(=O)[O-]
REMARK SMILES IDX 12 1 11 2 10 3 9 4 8 5 7 6 6 7 5 8 4 9 3 10 2 11 1 12 13 13
REMARK SMILES IDX 14 14 15 15 16 16 17 17 18 18 19 19 20 20 21 21 22 22 23 23
REMARK SMILES IDX 24 24
REMARK H PARENT
REMARK Flexibility Score: inf
ROOT
ATOM      1  C   UNL     1      41.005  19.571   9.221  1.00  0.00     0.000 C 
ENDROOT
BRANCH   1   2
ATOM      2  C   UNL     1      39.896  18.699   9.831  1.00  0.00     0.000 C 
BRANCH   2   3
ATOM      3  C   UNL     1      40.289  18.105  11.195  1.00  0.00     0.000 C 
BRANCH   3   4
ATOM      4  C   UNL     1      40.052  19.095  12.352  1.00  0.00    -0.000 C 
BRANCH   4   5
ATOM      5  C   UNL     1      41.240  19.200  13.327  1.00  0.00    -0.000 C 
BRANCH   5   6
ATOM      6  C   UNL     1      42.148  20.401  13.014  1.00  0.00    -0.000 C 
BRANCH   6   7
ATOM      7  C   UNL     1      43.630  20.002  12.821  1.00  0.00    -0.000 C 
BRANCH   7   8
ATOM      8  C   UNL     1      43.841  18.813  11.864  1.00  0.00    -0.000 C 
BRANCH   8   9
ATOM      9  C   UNL     1      44.279  17.508  12.550  1.00  0.00    -0.000 C 
BRANCH   9  10
ATOM     10  C   UNL     1      43.786  16.236  11.823  1.00  0.00    -0.000 C 
BRANCH  10  11
ATOM     11  C   UNL     1      44.215  14.951  12.544  1.00  0.00    -0.003 C 
ATOM     12  C   UNL     1      45.626  14.535  12.137  1.00  0.00     0.004 C 
ENDBRANCH  10  11
ENDBRANCH   9  10
ENDBRANCH   8   9
ENDBRANCH   7   8
ENDBRANCH   6   7
ENDBRANCH   5   6
ENDBRANCH   4   5
ENDBRANCH   3   4
ENDBRANCH   2   3
ENDBRANCH   1   2
BRANCH   1  13
ATOM     13  C   UNL     1      40.583  21.042   9.061  1.00  0.00     0.000 C 
BRANCH  13  14
ATOM     14  C   UNL     1      41.524  22.006   9.801  1.00  0.00     0.000 C 
BRANCH  14  15
ATOM     15  C   UNL     1      43.007  21.730   9.508  1.00  0.00     0.000 C 
BRANCH  15  16
ATOM     16  C   UNL     1      43.649  22.917   8.776  1.00  0.00     0.000 C 
BRANCH  16  17
ATOM     17  C   UNL     1      44.164  22.547   7.374  1.00  0.00     0.000 C 
BRANCH  17  18
ATOM     18  C   UNL     1      43.674  21.187   6.839  1.00  0.00     0.000 C 
BRANCH  18  19
ATOM     19  C   UNL     1      44.218  20.791   5.451  1.00  0.00     0.000 C 
BRANCH  19  20
ATOM     20  C   UNL     1      44.991  21.902   4.716  1.00  0.00     0.006 C 
BRANCH  20  21
ATOM     21  C   UNL     1      46.276  21.391   4.052  1.00  0.00     0.053 C 
BRANCH  21  22
ATOM     22  C   UNL     1      47.463  21.656   4.926  1.00  0.00     0.041 C 
ATOM     23  O   UNL     1      47.451  21.303   6.135  1.00  0.00    -0.550 OA
ATOM     24  O   UNL     1      48.579  22.304   4.410  1.00  0.00    -0.550 OA
ENDBRANCH  21  22
ENDBRANCH  20  21
ENDBRANCH  19  20
ENDBRANCH  18  19
ENDBRANCH  17  18
ENDBRANCH  16  17
ENDBRANCH  15  16
ENDBRANCH  14  15
ENDBRANCH  13  14
ENDBRANCH   1  13
TORSDOF 20
ENDMDL
MODEL 6
REMARK VINA RESULT:    -4.504      1.850      4.374
REMARK INTER + INTRA:         -12.521
REMARK INTER:                  -9.834
REMARK INTRA:                  -2.687
REMARK UNBOUND:                -2.750
REMARK SMILES CCCCCCCCCCCCCCCCCCCCCC(=O)[O-]
REMARK SMILES IDX 12 1 11 2 10 3 9 4 8 5 7 6 6 7 5 8 4 9 3 10 2 11 1 12 13 13
REMARK SMILES IDX 14 14 15 15 16 16 17 17 18 18 19 19 20 20 21 21 22 22 23 23
REMARK SMILES IDX 24 24
REMARK H PARENT
REMARK Flexibility Score: inf
ROOT
ATOM      1  C   UNL     1      41.837  21.864   8.922  1.00  0.00     0.000 C 
ENDROOT
BRANCH   1   2
ATOM      2  C   UNL     1      41.996  22.381  10.361  1.00  0.00     0.000 C 
BRANCH   2   3
ATOM      3  C   UNL     1      43.088  21.631  11.144  1.00  0.00     0.000 C 
BRANCH   3   4
ATOM      4  C   UNL     1      42.820  21.631  12.661  1.00  0.00    -0.000 C 
BRANCH   4   5
ATOM      5  C   UNL     1      43.316  20.359  13.375  1.00  0.00    -0.000 C 
BRANCH   5   6
ATOM      6  C   UNL     1      43.855  19.309  12.389  1.00  0.00    -0.000 C 
BRANCH   6   7
ATOM      7  C   UNL     1      43.271  17.898  12.632  1.00  0.00    -0.000 C 
BRANCH   7   8
ATOM      8  C   UNL     1      41.895  17.666  11.976  1.00  0.00    -0.000 C 
BRANCH   8   9
ATOM      9  C   UNL     1      41.853  17.938  10.464  1.00  0.00    -0.000 C 
BRANCH   9  10
ATOM     10  C   UNL     1      40.594  18.716  10.015  1.00  0.00    -0.000 C 
BRANCH  10  11
ATOM     11  C   UNL     1      39.766  19.218  11.205  1.00  0.00    -0.003 C 
ATOM     12  C   UNL     1      38.272  19.015  10.964  1.00  0.00     0.004 C 
ENDBRANCH  10  11
ENDBRANCH   9  10
ENDBRANCH   8   9
ENDBRANCH   7   8
ENDBRANCH   6   7
ENDBRANCH   5   6
ENDBRANCH   4   5
ENDBRANCH   3   4
ENDBRANCH   2   3
ENDBRANCH   1   2
BRANCH   1  13
ATOM     13  C   UNL     1      43.176  21.442   8.293  1.00  0.00     0.000 C 
BRANCH  13  14
ATOM     14  C   UNL     1      43.881  22.605   7.577  1.00  0.00     0.000 C 
BRANCH  14  15
ATOM     15  C   UNL     1      44.426  22.209   6.196  1.00  0.00     0.000 C 
BRANCH  15  16
ATOM     16  C   UNL     1      43.892  20.834   5.771  1.00  0.00     0.000 C 
BRANCH  16  17
ATOM     17  C   UNL     1      44.826  20.109   4.786  1.00  0.00     0.000 C 
BRANCH  17  18
ATOM     18  C   UNL     1      45.066  20.847   3.454  1.00  0.00     0.000 C 
BRANCH  18  19
ATOM     19  C   UNL     1      46.547  21.093   3.096  1.00  0.00     0.000 C 
BRANCH  19  20
ATOM     20  C   UNL     1      47.223  22.234   3.879  1.00  0.00     0.006 C 
BRANCH  20  21
ATOM     21  C   UNL     1      48.445  21.763   4.677  1.00  0.00     0.053 C 
BRANCH  21  22
ATOM     22  C   UNL     1      48.121  21.676   6.136  1.00  0.00     0.041 C 
ATOM     23  O   UNL     1      48.315  22.667   6.889  1.00  0.00    -0.550 OA
ATOM     24  O   UNL     1      47.616  20.497   6.671  1.00  0.00    -0.550 OA
ENDBRANCH  21  22
ENDBRANCH  20  21
ENDBRANCH  19  20
ENDBRANCH  18  19
ENDBRANCH  17  18
ENDBRANCH  16  17
ENDBRANCH  15  16
ENDBRANCH  14  15
ENDBRANCH  13  14
ENDBRANCH   1  13
TORSDOF 20
ENDMDL
MODEL 7
REMARK VINA RESULT:    -4.492      1.765      3.963
REMARK INTER + INTRA:         -12.493
REMARK INTER:                 -10.125
REMARK INTRA:                  -2.368
REMARK UNBOUND:                -2.750
REMARK SMILES CCCCCCCCCCCCCCCCCCCCCC(=O)[O-]
REMARK SMILES IDX 12 1 11 2 10 3 9 4 8 5 7 6 6 7 5 8 4 9 3 10 2 11 1 12 13 13
REMARK SMILES IDX 14 14 15 15 16 16 17 17 18 18 19 19 20 20 21 21 22 22 23 23
REMARK SMILES IDX 24 24
REMARK H PARENT
REMARK Flexibility Score: inf
ROOT
ATOM      1  C   UNL     1      39.758  21.264   9.831  1.00  0.00     0.000 C 
ENDROOT
BRANCH   1   2
ATOM      2  C   UNL     1      39.648  19.751  10.081  1.00  0.00     0.000 C 
BRANCH   2   3
ATOM      3  C   UNL     1      40.651  18.937   9.244  1.00  0.00     0.000 C 
BRANCH   3   4
ATOM      4  C   UNL     1      41.399  17.888  10.089  1.00  0.00    -0.000 C 
BRANCH   4   5
ATOM      5  C   UNL     1      40.872  17.771  11.532  1.00  0.00    -0.000 C 
BRANCH   5   6
ATOM      6  C   UNL     1      42.006  17.569  12.552  1.00  0.00    -0.000 C 
BRANCH   6   7
ATOM      7  C   UNL     1      43.409  17.567  11.901  1.00  0.00    -0.000 C 
BRANCH   7   8
ATOM      8  C   UNL     1      44.257  18.811  12.233  1.00  0.00    -0.000 C 
BRANCH   8   9
ATOM      9  C   UNL     1      43.503  20.147  12.129  1.00  0.00    -0.000 C 
BRANCH   9  10
ATOM     10  C   UNL     1      43.601  21.009  13.408  1.00  0.00    -0.000 C 
BRANCH  10  11
ATOM     11  C   UNL     1      43.098  22.442  13.183  1.00  0.00    -0.003 C 
ATOM     12  C   UNL     1      42.292  22.939  14.380  1.00  0.00     0.004 C 
ENDBRANCH  10  11
ENDBRANCH   9  10
ENDBRANCH   8   9
ENDBRANCH   7   8
ENDBRANCH   6   7
ENDBRANCH   5   6
ENDBRANCH   4   5
ENDBRANCH   3   4
ENDBRANCH   2   3
ENDBRANCH   1   2
BRANCH   1  13
ATOM     13  C   UNL     1      40.903  21.624   8.868  1.00  0.00     0.000 C 
BRANCH  13  14
ATOM     14  C   UNL     1      42.049  22.369   9.571  1.00  0.00     0.000 C 
BRANCH  14  15
ATOM     15  C   UNL     1      43.380  22.264   8.812  1.00  0.00     0.000 C 
BRANCH  15  16
ATOM     16  C   UNL     1      43.286  21.227   7.685  1.00  0.00     0.000 C 
BRANCH  16  17
ATOM     17  C   UNL     1      44.137  21.599   6.458  1.00  0.00     0.000 C 
BRANCH  17  18
ATOM     18  C   UNL     1      44.195  20.524   5.355  1.00  0.00     0.000 C 
BRANCH  18  19
ATOM     19  C   UNL     1      45.071  20.879   4.136  1.00  0.00     0.000 C 
BRANCH  19  20
ATOM     20  C   UNL     1      46.020  22.073   4.344  1.00  0.00     0.006 C 
BRANCH  20  21
ATOM     21  C   UNL     1      47.478  21.644   4.545  1.00  0.00     0.053 C 
BRANCH  21  22
ATOM     22  C   UNL     1      47.804  21.547   6.003  1.00  0.00     0.041 C 
ATOM     23  O   UNL     1      47.569  20.483   6.636  1.00  0.00    -0.550 OA
ATOM     24  O   UNL     1      48.356  22.635   6.669  1.00  0.00    -0.550 OA
ENDBRANCH  21  22
ENDBRANCH  20  21
ENDBRANCH  19  20
ENDBRANCH  18  19
ENDBRANCH  17  18
ENDBRANCH  16  17
ENDBRANCH  15  16
ENDBRANCH  14  15
ENDBRANCH  13  14
ENDBRANCH   1  13
TORSDOF 20
ENDMDL
MODEL 8
REMARK VINA RESULT:    -4.438      1.563      3.477
REMARK INTER + INTRA:         -12.376
REMARK INTER:                  -9.914
REMARK INTRA:                  -2.462
REMARK UNBOUND:                -2.750
REMARK SMILES CCCCCCCCCCCCCCCCCCCCCC(=O)[O-]
REMARK SMILES IDX 12 1 11 2 10 3 9 4 8 5 7 6 6 7 5 8 4 9 3 10 2 11 1 12 13 13
REMARK SMILES IDX 14 14 15 15 16 16 17 17 18 18 19 19 20 20 21 21 22 22 23 23
REMARK SMILES IDX 24 24
REMARK H PARENT
REMARK Flexibility Score: inf
ROOT
ATOM      1  C   UNL     1      40.077  19.314   9.675  1.00  0.00     0.000 C 
ENDROOT
BRANCH   1   2
ATOM      2  C   UNL     1      39.476  18.590  10.891  1.00  0.00     0.000 C 
BRANCH   2   3
ATOM      3  C   UNL     1      40.464  17.607  11.544  1.00  0.00     0.000 C 
BRANCH   3   4
ATOM      4  C   UNL     1      41.921  17.885  11.130  1.00  0.00    -0.000 C 
BRANCH   4   5
ATOM      5  C   UNL     1      42.958  17.109  11.966  1.00  0.00    -0.000 C 
BRANCH   5   6
ATOM      6  C   UNL     1      43.919  18.044  12.718  1.00  0.00    -0.000 C 
BRANCH   6   7
ATOM      7  C   UNL     1      43.904  19.490  12.171  1.00  0.00    -0.000 C 
BRANCH   7   8
ATOM      8  C   UNL     1      43.512  20.554  13.215  1.00  0.00    -0.000 C 
BRANCH   8   9
ATOM      9  C   UNL     1      42.030  20.961  13.189  1.00  0.00    -0.000 C 
BRANCH   9  10
ATOM     10  C   UNL     1      41.132  20.073  14.080  1.00  0.00    -0.000 C 
BRANCH  10  11
ATOM     11  C   UNL     1      40.789  20.748  15.415  1.00  0.00    -0.003 C 
ATOM     12  C   UNL     1      39.655  20.017  16.129  1.00  0.00     0.004 C 
ENDBRANCH  10  11
ENDBRANCH   9  10
ENDBRANCH   8   9
ENDBRANCH   7   8
ENDBRANCH   6   7
ENDBRANCH   5   6
ENDBRANCH   4   5
ENDBRANCH   3   4
ENDBRANCH   2   3
ENDBRANCH   1   2
BRANCH   1  13
ATOM     13  C   UNL     1      39.780  20.824   9.677  1.00  0.00     0.000 C 
BRANCH  13  14
ATOM     14  C   UNL     1      40.854  21.634   8.933  1.00  0.00     0.000 C 
BRANCH  14  15
ATOM     15  C   UNL     1      42.281  21.172   9.263  1.00  0.00     0.000 C 
BRANCH  15  16
ATOM     16  C   UNL     1      43.183  22.371   9.588  1.00  0.00     0.000 C 
BRANCH  16  17
ATOM     17  C   UNL     1      43.707  23.083   8.327  1.00  0.00     0.000 C 
BRANCH  17  18
ATOM     18  C   UNL     1      44.026  22.153   7.140  1.00  0.00     0.000 C 
BRANCH  18  19
ATOM     19  C   UNL     1      44.574  22.857   5.882  1.00  0.00     0.000 C 
BRANCH  19  20
ATOM     20  C   UNL     1      45.075  21.912   4.775  1.00  0.00     0.006 C 
BRANCH  20  21
ATOM     21  C   UNL     1      46.397  22.376   4.151  1.00  0.00     0.053 C 
BRANCH  21  22
ATOM     22  C   UNL     1      47.562  21.782   4.881  1.00  0.00     0.041 C 
ATOM     23  O   UNL     1      47.371  20.979   5.833  1.00  0.00    -0.550 OA
ATOM     24  O   UNL     1      48.860  22.124   4.521  1.00  0.00    -0.550 OA
ENDBRANCH  21  22
ENDBRANCH  20  21
ENDBRANCH  19  20
ENDBRANCH  18  19
ENDBRANCH  17  18
ENDBRANCH  16  17
ENDBRANCH  15  16
ENDBRANCH  14  15
ENDBRANCH  13  14
ENDBRANCH   1  13
TORSDOF 20
ENDMDL
MODEL 9
REMARK VINA RESULT:    -4.391      1.565      3.235
REMARK INTER + INTRA:         -12.275
REMARK INTER:                 -10.696
REMARK INTRA:                  -1.578
REMARK UNBOUND:                -2.750
REMARK SMILES CCCCCCCCCCCCCCCCCCCCCC(=O)[O-]
REMARK SMILES IDX 12 1 11 2 10 3 9 4 8 5 7 6 6 7 5 8 4 9 3 10 2 11 1 12 13 13
REMARK SMILES IDX 14 14 15 15 16 16 17 17 18 18 19 19 20 20 21 21 22 22 23 23
REMARK SMILES IDX 24 24
REMARK H PARENT
REMARK Flexibility Score: inf
ROOT
ATOM      1  C   UNL     1      43.123  21.631  10.375  1.00  0.00     0.000 C 
ENDROOT
BRANCH   1   2
ATOM      2  C   UNL     1      42.680  22.525  11.544  1.00  0.00     0.000 C 
BRANCH   2   3
ATOM      3  C   UNL     1      43.003  21.909  12.918  1.00  0.00     0.000 C 
BRANCH   3   4
ATOM      4  C   UNL     1      42.977  20.369  12.886  1.00  0.00    -0.000 C 
BRANCH   4   5
ATOM      5  C   UNL     1      41.607  19.768  13.250  1.00  0.00    -0.000 C 
BRANCH   5   6
ATOM      6  C   UNL     1      40.792  19.377  12.006  1.00  0.00    -0.000 C 
BRANCH   6   7
ATOM      7  C   UNL     1      40.968  17.892  11.613  1.00  0.00    -0.000 C 
BRANCH   7   8
ATOM      8  C   UNL     1      42.141  17.189  12.323  1.00  0.00    -0.000 C 
BRANCH   8   9
ATOM      9  C   UNL     1      43.473  17.231  11.555  1.00  0.00    -0.000 C 
BRANCH   9  10
ATOM     10  C   UNL     1      44.622  16.490  12.276  1.00  0.00    -0.000 C 
BRANCH  10  11
ATOM     11  C   UNL     1      44.408  14.971  12.301  1.00  0.00    -0.003 C 
ATOM     12  C   UNL     1      45.739  14.225  12.254  1.00  0.00     0.004 C 
ENDBRANCH  10  11
ENDBRANCH   9  10
ENDBRANCH   8   9
ENDBRANCH   7   8
ENDBRANCH   6   7
ENDBRANCH   5   6
ENDBRANCH   4   5
ENDBRANCH   3   4
ENDBRANCH   2   3
ENDBRANCH   1   2
BRANCH   1  13
ATOM     13  C   UNL     1      42.167  21.713   9.171  1.00  0.00     0.000 C 
BRANCH  13  14
ATOM     14  C   UNL     1      42.096  20.393   8.388  1.00  0.00     0.000 C 
BRANCH  14  15
ATOM     15  C   UNL     1      42.773  20.481   7.012  1.00  0.00     0.000 C 
BRANCH  15  16
ATOM     16  C   UNL     1      43.846  21.578   7.001  1.00  0.00     0.000 C 
BRANCH  16  17
ATOM     17  C   UNL     1      44.335  21.921   5.582  1.00  0.00     0.000 C 
BRANCH  17  18
ATOM     18  C   UNL     1      44.521  20.709   4.647  1.00  0.00     0.000 C 
BRANCH  18  19
ATOM     19  C   UNL     1      45.694  20.821   3.652  1.00  0.00     0.000 C 
BRANCH  19  20
ATOM     20  C   UNL     1      46.615  22.036   3.867  1.00  0.00     0.006 C 
BRANCH  20  21
ATOM     21  C   UNL     1      47.984  21.648   4.440  1.00  0.00     0.053 C 
BRANCH  21  22
ATOM     22  C   UNL     1      47.941  21.614   5.936  1.00  0.00     0.041 C 
ATOM     23  O   UNL     1      48.212  22.649   6.602  1.00  0.00    -0.550 OA
ATOM     24  O   UNL     1      47.613  20.437   6.599  1.00  0.00    -0.550 OA
ENDBRANCH  21  22
ENDBRANCH  20  21
ENDBRANCH  19  20
ENDBRANCH  18  19
ENDBRANCH  17  18
ENDBRANCH  16  17
ENDBRANCH  15  16
ENDBRANCH  14  15
ENDBRANCH  13  14
ENDBRANCH   1  13
TORSDOF 20
ENDMDL
