MODEL 1
REMARK VINA RESULT:    -5.315      0.000      0.000
REMARK INTER + INTRA:         -19.568
REMARK INTER:                 -14.015
REMARK INTRA:                  -5.553
REMARK UNBOUND:                -5.553
REMARK SMILES CCCCCCCCCCCCCCCCCCCCCCCCCCCCCC(=O)[O-]
REMARK SMILES IDX 16 1 17 2 18 3 19 4 20 5 21 6 22 7 23 8 24 9 25 10 26 11
REMARK SMILES IDX 27 12 28 13 29 14 30 15 31 16 32 17 15 18 14 19 13 20 12 21
REMARK SMILES IDX 11 22 10 23 9 24 8 25 7 26 6 27 5 28 4 29 3 30 2 31 1 32
REMARK H PARENT
REMARK Flexibility Score: inf
ROOT
ATOM      1  C   UNL     1      10.144  18.210  32.274  1.00  0.00     0.000 C 
ENDROOT
BRANCH   1   2
ATOM      2  C   UNL     1       9.372  17.713  33.505  1.00  0.00     0.000 C 
BRANCH   2   3
ATOM      3  C   UNL     1       8.015  18.419  33.620  1.00  0.00     0.000 C 
BRANCH   3   4
ATOM      4  C   UNL     1       7.885  19.143  34.970  1.00  0.00     0.000 C 
BRANCH   4   5
ATOM      5  C   UNL     1       8.329  18.278  36.167  1.00  0.00     0.000 C 
BRANCH   5   6
ATOM      6  C   UNL     1       8.780  19.062  37.414  1.00  0.00     0.000 C 
BRANCH   6   7
ATOM      7  C   UNL     1       8.768  20.585  37.201  1.00  0.00     0.000 C 
BRANCH   7   8
ATOM      8  C   UNL     1      10.137  21.138  36.773  1.00  0.00     0.000 C 
BRANCH   8   9
ATOM      9  C   UNL     1      11.293  20.616  37.641  1.00  0.00     0.000 C 
BRANCH   9  10
ATOM     10  C   UNL     1      12.373  19.897  36.814  1.00  0.00     0.000 C 
BRANCH  10  11
ATOM     11  C   UNL     1      11.823  19.286  35.513  1.00  0.00     0.000 C 
BRANCH  11  12
ATOM     12  C   UNL     1      12.725  18.153  34.972  1.00  0.00     0.000 C 
BRANCH  12  13
ATOM     13  C   UNL     1      12.641  16.854  35.796  1.00  0.00     0.006 C 
BRANCH  13  14
ATOM     14  C   UNL     1      14.009  16.251  36.148  1.00  0.00     0.053 C 
BRANCH  14  15
ATOM     15  C   UNL     1      14.282  16.303  37.620  1.00  0.00     0.041 C 
ATOM     16  O   UNL     1      13.400  16.725  38.414  1.00  0.00    -0.550 OA
ATOM     17  O   UNL     1      15.512  15.891  38.116  1.00  0.00    -0.550 OA
ENDBRANCH  14  15
ENDBRANCH  13  14
ENDBRANCH  12  13
ENDBRANCH  11  12
ENDBRANCH  10  11
ENDBRANCH   9  10
ENDBRANCH   8   9
ENDBRANCH   7   8
ENDBRANCH   6   7
ENDBRANCH   5   6
ENDBRANCH   4   5
ENDBRANCH   3   4
ENDBRANCH   2   3
ENDBRANCH   1   2
BRANCH   1  18
ATOM     18  C   UNL     1       9.839  17.389  31.011  1.00  0.00     0.000 C 
BRANCH  18  19
ATOM     19  C   UNL     1       9.392  18.270  29.830  1.00  0.00     0.000 C 
BRANCH  19  20
ATOM     20  C   UNL     1       8.443  19.405  30.255  1.00  0.00     0.000 C 
BRANCH  20  21
ATOM     21  C   UNL     1       8.165  20.458  29.167  1.00  0.00     0.000 C 
BRANCH  21  22
ATOM     22  C   UNL     1       8.013  21.881  29.733  1.00  0.00     0.000 C 
BRANCH  22  23
ATOM     23  C   UNL     1       7.957  21.895  31.276  1.00  0.00     0.000 C 
BRANCH  23  24
ATOM     24  C   UNL     1       8.460  23.206  31.903  1.00  0.00    -0.000 C 
BRANCH  24  25
ATOM     25  C   UNL     1       9.239  22.977  33.208  1.00  0.00    -0.000 C 
BRANCH  25  26
ATOM     26  C   UNL     1       9.976  21.625  33.247  1.00  0.00    -0.000 C 
BRANCH  26  27
ATOM     27  C   UNL     1      11.398  21.630  32.657  1.00  0.00    -0.000 C 
BRANCH  27  28
ATOM     28  C   UNL     1      12.222  22.861  33.074  1.00  0.00    -0.000 C 
BRANCH  28  29
ATOM     29  C   UNL     1      12.984  22.636  34.397  1.00  0.00    -0.000 C 
BRANCH  29  30
ATOM     30  C   UNL     1      12.707  23.708  35.465  1.00  0.00    -0.000 C 
BRANCH  30  31
ATOM     31  C   UNL     1      11.336  24.378  35.299  1.00  0.00    -0.003 C 
ATOM     32  C   UNL     1      10.756  24.793  36.648  1.00  0.00     0.004 C 
ENDBRANCH  30  31
ENDBRANCH  29  30
ENDBRANCH  28  29
ENDBRANCH  27  28
ENDBRANCH  26  27
ENDBRANCH  25  26
ENDBRANCH  24  25
ENDBRANCH  23  24
ENDBRANCH  22  23
ENDBRANCH  21  22
ENDBRANCH  20  21
ENDBRANCH  19  20
ENDBRANCH  18  19
ENDBRANCH   1  18
TORSDOF 28
ENDMDL
MODEL 2
REMARK VINA RESULT:    -5.149      2.669      6.633
REMARK INTER + INTRA:         -19.129
REMARK INTER:                 -13.534
REMARK INTRA:                  -5.595
REMARK UNBOUND:                -5.553
REMARK SMILES CCCCCCCCCCCCCCCCCCCCCCCCCCCCCC(=O)[O-]
REMARK SMILES IDX 16 1 17 2 18 3 19 4 20 5 21 6 22 7 23 8 24 9 25 10 26 11
REMARK SMILES IDX 27 12 28 13 29 14 30 15 31 16 32 17 15 18 14 19 13 20 12 21
REMARK SMILES IDX 11 22 10 23 9 24 8 25 7 26 6 27 5 28 4 29 3 30 2 31 1 32
REMARK H PARENT
REMARK Flexibility Score: inf
ROOT
ATOM      1  C   UNL     1      13.399  20.002  39.489  1.00  0.00     0.000 C 
ENDROOT
BRANCH   1   2
ATOM      2  C   UNL     1      14.870  19.568  39.395  1.00  0.00     0.000 C 
BRANCH   2   3
ATOM      3  C   UNL     1      15.001  18.243  38.633  1.00  0.00     0.000 C 
BRANCH   3   4
ATOM      4  C   UNL     1      15.779  18.438  37.322  1.00  0.00     0.000 C 
BRANCH   4   5
ATOM      5  C   UNL     1      15.431  17.386  36.249  1.00  0.00     0.000 C 
BRANCH   5   6
ATOM      6  C   UNL     1      14.507  16.246  36.720  1.00  0.00     0.000 C 
BRANCH   6   7
ATOM      7  C   UNL     1      13.084  16.354  36.148  1.00  0.00     0.000 C 
BRANCH   7   8
ATOM      8  C   UNL     1      12.940  17.485  35.116  1.00  0.00     0.000 C 
BRANCH   8   9
ATOM      9  C   UNL     1      11.752  18.416  35.407  1.00  0.00     0.000 C 
BRANCH   9  10
ATOM     10  C   UNL     1      12.198  19.822  35.844  1.00  0.00     0.000 C 
BRANCH  10  11
ATOM     11  C   UNL     1      11.436  20.945  35.117  1.00  0.00     0.000 C 
BRANCH  11  12
ATOM     12  C   UNL     1      11.384  22.248  35.947  1.00  0.00     0.000 C 
BRANCH  12  13
ATOM     13  C   UNL     1      10.392  22.188  37.125  1.00  0.00     0.006 C 
BRANCH  13  14
ATOM     14  C   UNL     1      10.993  22.633  38.467  1.00  0.00     0.053 C 
BRANCH  14  15
ATOM     15  C   UNL     1      10.017  23.428  39.281  1.00  0.00     0.041 C 
ATOM     16  O   UNL     1       9.750  23.083  40.463  1.00  0.00    -0.550 OA
ATOM     17  O   UNL     1       9.401  24.545  38.735  1.00  0.00    -0.550 OA
ENDBRANCH  14  15
ENDBRANCH  13  14
ENDBRANCH  12  13
ENDBRANCH  11  12
ENDBRANCH  10  11
ENDBRANCH   9  10
ENDBRANCH   8   9
ENDBRANCH   7   8
ENDBRANCH   6   7
ENDBRANCH   5   6
ENDBRANCH   4   5
ENDBRANCH   3   4
ENDBRANCH   2   3
ENDBRANCH   1   2
BRANCH   1  18
ATOM     18  C   UNL     1      12.424  18.870  39.125  1.00  0.00     0.000 C 
BRANCH  18  19
ATOM     19  C   UNL     1      10.999  19.134  39.643  1.00  0.00     0.000 C 
BRANCH  19  20
ATOM     20  C   UNL     1       9.908  18.652  38.669  1.00  0.00     0.000 C 
BRANCH  20  21
ATOM     21  C   UNL     1       8.549  19.360  38.817  1.00  0.00     0.000 C 
BRANCH  21  22
ATOM     22  C   UNL     1       7.905  19.712  37.464  1.00  0.00     0.000 C 
BRANCH  22  23
ATOM     23  C   UNL     1       8.234  18.674  36.370  1.00  0.00     0.000 C 
BRANCH  23  24
ATOM     24  C   UNL     1       8.115  19.222  34.938  1.00  0.00    -0.000 C 
BRANCH  24  25
ATOM     25  C   UNL     1       8.266  18.127  33.871  1.00  0.00    -0.000 C 
BRANCH  25  26
ATOM     26  C   UNL     1       8.851  18.648  32.544  1.00  0.00    -0.000 C 
BRANCH  26  27
ATOM     27  C   UNL     1       9.058  20.171  32.468  1.00  0.00    -0.000 C 
BRANCH  27  28
ATOM     28  C   UNL     1       8.252  20.837  31.337  1.00  0.00    -0.000 C 
BRANCH  28  29
ATOM     29  C   UNL     1       8.331  22.377  31.390  1.00  0.00    -0.000 C 
BRANCH  29  30
ATOM     30  C   UNL     1       9.736  22.917  31.710  1.00  0.00    -0.000 C 
BRANCH  30  31
ATOM     31  C   UNL     1       9.746  23.894  32.895  1.00  0.00    -0.003 C 
ATOM     32  C   UNL     1       8.633  23.571  33.887  1.00  0.00     0.004 C 
ENDBRANCH  30  31
ENDBRANCH  29  30
ENDBRANCH  28  29
ENDBRANCH  27  28
ENDBRANCH  26  27
ENDBRANCH  25  26
ENDBRANCH  24  25
ENDBRANCH  23  24
ENDBRANCH  22  23
ENDBRANCH  21  22
ENDBRANCH  20  21
ENDBRANCH  19  20
ENDBRANCH  18  19
ENDBRANCH   1  18
TORSDOF 28
ENDMDL
MODEL 3
REMARK VINA RESULT:    -5.141      2.205      2.999
REMARK INTER + INTRA:         -19.110
REMARK INTER:                 -14.162
REMARK INTRA:                  -4.948
REMARK UNBOUND:                -5.553
REMARK SMILES CCCCCCCCCCCCCCCCCCCCCCCCCCCCCC(=O)[O-]
REMARK SMILES IDX 16 1 17 2 18 3 19 4 20 5 21 6 22 7 23 8 24 9 25 10 26 11
REMARK SMILES IDX 27 12 28 13 29 14 30 15 31 16 32 17 15 18 14 19 13 20 12 21
REMARK SMILES IDX 11 22 10 23 9 24 8 25 7 26 6 27 5 28 4 29 3 30 2 31 1 32
REMARK H PARENT
REMARK Flexibility Score: inf
ROOT
ATOM      1  C   UNL     1       9.795  17.270  33.797  1.00  0.00     0.000 C 
ENDROOT
BRANCH   1   2
ATOM      2  C   UNL     1       8.502  17.719  34.496  1.00  0.00     0.000 C 
BRANCH   2   3
ATOM      3  C   UNL     1       8.348  19.244  34.432  1.00  0.00     0.000 C 
BRANCH   3   4
ATOM      4  C   UNL     1       8.767  19.895  35.759  1.00  0.00     0.000 C 
BRANCH   4   5
ATOM      5  C   UNL     1       8.885  18.886  36.919  1.00  0.00     0.000 C 
BRANCH   5   6
ATOM      6  C   UNL     1      10.142  19.036  37.797  1.00  0.00     0.000 C 
BRANCH   6   7
ATOM      7  C   UNL     1      11.372  19.511  37.005  1.00  0.00     0.000 C 
BRANCH   7   8
ATOM      8  C   UNL     1      12.128  18.356  36.329  1.00  0.00     0.000 C 
BRANCH   8   9
ATOM      9  C   UNL     1      12.349  17.156  37.263  1.00  0.00     0.000 C 
BRANCH   9  10
ATOM     10  C   UNL     1      13.618  17.303  38.121  1.00  0.00     0.000 C 
BRANCH  10  11
ATOM     11  C   UNL     1      14.862  17.672  37.292  1.00  0.00     0.000 C 
BRANCH  11  12
ATOM     12  C   UNL     1      15.712  18.770  37.972  1.00  0.00     0.000 C 
BRANCH  12  13
ATOM     13  C   UNL     1      15.021  20.146  38.012  1.00  0.00     0.006 C 
BRANCH  13  14
ATOM     14  C   UNL     1      14.362  20.473  39.360  1.00  0.00     0.053 C 
BRANCH  14  15
ATOM     15  C   UNL     1      15.182  21.434  40.166  1.00  0.00     0.041 C 
ATOM     16  O   UNL     1      14.950  22.671  40.106  1.00  0.00    -0.550 OA
ATOM     17  O   UNL     1      16.205  20.966  40.979  1.00  0.00    -0.550 OA
ENDBRANCH  14  15
ENDBRANCH  13  14
ENDBRANCH  12  13
ENDBRANCH  11  12
ENDBRANCH  10  11
ENDBRANCH   9  10
ENDBRANCH   8   9
ENDBRANCH   7   8
ENDBRANCH   6   7
ENDBRANCH   5   6
ENDBRANCH   4   5
ENDBRANCH   3   4
ENDBRANCH   2   3
ENDBRANCH   1   2
BRANCH   1  18
ATOM     18  C   UNL     1      10.134  18.130  32.569  1.00  0.00     0.000 C 
BRANCH  18  19
ATOM     19  C   UNL     1       9.866  17.395  31.244  1.00  0.00     0.000 C 
BRANCH  19  20
ATOM     20  C   UNL     1       9.375  18.334  30.127  1.00  0.00     0.000 C 
BRANCH  20  21
ATOM     21  C   UNL     1       8.603  19.573  30.615  1.00  0.00     0.000 C 
BRANCH  21  22
ATOM     22  C   UNL     1       8.020  20.410  29.463  1.00  0.00     0.000 C 
BRANCH  22  23
ATOM     23  C   UNL     1       7.876  21.901  29.835  1.00  0.00     0.000 C 
BRANCH  23  24
ATOM     24  C   UNL     1       8.102  22.192  31.328  1.00  0.00    -0.000 C 
BRANCH  24  25
ATOM     25  C   UNL     1       8.963  23.443  31.563  1.00  0.00    -0.000 C 
BRANCH  25  26
ATOM     26  C   UNL     1      10.073  23.228  32.610  1.00  0.00    -0.000 C 
BRANCH  26  27
ATOM     27  C   UNL     1      10.423  21.759  32.909  1.00  0.00    -0.000 C 
BRANCH  27  28
ATOM     28  C   UNL     1      11.620  21.604  33.865  1.00  0.00    -0.000 C 
BRANCH  28  29
ATOM     29  C   UNL     1      11.833  22.854  34.744  1.00  0.00    -0.000 C 
BRANCH  29  30
ATOM     30  C   UNL     1      11.274  22.715  36.170  1.00  0.00    -0.000 C 
BRANCH  30  31
ATOM     31  C   UNL     1       9.847  23.261  36.310  1.00  0.00    -0.003 C 
ATOM     32  C   UNL     1       9.409  23.297  37.772  1.00  0.00     0.004 C 
ENDBRANCH  30  31
ENDBRANCH  29  30
ENDBRANCH  28  29
ENDBRANCH  27  28
ENDBRANCH  26  27
ENDBRANCH  25  26
ENDBRANCH  24  25
ENDBRANCH  23  24
ENDBRANCH  22  23
ENDBRANCH  21  22
ENDBRANCH  20  21
ENDBRANCH  19  20
ENDBRANCH  18  19
ENDBRANCH   1  18
TORSDOF 28
ENDMDL
MODEL 4
REMARK VINA RESULT:    -5.112      2.612      5.480
REMARK INTER + INTRA:         -19.034
REMARK INTER:                 -13.811
REMARK INTRA:                  -5.223
REMARK UNBOUND:                -5.553
REMARK SMILES CCCCCCCCCCCCCCCCCCCCCCCCCCCCCC(=O)[O-]
REMARK SMILES IDX 16 1 17 2 18 3 19 4 20 5 21 6 22 7 23 8 24 9 25 10 26 11
REMARK SMILES IDX 27 12 28 13 29 14 30 15 31 16 32 17 15 18 14 19 13 20 12 21
REMARK SMILES IDX 11 22 10 23 9 24 8 25 7 26 6 27 5 28 4 29 3 30 2 31 1 32
REMARK H PARENT
REMARK Flexibility Score: inf
ROOT
ATOM      1  C   UNL     1       9.373  18.876  37.651  1.00  0.00     0.000 C 
ENDROOT
BRANCH   1   2
ATOM      2  C   UNL     1      10.755  18.991  38.311  1.00  0.00     0.000 C 
BRANCH   2   3
ATOM      3  C   UNL     1      11.869  18.685  37.301  1.00  0.00     0.000 C 
BRANCH   3   4
ATOM      4  C   UNL     1      12.141  17.174  37.222  1.00  0.00     0.000 C 
BRANCH   4   5
ATOM      5  C   UNL     1      13.121  16.793  36.095  1.00  0.00     0.000 C 
BRANCH   5   6
ATOM      6  C   UNL     1      14.311  15.915  36.526  1.00  0.00     0.000 C 
BRANCH   6   7
ATOM      7  C   UNL     1      15.320  16.666  37.411  1.00  0.00     0.000 C 
BRANCH   7   8
ATOM      8  C   UNL     1      15.723  18.031  36.828  1.00  0.00     0.000 C 
BRANCH   8   9
ATOM      9  C   UNL     1      15.659  19.167  37.862  1.00  0.00     0.000 C 
BRANCH   9  10
ATOM     10  C   UNL     1      15.054  18.711  39.201  1.00  0.00     0.000 C 
BRANCH  10  11
ATOM     11  C   UNL     1      14.298  19.837  39.931  1.00  0.00     0.000 C 
BRANCH  11  12
ATOM     12  C   UNL     1      15.060  21.181  39.880  1.00  0.00     0.000 C 
BRANCH  12  13
ATOM     13  C   UNL     1      14.160  22.387  39.553  1.00  0.00     0.006 C 
BRANCH  13  14
ATOM     14  C   UNL     1      12.929  22.033  38.705  1.00  0.00     0.053 C 
BRANCH  14  15
ATOM     15  C   UNL     1      11.870  23.090  38.786  1.00  0.00     0.041 C 
ATOM     16  O   UNL     1      10.790  22.954  38.152  1.00  0.00    -0.550 OA
ATOM     17  O   UNL     1      12.075  24.225  39.557  1.00  0.00    -0.550 OA
ENDBRANCH  14  15
ENDBRANCH  13  14
ENDBRANCH  12  13
ENDBRANCH  11  12
ENDBRANCH  10  11
ENDBRANCH   9  10
ENDBRANCH   8   9
ENDBRANCH   7   8
ENDBRANCH   6   7
ENDBRANCH   5   6
ENDBRANCH   4   5
ENDBRANCH   3   4
ENDBRANCH   2   3
ENDBRANCH   1   2
BRANCH   1  18
ATOM     18  C   UNL     1       9.184  19.872  36.495  1.00  0.00     0.000 C 
BRANCH  18  19
ATOM     19  C   UNL     1       8.566  19.214  35.248  1.00  0.00     0.000 C 
BRANCH  19  20
ATOM     20  C   UNL     1       8.731  17.683  35.234  1.00  0.00     0.000 C 
BRANCH  20  21
ATOM     21  C   UNL     1       9.823  17.158  34.284  1.00  0.00     0.000 C 
BRANCH  21  22
ATOM     22  C   UNL     1      10.474  18.272  33.444  1.00  0.00     0.000 C 
BRANCH  22  23
ATOM     23  C   UNL     1      10.169  18.125  31.938  1.00  0.00     0.000 C 
BRANCH  23  24
ATOM     24  C   UNL     1       8.731  18.513  31.556  1.00  0.00    -0.000 C 
BRANCH  24  25
ATOM     25  C   UNL     1       8.668  19.378  30.288  1.00  0.00    -0.000 C 
BRANCH  25  26
ATOM     26  C   UNL     1       8.153  20.806  30.551  1.00  0.00    -0.000 C 
BRANCH  26  27
ATOM     27  C   UNL     1       8.594  21.431  31.887  1.00  0.00    -0.000 C 
BRANCH  27  28
ATOM     28  C   UNL     1       8.986  22.914  31.762  1.00  0.00    -0.000 C 
BRANCH  28  29
ATOM     29  C   UNL     1      10.502  23.137  31.943  1.00  0.00    -0.000 C 
BRANCH  29  30
ATOM     30  C   UNL     1      11.222  21.973  32.645  1.00  0.00    -0.000 C 
BRANCH  30  31
ATOM     31  C   UNL     1      12.084  22.430  33.831  1.00  0.00    -0.003 C 
ATOM     32  C   UNL     1      12.170  21.347  34.902  1.00  0.00     0.004 C 
ENDBRANCH  30  31
ENDBRANCH  29  30
ENDBRANCH  28  29
ENDBRANCH  27  28
ENDBRANCH  26  27
ENDBRANCH  25  26
ENDBRANCH  24  25
ENDBRANCH  23  24
ENDBRANCH  22  23
ENDBRANCH  21  22
ENDBRANCH  20  21
ENDBRANCH  19  20
ENDBRANCH  18  19
ENDBRANCH   1  18
TORSDOF 28
ENDMDL
MODEL 5
REMARK VINA RESULT:    -5.101      1.617      2.585
REMARK INTER + INTRA:         -19.004
REMARK INTER:                 -13.744
REMARK INTRA:                  -5.260
REMARK UNBOUND:                -5.553
REMARK SMILES CCCCCCCCCCCCCCCCCCCCCCCCCCCCCC(=O)[O-]
REMARK SMILES IDX 16 1 17 2 18 3 19 4 20 5 21 6 22 7 23 8 24 9 25 10 26 11
REMARK SMILES IDX 27 12 28 13 29 14 30 15 31 16 32 17 15 18 14 19 13 20 12 21
REMARK SMILES IDX 11 22 10 23 9 24 8 25 7 26 6 27 5 28 4 29 3 30 2 31 1 32
REMARK H PARENT
REMARK Flexibility Score: inf
ROOT
ATOM      1  C   UNL     1      10.121  16.997  33.029  1.00  0.00     0.000 C 
ENDROOT
BRANCH   1   2
ATOM      2  C   UNL     1       9.182  17.189  34.229  1.00  0.00     0.000 C 
BRANCH   2   3
ATOM      3  C   UNL     1       8.114  18.247  33.923  1.00  0.00     0.000 C 
BRANCH   3   4
ATOM      4  C   UNL     1       8.003  19.265  35.069  1.00  0.00     0.000 C 
BRANCH   4   5
ATOM      5  C   UNL     1       7.963  18.607  36.463  1.00  0.00     0.000 C 
BRANCH   5   6
ATOM      6  C   UNL     1       8.890  19.242  37.518  1.00  0.00     0.000 C 
BRANCH   6   7
ATOM      7  C   UNL     1      10.319  18.674  37.479  1.00  0.00     0.000 C 
BRANCH   7   8
ATOM      8  C   UNL     1      11.324  19.636  36.824  1.00  0.00     0.000 C 
BRANCH   8   9
ATOM      9  C   UNL     1      11.752  19.190  35.417  1.00  0.00     0.000 C 
BRANCH   9  10
ATOM     10  C   UNL     1      13.061  18.380  35.429  1.00  0.00     0.000 C 
BRANCH  10  11
ATOM     11  C   UNL     1      12.827  16.867  35.594  1.00  0.00     0.000 C 
BRANCH  11  12
ATOM     12  C   UNL     1      13.803  16.233  36.612  1.00  0.00     0.000 C 
BRANCH  12  13
ATOM     13  C   UNL     1      13.664  16.805  38.036  1.00  0.00     0.006 C 
BRANCH  13  14
ATOM     14  C   UNL     1      14.935  17.490  38.558  1.00  0.00     0.053 C 
BRANCH  14  15
ATOM     15  C   UNL     1      14.660  18.874  39.062  1.00  0.00     0.041 C 
ATOM     16  O   UNL     1      13.492  19.203  39.403  1.00  0.00    -0.550 OA
ATOM     17  O   UNL     1      15.689  19.801  39.151  1.00  0.00    -0.550 OA
ENDBRANCH  14  15
ENDBRANCH  13  14
ENDBRANCH  12  13
ENDBRANCH  11  12
ENDBRANCH  10  11
ENDBRANCH   9  10
ENDBRANCH   8   9
ENDBRANCH   7   8
ENDBRANCH   6   7
ENDBRANCH   5   6
ENDBRANCH   4   5
ENDBRANCH   3   4
ENDBRANCH   2   3
ENDBRANCH   1   2
BRANCH   1  18
ATOM     18  C   UNL     1      10.125  18.207  32.080  1.00  0.00     0.000 C 
BRANCH  18  19
ATOM     19  C   UNL     1      10.062  17.792  30.599  1.00  0.00     0.000 C 
BRANCH  19  20
ATOM     20  C   UNL     1       9.028  18.599  29.794  1.00  0.00     0.000 C 
BRANCH  20  21
ATOM     21  C   UNL     1       8.294  19.692  30.594  1.00  0.00     0.000 C 
BRANCH  21  22
ATOM     22  C   UNL     1       8.311  21.062  29.894  1.00  0.00     0.000 C 
BRANCH  22  23
ATOM     23  C   UNL     1       8.671  22.210  30.862  1.00  0.00     0.000 C 
BRANCH  23  24
ATOM     24  C   UNL     1       8.353  21.902  32.334  1.00  0.00    -0.000 C 
BRANCH  24  25
ATOM     25  C   UNL     1       9.588  22.008  33.242  1.00  0.00    -0.000 C 
BRANCH  25  26
ATOM     26  C   UNL     1       9.435  23.061  34.356  1.00  0.00    -0.000 C 
BRANCH  26  27
ATOM     27  C   UNL     1       9.527  22.520  35.794  1.00  0.00    -0.000 C 
BRANCH  27  28
ATOM     28  C   UNL     1       9.737  23.624  36.845  1.00  0.00    -0.000 C 
BRANCH  28  29
ATOM     29  C   UNL     1       9.339  23.166  38.264  1.00  0.00    -0.000 C 
BRANCH  29  30
ATOM     30  C   UNL     1      10.446  22.391  39.000  1.00  0.00    -0.000 C 
BRANCH  30  31
ATOM     31  C   UNL     1      11.730  23.212  39.186  1.00  0.00    -0.003 C 
ATOM     32  C   UNL     1      12.911  22.559  38.474  1.00  0.00     0.004 C 
ENDBRANCH  30  31
ENDBRANCH  29  30
ENDBRANCH  28  29
ENDBRANCH  27  28
ENDBRANCH  26  27
ENDBRANCH  25  26
ENDBRANCH  24  25
ENDBRANCH  23  24
ENDBRANCH  22  23
ENDBRANCH  21  22
ENDBRANCH  20  21
ENDBRANCH  19  20
ENDBRANCH  18  19
ENDBRANCH   1  18
TORSDOF 28
ENDMDL
MODEL 6
REMARK VINA RESULT:    -5.089      2.782      7.236
REMARK INTER + INTRA:         -18.973
REMARK INTER:                 -13.880
REMARK INTRA:                  -5.093
REMARK UNBOUND:                -5.553
REMARK SMILES CCCCCCCCCCCCCCCCCCCCCCCCCCCCCC(=O)[O-]
REMARK SMILES IDX 16 1 17 2 18 3 19 4 20 5 21 6 22 7 23 8 24 9 25 10 26 11
REMARK SMILES IDX 27 12 28 13 29 14 30 15 31 16 32 17 15 18 14 19 13 20 12 21
REMARK SMILES IDX 11 22 10 23 9 24 8 25 7 26 6 27 5 28 4 29 3 30 2 31 1 32
REMARK H PARENT
REMARK Flexibility Score: inf
ROOT
ATOM      1  C   UNL     1      11.104  20.051  35.192  1.00  0.00     0.000 C 
ENDROOT
BRANCH   1   2
ATOM      2  C   UNL     1       9.834  19.416  35.778  1.00  0.00     0.000 C 
BRANCH   2   3
ATOM      3  C   UNL     1       8.625  19.674  34.870  1.00  0.00     0.000 C 
BRANCH   3   4
ATOM      4  C   UNL     1       8.219  18.397  34.118  1.00  0.00     0.000 C 
BRANCH   4   5
ATOM      5  C   UNL     1       9.213  17.234  34.318  1.00  0.00     0.000 C 
BRANCH   5   6
ATOM      6  C   UNL     1      10.162  16.969  33.133  1.00  0.00     0.000 C 
BRANCH   6   7
ATOM      7  C   UNL     1      10.170  18.112  32.105  1.00  0.00     0.000 C 
BRANCH   7   8
ATOM      8  C   UNL     1       9.790  17.644  30.690  1.00  0.00     0.000 C 
BRANCH   8   9
ATOM      9  C   UNL     1       9.100  18.738  29.861  1.00  0.00     0.000 C 
BRANCH   9  10
ATOM     10  C   UNL     1       8.386  19.780  30.739  1.00  0.00     0.000 C 
BRANCH  10  11
ATOM     11  C   UNL     1       8.065  21.082  29.982  1.00  0.00     0.000 C 
BRANCH  11  12
ATOM     12  C   UNL     1       8.516  22.338  30.763  1.00  0.00     0.000 C 
BRANCH  12  13
ATOM     13  C   UNL     1       8.647  22.104  32.280  1.00  0.00     0.006 C 
BRANCH  13  14
ATOM     14  C   UNL     1       8.942  23.380  33.083  1.00  0.00     0.053 C 
BRANCH  14  15
ATOM     15  C   UNL     1      10.352  23.409  33.591  1.00  0.00     0.041 C 
ATOM     16  O   UNL     1      10.602  23.858  34.741  1.00  0.00    -0.550 OA
ATOM     17  O   UNL     1      11.390  22.946  32.794  1.00  0.00    -0.550 OA
ENDBRANCH  14  15
ENDBRANCH  13  14
ENDBRANCH  12  13
ENDBRANCH  11  12
ENDBRANCH  10  11
ENDBRANCH   9  10
ENDBRANCH   8   9
ENDBRANCH   7   8
ENDBRANCH   6   7
ENDBRANCH   5   6
ENDBRANCH   4   5
ENDBRANCH   3   4
ENDBRANCH   2   3
ENDBRANCH   1   2
BRANCH   1  18
ATOM     18  C   UNL     1      12.346  19.162  35.364  1.00  0.00     0.000 C 
BRANCH  18  19
ATOM     19  C   UNL     1      12.098  17.986  36.326  1.00  0.00     0.000 C 
BRANCH  19  20
ATOM     20  C   UNL     1      12.987  16.766  36.023  1.00  0.00     0.000 C 
BRANCH  20  21
ATOM     21  C   UNL     1      14.449  17.100  35.675  1.00  0.00     0.000 C 
BRANCH  21  22
ATOM     22  C   UNL     1      15.344  17.247  36.919  1.00  0.00     0.000 C 
BRANCH  22  23
ATOM     23  C   UNL     1      15.986  18.647  37.017  1.00  0.00     0.000 C 
BRANCH  23  24
ATOM     24  C   UNL     1      15.717  19.362  38.352  1.00  0.00    -0.000 C 
BRANCH  24  25
ATOM     25  C   UNL     1      14.401  18.915  39.008  1.00  0.00    -0.000 C 
BRANCH  25  26
ATOM     26  C   UNL     1      13.531  20.092  39.489  1.00  0.00    -0.000 C 
BRANCH  26  27
ATOM     27  C   UNL     1      12.917  20.957  38.375  1.00  0.00    -0.000 C 
BRANCH  27  28
ATOM     28  C   UNL     1      12.070  22.126  38.912  1.00  0.00    -0.000 C 
BRANCH  28  29
ATOM     29  C   UNL     1      10.573  21.968  38.575  1.00  0.00    -0.000 C 
BRANCH  29  30
ATOM     30  C   UNL     1       9.759  21.265  39.676  1.00  0.00    -0.000 C 
BRANCH  30  31
ATOM     31  C   UNL     1       9.354  19.833  39.300  1.00  0.00    -0.003 C 
ATOM     32  C   UNL     1       9.988  18.814  40.242  1.00  0.00     0.004 C 
ENDBRANCH  30  31
ENDBRANCH  29  30
ENDBRANCH  28  29
ENDBRANCH  27  28
ENDBRANCH  26  27
ENDBRANCH  25  26
ENDBRANCH  24  25
ENDBRANCH  23  24
ENDBRANCH  22  23
ENDBRANCH  21  22
ENDBRANCH  20  21
ENDBRANCH  19  20
ENDBRANCH  18  19
ENDBRANCH   1  18
TORSDOF 28
ENDMDL
MODEL 7
REMARK VINA RESULT:    -5.063      2.653      6.539
REMARK INTER + INTRA:         -18.904
REMARK INTER:                 -12.767
REMARK INTRA:                  -6.137
REMARK UNBOUND:                -5.553
REMARK SMILES CCCCCCCCCCCCCCCCCCCCCCCCCCCCCC(=O)[O-]
REMARK SMILES IDX 16 1 17 2 18 3 19 4 20 5 21 6 22 7 23 8 24 9 25 10 26 11
REMARK SMILES IDX 27 12 28 13 29 14 30 15 31 16 32 17 15 18 14 19 13 20 12 21
REMARK SMILES IDX 11 22 10 23 9 24 8 25 7 26 6 27 5 28 4 29 3 30 2 31 1 32
REMARK H PARENT
REMARK Flexibility Score: inf
ROOT
ATOM      1  C   UNL     1       9.520  19.033  37.019  1.00  0.00     0.000 C 
ENDROOT
BRANCH   1   2
ATOM      2  C   UNL     1       8.654  20.301  37.066  1.00  0.00     0.000 C 
BRANCH   2   3
ATOM      3  C   UNL     1       9.169  21.275  38.133  1.00  0.00     0.000 C 
BRANCH   3   4
ATOM      4  C   UNL     1       9.109  22.725  37.630  1.00  0.00     0.000 C 
BRANCH   4   5
ATOM      5  C   UNL     1       9.332  22.848  36.109  1.00  0.00     0.000 C 
BRANCH   5   6
ATOM      6  C   UNL     1      10.128  24.089  35.659  1.00  0.00     0.000 C 
BRANCH   6   7
ATOM      7  C   UNL     1       9.966  24.393  34.160  1.00  0.00     0.000 C 
BRANCH   7   8
ATOM      8  C   UNL     1      11.311  24.593  33.443  1.00  0.00     0.000 C 
BRANCH   8   9
ATOM      9  C   UNL     1      11.618  23.486  32.422  1.00  0.00     0.000 C 
BRANCH   9  10
ATOM     10  C   UNL     1      12.176  22.214  33.083  1.00  0.00     0.000 C 
BRANCH  10  11
ATOM     11  C   UNL     1      11.378  20.949  32.715  1.00  0.00     0.000 C 
BRANCH  11  12
ATOM     12  C   UNL     1      10.130  20.766  33.608  1.00  0.00     0.000 C 
BRANCH  12  13
ATOM     13  C   UNL     1       8.970  20.038  32.902  1.00  0.00     0.006 C 
BRANCH  13  14
ATOM     14  C   UNL     1       8.786  18.581  33.347  1.00  0.00     0.053 C 
BRANCH  14  15
ATOM     15  C   UNL     1       9.714  17.652  32.625  1.00  0.00     0.041 C 
ATOM     16  O   UNL     1      10.159  16.625  33.202  1.00  0.00    -0.550 OA
ATOM     17  O   UNL     1      10.091  17.923  31.317  1.00  0.00    -0.550 OA
ENDBRANCH  14  15
ENDBRANCH  13  14
ENDBRANCH  12  13
ENDBRANCH  11  12
ENDBRANCH  10  11
ENDBRANCH   9  10
ENDBRANCH   8   9
ENDBRANCH   7   8
ENDBRANCH   6   7
ENDBRANCH   5   6
ENDBRANCH   4   5
ENDBRANCH   3   4
ENDBRANCH   2   3
ENDBRANCH   1   2
BRANCH   1  18
ATOM     18  C   UNL     1      11.026  19.344  37.007  1.00  0.00     0.000 C 
BRANCH  18  19
ATOM     19  C   UNL     1      11.789  18.514  35.960  1.00  0.00     0.000 C 
BRANCH  19  20
ATOM     20  C   UNL     1      12.594  17.358  36.582  1.00  0.00     0.000 C 
BRANCH  20  21
ATOM     21  C   UNL     1      12.937  17.537  38.073  1.00  0.00     0.000 C 
BRANCH  21  22
ATOM     22  C   UNL     1      14.373  17.101  38.415  1.00  0.00     0.000 C 
BRANCH  22  23
ATOM     23  C   UNL     1      15.375  17.455  37.296  1.00  0.00     0.000 C 
BRANCH  23  24
ATOM     24  C   UNL     1      15.974  18.866  37.422  1.00  0.00    -0.000 C 
BRANCH  24  25
ATOM     25  C   UNL     1      15.920  19.652  36.103  1.00  0.00    -0.000 C 
BRANCH  25  26
ATOM     26  C   UNL     1      16.229  21.152  36.276  1.00  0.00    -0.000 C 
BRANCH  26  27
ATOM     27  C   UNL     1      15.089  22.110  35.888  1.00  0.00    -0.000 C 
BRANCH  27  28
ATOM     28  C   UNL     1      13.708  21.642  36.383  1.00  0.00    -0.000 C 
BRANCH  28  29
ATOM     29  C   UNL     1      13.026  22.687  37.290  1.00  0.00    -0.000 C 
BRANCH  29  30
ATOM     30  C   UNL     1      12.690  22.164  38.697  1.00  0.00    -0.000 C 
BRANCH  30  31
ATOM     31  C   UNL     1      13.620  21.032  39.154  1.00  0.00    -0.003 C 
ATOM     32  C   UNL     1      14.893  21.584  39.789  1.00  0.00     0.004 C 
ENDBRANCH  30  31
ENDBRANCH  29  30
ENDBRANCH  28  29
ENDBRANCH  27  28
ENDBRANCH  26  27
ENDBRANCH  25  26
ENDBRANCH  24  25
ENDBRANCH  23  24
ENDBRANCH  22  23
ENDBRANCH  21  22
ENDBRANCH  20  21
ENDBRANCH  19  20
ENDBRANCH  18  19
ENDBRANCH   1  18
TORSDOF 28
ENDMDL
MODEL 8
REMARK VINA RESULT:    -5.057      2.877      6.031
REMARK INTER + INTRA:         -18.888
REMARK INTER:                 -13.333
REMARK INTRA:                  -5.555
REMARK UNBOUND:                -5.553
REMARK SMILES CCCCCCCCCCCCCCCCCCCCCCCCCCCCCC(=O)[O-]
REMARK SMILES IDX 16 1 17 2 18 3 19 4 20 5 21 6 22 7 23 8 24 9 25 10 26 11
REMARK SMILES IDX 27 12 28 13 29 14 30 15 31 16 32 17 15 18 14 19 13 20 12 21
REMARK SMILES IDX 11 22 10 23 9 24 8 25 7 26 6 27 5 28 4 29 3 30 2 31 1 32
REMARK H PARENT
REMARK Flexibility Score: inf
ROOT
ATOM      1  C   UNL     1      12.014  17.931  34.988  1.00  0.00     0.000 C 
ENDROOT
BRANCH   1   2
ATOM      2  C   UNL     1      12.291  19.148  35.884  1.00  0.00     0.000 C 
BRANCH   2   3
ATOM      3  C   UNL     1      12.118  18.786  37.364  1.00  0.00     0.000 C 
BRANCH   3   4
ATOM      4  C   UNL     1      12.653  17.374  37.652  1.00  0.00     0.000 C 
BRANCH   4   5
ATOM      5  C   UNL     1      13.998  17.377  38.407  1.00  0.00     0.000 C 
BRANCH   5   6
ATOM      6  C   UNL     1      14.407  18.732  39.016  1.00  0.00     0.000 C 
BRANCH   6   7
ATOM      7  C   UNL     1      15.745  19.256  38.467  1.00  0.00     0.000 C 
BRANCH   7   8
ATOM      8  C   UNL     1      15.905  19.013  36.957  1.00  0.00     0.000 C 
BRANCH   8   9
ATOM      9  C   UNL     1      16.183  20.302  36.168  1.00  0.00     0.000 C 
BRANCH   9  10
ATOM     10  C   UNL     1      15.138  21.398  36.441  1.00  0.00     0.000 C 
BRANCH  10  11
ATOM     11  C   UNL     1      15.657  22.501  37.381  1.00  0.00     0.000 C 
BRANCH  11  12
ATOM     12  C   UNL     1      14.570  22.990  38.365  1.00  0.00     0.000 C 
BRANCH  12  13
ATOM     13  C   UNL     1      13.134  22.712  37.882  1.00  0.00     0.006 C 
BRANCH  13  14
ATOM     14  C   UNL     1      12.120  22.527  39.020  1.00  0.00     0.053 C 
BRANCH  14  15
ATOM     15  C   UNL     1      11.353  23.785  39.298  1.00  0.00     0.041 C 
ATOM     16  O   UNL     1      11.400  24.316  40.440  1.00  0.00    -0.550 OA
ATOM     17  O   UNL     1      10.585  24.368  38.300  1.00  0.00    -0.550 OA
ENDBRANCH  14  15
ENDBRANCH  13  14
ENDBRANCH  12  13
ENDBRANCH  11  12
ENDBRANCH  10  11
ENDBRANCH   9  10
ENDBRANCH   8   9
ENDBRANCH   7   8
ENDBRANCH   6   7
ENDBRANCH   5   6
ENDBRANCH   4   5
ENDBRANCH   3   4
ENDBRANCH   2   3
ENDBRANCH   1   2
BRANCH   1  18
ATOM     18  C   UNL     1      10.717  18.076  34.176  1.00  0.00     0.000 C 
BRANCH  18  19
ATOM     19  C   UNL     1       9.666  17.015  34.552  1.00  0.00     0.000 C 
BRANCH  19  20
ATOM     20  C   UNL     1       8.942  17.332  35.873  1.00  0.00     0.000 C 
BRANCH  20  21
ATOM     21  C   UNL     1       8.347  18.750  35.963  1.00  0.00     0.000 C 
BRANCH  21  22
ATOM     22  C   UNL     1       8.476  19.367  37.366  1.00  0.00     0.000 C 
BRANCH  22  23
ATOM     23  C   UNL     1       9.085  20.785  37.330  1.00  0.00     0.000 C 
BRANCH  23  24
ATOM     24  C   UNL     1       9.021  21.452  35.945  1.00  0.00    -0.000 C 
BRANCH  24  25
ATOM     25  C   UNL     1      10.323  22.180  35.578  1.00  0.00    -0.000 C 
BRANCH  25  26
ATOM     26  C   UNL     1      10.267  22.868  34.201  1.00  0.00    -0.000 C 
BRANCH  26  27
ATOM     27  C   UNL     1       8.856  23.064  33.618  1.00  0.00    -0.000 C 
BRANCH  27  28
ATOM     28  C   UNL     1       8.612  22.250  32.334  1.00  0.00    -0.000 C 
BRANCH  28  29
ATOM     29  C   UNL     1       8.711  20.729  32.577  1.00  0.00    -0.000 C 
BRANCH  29  30
ATOM     30  C   UNL     1       9.586  19.990  31.549  1.00  0.00    -0.000 C 
BRANCH  30  31
ATOM     31  C   UNL     1       8.854  18.827  30.865  1.00  0.00    -0.003 C 
ATOM     32  C   UNL     1       9.841  17.815  30.290  1.00  0.00     0.004 C 
ENDBRANCH  30  31
ENDBRANCH  29  30
ENDBRANCH  28  29
ENDBRANCH  27  28
ENDBRANCH  26  27
ENDBRANCH  25  26
ENDBRANCH  24  25
ENDBRANCH  23  24
ENDBRANCH  22  23
ENDBRANCH  21  22
ENDBRANCH  20  21
ENDBRANCH  19  20
ENDBRANCH  18  19
ENDBRANCH   1  18
TORSDOF 28
ENDMDL
MODEL 9
REMARK VINA RESULT:    -5.009      1.705      4.576
REMARK INTER + INTRA:         -18.761
REMARK INTER:                 -13.418
REMARK INTRA:                  -5.343
REMARK UNBOUND:                -5.553
REMARK SMILES CCCCCCCCCCCCCCCCCCCCCCCCCCCCCC(=O)[O-]
REMARK SMILES IDX 16 1 17 2 18 3 19 4 20 5 21 6 22 7 23 8 24 9 25 10 26 11
REMARK SMILES IDX 27 12 28 13 29 14 30 15 31 16 32 17 15 18 14 19 13 20 12 21
REMARK SMILES IDX 11 22 10 23 9 24 8 25 7 26 6 27 5 28 4 29 3 30 2 31 1 32
REMARK H PARENT
REMARK Flexibility Score: inf
ROOT
ATOM      1  C   UNL     1      10.055  18.183  32.295  1.00  0.00     0.000 C 
ENDROOT
BRANCH   1   2
ATOM      2  C   UNL     1       9.762  17.746  30.852  1.00  0.00     0.000 C 
BRANCH   2   3
ATOM      3  C   UNL     1       9.023  18.851  30.086  1.00  0.00     0.000 C 
BRANCH   3   4
ATOM      4  C   UNL     1       8.506  19.934  31.045  1.00  0.00     0.000 C 
BRANCH   4   5
ATOM      5  C   UNL     1       8.097  21.235  30.326  1.00  0.00     0.000 C 
BRANCH   5   6
ATOM      6  C   UNL     1       8.772  22.518  30.851  1.00  0.00     0.000 C 
BRANCH   6   7
ATOM      7  C   UNL     1       9.777  22.245  31.982  1.00  0.00     0.000 C 
BRANCH   7   8
ATOM      8  C   UNL     1       9.236  22.635  33.367  1.00  0.00     0.000 C 
BRANCH   8   9
ATOM      9  C   UNL     1       9.834  21.792  34.505  1.00  0.00     0.000 C 
BRANCH   9  10
ATOM     10  C   UNL     1      11.293  21.385  34.233  1.00  0.00     0.000 C 
BRANCH  10  11
ATOM     11  C   UNL     1      11.621  19.965  34.729  1.00  0.00     0.000 C 
BRANCH  11  12
ATOM     12  C   UNL     1      12.121  19.957  36.191  1.00  0.00     0.000 C 
BRANCH  12  13
ATOM     13  C   UNL     1      13.604  19.564  36.332  1.00  0.00     0.006 C 
BRANCH  13  14
ATOM     14  C   UNL     1      13.869  18.061  36.158  1.00  0.00     0.053 C 
BRANCH  14  15
ATOM     15  C   UNL     1      12.987  17.231  37.040  1.00  0.00     0.041 C 
ATOM     16  O   UNL     1      13.278  17.069  38.255  1.00  0.00    -0.550 OA
ATOM     17  O   UNL     1      11.847  16.632  36.521  1.00  0.00    -0.550 OA
ENDBRANCH  14  15
ENDBRANCH  13  14
ENDBRANCH  12  13
ENDBRANCH  11  12
ENDBRANCH  10  11
ENDBRANCH   9  10
ENDBRANCH   8   9
ENDBRANCH   7   8
ENDBRANCH   6   7
ENDBRANCH   5   6
ENDBRANCH   4   5
ENDBRANCH   3   4
ENDBRANCH   2   3
ENDBRANCH   1   2
BRANCH   1  18
ATOM     18  C   UNL     1      10.144  16.996  33.268  1.00  0.00     0.000 C 
BRANCH  18  19
ATOM     19  C   UNL     1       9.061  17.049  34.361  1.00  0.00     0.000 C 
BRANCH  19  20
ATOM     20  C   UNL     1       8.170  18.301  34.261  1.00  0.00     0.000 C 
BRANCH  20  21
ATOM     21  C   UNL     1       7.919  19.025  35.596  1.00  0.00     0.000 C 
BRANCH  21  22
ATOM     22  C   UNL     1       8.817  18.512  36.736  1.00  0.00     0.000 C 
BRANCH  22  23
ATOM     23  C   UNL     1       8.767  19.425  37.979  1.00  0.00     0.000 C 
BRANCH  23  24
ATOM     24  C   UNL     1       8.514  20.906  37.651  1.00  0.00    -0.000 C 
BRANCH  24  25
ATOM     25  C   UNL     1       9.574  21.837  38.259  1.00  0.00    -0.000 C 
BRANCH  25  26
ATOM     26  C   UNL     1       9.319  23.327  37.961  1.00  0.00    -0.000 C 
BRANCH  26  27
ATOM     27  C   UNL     1      10.428  24.041  37.169  1.00  0.00    -0.000 C 
BRANCH  27  28
ATOM     28  C   UNL     1      11.820  23.417  37.379  1.00  0.00    -0.000 C 
BRANCH  28  29
ATOM     29  C   UNL     1      12.581  24.065  38.554  1.00  0.00    -0.000 C 
BRANCH  29  30
ATOM     30  C   UNL     1      13.331  23.057  39.442  1.00  0.00    -0.000 C 
BRANCH  30  31
ATOM     31  C   UNL     1      14.406  22.271  38.679  1.00  0.00    -0.003 C 
ATOM     32  C   UNL     1      15.587  23.165  38.311  1.00  0.00     0.004 C 
ENDBRANCH  30  31
ENDBRANCH  29  30
ENDBRANCH  28  29
ENDBRANCH  27  28
ENDBRANCH  26  27
ENDBRANCH  25  26
ENDBRANCH  24  25
ENDBRANCH  23  24
ENDBRANCH  22  23
ENDBRANCH  21  22
ENDBRANCH  20  21
ENDBRANCH  19  20
ENDBRANCH  18  19
ENDBRANCH   1  18
TORSDOF 28
ENDMDL
