MODEL 1
REMARK VINA RESULT:    -3.686      0.000      0.000
REMARK INTER + INTRA:          -5.103
REMARK INTER:                  -4.763
REMARK INTRA:                  -0.340
REMARK UNBOUND:                -0.340
REMARK SMILES CCCCCCC(=O)[O-]
REMARK SMILES IDX 5 1 6 2 7 3 8 4 9 5 4 6 3 7 2 8 1 9
REMARK H PARENT
REMARK Flexibility Score: inf
ROOT
ATOM      1  C   UNL     1      61.064  29.453  13.992  1.00  0.00     0.006 C 
ENDROOT
BRANCH   1   2
ATOM      2  C   UNL     1      60.845  28.270  13.038  1.00  0.00     0.053 C 
BRANCH   2   3
ATOM      3  C   UNL     1      59.515  28.344  12.352  1.00  0.00     0.041 C 
ATOM      4  O   UNL     1      58.511  27.774  12.855  1.00  0.00    -0.550 OA
ATOM      5  O   UNL     1      59.378  29.069  11.175  1.00  0.00    -0.550 OA
ENDBRANCH   2   3
ENDBRANCH   1   2
BRANCH   1   6
ATOM      6  C   UNL     1      62.184  30.391  13.505  1.00  0.00     0.000 C 
BRANCH   6   7
ATOM      7  C   UNL     1      61.659  31.519  12.604  1.00  0.00    -0.000 C 
BRANCH   7   8
ATOM      8  C   UNL     1      60.265  32.010  13.022  1.00  0.00    -0.003 C 
ATOM      9  C   UNL     1      60.363  33.126  14.059  1.00  0.00     0.004 C 
ENDBRANCH   7   8
ENDBRANCH   6   7
ENDBRANCH   1   6
TORSDOF 5
ENDMDL
MODEL 2
REMARK VINA RESULT:    -3.682      1.210      1.517
REMARK INTER + INTRA:          -5.098
REMARK INTER:                  -4.669
REMARK INTRA:                  -0.429
REMARK UNBOUND:                -0.340
REMARK SMILES CCCCCCC(=O)[O-]
REMARK SMILES IDX 5 1 6 2 7 3 8 4 9 5 4 6 3 7 2 8 1 9
REMARK H PARENT
REMARK Flexibility Score: inf
ROOT
ATOM      1  C   UNL     1      61.525  28.611  13.393  1.00  0.00     0.006 C 
ENDROOT
BRANCH   1   2
ATOM      2  C   UNL     1      60.234  28.139  12.710  1.00  0.00     0.053 C 
BRANCH   2   3
ATOM      3  C   UNL     1      60.161  28.588  11.282  1.00  0.00     0.041 C 
ATOM      4  O   UNL     1      59.480  29.601  10.972  1.00  0.00    -0.550 OA
ATOM      5  O   UNL     1      60.871  27.908  10.300  1.00  0.00    -0.550 OA
ENDBRANCH   2   3
ENDBRANCH   1   2
BRANCH   1   6
ATOM      6  C   UNL     1      61.327  29.930  14.161  1.00  0.00     0.000 C 
BRANCH   6   7
ATOM      7  C   UNL     1      61.806  31.154  13.364  1.00  0.00    -0.000 C 
BRANCH   7   8
ATOM      8  C   UNL     1      60.696  32.196  13.158  1.00  0.00    -0.003 C 
ATOM      9  C   UNL     1      59.407  31.770  13.855  1.00  0.00     0.004 C 
ENDBRANCH   7   8
ENDBRANCH   6   7
ENDBRANCH   1   6
TORSDOF 5
ENDMDL
MODEL 3
REMARK VINA RESULT:    -3.667      2.463      3.405
REMARK INTER + INTRA:          -5.079
REMARK INTER:                  -4.676
REMARK INTRA:                  -0.403
REMARK UNBOUND:                -0.340
REMARK SMILES CCCCCCC(=O)[O-]
REMARK SMILES IDX 5 1 6 2 7 3 8 4 9 5 4 6 3 7 2 8 1 9
REMARK H PARENT
REMARK Flexibility Score: inf
ROOT
ATOM      1  C   UNL     1      62.329  29.688  11.257  1.00  0.00     0.006 C 
ENDROOT
BRANCH   1   2
ATOM      2  C   UNL     1      62.297  28.914   9.932  1.00  0.00     0.053 C 
BRANCH   2   3
ATOM      3  C   UNL     1      60.894  28.652   9.473  1.00  0.00     0.041 C 
ATOM      4  O   UNL     1      60.587  27.533   8.986  1.00  0.00    -0.550 OA
ATOM      5  O   UNL     1      59.921  29.634   9.612  1.00  0.00    -0.550 OA
ENDBRANCH   2   3
ENDBRANCH   1   2
BRANCH   1   6
ATOM      6  C   UNL     1      62.641  28.775  12.456  1.00  0.00     0.000 C 
BRANCH   6   7
ATOM      7  C   UNL     1      61.644  28.956  13.611  1.00  0.00    -0.000 C 
BRANCH   7   8
ATOM      8  C   UNL     1      60.199  29.137  13.123  1.00  0.00    -0.003 C 
ATOM      9  C   UNL     1      59.524  27.787  12.893  1.00  0.00     0.004 C 
ENDBRANCH   7   8
ENDBRANCH   6   7
ENDBRANCH   1   6
TORSDOF 5
ENDMDL
MODEL 4
REMARK VINA RESULT:    -3.649      2.901      4.101
REMARK INTER + INTRA:          -5.056
REMARK INTER:                  -4.685
REMARK INTRA:                  -0.370
REMARK UNBOUND:                -0.340
REMARK SMILES CCCCCCC(=O)[O-]
REMARK SMILES IDX 5 1 6 2 7 3 8 4 9 5 4 6 3 7 2 8 1 9
REMARK H PARENT
REMARK Flexibility Score: inf
ROOT
ATOM      1  C   UNL     1      60.694  28.185  10.310  1.00  0.00     0.006 C 
ENDROOT
BRANCH   1   2
ATOM      2  C   UNL     1      61.551  29.332   9.755  1.00  0.00     0.053 C 
BRANCH   2   3
ATOM      3  C   UNL     1      63.008  29.126  10.037  1.00  0.00     0.041 C 
ATOM      4  O   UNL     1      63.465  29.334  11.192  1.00  0.00    -0.550 OA
ATOM      5  O   UNL     1      63.855  28.676   9.032  1.00  0.00    -0.550 OA
ENDBRANCH   2   3
ENDBRANCH   1   2
BRANCH   1   6
ATOM      6  C   UNL     1      59.630  28.683  11.304  1.00  0.00     0.000 C 
BRANCH   6   7
ATOM      7  C   UNL     1      59.784  28.055  12.698  1.00  0.00    -0.000 C 
BRANCH   7   8
ATOM      8  C   UNL     1      60.958  28.650  13.488  1.00  0.00    -0.003 C 
ATOM      9  C   UNL     1      60.837  30.168  13.592  1.00  0.00     0.004 C 
ENDBRANCH   7   8
ENDBRANCH   6   7
ENDBRANCH   1   6
TORSDOF 5
ENDMDL
MODEL 5
REMARK VINA RESULT:    -3.595     13.297     14.211
REMARK INTER + INTRA:          -4.986
REMARK INTER:                  -4.537
REMARK INTRA:                  -0.449
REMARK UNBOUND:                -0.340
REMARK SMILES CCCCCCC(=O)[O-]
REMARK SMILES IDX 5 1 6 2 7 3 8 4 9 5 4 6 3 7 2 8 1 9
REMARK H PARENT
REMARK Flexibility Score: inf
ROOT
ATOM      1  C   UNL     1      61.114  27.045  26.792  1.00  0.00     0.006 C 
ENDROOT
BRANCH   1   2
ATOM      2  C   UNL     1      62.086  27.696  27.785  1.00  0.00     0.053 C 
BRANCH   2   3
ATOM      3  C   UNL     1      61.525  28.956  28.371  1.00  0.00     0.041 C 
ATOM      4  O   UNL     1      60.499  28.913  29.100  1.00  0.00    -0.550 OA
ATOM      5  O   UNL     1      62.152  30.174  28.136  1.00  0.00    -0.550 OA
ENDBRANCH   2   3
ENDBRANCH   1   2
BRANCH   1   6
ATOM      6  C   UNL     1      60.671  28.021  25.688  1.00  0.00     0.000 C 
BRANCH   6   7
ATOM      7  C   UNL     1      61.741  28.210  24.602  1.00  0.00    -0.000 C 
BRANCH   7   8
ATOM      8  C   UNL     1      62.370  29.611  24.630  1.00  0.00    -0.003 C 
ATOM      9  C   UNL     1      63.837  29.546  25.047  1.00  0.00     0.004 C 
ENDBRANCH   7   8
ENDBRANCH   6   7
ENDBRANCH   1   6
TORSDOF 5
ENDMDL
MODEL 6
REMARK VINA RESULT:    -3.553     13.965     14.791
REMARK INTER + INTRA:          -4.932
REMARK INTER:                  -4.487
REMARK INTRA:                  -0.445
REMARK UNBOUND:                -0.340
REMARK SMILES CCCCCCC(=O)[O-]
REMARK SMILES IDX 5 1 6 2 7 3 8 4 9 5 4 6 3 7 2 8 1 9
REMARK H PARENT
REMARK Flexibility Score: inf
ROOT
ATOM      1  C   UNL     1      60.989  28.621  28.919  1.00  0.00     0.006 C 
ENDROOT
BRANCH   1   2
ATOM      2  C   UNL     1      61.023  27.175  28.405  1.00  0.00     0.053 C 
BRANCH   2   3
ATOM      3  C   UNL     1      61.390  27.107  26.953  1.00  0.00     0.041 C 
ATOM      4  O   UNL     1      60.554  27.441  26.073  1.00  0.00    -0.550 OA
ATOM      5  O   UNL     1      62.664  26.703  26.574  1.00  0.00    -0.550 OA
ENDBRANCH   2   3
ENDBRANCH   1   2
BRANCH   1   6
ATOM      6  C   UNL     1      62.401  29.200  29.116  1.00  0.00     0.000 C 
BRANCH   6   7
ATOM      7  C   UNL     1      62.656  30.443  28.249  1.00  0.00    -0.000 C 
BRANCH   7   8
ATOM      8  C   UNL     1      63.655  30.178  27.113  1.00  0.00    -0.003 C 
ATOM      9  C   UNL     1      62.972  30.262  25.751  1.00  0.00     0.004 C 
ENDBRANCH   7   8
ENDBRANCH   6   7
ENDBRANCH   1   6
TORSDOF 5
ENDMDL
MODEL 7
REMARK VINA RESULT:    -3.551     12.305     13.357
REMARK INTER + INTRA:          -4.930
REMARK INTER:                  -4.490
REMARK INTRA:                  -0.440
REMARK UNBOUND:                -0.340
REMARK SMILES CCCCCCC(=O)[O-]
REMARK SMILES IDX 5 1 6 2 7 3 8 4 9 5 4 6 3 7 2 8 1 9
REMARK H PARENT
REMARK Flexibility Score: inf
ROOT
ATOM      1  C   UNL     1      61.801  28.854  24.637  1.00  0.00     0.006 C 
ENDROOT
BRANCH   1   2
ATOM      2  C   UNL     1      60.890  27.869  25.383  1.00  0.00     0.053 C 
BRANCH   2   3
ATOM      3  C   UNL     1      61.296  27.711  26.817  1.00  0.00     0.041 C 
ATOM      4  O   UNL     1      61.842  26.644  27.206  1.00  0.00    -0.550 OA
ATOM      5  O   UNL     1      61.100  28.751  27.716  1.00  0.00    -0.550 OA
ENDBRANCH   2   3
ENDBRANCH   1   2
BRANCH   1   6
ATOM      6  C   UNL     1      62.864  28.134  23.789  1.00  0.00     0.000 C 
BRANCH   6   7
ATOM      7  C   UNL     1      64.214  28.012  24.512  1.00  0.00    -0.000 C 
BRANCH   7   8
ATOM      8  C   UNL     1      64.546  26.565  24.906  1.00  0.00    -0.003 C 
ATOM      9  C   UNL     1      63.646  25.576  24.169  1.00  0.00     0.004 C 
ENDBRANCH   7   8
ENDBRANCH   6   7
ENDBRANCH   1   6
TORSDOF 5
ENDMDL
MODEL 8
REMARK VINA RESULT:    -3.533     12.990     14.029
REMARK INTER + INTRA:          -4.907
REMARK INTER:                  -4.474
REMARK INTRA:                  -0.433
REMARK UNBOUND:                -0.340
REMARK SMILES CCCCCCC(=O)[O-]
REMARK SMILES IDX 5 1 6 2 7 3 8 4 9 5 4 6 3 7 2 8 1 9
REMARK H PARENT
REMARK Flexibility Score: inf
ROOT
ATOM      1  C   UNL     1      60.614  27.533  25.714  1.00  0.00     0.006 C 
ENDROOT
BRANCH   1   2
ATOM      2  C   UNL     1      61.234  27.077  27.042  1.00  0.00     0.053 C 
BRANCH   2   3
ATOM      3  C   UNL     1      61.632  28.239  27.900  1.00  0.00     0.041 C 
ATOM      4  O   UNL     1      60.751  28.944  28.458  1.00  0.00    -0.550 OA
ATOM      5  O   UNL     1      62.976  28.524  28.108  1.00  0.00    -0.550 OA
ENDBRANCH   2   3
ENDBRANCH   1   2
BRANCH   1   6
ATOM      6  C   UNL     1      61.531  28.504  24.949  1.00  0.00     0.000 C 
BRANCH   6   7
ATOM      7  C   UNL     1      62.604  27.778  24.123  1.00  0.00    -0.000 C 
BRANCH   7   8
ATOM      8  C   UNL     1      64.010  27.921  24.724  1.00  0.00    -0.003 C 
ATOM      9  C   UNL     1      64.498  26.595  25.302  1.00  0.00     0.004 C 
ENDBRANCH   7   8
ENDBRANCH   6   7
ENDBRANCH   1   6
TORSDOF 5
ENDMDL
MODEL 9
REMARK VINA RESULT:    -3.532     13.290     14.309
REMARK INTER + INTRA:          -4.905
REMARK INTER:                  -4.482
REMARK INTRA:                  -0.423
REMARK UNBOUND:                -0.340
REMARK SMILES CCCCCCC(=O)[O-]
REMARK SMILES IDX 5 1 6 2 7 3 8 4 9 5 4 6 3 7 2 8 1 9
REMARK H PARENT
REMARK Flexibility Score: inf
ROOT
ATOM      1  C   UNL     1      63.344  29.725  26.326  1.00  0.00     0.006 C 
ENDROOT
BRANCH   1   2
ATOM      2  C   UNL     1      62.703  30.127  27.662  1.00  0.00     0.053 C 
BRANCH   2   3
ATOM      3  C   UNL     1      62.022  28.967  28.325  1.00  0.00     0.041 C 
ATOM      4  O   UNL     1      62.621  27.866  28.444  1.00  0.00    -0.550 OA
ATOM      5  O   UNL     1      60.739  29.113  28.837  1.00  0.00    -0.550 OA
ENDBRANCH   2   3
ENDBRANCH   1   2
BRANCH   1   6
ATOM      6  C   UNL     1      62.343  29.788  25.160  1.00  0.00     0.000 C 
BRANCH   6   7
ATOM      7  C   UNL     1      61.924  28.394  24.665  1.00  0.00    -0.000 C 
BRANCH   7   8
ATOM      8  C   UNL     1      60.459  28.067  24.989  1.00  0.00    -0.003 C 
ATOM      9  C   UNL     1      60.354  26.804  25.840  1.00  0.00     0.004 C 
ENDBRANCH   7   8
ENDBRANCH   6   7
ENDBRANCH   1   6
TORSDOF 5
ENDMDL
