MODEL 1
REMARK VINA RESULT:    -7.947      0.000      0.000
REMARK INTER + INTRA:         -12.372
REMARK INTER:                 -10.734
REMARK INTRA:                  -1.638
REMARK UNBOUND:                -1.638
REMARK SMILES CC[C@H](CC[C@@H](C)[C@H]1CC[C@@H]2[C@@H]3CC(=O)C4=CC(=O)CC[C@@]4(C)[C@@H]3CC[C@@]21C)C(C)C
REMARK SMILES IDX 4 1 3 2 2 3 1 4 29 5 30 6 31 7 5 8 6 9 7 10 8 11 9 12 27 13
REMARK SMILES IDX 10 14 11 15 26 16 28 17 12 18 25 19 24 20 13 21 22 22 14 23
REMARK SMILES IDX 16 24 21 25 23 26 15 27 17 28 20 29 18 30 19 31
REMARK H PARENT
REMARK Flexibility Score: inf
ROOT
ATOM      1  C   UNL     1      12.182 -16.809 -22.723  1.00  0.00     0.004 C 
ENDROOT
BRANCH   1   2
ATOM      2  C   UNL     1      12.160 -17.480 -24.125  1.00  0.00    -0.009 C 
BRANCH   2   3
ATOM      3  C   UNL     1      12.644 -18.962 -24.063  1.00  0.00     0.000 C 
ATOM      4  C   UNL     1      13.863 -19.214 -24.954  1.00  0.00     0.004 C 
ENDBRANCH   2   3
BRANCH   2   5
ATOM      5  C   UNL     1      10.755 -17.318 -24.792  1.00  0.00    -0.014 C 
ATOM      6  C   UNL     1       9.952 -18.628 -24.879  1.00  0.00     0.007 C 
ATOM      7  C   UNL     1      10.850 -16.651 -26.175  1.00  0.00     0.007 C 
ENDBRANCH   2   5
ENDBRANCH   1   2
BRANCH   1   8
ATOM      8  C   UNL     1      13.590 -16.333 -22.305  1.00  0.00     0.004 C 
BRANCH   8   9
ATOM      9  C   UNL     1      14.182 -17.138 -21.108  1.00  0.00    -0.011 C 
ATOM     10  C   UNL     1      13.039 -17.874 -20.382  1.00  0.00     0.008 C 
BRANCH   9  11
ATOM     11  C   UNL     1      15.303 -18.126 -21.604  1.00  0.00    -0.002 C 
ATOM     12  C   UNL     1      16.574 -17.366 -22.075  1.00  0.00     0.005 C 
ATOM     13  C   UNL     1      15.859 -19.202 -20.608  1.00  0.00    -0.026 C 
ATOM     14  C   UNL     1      17.794 -18.181 -21.647  1.00  0.00     0.005 C 
ATOM     15  C   UNL     1      17.248 -19.540 -21.216  1.00  0.00    -0.001 C 
ATOM     16  C   UNL     1      15.012 -20.494 -20.426  1.00  0.00     0.007 C 
ATOM     17  C   UNL     1      16.060 -18.588 -19.189  1.00  0.00     0.012 C 
ATOM     18  C   UNL     1      17.272 -20.612 -22.377  1.00  0.00     0.004 C 
ATOM     19  C   UNL     1      14.952 -21.386 -21.656  1.00  0.00     0.005 C 
ATOM     20  C   UNL     1      16.357 -21.849 -22.095  1.00  0.00     0.003 C 
ATOM     21  C   UNL     1      17.078 -20.125 -23.847  1.00  0.00     0.085 C 
ATOM     22  C   UNL     1      16.318 -22.918 -23.286  1.00  0.00    -0.000 C 
ATOM     23  C   UNL     1      17.504 -21.228 -24.779  1.00  0.00     0.159 C 
ATOM     24  C   UNL     1      17.443 -22.614 -24.280  1.00  0.00     0.005 C 
ATOM     25  C   UNL     1      16.410 -24.374 -22.715  1.00  0.00     0.020 C 
ATOM     26  C   UNL     1      15.002 -22.859 -24.117  1.00  0.00     0.017 C 
ATOM     27  O   UNL     1      17.924 -20.967 -25.939  1.00  0.00    -0.295 OA
ATOM     28  C   UNL     1      18.458 -23.457 -24.527  1.00  0.00     0.055 C 
ATOM     29  C   UNL     1      17.846 -24.834 -22.465  1.00  0.00     0.081 C 
ATOM     30  C   UNL     1      18.636 -24.669 -23.722  1.00  0.00     0.156 C 
ATOM     31  O   UNL     1      19.507 -25.522 -24.044  1.00  0.00    -0.295 OA
ENDBRANCH   9  11
ENDBRANCH   8   9
ENDBRANCH   1   8
TORSDOF 6
ENDMDL
MODEL 2
REMARK VINA RESULT:    -7.793      1.112      1.535
REMARK INTER + INTRA:         -12.164
REMARK INTER:                 -11.466
REMARK INTRA:                  -0.698
REMARK UNBOUND:                -1.638
REMARK SMILES CC[C@H](CC[C@@H](C)[C@H]1CC[C@@H]2[C@@H]3CC(=O)C4=CC(=O)CC[C@@]4(C)[C@@H]3CC[C@@]21C)C(C)C
REMARK SMILES IDX 4 1 3 2 2 3 1 4 29 5 30 6 31 7 5 8 6 9 7 10 8 11 9 12 27 13
REMARK SMILES IDX 10 14 11 15 26 16 28 17 12 18 25 19 24 20 13 21 22 22 14 23
REMARK SMILES IDX 16 24 21 25 23 26 15 27 17 28 20 29 18 30 19 31
REMARK H PARENT
REMARK Flexibility Score: inf
ROOT
ATOM      1  C   UNL     1      12.316 -17.985 -22.673  1.00  0.00     0.004 C 
ENDROOT
BRANCH   1   2
ATOM      2  C   UNL     1      10.778 -18.175 -22.800  1.00  0.00    -0.009 C 
BRANCH   2   3
ATOM      3  C   UNL     1      10.029 -17.691 -21.519  1.00  0.00     0.000 C 
ATOM      4  C   UNL     1       9.439 -18.853 -20.716  1.00  0.00     0.004 C 
ENDBRANCH   2   3
BRANCH   2   5
ATOM      5  C   UNL     1      10.247 -17.511 -24.112  1.00  0.00    -0.014 C 
ATOM      6  C   UNL     1      10.788 -18.158 -25.400  1.00  0.00     0.007 C 
ATOM      7  C   UNL     1      10.494 -15.993 -24.127  1.00  0.00     0.007 C 
ENDBRANCH   2   5
ENDBRANCH   1   2
BRANCH   1   8
ATOM      8  C   UNL     1      12.706 -16.884 -21.665  1.00  0.00     0.004 C 
BRANCH   8   9
ATOM      9  C   UNL     1      13.730 -17.365 -20.592  1.00  0.00    -0.011 C 
ATOM     10  C   UNL     1      12.985 -18.180 -19.516  1.00  0.00     0.008 C 
BRANCH   9  11
ATOM     11  C   UNL     1      14.890 -18.190 -21.262  1.00  0.00    -0.002 C 
ATOM     12  C   UNL     1      16.033 -17.268 -21.771  1.00  0.00     0.005 C 
ATOM     13  C   UNL     1      15.636 -19.276 -20.413  1.00  0.00    -0.026 C 
ATOM     14  C   UNL     1      17.361 -17.983 -21.518  1.00  0.00     0.005 C 
ATOM     15  C   UNL     1      16.990 -19.421 -21.161  1.00  0.00    -0.001 C 
ATOM     16  C   UNL     1      14.939 -20.659 -20.273  1.00  0.00     0.007 C 
ATOM     17  C   UNL     1      15.906 -18.756 -18.968  1.00  0.00     0.012 C 
ATOM     18  C   UNL     1      17.011 -20.391 -22.408  1.00  0.00     0.004 C 
ATOM     19  C   UNL     1      14.852 -21.455 -21.566  1.00  0.00     0.005 C 
ATOM     20  C   UNL     1      16.249 -21.735 -22.159  1.00  0.00     0.003 C 
ATOM     21  C   UNL     1      16.638 -19.815 -23.810  1.00  0.00     0.085 C 
ATOM     22  C   UNL     1      16.205 -22.707 -23.429  1.00  0.00    -0.000 C 
ATOM     23  C   UNL     1      17.080 -20.792 -24.865  1.00  0.00     0.159 C 
ATOM     24  C   UNL     1      17.200 -22.212 -24.484  1.00  0.00     0.005 C 
ATOM     25  C   UNL     1      16.489 -24.185 -22.995  1.00  0.00     0.020 C 
ATOM     26  C   UNL     1      14.819 -22.721 -24.140  1.00  0.00     0.017 C 
ATOM     27  O   UNL     1      17.365 -20.401 -26.030  1.00  0.00    -0.295 OA
ATOM     28  C   UNL     1      18.264 -22.923 -24.886  1.00  0.00     0.055 C 
ATOM     29  C   UNL     1      17.979 -24.512 -22.907  1.00  0.00     0.081 C 
ATOM     30  C   UNL     1      18.632 -24.170 -24.206  1.00  0.00     0.156 C 
ATOM     31  O   UNL     1      19.547 -24.900 -24.671  1.00  0.00    -0.295 OA
ENDBRANCH   9  11
ENDBRANCH   8   9
ENDBRANCH   1   8
TORSDOF 6
ENDMDL
MODEL 3
REMARK VINA RESULT:    -7.649      1.574      2.315
REMARK INTER + INTRA:         -11.970
REMARK INTER:                 -10.264
REMARK INTRA:                  -1.706
REMARK UNBOUND:                -1.638
REMARK SMILES CC[C@H](CC[C@@H](C)[C@H]1CC[C@@H]2[C@@H]3CC(=O)C4=CC(=O)CC[C@@]4(C)[C@@H]3CC[C@@]21C)C(C)C
REMARK SMILES IDX 4 1 3 2 2 3 1 4 29 5 30 6 31 7 5 8 6 9 7 10 8 11 9 12 27 13
REMARK SMILES IDX 10 14 11 15 26 16 28 17 12 18 25 19 24 20 13 21 22 22 14 23
REMARK SMILES IDX 16 24 21 25 23 26 15 27 17 28 20 29 18 30 19 31
REMARK H PARENT
REMARK Flexibility Score: inf
ROOT
ATOM      1  C   UNL     1      11.242 -15.716 -23.911  1.00  0.00     0.004 C 
ENDROOT
BRANCH   1   2
ATOM      2  C   UNL     1      11.389 -15.160 -25.355  1.00  0.00    -0.009 C 
BRANCH   2   3
ATOM      3  C   UNL     1      12.617 -14.204 -25.483  1.00  0.00     0.000 C 
ATOM      4  C   UNL     1      12.256 -12.879 -26.159  1.00  0.00     0.004 C 
ENDBRANCH   2   3
BRANCH   2   5
ATOM      5  C   UNL     1      11.404 -16.326 -26.397  1.00  0.00    -0.014 C 
ATOM      6  C   UNL     1      10.812 -15.946 -27.766  1.00  0.00     0.007 C 
ATOM      7  C   UNL     1      10.724 -17.592 -25.848  1.00  0.00     0.007 C 
ENDBRANCH   2   5
ENDBRANCH   1   2
BRANCH   1   8
ATOM      8  C   UNL     1      12.545 -15.615 -23.090  1.00  0.00     0.004 C 
BRANCH   8   9
ATOM      9  C   UNL     1      12.829 -16.882 -22.226  1.00  0.00    -0.011 C 
ATOM     10  C   UNL     1      11.546 -17.733 -22.146  1.00  0.00     0.008 C 
BRANCH   9  11
ATOM     11  C   UNL     1      14.043 -17.694 -22.814  1.00  0.00    -0.002 C 
ATOM     12  C   UNL     1      14.991 -16.788 -23.649  1.00  0.00     0.005 C 
ATOM     13  C   UNL     1      15.008 -18.435 -21.826  1.00  0.00    -0.026 C 
ATOM     14  C   UNL     1      16.427 -17.246 -23.388  1.00  0.00     0.005 C 
ATOM     15  C   UNL     1      16.304 -18.587 -22.668  1.00  0.00    -0.001 C 
ATOM     16  C   UNL     1      14.538 -19.818 -21.291  1.00  0.00     0.007 C 
ATOM     17  C   UNL     1      15.311 -17.547 -20.581  1.00  0.00     0.012 C 
ATOM     18  C   UNL     1      16.370 -19.823 -23.651  1.00  0.00     0.004 C 
ATOM     19  C   UNL     1      14.469 -20.912 -22.346  1.00  0.00     0.005 C 
ATOM     20  C   UNL     1      15.840 -21.150 -23.012  1.00  0.00     0.003 C 
ATOM     21  C   UNL     1      15.805 -19.660 -25.096  1.00  0.00     0.085 C 
ATOM     22  C   UNL     1      15.841 -22.401 -24.009  1.00  0.00    -0.000 C 
ATOM     23  C   UNL     1      16.304 -20.803 -25.939  1.00  0.00     0.159 C 
ATOM     24  C   UNL     1      16.664 -22.059 -25.256  1.00  0.00     0.005 C 
ATOM     25  C   UNL     1      16.376 -23.680 -23.280  1.00  0.00     0.020 C 
ATOM     26  C   UNL     1      14.421 -22.763 -24.536  1.00  0.00     0.017 C 
ATOM     27  O   UNL     1      16.434 -20.677 -27.187  1.00  0.00    -0.295 OA
ATOM     28  C   UNL     1      17.787 -22.707 -25.599  1.00  0.00     0.055 C 
ATOM     29  C   UNL     1      17.901 -23.784 -23.287  1.00  0.00     0.081 C 
ATOM     30  C   UNL     1      18.390 -23.692 -24.695  1.00  0.00     0.156 C 
ATOM     31  O   UNL     1      19.365 -24.393 -25.079  1.00  0.00    -0.295 OA
ENDBRANCH   9  11
ENDBRANCH   8   9
ENDBRANCH   1   8
TORSDOF 6
ENDMDL
MODEL 4
REMARK VINA RESULT:    -7.499      2.913      7.570
REMARK INTER + INTRA:         -11.767
REMARK INTER:                 -10.080
REMARK INTRA:                  -1.687
REMARK UNBOUND:                -1.638
REMARK SMILES CC[C@H](CC[C@@H](C)[C@H]1CC[C@@H]2[C@@H]3CC(=O)C4=CC(=O)CC[C@@]4(C)[C@@H]3CC[C@@]21C)C(C)C
REMARK SMILES IDX 4 1 3 2 2 3 1 4 29 5 30 6 31 7 5 8 6 9 7 10 8 11 9 12 27 13
REMARK SMILES IDX 10 14 11 15 26 16 28 17 12 18 25 19 24 20 13 21 22 22 14 23
REMARK SMILES IDX 16 24 21 25 23 26 15 27 17 28 20 29 18 30 19 31
REMARK H PARENT
REMARK Flexibility Score: inf
ROOT
ATOM      1  C   UNL     1      14.863 -21.874 -22.928  1.00  0.00     0.004 C 
ENDROOT
BRANCH   1   2
ATOM      2  C   UNL     1      15.889 -22.777 -23.669  1.00  0.00    -0.009 C 
BRANCH   2   3
ATOM      3  C   UNL     1      16.524 -22.044 -24.892  1.00  0.00     0.000 C 
ATOM      4  C   UNL     1      16.145 -20.562 -24.945  1.00  0.00     0.004 C 
ENDBRANCH   2   3
BRANCH   2   5
ATOM      5  C   UNL     1      16.950 -23.341 -22.669  1.00  0.00    -0.014 C 
ATOM      6  C   UNL     1      18.391 -22.890 -22.971  1.00  0.00     0.007 C 
ATOM      7  C   UNL     1      16.877 -24.874 -22.561  1.00  0.00     0.007 C 
ENDBRANCH   2   5
ENDBRANCH   1   2
BRANCH   1   8
ATOM      8  C   UNL     1      15.130 -21.776 -21.411  1.00  0.00     0.004 C 
BRANCH   8   9
ATOM      9  C   UNL     1      15.403 -20.319 -20.927  1.00  0.00    -0.011 C 
ATOM     10  C   UNL     1      16.865 -19.948 -21.247  1.00  0.00     0.008 C 
BRANCH   9  11
ATOM     11  C   UNL     1      14.380 -19.316 -21.580  1.00  0.00    -0.002 C 
ATOM     12  C   UNL     1      12.926 -19.582 -21.099  1.00  0.00     0.005 C 
ATOM     13  C   UNL     1      14.575 -17.778 -21.348  1.00  0.00    -0.026 C 
ATOM     14  C   UNL     1      12.231 -18.230 -20.937  1.00  0.00     0.005 C 
ATOM     15  C   UNL     1      13.151 -17.213 -21.608  1.00  0.00    -0.001 C 
ATOM     16  C   UNL     1      15.621 -17.060 -22.248  1.00  0.00     0.007 C 
ATOM     17  C   UNL     1      14.975 -17.489 -19.869  1.00  0.00     0.012 C 
ATOM     18  C   UNL     1      12.765 -16.932 -23.115  1.00  0.00     0.004 C 
ATOM     19  C   UNL     1      15.241 -16.985 -23.719  1.00  0.00     0.005 C 
ATOM     20  C   UNL     1      13.907 -16.237 -23.927  1.00  0.00     0.003 C 
ATOM     21  C   UNL     1      12.136 -18.088 -23.953  1.00  0.00     0.085 C 
ATOM     22  C   UNL     1      13.560 -15.998 -25.471  1.00  0.00    -0.000 C 
ATOM     23  C   UNL     1      11.520 -17.501 -25.195  1.00  0.00     0.159 C 
ATOM     24  C   UNL     1      12.061 -16.224 -25.696  1.00  0.00     0.005 C 
ATOM     25  C   UNL     1      14.016 -14.568 -25.918  1.00  0.00     0.020 C 
ATOM     26  C   UNL     1      14.278 -17.001 -26.421  1.00  0.00     0.017 C 
ATOM     27  O   UNL     1      10.555 -18.074 -25.770  1.00  0.00    -0.295 OA
ATOM     28  C   UNL     1      11.223 -15.260 -26.106  1.00  0.00     0.055 C 
ATOM     29  C   UNL     1      12.987 -13.482 -25.607  1.00  0.00     0.081 C 
ATOM     30  C   UNL     1      11.674 -13.869 -26.207  1.00  0.00     0.156 C 
ATOM     31  O   UNL     1      10.926 -12.994 -26.720  1.00  0.00    -0.295 OA
ENDBRANCH   9  11
ENDBRANCH   8   9
ENDBRANCH   1   8
TORSDOF 6
ENDMDL
MODEL 5
REMARK VINA RESULT:    -7.471      3.142      8.001
REMARK INTER + INTRA:         -11.730
REMARK INTER:                  -9.665
REMARK INTRA:                  -2.064
REMARK UNBOUND:                -1.638
REMARK SMILES CC[C@H](CC[C@@H](C)[C@H]1CC[C@@H]2[C@@H]3CC(=O)C4=CC(=O)CC[C@@]4(C)[C@@H]3CC[C@@]21C)C(C)C
REMARK SMILES IDX 4 1 3 2 2 3 1 4 29 5 30 6 31 7 5 8 6 9 7 10 8 11 9 12 27 13
REMARK SMILES IDX 10 14 11 15 26 16 28 17 12 18 25 19 24 20 13 21 22 22 14 23
REMARK SMILES IDX 16 24 21 25 23 26 15 27 17 28 20 29 18 30 19 31
REMARK H PARENT
REMARK Flexibility Score: inf
ROOT
ATOM      1  C   UNL     1      18.679 -22.803 -22.966  1.00  0.00     0.004 C 
ENDROOT
BRANCH   1   2
ATOM      2  C   UNL     1      17.935 -23.785 -23.913  1.00  0.00    -0.009 C 
BRANCH   2   3
ATOM      3  C   UNL     1      18.567 -23.800 -25.340  1.00  0.00     0.000 C 
ATOM      4  C   UNL     1      19.163 -22.445 -25.728  1.00  0.00     0.004 C 
ENDBRANCH   2   3
BRANCH   2   5
ATOM      5  C   UNL     1      17.836 -25.206 -23.267  1.00  0.00    -0.014 C 
ATOM      6  C   UNL     1      17.436 -25.187 -21.781  1.00  0.00     0.007 C 
ATOM      7  C   UNL     1      19.128 -26.017 -23.468  1.00  0.00     0.007 C 
ENDBRANCH   2   5
ENDBRANCH   1   2
BRANCH   1   8
ATOM      8  C   UNL     1      17.788 -21.640 -22.481  1.00  0.00     0.004 C 
BRANCH   8   9
ATOM      9  C   UNL     1      16.343 -21.686 -23.066  1.00  0.00    -0.011 C 
ATOM     10  C   UNL     1      15.356 -22.050 -21.939  1.00  0.00     0.008 C 
BRANCH   9  11
ATOM     11  C   UNL     1      15.979 -20.317 -23.754  1.00  0.00    -0.002 C 
ATOM     12  C   UNL     1      17.250 -19.540 -24.197  1.00  0.00     0.005 C 
ATOM     13  C   UNL     1      15.082 -20.331 -25.039  1.00  0.00    -0.026 C 
ATOM     14  C   UNL     1      16.941 -18.859 -25.531  1.00  0.00     0.005 C 
ATOM     15  C   UNL     1      15.429 -18.973 -25.710  1.00  0.00    -0.001 C 
ATOM     16  C   UNL     1      13.547 -20.456 -24.823  1.00  0.00     0.007 C 
ATOM     17  C   UNL     1      15.502 -21.491 -25.993  1.00  0.00     0.012 C 
ATOM     18  C   UNL     1      14.648 -17.703 -25.185  1.00  0.00     0.004 C 
ATOM     19  C   UNL     1      12.904 -19.251 -24.154  1.00  0.00     0.005 C 
ATOM     20  C   UNL     1      13.120 -17.961 -24.974  1.00  0.00     0.003 C 
ATOM     21  C   UNL     1      15.233 -16.915 -23.972  1.00  0.00     0.085 C 
ATOM     22  C   UNL     1      12.321 -16.706 -24.385  1.00  0.00    -0.000 C 
ATOM     23  C   UNL     1      14.551 -15.575 -23.895  1.00  0.00     0.159 C 
ATOM     24  C   UNL     1      13.200 -15.455 -24.474  1.00  0.00     0.005 C 
ATOM     25  C   UNL     1      10.958 -16.526 -25.136  1.00  0.00     0.020 C 
ATOM     26  C   UNL     1      11.969 -16.860 -22.876  1.00  0.00     0.017 C 
ATOM     27  O   UNL     1      15.132 -14.583 -23.376  1.00  0.00    -0.295 OA
ATOM     28  C   UNL     1      12.887 -14.384 -25.219  1.00  0.00     0.055 C 
ATOM     29  C   UNL     1      11.085 -15.727 -26.432  1.00  0.00     0.081 C 
ATOM     30  C   UNL     1      11.743 -14.419 -26.136  1.00  0.00     0.156 C 
ATOM     31  O   UNL     1      11.374 -13.370 -26.730  1.00  0.00    -0.295 OA
ENDBRANCH   9  11
ENDBRANCH   8   9
ENDBRANCH   1   8
TORSDOF 6
ENDMDL
MODEL 6
REMARK VINA RESULT:    -7.241      2.978      6.550
REMARK INTER + INTRA:         -11.418
REMARK INTER:                  -8.955
REMARK INTRA:                  -2.463
REMARK UNBOUND:                -1.638
REMARK SMILES CC[C@H](CC[C@@H](C)[C@H]1CC[C@@H]2[C@@H]3CC(=O)C4=CC(=O)CC[C@@]4(C)[C@@H]3CC[C@@]21C)C(C)C
REMARK SMILES IDX 4 1 3 2 2 3 1 4 29 5 30 6 31 7 5 8 6 9 7 10 8 11 9 12 27 13
REMARK SMILES IDX 10 14 11 15 26 16 28 17 12 18 25 19 24 20 13 21 22 22 14 23
REMARK SMILES IDX 16 24 21 25 23 26 15 27 17 28 20 29 18 30 19 31
REMARK H PARENT
REMARK Flexibility Score: inf
ROOT
ATOM      1  C   UNL     1      18.128 -19.763 -27.421  1.00  0.00     0.004 C 
ENDROOT
BRANCH   1   2
ATOM      2  C   UNL     1      16.912 -18.797 -27.484  1.00  0.00    -0.009 C 
BRANCH   2   3
ATOM      3  C   UNL     1      15.663 -19.484 -28.120  1.00  0.00     0.000 C 
ATOM      4  C   UNL     1      15.371 -18.970 -29.532  1.00  0.00     0.004 C 
ENDBRANCH   2   3
BRANCH   2   5
ATOM      5  C   UNL     1      16.626 -18.177 -26.078  1.00  0.00    -0.014 C 
ATOM      6  C   UNL     1      15.649 -16.988 -26.109  1.00  0.00     0.007 C 
ATOM      7  C   UNL     1      17.923 -17.791 -25.348  1.00  0.00     0.007 C 
ENDBRANCH   2   5
ENDBRANCH   1   2
BRANCH   1   8
ATOM      8  C   UNL     1      17.716 -21.247 -27.320  1.00  0.00     0.004 C 
BRANCH   8   9
ATOM      9  C   UNL     1      17.834 -21.824 -25.877  1.00  0.00    -0.011 C 
ATOM     10  C   UNL     1      19.156 -21.340 -25.249  1.00  0.00     0.008 C 
BRANCH   9  11
ATOM     11  C   UNL     1      16.583 -21.416 -25.012  1.00  0.00    -0.002 C 
ATOM     12  C   UNL     1      15.262 -21.975 -25.610  1.00  0.00     0.005 C 
ATOM     13  C   UNL     1      16.527 -21.855 -23.508  1.00  0.00    -0.026 C 
ATOM     14  C   UNL     1      14.361 -22.394 -24.448  1.00  0.00     0.005 C 
ATOM     15  C   UNL     1      15.006 -21.804 -23.196  1.00  0.00    -0.001 C 
ATOM     16  C   UNL     1      17.322 -20.985 -22.493  1.00  0.00     0.007 C 
ATOM     17  C   UNL     1      17.032 -23.321 -23.341  1.00  0.00     0.012 C 
ATOM     18  C   UNL     1      14.410 -20.394 -22.801  1.00  0.00     0.004 C 
ATOM     19  C   UNL     1      16.774 -19.579 -22.302  1.00  0.00     0.005 C 
ATOM     20  C   UNL     1      15.314 -19.599 -21.802  1.00  0.00     0.003 C 
ATOM     21  C   UNL     1      13.907 -19.450 -23.938  1.00  0.00     0.085 C 
ATOM     22  C   UNL     1      14.760 -18.143 -21.436  1.00  0.00    -0.000 C 
ATOM     23  C   UNL     1      13.063 -18.366 -23.324  1.00  0.00     0.159 C 
ATOM     24  C   UNL     1      13.310 -18.015 -21.913  1.00  0.00     0.005 C 
ATOM     25  C   UNL     1      14.904 -17.875 -19.900  1.00  0.00     0.020 C 
ATOM     26  C   UNL     1      15.535 -16.997 -22.152  1.00  0.00     0.017 C 
ATOM     27  O   UNL     1      12.156 -17.797 -23.991  1.00  0.00    -0.295 OA
ATOM     28  C   UNL     1      12.274 -17.825 -21.082  1.00  0.00     0.055 C 
ATOM     29  C   UNL     1      13.739 -18.429 -19.080  1.00  0.00     0.081 C 
ATOM     30  C   UNL     1      12.457 -17.893 -19.629  1.00  0.00     0.156 C 
ATOM     31  O   UNL     1      11.513 -17.581 -18.854  1.00  0.00    -0.295 OA
ENDBRANCH   9  11
ENDBRANCH   8   9
ENDBRANCH   1   8
TORSDOF 6
ENDMDL
MODEL 7
REMARK VINA RESULT:    -7.156      3.508      7.593
REMARK INTER + INTRA:         -11.304
REMARK INTER:                  -9.371
REMARK INTRA:                  -1.933
REMARK UNBOUND:                -1.638
REMARK SMILES CC[C@H](CC[C@@H](C)[C@H]1CC[C@@H]2[C@@H]3CC(=O)C4=CC(=O)CC[C@@]4(C)[C@@H]3CC[C@@]21C)C(C)C
REMARK SMILES IDX 4 1 3 2 2 3 1 4 29 5 30 6 31 7 5 8 6 9 7 10 8 11 9 12 27 13
REMARK SMILES IDX 10 14 11 15 26 16 28 17 12 18 25 19 24 20 13 21 22 22 14 23
REMARK SMILES IDX 16 24 21 25 23 26 15 27 17 28 20 29 18 30 19 31
REMARK H PARENT
REMARK Flexibility Score: inf
ROOT
ATOM      1  C   UNL     1      15.329 -19.806 -19.950  1.00  0.00     0.004 C 
ENDROOT
BRANCH   1   2
ATOM      2  C   UNL     1      14.942 -18.308 -19.799  1.00  0.00    -0.009 C 
BRANCH   2   3
ATOM      3  C   UNL     1      13.404 -18.091 -19.954  1.00  0.00     0.000 C 
ATOM      4  C   UNL     1      13.035 -17.475 -21.305  1.00  0.00     0.004 C 
ENDBRANCH   2   3
BRANCH   2   5
ATOM      5  C   UNL     1      15.517 -17.721 -18.469  1.00  0.00    -0.014 C 
ATOM      6  C   UNL     1      17.031 -17.447 -18.513  1.00  0.00     0.007 C 
ATOM      7  C   UNL     1      15.162 -18.598 -17.256  1.00  0.00     0.007 C 
ENDBRANCH   2   5
ENDBRANCH   1   2
BRANCH   1   8
ATOM      8  C   UNL     1      16.291 -20.065 -21.128  1.00  0.00     0.004 C 
BRANCH   8   9
ATOM      9  C   UNL     1      15.573 -20.597 -22.406  1.00  0.00    -0.011 C 
ATOM     10  C   UNL     1      14.257 -21.287 -21.993  1.00  0.00     0.008 C 
BRANCH   9  11
ATOM     11  C   UNL     1      15.331 -19.429 -23.434  1.00  0.00    -0.002 C 
ATOM     12  C   UNL     1      16.642 -18.653 -23.742  1.00  0.00     0.005 C 
ATOM     13  C   UNL     1      14.760 -19.774 -24.852  1.00  0.00    -0.026 C 
ATOM     14  C   UNL     1      16.630 -18.281 -25.225  1.00  0.00     0.005 C 
ATOM     15  C   UNL     1      15.206 -18.554 -25.704  1.00  0.00    -0.001 C 
ATOM     16  C   UNL     1      13.222 -19.981 -24.958  1.00  0.00     0.007 C 
ATOM     17  C   UNL     1      15.430 -21.063 -25.418  1.00  0.00     0.012 C 
ATOM     18  C   UNL     1      14.280 -17.274 -25.649  1.00  0.00     0.004 C 
ATOM     19  C   UNL     1      12.399 -18.724 -24.721  1.00  0.00     0.005 C 
ATOM     20  C   UNL     1      12.755 -17.611 -25.730  1.00  0.00     0.003 C 
ATOM     21  C   UNL     1      14.538 -16.213 -24.534  1.00  0.00     0.085 C 
ATOM     22  C   UNL     1      11.797 -16.334 -25.614  1.00  0.00    -0.000 C 
ATOM     23  C   UNL     1      13.811 -14.947 -24.899  1.00  0.00     0.159 C 
ATOM     24  C   UNL     1      12.629 -15.057 -25.773  1.00  0.00     0.005 C 
ATOM     25  C   UNL     1      10.641 -16.422 -26.668  1.00  0.00     0.020 C 
ATOM     26  C   UNL     1      11.109 -16.211 -24.223  1.00  0.00     0.017 C 
ATOM     27  O   UNL     1      14.220 -13.826 -24.489  1.00  0.00    -0.295 OA
ATOM     28  C   UNL     1      12.460 -14.188 -26.781  1.00  0.00     0.055 C 
ATOM     29  C   UNL     1      11.038 -15.891 -28.044  1.00  0.00     0.081 C 
ATOM     30  C   UNL     1      11.563 -14.500 -27.898  1.00  0.00     0.156 C 
ATOM     31  O   UNL     1      11.306 -13.627 -28.769  1.00  0.00    -0.295 OA
ENDBRANCH   9  11
ENDBRANCH   8   9
ENDBRANCH   1   8
TORSDOF 6
ENDMDL
MODEL 8
REMARK VINA RESULT:    -7.137      3.724      7.630
REMARK INTER + INTRA:         -11.279
REMARK INTER:                  -9.106
REMARK INTRA:                  -2.173
REMARK UNBOUND:                -1.638
REMARK SMILES CC[C@H](CC[C@@H](C)[C@H]1CC[C@@H]2[C@@H]3CC(=O)C4=CC(=O)CC[C@@]4(C)[C@@H]3CC[C@@]21C)C(C)C
REMARK SMILES IDX 4 1 3 2 2 3 1 4 29 5 30 6 31 7 5 8 6 9 7 10 8 11 9 12 27 13
REMARK SMILES IDX 10 14 11 15 26 16 28 17 12 18 25 19 24 20 13 21 22 22 14 23
REMARK SMILES IDX 16 24 21 25 23 26 15 27 17 28 20 29 18 30 19 31
REMARK H PARENT
REMARK Flexibility Score: inf
ROOT
ATOM      1  C   UNL     1      14.690 -19.784 -19.924  1.00  0.00     0.004 C 
ENDROOT
BRANCH   1   2
ATOM      2  C   UNL     1      14.640 -18.232 -19.844  1.00  0.00    -0.009 C 
BRANCH   2   3
ATOM      3  C   UNL     1      13.194 -17.689 -20.070  1.00  0.00     0.000 C 
ATOM      4  C   UNL     1      12.995 -17.130 -21.480  1.00  0.00     0.004 C 
ENDBRANCH   2   3
BRANCH   2   5
ATOM      5  C   UNL     1      15.287 -17.728 -18.513  1.00  0.00    -0.014 C 
ATOM      6  C   UNL     1      16.795 -17.442 -18.624  1.00  0.00     0.007 C 
ATOM      7  C   UNL     1      15.004 -18.683 -17.341  1.00  0.00     0.007 C 
ENDBRANCH   2   5
ENDBRANCH   1   2
BRANCH   1   8
ATOM      8  C   UNL     1      15.787 -20.303 -20.877  1.00  0.00     0.004 C 
BRANCH   8   9
ATOM      9  C   UNL     1      15.347 -20.320 -22.373  1.00  0.00    -0.011 C 
ATOM     10  C   UNL     1      13.840 -20.636 -22.451  1.00  0.00     0.008 C 
BRANCH   9  11
ATOM     11  C   UNL     1      15.702 -18.954 -23.071  1.00  0.00    -0.002 C 
ATOM     12  C   UNL     1      17.101 -18.433 -22.640  1.00  0.00     0.005 C 
ATOM     13  C   UNL     1      15.746 -18.893 -24.637  1.00  0.00    -0.026 C 
ATOM     14  C   UNL     1      17.761 -17.793 -23.862  1.00  0.00     0.005 C 
ATOM     15  C   UNL     1      16.651 -17.658 -24.902  1.00  0.00    -0.001 C 
ATOM     16  C   UNL     1      14.385 -18.740 -25.373  1.00  0.00     0.007 C 
ATOM     17  C   UNL     1      16.437 -20.164 -25.219  1.00  0.00     0.012 C 
ATOM     18  C   UNL     1      15.947 -16.244 -24.873  1.00  0.00     0.004 C 
ATOM     19  C   UNL     1      13.693 -17.404 -25.150  1.00  0.00     0.005 C 
ATOM     20  C   UNL     1      14.570 -16.223 -25.617  1.00  0.00     0.003 C 
ATOM     21  C   UNL     1      15.832 -15.494 -23.509  1.00  0.00     0.085 C 
ATOM     22  C   UNL     1      13.811 -14.816 -25.547  1.00  0.00    -0.000 C 
ATOM     23  C   UNL     1      15.482 -14.055 -23.780  1.00  0.00     0.159 C 
ATOM     24  C   UNL     1      14.776 -13.741 -25.036  1.00  0.00     0.005 C 
ATOM     25  C   UNL     1      13.207 -14.452 -26.946  1.00  0.00     0.020 C 
ATOM     26  C   UNL     1      12.619 -14.815 -24.545  1.00  0.00     0.017 C 
ATOM     27  O   UNL     1      15.807 -13.147 -22.967  1.00  0.00    -0.295 OA
ATOM     28  C   UNL     1      15.153 -12.681 -25.766  1.00  0.00     0.055 C 
ATOM     29  C   UNL     1      14.208 -13.767 -27.875  1.00  0.00     0.081 C 
ATOM     30  C   UNL     1      14.782 -12.575 -27.180  1.00  0.00     0.156 C 
ATOM     31  O   UNL     1      15.022 -11.518 -27.823  1.00  0.00    -0.295 OA
ENDBRANCH   9  11
ENDBRANCH   8   9
ENDBRANCH   1   8
TORSDOF 6
ENDMDL
MODEL 9
REMARK VINA RESULT:    -7.116      2.992      7.344
REMARK INTER + INTRA:         -11.250
REMARK INTER:                  -9.190
REMARK INTRA:                  -2.060
REMARK UNBOUND:                -1.638
REMARK SMILES CC[C@H](CC[C@@H](C)[C@H]1CC[C@@H]2[C@@H]3CC(=O)C4=CC(=O)CC[C@@]4(C)[C@@H]3CC[C@@]21C)C(C)C
REMARK SMILES IDX 4 1 3 2 2 3 1 4 29 5 30 6 31 7 5 8 6 9 7 10 8 11 9 12 27 13
REMARK SMILES IDX 10 14 11 15 26 16 28 17 12 18 25 19 24 20 13 21 22 22 14 23
REMARK SMILES IDX 16 24 21 25 23 26 15 27 17 28 20 29 18 30 19 31
REMARK H PARENT
REMARK Flexibility Score: inf
ROOT
ATOM      1  C   UNL     1      16.379 -22.254 -22.570  1.00  0.00     0.004 C 
ENDROOT
BRANCH   1   2
ATOM      2  C   UNL     1      15.876 -22.261 -24.041  1.00  0.00    -0.009 C 
BRANCH   2   3
ATOM      3  C   UNL     1      14.392 -21.788 -24.146  1.00  0.00     0.000 C 
ATOM      4  C   UNL     1      13.688 -22.349 -25.384  1.00  0.00     0.004 C 
ENDBRANCH   2   3
BRANCH   2   5
ATOM      5  C   UNL     1      16.848 -21.451 -24.960  1.00  0.00    -0.014 C 
ATOM      6  C   UNL     1      18.332 -21.603 -24.583  1.00  0.00     0.007 C 
ATOM      7  C   UNL     1      16.460 -19.965 -25.035  1.00  0.00     0.007 C 
ENDBRANCH   2   5
ENDBRANCH   1   2
BRANCH   1   8
ATOM      8  C   UNL     1      15.329 -21.714 -21.577  1.00  0.00     0.004 C 
BRANCH   8   9
ATOM      9  C   UNL     1      15.642 -20.273 -21.071  1.00  0.00    -0.011 C 
ATOM     10  C   UNL     1      17.111 -19.935 -21.395  1.00  0.00     0.008 C 
BRANCH   9  11
ATOM     11  C   UNL     1      14.642 -19.234 -21.702  1.00  0.00    -0.002 C 
ATOM     12  C   UNL     1      13.166 -19.567 -21.347  1.00  0.00     0.005 C 
ATOM     13  C   UNL     1      14.784 -17.719 -21.323  1.00  0.00    -0.026 C 
ATOM     14  C   UNL     1      12.430 -18.247 -21.115  1.00  0.00     0.005 C 
ATOM     15  C   UNL     1      13.369 -17.158 -21.629  1.00  0.00    -0.001 C 
ATOM     16  C   UNL     1      15.871 -16.905 -22.081  1.00  0.00     0.007 C 
ATOM     17  C   UNL     1      15.077 -17.557 -19.800  1.00  0.00     0.012 C 
ATOM     18  C   UNL     1      13.077 -16.749 -23.127  1.00  0.00     0.004 C 
ATOM     19  C   UNL     1      15.589 -16.705 -23.562  1.00  0.00     0.005 C 
ATOM     20  C   UNL     1      14.255 -15.965 -23.795  1.00  0.00     0.003 C 
ATOM     21  C   UNL     1      12.533 -17.837 -24.107  1.00  0.00     0.085 C 
ATOM     22  C   UNL     1      14.006 -15.594 -25.331  1.00  0.00    -0.000 C 
ATOM     23  C   UNL     1      11.989 -17.152 -25.331  1.00  0.00     0.159 C 
ATOM     24  C   UNL     1      12.532 -15.825 -25.679  1.00  0.00     0.005 C 
ATOM     25  C   UNL     1      14.458 -14.122 -25.617  1.00  0.00     0.020 C 
ATOM     26  C   UNL     1      14.810 -16.495 -26.315  1.00  0.00     0.017 C 
ATOM     27  O   UNL     1      11.078 -17.687 -26.020  1.00  0.00    -0.295 OA
ATOM     28  C   UNL     1      11.701 -14.843 -26.059  1.00  0.00     0.055 C 
ATOM     29  C   UNL     1      13.384 -13.087 -25.284  1.00  0.00     0.081 C 
ATOM     30  C   UNL     1      12.125 -13.440 -26.005  1.00  0.00     0.156 C 
ATOM     31  O   UNL     1      11.391 -12.537 -26.488  1.00  0.00    -0.295 OA
ENDBRANCH   9  11
ENDBRANCH   8   9
ENDBRANCH   1   8
TORSDOF 6
ENDMDL
