MODEL 1
REMARK VINA RESULT:    -5.795      0.000      0.000
REMARK INTER + INTRA:          -5.795
REMARK INTER:                  -5.795
REMARK INTRA:                   0.000
REMARK UNBOUND:                 0.000
REMARK SMILES O=c1ccc2ccccc2o1
REMARK SMILES IDX 7 1 8 2 9 3 10 4 5 5 6 6 4 7 3 8 2 9 1 10 11 11
REMARK H PARENT
REMARK Flexibility Score: inf
ROOT
ATOM      1  C   UNL     1     -32.724  11.678 -34.251  1.00  0.00     0.001 A 
ATOM      2  C   UNL     1     -32.107  10.437 -34.444  1.00  0.00     0.004 A 
ATOM      3  C   UNL     1     -32.060   9.865 -35.720  1.00  0.00     0.048 A 
ATOM      4  C   UNL     1     -32.632  10.534 -36.809  1.00  0.00     0.138 A 
ATOM      5  C   UNL     1     -33.256  11.787 -36.614  1.00  0.00     0.018 A 
ATOM      6  C   UNL     1     -33.299  12.354 -35.332  1.00  0.00     0.012 A 
ATOM      7  C   UNL     1     -33.818  12.431 -37.719  1.00  0.00     0.019 A 
ATOM      8  C   UNL     1     -33.748  11.824 -38.973  1.00  0.00     0.094 A 
ATOM      9  C   UNL     1     -33.114  10.583 -39.092  1.00  0.00     0.336 A 
ATOM     10  O   UNL     1     -33.041  10.019 -40.215  1.00  0.00    -0.246 OA
ATOM     11  O   UNL     1     -32.588   9.990 -38.023  1.00  0.00    -0.423 OA
ENDROOT
TORSDOF 0
ENDMDL
MODEL 2
REMARK VINA RESULT:    -5.765      1.375      2.203
REMARK INTER + INTRA:          -5.765
REMARK INTER:                  -5.765
REMARK INTRA:                   0.000
REMARK UNBOUND:                 0.000
REMARK SMILES O=c1ccc2ccccc2o1
REMARK SMILES IDX 7 1 8 2 9 3 10 4 5 5 6 6 4 7 3 8 2 9 1 10 11 11
REMARK H PARENT
REMARK Flexibility Score: inf
ROOT
ATOM      1  C   UNL     1     -32.128  10.470 -34.417  1.00  0.00     0.001 A 
ATOM      2  C   UNL     1     -32.743  11.701 -34.162  1.00  0.00     0.004 A 
ATOM      3  C   UNL     1     -33.340  12.418 -35.205  1.00  0.00     0.048 A 
ATOM      4  C   UNL     1     -33.323  11.906 -36.507  1.00  0.00     0.138 A 
ATOM      5  C   UNL     1     -32.703  10.662 -36.764  1.00  0.00     0.018 A 
ATOM      6  C   UNL     1     -32.107   9.949 -35.715  1.00  0.00     0.012 A 
ATOM      7  C   UNL     1     -32.702  10.176 -38.074  1.00  0.00     0.019 A 
ATOM      8  C   UNL     1     -33.309  10.925 -39.083  1.00  0.00     0.094 A 
ATOM      9  C   UNL     1     -33.905  12.147 -38.755  1.00  0.00     0.336 A 
ATOM     10  O   UNL     1     -34.457  12.838 -39.650  1.00  0.00    -0.246 OA
ATOM     11  O   UNL     1     -33.891  12.589 -37.499  1.00  0.00    -0.423 OA
ENDROOT
TORSDOF 0
ENDMDL
MODEL 3
REMARK VINA RESULT:    -5.557      1.008      2.213
REMARK INTER + INTRA:          -5.557
REMARK INTER:                  -5.557
REMARK INTRA:                   0.000
REMARK UNBOUND:                 0.000
REMARK SMILES O=c1ccc2ccccc2o1
REMARK SMILES IDX 7 1 8 2 9 3 10 4 5 5 6 6 4 7 3 8 2 9 1 10 11 11
REMARK H PARENT
REMARK Flexibility Score: inf
ROOT
ATOM      1  C   UNL     1     -32.493  11.397 -34.044  1.00  0.00     0.001 A 
ATOM      2  C   UNL     1     -33.274  12.348 -34.709  1.00  0.00     0.004 A 
ATOM      3  C   UNL     1     -33.522  12.220 -36.081  1.00  0.00     0.048 A 
ATOM      4  C   UNL     1     -32.989  11.138 -36.790  1.00  0.00     0.138 A 
ATOM      5  C   UNL     1     -32.200  10.177 -36.118  1.00  0.00     0.018 A 
ATOM      6  C   UNL     1     -31.955  10.312 -34.744  1.00  0.00     0.012 A 
ATOM      7  C   UNL     1     -31.681   9.108 -36.853  1.00  0.00     0.019 A 
ATOM      8  C   UNL     1     -31.954   9.020 -38.219  1.00  0.00     0.094 A 
ATOM      9  C   UNL     1     -32.743  10.007 -38.818  1.00  0.00     0.336 A 
ATOM     10  O   UNL     1     -33.001   9.946 -40.048  1.00  0.00    -0.246 OA
ATOM     11  O   UNL     1     -33.225  11.016 -38.095  1.00  0.00    -0.423 OA
ENDROOT
TORSDOF 0
ENDMDL
MODEL 4
REMARK VINA RESULT:    -5.543      2.123      4.410
REMARK INTER + INTRA:          -5.543
REMARK INTER:                  -5.543
REMARK INTRA:                   0.000
REMARK UNBOUND:                 0.000
REMARK SMILES O=c1ccc2ccccc2o1
REMARK SMILES IDX 7 1 8 2 9 3 10 4 5 5 6 6 4 7 3 8 2 9 1 10 11 11
REMARK H PARENT
REMARK Flexibility Score: inf
ROOT
ATOM      1  C   UNL     1     -32.897  10.170 -38.757  1.00  0.00     0.001 A 
ATOM      2  C   UNL     1     -33.505  11.424 -38.883  1.00  0.00     0.004 A 
ATOM      3  C   UNL     1     -33.633  12.258 -37.767  1.00  0.00     0.048 A 
ATOM      4  C   UNL     1     -33.153  11.840 -36.521  1.00  0.00     0.138 A 
ATOM      5  C   UNL     1     -32.539  10.573 -36.394  1.00  0.00     0.018 A 
ATOM      6  C   UNL     1     -32.414   9.742 -37.516  1.00  0.00     0.012 A 
ATOM      7  C   UNL     1     -32.070  10.183 -35.137  1.00  0.00     0.019 A 
ATOM      8  C   UNL     1     -32.219  11.047 -34.052  1.00  0.00     0.094 A 
ATOM      9  C   UNL     1     -32.836  12.286 -34.251  1.00  0.00     0.336 A 
ATOM     10  O   UNL     1     -32.980  13.080 -33.285  1.00  0.00    -0.246 OA
ATOM     11  O   UNL     1     -33.275  12.634 -35.459  1.00  0.00    -0.423 OA
ENDROOT
TORSDOF 0
ENDMDL
MODEL 5
REMARK VINA RESULT:    -5.497      2.685      4.213
REMARK INTER + INTRA:          -5.497
REMARK INTER:                  -5.497
REMARK INTRA:                   0.000
REMARK UNBOUND:                 0.000
REMARK SMILES O=c1ccc2ccccc2o1
REMARK SMILES IDX 7 1 8 2 9 3 10 4 5 5 6 6 4 7 3 8 2 9 1 10 11 11
REMARK H PARENT
REMARK Flexibility Score: inf
ROOT
ATOM      1  C   UNL     1     -33.052   9.690 -37.487  1.00  0.00     0.001 A 
ATOM      2  C   UNL     1     -32.137   8.968 -36.713  1.00  0.00     0.004 A 
ATOM      3  C   UNL     1     -31.757   9.438 -35.451  1.00  0.00     0.048 A 
ATOM      4  C   UNL     1     -32.293  10.633 -34.959  1.00  0.00     0.138 A 
ATOM      5  C   UNL     1     -33.217  11.363 -35.741  1.00  0.00     0.018 A 
ATOM      6  C   UNL     1     -33.593  10.886 -37.004  1.00  0.00     0.012 A 
ATOM      7  C   UNL     1     -33.735  12.553 -35.223  1.00  0.00     0.019 A 
ATOM      8  C   UNL     1     -33.328  12.984 -33.960  1.00  0.00     0.094 A 
ATOM      9  C   UNL     1     -32.410  12.210 -33.242  1.00  0.00     0.336 A 
ATOM     10  O   UNL     1     -32.031  12.582 -32.101  1.00  0.00    -0.246 OA
ATOM     11  O   UNL     1     -31.931  11.080 -33.758  1.00  0.00    -0.423 OA
ENDROOT
TORSDOF 0
ENDMDL
MODEL 6
REMARK VINA RESULT:    -5.413      0.979      1.005
REMARK INTER + INTRA:          -5.413
REMARK INTER:                  -5.413
REMARK INTRA:                   0.000
REMARK UNBOUND:                 0.000
REMARK SMILES O=c1ccc2ccccc2o1
REMARK SMILES IDX 7 1 8 2 9 3 10 4 5 5 6 6 4 7 3 8 2 9 1 10 11 11
REMARK H PARENT
REMARK Flexibility Score: inf
ROOT
ATOM      1  C   UNL     1     -32.898  11.305 -34.850  1.00  0.00     0.001 A 
ATOM      2  C   UNL     1     -32.804   9.940 -35.142  1.00  0.00     0.004 A 
ATOM      3  C   UNL     1     -33.088   9.474 -36.431  1.00  0.00     0.048 A 
ATOM      4  C   UNL     1     -33.466  10.375 -37.433  1.00  0.00     0.138 A 
ATOM      5  C   UNL     1     -33.562  11.754 -37.138  1.00  0.00     0.018 A 
ATOM      6  C   UNL     1     -33.276  12.213 -35.844  1.00  0.00     0.012 A 
ATOM      7  C   UNL     1     -33.943  12.629 -38.159  1.00  0.00     0.019 A 
ATOM      8  C   UNL     1     -34.216  12.121 -39.429  1.00  0.00     0.094 A 
ATOM      9  C   UNL     1     -34.100  10.745 -39.649  1.00  0.00     0.336 A 
ATOM     10  O   UNL     1     -34.343  10.267 -40.788  1.00  0.00    -0.246 OA
ATOM     11  O   UNL     1     -33.737   9.932 -38.659  1.00  0.00    -0.423 OA
ENDROOT
TORSDOF 0
ENDMDL
MODEL 7
REMARK VINA RESULT:    -5.169      1.706      4.218
REMARK INTER + INTRA:          -5.169
REMARK INTER:                  -5.169
REMARK INTRA:                   0.000
REMARK UNBOUND:                 0.000
REMARK SMILES O=c1ccc2ccccc2o1
REMARK SMILES IDX 7 1 8 2 9 3 10 4 5 5 6 6 4 7 3 8 2 9 1 10 11 11
REMARK H PARENT
REMARK Flexibility Score: inf
ROOT
ATOM      1  C   UNL     1     -35.481  11.456 -41.039  1.00  0.00     0.001 A 
ATOM      2  C   UNL     1     -35.037  10.137 -41.179  1.00  0.00     0.004 A 
ATOM      3  C   UNL     1     -34.079   9.621 -40.299  1.00  0.00     0.048 A 
ATOM      4  C   UNL     1     -33.563  10.424 -39.275  1.00  0.00     0.138 A 
ATOM      5  C   UNL     1     -34.012  11.757 -39.135  1.00  0.00     0.018 A 
ATOM      6  C   UNL     1     -34.972  12.268 -40.020  1.00  0.00     0.012 A 
ATOM      7  C   UNL     1     -33.479  12.535 -38.104  1.00  0.00     0.019 A 
ATOM      8  C   UNL     1     -32.525  11.979 -37.250  1.00  0.00     0.094 A 
ATOM      9  C   UNL     1     -32.128  10.653 -37.448  1.00  0.00     0.336 A 
ATOM     10  O   UNL     1     -31.270  10.133 -36.688  1.00  0.00    -0.246 OA
ATOM     11  O   UNL     1     -32.651   9.933 -38.439  1.00  0.00    -0.423 OA
ENDROOT
TORSDOF 0
ENDMDL
MODEL 8
REMARK VINA RESULT:    -5.120      1.698      3.824
REMARK INTER + INTRA:          -5.120
REMARK INTER:                  -5.120
REMARK INTRA:                   0.000
REMARK UNBOUND:                 0.000
REMARK SMILES O=c1ccc2ccccc2o1
REMARK SMILES IDX 7 1 8 2 9 3 10 4 5 5 6 6 4 7 3 8 2 9 1 10 11 11
REMARK H PARENT
REMARK Flexibility Score: inf
ROOT
ATOM      1  C   UNL     1     -33.642  10.841 -39.625  1.00  0.00     0.001 A 
ATOM      2  C   UNL     1     -32.981   9.643 -39.332  1.00  0.00     0.004 A 
ATOM      3  C   UNL     1     -32.533   9.387 -38.031  1.00  0.00     0.048 A 
ATOM      4  C   UNL     1     -32.746  10.329 -37.019  1.00  0.00     0.138 A 
ATOM      5  C   UNL     1     -33.414  11.539 -37.315  1.00  0.00     0.018 A 
ATOM      6  C   UNL     1     -33.860  11.790 -38.621  1.00  0.00     0.012 A 
ATOM      7  C   UNL     1     -33.612  12.461 -36.284  1.00  0.00     0.019 A 
ATOM      8  C   UNL     1     -33.149  12.164 -35.002  1.00  0.00     0.094 A 
ATOM      9  C   UNL     1     -32.497  10.947 -34.781  1.00  0.00     0.336 A 
ATOM     10  O   UNL     1     -32.071  10.660 -33.632  1.00  0.00    -0.246 OA
ATOM     11  O   UNL     1     -32.320  10.086 -35.781  1.00  0.00    -0.423 OA
ENDROOT
TORSDOF 0
ENDMDL
