MODEL 1
REMARK VINA RESULT:    -5.393      0.000      0.000
REMARK INTER + INTRA:          -6.067
REMARK INTER:                  -6.024
REMARK INTRA:                  -0.044
REMARK UNBOUND:                -0.044
REMARK SMILES O=C([O-])c1ccc(O)c(O)c1
REMARK SMILES IDX 4 1 11 2 5 3 9 4 6 5 7 6 2 7 1 8 3 9 10 10 8 12
REMARK H PARENT 10 11 8 13
REMARK Flexibility Score: inf
ROOT
ATOM      1  C   UNL     1     -24.331  17.259  19.352  1.00  0.00     0.001 A 
ATOM      2  C   UNL     1     -24.652  17.569  20.686  1.00  0.00     0.060 A 
ATOM      3  C   UNL     1     -23.162  17.798  18.789  1.00  0.00     0.014 A 
ATOM      4  C   UNL     1     -23.818  18.404  21.445  1.00  0.00     0.158 A 
ATOM      5  C   UNL     1     -22.332  18.630  19.545  1.00  0.00     0.051 A 
ATOM      6  C   UNL     1     -22.653  18.937  20.870  1.00  0.00     0.157 A 
ENDROOT
BRANCH   1   7
ATOM      7  C   UNL     1     -25.209  16.378  18.549  1.00  0.00     0.072 C 
ATOM      8  O   UNL     1     -24.782  15.836  17.496  1.00  0.00    -0.545 OA
ATOM      9  O   UNL     1     -26.519  16.139  18.948  1.00  0.00    -0.545 OA
ENDBRANCH   1   7
BRANCH   4  10
ATOM     10  O   UNL     1     -24.145  18.705  22.766  1.00  0.00    -0.504 OA
ATOM     11  H   UNL     1     -25.085  18.973  23.034  1.00  0.00     0.293 HD
ENDBRANCH   4  10
BRANCH   6  12
ATOM     12  O   UNL     1     -21.804  19.770  21.599  1.00  0.00    -0.504 OA
ATOM     13  H   UNL     1     -22.033  20.738  21.789  1.00  0.00     0.293 HD
ENDBRANCH   6  12
TORSDOF 3
ENDMDL
MODEL 2
REMARK VINA RESULT:    -5.156      1.605      4.535
REMARK INTER + INTRA:          -5.802
REMARK INTER:                  -5.766
REMARK INTRA:                  -0.036
REMARK UNBOUND:                -0.044
REMARK SMILES O=C([O-])c1ccc(O)c(O)c1
REMARK SMILES IDX 4 1 11 2 5 3 9 4 6 5 7 6 2 7 1 8 3 9 10 10 8 12
REMARK H PARENT 10 11 8 13
REMARK Flexibility Score: inf
ROOT
ATOM      1  C   UNL     1     -22.692  17.705  19.096  1.00  0.00     0.001 A 
ATOM      2  C   UNL     1     -24.028  17.673  18.655  1.00  0.00     0.060 A 
ATOM      3  C   UNL     1     -21.931  16.524  19.053  1.00  0.00     0.014 A 
ATOM      4  C   UNL     1     -24.593  16.480  18.176  1.00  0.00     0.158 A 
ATOM      5  C   UNL     1     -22.494  15.337  18.577  1.00  0.00     0.051 A 
ATOM      6  C   UNL     1     -23.821  15.307  18.139  1.00  0.00     0.157 A 
ENDROOT
BRANCH   1   7
ATOM      7  C   UNL     1     -22.094  18.961  19.601  1.00  0.00     0.072 C 
ATOM      8  O   UNL     1     -21.795  19.892  18.808  1.00  0.00    -0.545 OA
ATOM      9  O   UNL     1     -21.856  19.130  20.960  1.00  0.00    -0.545 OA
ENDBRANCH   1   7
BRANCH   4  10
ATOM     10  O   UNL     1     -25.916  16.459  17.740  1.00  0.00    -0.504 OA
ATOM     11  H   UNL     1     -26.685  16.299  18.381  1.00  0.00     0.293 HD
ENDBRANCH   4  10
BRANCH   6  12
ATOM     12  O   UNL     1     -24.354  14.107  17.669  1.00  0.00    -0.504 OA
ATOM     13  H   UNL     1     -25.340  14.001  17.462  1.00  0.00     0.293 HD
ENDBRANCH   6  12
TORSDOF 3
ENDMDL
MODEL 3
REMARK VINA RESULT:    -5.085      1.286      2.398
REMARK INTER + INTRA:          -5.723
REMARK INTER:                  -5.686
REMARK INTRA:                  -0.037
REMARK UNBOUND:                -0.044
REMARK SMILES O=C([O-])c1ccc(O)c(O)c1
REMARK SMILES IDX 4 1 11 2 5 3 9 4 6 5 7 6 2 7 1 8 3 9 10 10 8 12
REMARK H PARENT 10 11 8 13
REMARK Flexibility Score: inf
ROOT
ATOM      1  C   UNL     1     -24.116  16.872  18.970  1.00  0.00     0.001 A 
ATOM      2  C   UNL     1     -23.439  18.056  18.624  1.00  0.00     0.060 A 
ATOM      3  C   UNL     1     -24.645  16.744  20.265  1.00  0.00     0.014 A 
ATOM      4  C   UNL     1     -23.294  19.095  19.556  1.00  0.00     0.158 A 
ATOM      5  C   UNL     1     -24.501  17.778  21.194  1.00  0.00     0.051 A 
ATOM      6  C   UNL     1     -23.828  18.953  20.848  1.00  0.00     0.157 A 
ENDROOT
BRANCH   1   7
ATOM      7  C   UNL     1     -24.269  15.775  17.989  1.00  0.00     0.072 C 
ATOM      8  O   UNL     1     -25.404  15.479  17.531  1.00  0.00    -0.545 OA
ATOM      9  O   UNL     1     -23.160  15.057  17.558  1.00  0.00    -0.545 OA
ENDBRANCH   1   7
BRANCH   4  10
ATOM     10  O   UNL     1     -22.622  20.263  19.203  1.00  0.00    -0.504 OA
ATOM     11  H   UNL     1     -21.704  20.482  19.573  1.00  0.00     0.293 HD
ENDBRANCH   4  10
BRANCH   6  12
ATOM     12  O   UNL     1     -23.701  19.968  21.796  1.00  0.00    -0.504 OA
ATOM     13  H   UNL     1     -23.254  20.851  21.582  1.00  0.00     0.293 HD
ENDBRANCH   6  12
TORSDOF 3
ENDMDL
MODEL 4
REMARK VINA RESULT:    -5.071      1.580      4.615
REMARK INTER + INTRA:          -5.707
REMARK INTER:                  -5.670
REMARK INTRA:                  -0.038
REMARK UNBOUND:                -0.044
REMARK SMILES O=C([O-])c1ccc(O)c(O)c1
REMARK SMILES IDX 4 1 11 2 5 3 9 4 6 5 7 6 2 7 1 8 3 9 10 10 8 12
REMARK H PARENT 10 11 8 13
REMARK Flexibility Score: inf
ROOT
ATOM      1  C   UNL     1     -22.904  17.995  19.910  1.00  0.00     0.001 A 
ATOM      2  C   UNL     1     -22.236  17.104  19.050  1.00  0.00     0.060 A 
ATOM      3  C   UNL     1     -24.172  17.645  20.403  1.00  0.00     0.014 A 
ATOM      4  C   UNL     1     -22.826  15.883  18.689  1.00  0.00     0.158 A 
ATOM      5  C   UNL     1     -24.760  16.429  20.044  1.00  0.00     0.051 A 
ATOM      6  C   UNL     1     -24.094  15.545  19.189  1.00  0.00     0.157 A 
ENDROOT
BRANCH   1   7
ATOM      7  C   UNL     1     -22.283  19.283  20.292  1.00  0.00     0.072 C 
ATOM      8  O   UNL     1     -21.993  20.139  19.416  1.00  0.00    -0.545 OA
ATOM      9  O   UNL     1     -22.012  19.565  21.626  1.00  0.00    -0.545 OA
ENDBRANCH   1   7
BRANCH   4  10
ATOM     10  O   UNL     1     -22.156  15.007  17.837  1.00  0.00    -0.504 OA
ATOM     11  H   UNL     1     -21.954  15.252  16.874  1.00  0.00     0.293 HD
ENDBRANCH   4  10
BRANCH   6  12
ATOM     12  O   UNL     1     -24.707  14.339  18.849  1.00  0.00    -0.504 OA
ATOM     13  H   UNL     1     -25.649  14.113  19.144  1.00  0.00     0.293 HD
ENDBRANCH   6  12
TORSDOF 3
ENDMDL
MODEL 5
REMARK VINA RESULT:    -5.006      1.430      2.479
REMARK INTER + INTRA:          -5.635
REMARK INTER:                  -5.598
REMARK INTRA:                  -0.037
REMARK UNBOUND:                -0.044
REMARK SMILES O=C([O-])c1ccc(O)c(O)c1
REMARK SMILES IDX 4 1 11 2 5 3 9 4 6 5 7 6 2 7 1 8 3 9 10 10 8 12
REMARK H PARENT 10 11 8 13
REMARK Flexibility Score: inf
ROOT
ATOM      1  C   UNL     1     -23.473  16.393  19.054  1.00  0.00     0.001 A 
ATOM      2  C   UNL     1     -22.484  17.394  19.045  1.00  0.00     0.060 A 
ATOM      3  C   UNL     1     -24.535  16.491  19.969  1.00  0.00     0.014 A 
ATOM      4  C   UNL     1     -22.556  18.476  19.937  1.00  0.00     0.158 A 
ATOM      5  C   UNL     1     -24.606  17.568  20.857  1.00  0.00     0.051 A 
ATOM      6  C   UNL     1     -23.623  18.561  20.846  1.00  0.00     0.157 A 
ENDROOT
BRANCH   1   7
ATOM      7  C   UNL     1     -23.399  15.251  18.115  1.00  0.00     0.072 C 
ATOM      8  O   UNL     1     -22.451  14.426  18.182  1.00  0.00    -0.545 OA
ATOM      9  O   UNL     1     -24.378  15.075  17.144  1.00  0.00    -0.545 OA
ENDBRANCH   1   7
BRANCH   4  10
ATOM     10  O   UNL     1     -21.572  19.462  19.920  1.00  0.00    -0.504 OA
ATOM     11  H   UNL     1     -21.084  19.741  20.763  1.00  0.00     0.293 HD
ENDBRANCH   4  10
BRANCH   6  12
ATOM     12  O   UNL     1     -23.722  19.624  21.744  1.00  0.00    -0.504 OA
ATOM     13  H   UNL     1     -24.153  20.504  21.490  1.00  0.00     0.293 HD
ENDBRANCH   6  12
TORSDOF 3
ENDMDL
MODEL 6
REMARK VINA RESULT:    -4.966      1.098      4.292
REMARK INTER + INTRA:          -5.590
REMARK INTER:                  -5.546
REMARK INTRA:                  -0.044
REMARK UNBOUND:                -0.044
REMARK SMILES O=C([O-])c1ccc(O)c(O)c1
REMARK SMILES IDX 4 1 11 2 5 3 9 4 6 5 7 6 2 7 1 8 3 9 10 10 8 12
REMARK H PARENT 10 11 8 13
REMARK Flexibility Score: inf
ROOT
ATOM      1  C   UNL     1     -23.931  18.033  20.038  1.00  0.00     0.001 A 
ATOM      2  C   UNL     1     -24.965  17.281  20.625  1.00  0.00     0.060 A 
ATOM      3  C   UNL     1     -23.719  17.935  18.653  1.00  0.00     0.014 A 
ATOM      4  C   UNL     1     -25.775  16.445  19.840  1.00  0.00     0.158 A 
ATOM      5  C   UNL     1     -24.525  17.103  17.871  1.00  0.00     0.051 A 
ATOM      6  C   UNL     1     -25.552  16.357  18.456  1.00  0.00     0.157 A 
ENDROOT
BRANCH   1   7
ATOM      7  C   UNL     1     -23.077  18.914  20.865  1.00  0.00     0.072 C 
ATOM      8  O   UNL     1     -23.322  19.080  22.089  1.00  0.00    -0.545 OA
ATOM      9  O   UNL     1     -21.990  19.571  20.299  1.00  0.00    -0.545 OA
ENDBRANCH   1   7
BRANCH   4  10
ATOM     10  O   UNL     1     -26.797  15.705  20.431  1.00  0.00    -0.504 OA
ATOM     11  H   UNL     1     -27.662  15.506  19.940  1.00  0.00     0.293 HD
ENDBRANCH   4  10
BRANCH   6  12
ATOM     12  O   UNL     1     -26.339  15.536  17.649  1.00  0.00    -0.504 OA
ATOM     13  H   UNL     1     -26.590  14.594  17.923  1.00  0.00     0.293 HD
ENDBRANCH   6  12
TORSDOF 3
ENDMDL
MODEL 7
REMARK VINA RESULT:    -4.724      1.613      2.027
REMARK INTER + INTRA:          -5.320
REMARK INTER:                  -5.283
REMARK INTRA:                  -0.037
REMARK UNBOUND:                -0.044
REMARK SMILES O=C([O-])c1ccc(O)c(O)c1
REMARK SMILES IDX 4 1 11 2 5 3 9 4 6 5 7 6 2 7 1 8 3 9 10 10 8 12
REMARK H PARENT 10 11 8 13
REMARK Flexibility Score: inf
ROOT
ATOM      1  C   UNL     1     -23.375  16.292  18.920  1.00  0.00     0.001 A 
ATOM      2  C   UNL     1     -24.514  16.483  19.723  1.00  0.00     0.060 A 
ATOM      3  C   UNL     1     -22.311  17.204  19.019  1.00  0.00     0.014 A 
ATOM      4  C   UNL     1     -24.589  17.567  20.611  1.00  0.00     0.158 A 
ATOM      5  C   UNL     1     -22.384  18.284  19.904  1.00  0.00     0.051 A 
ATOM      6  C   UNL     1     -23.518  18.471  20.700  1.00  0.00     0.157 A 
ENDROOT
BRANCH   1   7
ATOM      7  C   UNL     1     -23.295  15.150  17.982  1.00  0.00     0.072 C 
ATOM      8  O   UNL     1     -23.995  15.129  16.936  1.00  0.00    -0.545 OA
ATOM      9  O   UNL     1     -22.444  14.083  18.245  1.00  0.00    -0.545 OA
ENDBRANCH   1   7
BRANCH   4  10
ATOM     10  O   UNL     1     -25.721  17.747  21.402  1.00  0.00    -0.504 OA
ATOM     11  H   UNL     1     -26.327  18.552  21.290  1.00  0.00     0.293 HD
ENDBRANCH   4  10
BRANCH   6  12
ATOM     12  O   UNL     1     -23.561  19.558  21.573  1.00  0.00    -0.504 OA
ATOM     13  H   UNL     1     -22.721  19.968  21.964  1.00  0.00     0.293 HD
ENDBRANCH   6  12
TORSDOF 3
ENDMDL
MODEL 8
REMARK VINA RESULT:    -4.091      1.980      4.902
REMARK INTER + INTRA:          -4.613
REMARK INTER:                  -4.577
REMARK INTRA:                  -0.037
REMARK UNBOUND:                -0.044
REMARK SMILES O=C([O-])c1ccc(O)c(O)c1
REMARK SMILES IDX 4 1 11 2 5 3 9 4 6 5 7 6 2 7 1 8 3 9 10 10 8 12
REMARK H PARENT 10 11 8 13
REMARK Flexibility Score: inf
ROOT
ATOM      1  C   UNL     1     -24.100  17.092  19.114  1.00  0.00     0.001 A 
ATOM      2  C   UNL     1     -24.115  16.207  18.021  1.00  0.00     0.060 A 
ATOM      3  C   UNL     1     -25.076  16.954  20.116  1.00  0.00     0.014 A 
ATOM      4  C   UNL     1     -25.089  15.200  17.931  1.00  0.00     0.158 A 
ATOM      5  C   UNL     1     -26.046  15.951  20.026  1.00  0.00     0.051 A 
ATOM      6  C   UNL     1     -26.058  15.073  18.939  1.00  0.00     0.157 A 
ENDROOT
BRANCH   1   7
ATOM      7  C   UNL     1     -23.075  18.154  19.211  1.00  0.00     0.072 C 
ATOM      8  O   UNL     1     -23.385  19.362  19.039  1.00  0.00    -0.545 OA
ATOM      9  O   UNL     1     -21.753  17.831  19.495  1.00  0.00    -0.545 OA
ENDBRANCH   1   7
BRANCH   4  10
ATOM     10  O   UNL     1     -25.095  14.328  16.844  1.00  0.00    -0.504 OA
ATOM     11  H   UNL     1     -25.012  13.325  16.966  1.00  0.00     0.293 HD
ENDBRANCH   4  10
BRANCH   6  12
ATOM     12  O   UNL     1     -27.039  14.083  18.878  1.00  0.00    -0.504 OA
ATOM     13  H   UNL     1     -27.591  13.823  19.686  1.00  0.00     0.293 HD
ENDBRANCH   6  12
TORSDOF 3
ENDMDL
MODEL 9
REMARK VINA RESULT:    -4.053      3.150      4.695
REMARK INTER + INTRA:          -4.570
REMARK INTER:                  -4.529
REMARK INTRA:                  -0.041
REMARK UNBOUND:                -0.044
REMARK SMILES O=C([O-])c1ccc(O)c(O)c1
REMARK SMILES IDX 4 1 11 2 5 3 9 4 6 5 7 6 2 7 1 8 3 9 10 10 8 12
REMARK H PARENT 10 11 8 13
REMARK Flexibility Score: inf
ROOT
ATOM      1  C   UNL     1     -24.036  15.519  19.015  1.00  0.00     0.001 A 
ATOM      2  C   UNL     1     -24.842  14.683  19.809  1.00  0.00     0.060 A 
ATOM      3  C   UNL     1     -24.651  16.381  18.091  1.00  0.00     0.014 A 
ATOM      4  C   UNL     1     -26.240  14.708  19.683  1.00  0.00     0.158 A 
ATOM      5  C   UNL     1     -26.043  16.406  17.965  1.00  0.00     0.051 A 
ATOM      6  C   UNL     1     -26.841  15.574  18.756  1.00  0.00     0.157 A 
ENDROOT
BRANCH   1   7
ATOM      7  C   UNL     1     -22.562  15.494  19.146  1.00  0.00     0.072 C 
ATOM      8  O   UNL     1     -21.957  14.413  19.372  1.00  0.00    -0.545 OA
ATOM      9  O   UNL     1     -21.825  16.666  19.022  1.00  0.00    -0.545 OA
ENDBRANCH   1   7
BRANCH   4  10
ATOM     10  O   UNL     1     -27.028  13.876  20.475  1.00  0.00    -0.504 OA
ATOM     11  H   UNL     1     -28.028  14.019  20.566  1.00  0.00     0.293 HD
ENDBRANCH   4  10
BRANCH   6  12
ATOM     12  O   UNL     1     -28.227  15.622  18.607  1.00  0.00    -0.504 OA
ATOM     13  H   UNL     1     -28.822  14.839  18.850  1.00  0.00     0.293 HD
ENDBRANCH   6  12
TORSDOF 3
ENDMDL
