MODEL 1
REMARK VINA RESULT:    -4.267      0.000      0.000
REMARK INTER + INTRA:         -11.032
REMARK INTER:                  -8.008
REMARK INTRA:                  -3.024
REMARK UNBOUND:                -3.024
REMARK SMILES CCCCCCCCCCCCCC=CC=CC(=O)OC
REMARK SMILES IDX 9 1 8 2 7 3 6 4 5 5 4 6 3 7 2 8 1 9 10 10 11 11 12 12 13 13
REMARK SMILES IDX 14 14 15 15 16 16 17 17 18 18 19 19 20 20 21 21
REMARK H PARENT
REMARK Flexibility Score: inf
ROOT
ATOM      1  C   UNL     1     -10.526   6.079  -1.032  1.00  0.00     0.000 C 
ENDROOT
BRANCH   1   2
ATOM      2  C   UNL     1     -10.328   5.626   0.426  1.00  0.00     0.000 C 
BRANCH   2   3
ATOM      3  C   UNL     1      -9.100   4.731   0.674  1.00  0.00     0.000 C 
BRANCH   3   4
ATOM      4  C   UNL     1      -8.006   4.906  -0.393  1.00  0.00    -0.000 C 
BRANCH   4   5
ATOM      5  C   UNL     1      -6.707   5.509   0.175  1.00  0.00    -0.000 C 
BRANCH   5   6
ATOM      6  C   UNL     1      -6.889   6.411   1.414  1.00  0.00    -0.000 C 
BRANCH   6   7
ATOM      7  C   UNL     1      -6.077   5.993   2.656  1.00  0.00    -0.000 C 
BRANCH   7   8
ATOM      8  C   UNL     1      -6.800   6.200   3.998  1.00  0.00    -0.003 C 
ATOM      9  C   UNL     1      -8.282   5.827   3.939  1.00  0.00     0.004 C 
ENDBRANCH   7   8
ENDBRANCH   6   7
ENDBRANCH   5   6
ENDBRANCH   4   5
ENDBRANCH   3   4
ENDBRANCH   2   3
ENDBRANCH   1   2
BRANCH   1  10
ATOM     10  C   UNL     1     -10.493   7.606  -1.197  1.00  0.00     0.000 C 
BRANCH  10  11
ATOM     11  C   UNL     1      -9.586   8.252  -0.139  1.00  0.00     0.000 C 
BRANCH  11  12
ATOM     12  C   UNL     1      -8.432   9.063  -0.756  1.00  0.00     0.004 C 
BRANCH  12  13
ATOM     13  C   UNL     1      -8.290   8.906  -2.281  1.00  0.00     0.027 C 
BRANCH  13  14
ATOM     14  C   UNL     1      -7.065   8.121  -2.679  1.00  0.00    -0.027 C 
ATOM     15  C   UNL     1      -7.085   6.944  -3.317  1.00  0.00    -0.004 C 
BRANCH  15  16
ATOM     16  C   UNL     1      -8.322   6.287  -3.793  1.00  0.00     0.007 C 
ATOM     17  C   UNL     1      -8.865   6.480  -5.004  1.00  0.00     0.093 C 
BRANCH  17  18
ATOM     18  C   UNL     1      -8.240   7.222  -6.116  1.00  0.00     0.330 C 
ATOM     19  O   UNL     1      -7.595   6.578  -6.989  1.00  0.00    -0.247 OA
BRANCH  18  20
ATOM     20  O   UNL     1      -8.300   8.618  -6.176  1.00  0.00    -0.466 OA
ATOM     21  C   UNL     1      -7.148   9.429  -6.369  1.00  0.00     0.282 C 
ENDBRANCH  18  20
ENDBRANCH  17  18
ENDBRANCH  15  16
ENDBRANCH  13  14
ENDBRANCH  12  13
ENDBRANCH  11  12
ENDBRANCH  10  11
ENDBRANCH   1  10
TORSDOF 15
ENDMDL
MODEL 2
REMARK VINA RESULT:    -4.201      1.422      2.193
REMARK INTER + INTRA:         -10.909
REMARK INTER:                  -7.868
REMARK INTRA:                  -3.041
REMARK UNBOUND:                -3.024
REMARK SMILES CCCCCCCCCCCCCC=CC=CC(=O)OC
REMARK SMILES IDX 9 1 8 2 7 3 6 4 5 5 4 6 3 7 2 8 1 9 10 10 11 11 12 12 13 13
REMARK SMILES IDX 14 14 15 15 16 16 17 17 18 18 19 19 20 20 21 21
REMARK H PARENT
REMARK Flexibility Score: inf
ROOT
ATOM      1  C   UNL     1     -11.586   8.070  -1.177  1.00  0.00     0.000 C 
ENDROOT
BRANCH   1   2
ATOM      2  C   UNL     1     -11.717   6.596  -0.749  1.00  0.00     0.000 C 
BRANCH   2   3
ATOM      3  C   UNL     1     -12.133   6.373   0.717  1.00  0.00     0.000 C 
BRANCH   3   4
ATOM      4  C   UNL     1     -10.995   5.809   1.583  1.00  0.00    -0.000 C 
BRANCH   4   5
ATOM      5  C   UNL     1     -10.077   4.843   0.810  1.00  0.00    -0.000 C 
BRANCH   5   6
ATOM      6  C   UNL     1      -8.729   4.530   1.493  1.00  0.00    -0.000 C 
BRANCH   6   7
ATOM      7  C   UNL     1      -8.441   5.333   2.777  1.00  0.00    -0.000 C 
BRANCH   7   8
ATOM      8  C   UNL     1      -7.021   5.919   2.866  1.00  0.00    -0.003 C 
ATOM      9  C   UNL     1      -6.626   6.306   4.291  1.00  0.00     0.004 C 
ENDBRANCH   7   8
ENDBRANCH   6   7
ENDBRANCH   5   6
ENDBRANCH   4   5
ENDBRANCH   3   4
ENDBRANCH   2   3
ENDBRANCH   1   2
BRANCH   1  10
ATOM     10  C   UNL     1     -10.574   8.854  -0.328  1.00  0.00     0.000 C 
BRANCH  10  11
ATOM     11  C   UNL     1      -9.512   9.519  -1.217  1.00  0.00     0.000 C 
BRANCH  11  12
ATOM     12  C   UNL     1      -8.074   9.154  -0.805  1.00  0.00     0.004 C 
BRANCH  12  13
ATOM     13  C   UNL     1      -7.901   7.702  -0.324  1.00  0.00     0.027 C 
BRANCH  13  14
ATOM     14  C   UNL     1      -6.887   6.932  -1.132  1.00  0.00    -0.027 C 
ATOM     15  C   UNL     1      -7.180   5.933  -1.976  1.00  0.00    -0.004 C 
BRANCH  15  16
ATOM     16  C   UNL     1      -8.559   5.502  -2.292  1.00  0.00     0.007 C 
ATOM     17  C   UNL     1      -9.258   5.917  -3.358  1.00  0.00     0.093 C 
BRANCH  17  18
ATOM     18  C   UNL     1      -8.722   6.715  -4.477  1.00  0.00     0.330 C 
ATOM     19  O   UNL     1      -8.321   6.116  -5.513  1.00  0.00    -0.247 OA
BRANCH  18  20
ATOM     20  O   UNL     1      -8.594   8.104  -4.377  1.00  0.00    -0.466 OA
ATOM     21  C   UNL     1      -7.391   8.791  -4.699  1.00  0.00     0.282 C 
ENDBRANCH  18  20
ENDBRANCH  17  18
ENDBRANCH  15  16
ENDBRANCH  13  14
ENDBRANCH  12  13
ENDBRANCH  11  12
ENDBRANCH  10  11
ENDBRANCH   1  10
TORSDOF 15
ENDMDL
MODEL 3
REMARK VINA RESULT:    -4.097      3.243      6.191
REMARK INTER + INTRA:         -10.714
REMARK INTER:                  -7.605
REMARK INTRA:                  -3.109
REMARK UNBOUND:                -3.024
REMARK SMILES CCCCCCCCCCCCCC=CC=CC(=O)OC
REMARK SMILES IDX 9 1 8 2 7 3 6 4 5 5 4 6 3 7 2 8 1 9 10 10 11 11 12 12 13 13
REMARK SMILES IDX 14 14 15 15 16 16 17 17 18 18 19 19 20 20 21 21
REMARK H PARENT
REMARK Flexibility Score: inf
ROOT
ATOM      1  C   UNL     1     -10.256   5.887  -2.371  1.00  0.00     0.000 C 
ENDROOT
BRANCH   1   2
ATOM      2  C   UNL     1      -8.965   5.648  -3.176  1.00  0.00     0.000 C 
BRANCH   2   3
ATOM      3  C   UNL     1      -8.841   6.466  -4.475  1.00  0.00     0.000 C 
BRANCH   3   4
ATOM      4  C   UNL     1      -7.663   7.454  -4.450  1.00  0.00    -0.000 C 
BRANCH   4   5
ATOM      5  C   UNL     1      -6.642   7.141  -3.340  1.00  0.00    -0.000 C 
BRANCH   5   6
ATOM      6  C   UNL     1      -6.306   8.321  -2.405  1.00  0.00    -0.000 C 
BRANCH   6   7
ATOM      7  C   UNL     1      -6.890   9.683  -2.829  1.00  0.00    -0.000 C 
BRANCH   7   8
ATOM      8  C   UNL     1      -8.111  10.143  -2.012  1.00  0.00    -0.003 C 
ATOM      9  C   UNL     1      -7.906   9.999  -0.504  1.00  0.00     0.004 C 
ENDBRANCH   7   8
ENDBRANCH   6   7
ENDBRANCH   5   6
ENDBRANCH   4   5
ENDBRANCH   3   4
ENDBRANCH   2   3
ENDBRANCH   1   2
BRANCH   1  10
ATOM     10  C   UNL     1     -10.309   7.275  -1.717  1.00  0.00     0.000 C 
BRANCH  10  11
ATOM     11  C   UNL     1     -11.333   7.304  -0.573  1.00  0.00     0.000 C 
BRANCH  11  12
ATOM     12  C   UNL     1     -11.415   5.970   0.190  1.00  0.00     0.004 C 
BRANCH  12  13
ATOM     13  C   UNL     1     -10.380   5.820   1.319  1.00  0.00     0.027 C 
BRANCH  13  14
ATOM     14  C   UNL     1      -9.427   4.672   1.096  1.00  0.00    -0.027 C 
ATOM     15  C   UNL     1      -8.189   4.792   0.600  1.00  0.00    -0.004 C 
BRANCH  15  16
ATOM     16  C   UNL     1      -7.554   6.088   0.277  1.00  0.00     0.007 C 
ATOM     17  C   UNL     1      -6.863   6.833   1.153  1.00  0.00     0.093 C 
BRANCH  17  18
ATOM     18  C   UNL     1      -6.469   6.414   2.512  1.00  0.00     0.330 C 
ATOM     19  O   UNL     1      -5.475   5.649   2.646  1.00  0.00    -0.247 OA
BRANCH  18  20
ATOM     20  O   UNL     1      -7.214   6.798   3.630  1.00  0.00    -0.466 OA
ATOM     21  C   UNL     1      -8.113   5.919   4.295  1.00  0.00     0.282 C 
ENDBRANCH  18  20
ENDBRANCH  17  18
ENDBRANCH  15  16
ENDBRANCH  13  14
ENDBRANCH  12  13
ENDBRANCH  11  12
ENDBRANCH  10  11
ENDBRANCH   1  10
TORSDOF 15
ENDMDL
MODEL 4
REMARK VINA RESULT:    -4.058      3.702      7.315
REMARK INTER + INTRA:         -10.641
REMARK INTER:                  -8.239
REMARK INTRA:                  -2.402
REMARK UNBOUND:                -3.024
REMARK SMILES CCCCCCCCCCCCCC=CC=CC(=O)OC
REMARK SMILES IDX 9 1 8 2 7 3 6 4 5 5 4 6 3 7 2 8 1 9 10 10 11 11 12 12 13 13
REMARK SMILES IDX 14 14 15 15 16 16 17 17 18 18 19 19 20 20 21 21
REMARK H PARENT
REMARK Flexibility Score: inf
ROOT
ATOM      1  C   UNL     1     -10.057   8.344  -1.364  1.00  0.00     0.000 C 
ENDROOT
BRANCH   1   2
ATOM      2  C   UNL     1      -9.142   8.299  -0.127  1.00  0.00     0.000 C 
BRANCH   2   3
ATOM      3  C   UNL     1      -7.695   8.771  -0.362  1.00  0.00     0.000 C 
BRANCH   3   4
ATOM      4  C   UNL     1      -6.914   7.855  -1.318  1.00  0.00    -0.000 C 
BRANCH   4   5
ATOM      5  C   UNL     1      -6.414   8.589  -2.576  1.00  0.00    -0.000 C 
BRANCH   5   6
ATOM      6  C   UNL     1      -7.256   8.359  -3.848  1.00  0.00    -0.000 C 
BRANCH   6   7
ATOM      7  C   UNL     1      -7.686   6.900  -4.097  1.00  0.00    -0.000 C 
BRANCH   7   8
ATOM      8  C   UNL     1      -8.716   6.715  -5.225  1.00  0.00    -0.003 C 
ATOM      9  C   UNL     1      -8.354   7.490  -6.492  1.00  0.00     0.004 C 
ENDBRANCH   7   8
ENDBRANCH   6   7
ENDBRANCH   5   6
ENDBRANCH   4   5
ENDBRANCH   3   4
ENDBRANCH   2   3
ENDBRANCH   1   2
BRANCH   1  10
ATOM     10  C   UNL     1     -10.468   6.950  -1.861  1.00  0.00     0.000 C 
BRANCH  10  11
ATOM     11  C   UNL     1     -10.159   5.879  -0.804  1.00  0.00     0.000 C 
BRANCH  11  12
ATOM     12  C   UNL     1      -9.027   4.928  -1.230  1.00  0.00     0.004 C 
BRANCH  12  13
ATOM     13  C   UNL     1      -8.471   4.052  -0.093  1.00  0.00     0.027 C 
BRANCH  13  14
ATOM     14  C   UNL     1      -9.051   4.400   1.255  1.00  0.00    -0.027 C 
ATOM     15  C   UNL     1      -8.432   5.135   2.188  1.00  0.00    -0.004 C 
BRANCH  15  16
ATOM     16  C   UNL     1      -7.115   5.777   1.989  1.00  0.00     0.007 C 
ATOM     17  C   UNL     1      -6.434   6.424   2.946  1.00  0.00     0.093 C 
BRANCH  17  18
ATOM     18  C   UNL     1      -6.784   6.451   4.379  1.00  0.00     0.330 C 
ATOM     19  O   UNL     1      -5.904   6.134   5.225  1.00  0.00    -0.247 OA
BRANCH  18  20
ATOM     20  O   UNL     1      -8.082   6.757   4.799  1.00  0.00    -0.466 OA
ATOM     21  C   UNL     1      -8.626   6.284   6.025  1.00  0.00     0.282 C 
ENDBRANCH  18  20
ENDBRANCH  17  18
ENDBRANCH  15  16
ENDBRANCH  13  14
ENDBRANCH  12  13
ENDBRANCH  11  12
ENDBRANCH  10  11
ENDBRANCH   1  10
TORSDOF 15
ENDMDL
MODEL 5
REMARK VINA RESULT:    -3.954      3.133      6.160
REMARK INTER + INTRA:         -10.446
REMARK INTER:                  -7.133
REMARK INTRA:                  -3.313
REMARK UNBOUND:                -3.024
REMARK SMILES CCCCCCCCCCCCCC=CC=CC(=O)OC
REMARK SMILES IDX 9 1 8 2 7 3 6 4 5 5 4 6 3 7 2 8 1 9 10 10 11 11 12 12 13 13
REMARK SMILES IDX 14 14 15 15 16 16 17 17 18 18 19 19 20 20 21 21
REMARK H PARENT
REMARK Flexibility Score: inf
ROOT
ATOM      1  C   UNL     1      -6.677   8.206  -2.332  1.00  0.00     0.000 C 
ENDROOT
BRANCH   1   2
ATOM      2  C   UNL     1      -7.858   9.090  -1.890  1.00  0.00     0.000 C 
BRANCH   2   3
ATOM      3  C   UNL     1      -8.412   8.791  -0.485  1.00  0.00     0.000 C 
BRANCH   3   4
ATOM      4  C   UNL     1      -9.830   9.345  -0.269  1.00  0.00    -0.000 C 
BRANCH   4   5
ATOM      5  C   UNL     1     -10.808   8.936  -1.386  1.00  0.00    -0.000 C 
BRANCH   5   6
ATOM      6  C   UNL     1     -12.140   8.326  -0.901  1.00  0.00    -0.000 C 
BRANCH   6   7
ATOM      7  C   UNL     1     -12.155   6.788  -0.787  1.00  0.00    -0.000 C 
BRANCH   7   8
ATOM      8  C   UNL     1     -12.504   6.250   0.612  1.00  0.00    -0.003 C 
ATOM      9  C   UNL     1     -11.365   6.424   1.617  1.00  0.00     0.004 C 
ENDBRANCH   7   8
ENDBRANCH   6   7
ENDBRANCH   5   6
ENDBRANCH   4   5
ENDBRANCH   3   4
ENDBRANCH   2   3
ENDBRANCH   1   2
BRANCH   1  10
ATOM     10  C   UNL     1      -7.044   7.234  -3.463  1.00  0.00     0.000 C 
BRANCH  10  11
ATOM     11  C   UNL     1      -8.525   7.372  -3.846  1.00  0.00     0.000 C 
BRANCH  11  12
ATOM     12  C   UNL     1      -9.358   6.133  -3.472  1.00  0.00     0.004 C 
BRANCH  12  13
ATOM     13  C   UNL     1      -8.625   5.125  -2.567  1.00  0.00     0.027 C 
BRANCH  13  14
ATOM     14  C   UNL     1      -9.110   5.155  -1.140  1.00  0.00    -0.027 C 
ATOM     15  C   UNL     1      -8.316   5.193  -0.062  1.00  0.00    -0.004 C 
BRANCH  15  16
ATOM     16  C   UNL     1      -6.842   5.293  -0.130  1.00  0.00     0.007 C 
ATOM     17  C   UNL     1      -6.077   5.875   0.805  1.00  0.00     0.093 C 
BRANCH  17  18
ATOM     18  C   UNL     1      -6.543   6.345   2.124  1.00  0.00     0.330 C 
ATOM     19  O   UNL     1      -6.375   7.557   2.430  1.00  0.00    -0.247 OA
BRANCH  18  20
ATOM     20  O   UNL     1      -7.102   5.458   3.050  1.00  0.00    -0.466 OA
ATOM     21  C   UNL     1      -8.003   5.876   4.068  1.00  0.00     0.282 C 
ENDBRANCH  18  20
ENDBRANCH  17  18
ENDBRANCH  15  16
ENDBRANCH  13  14
ENDBRANCH  12  13
ENDBRANCH  11  12
ENDBRANCH  10  11
ENDBRANCH   1  10
TORSDOF 15
ENDMDL
MODEL 6
REMARK VINA RESULT:    -3.880      4.527      8.169
REMARK INTER + INTRA:         -10.307
REMARK INTER:                  -8.017
REMARK INTRA:                  -2.290
REMARK UNBOUND:                -3.024
REMARK SMILES CCCCCCCCCCCCCC=CC=CC(=O)OC
REMARK SMILES IDX 9 1 8 2 7 3 6 4 5 5 4 6 3 7 2 8 1 9 10 10 11 11 12 12 13 13
REMARK SMILES IDX 14 14 15 15 16 16 17 17 18 18 19 19 20 20 21 21
REMARK H PARENT
REMARK Flexibility Score: inf
ROOT
ATOM      1  C   UNL     1      -9.762   6.095  -1.945  1.00  0.00     0.000 C 
ENDROOT
BRANCH   1   2
ATOM      2  C   UNL     1      -9.957   7.128  -0.820  1.00  0.00     0.000 C 
BRANCH   2   3
ATOM      3  C   UNL     1      -9.407   8.535  -1.119  1.00  0.00     0.000 C 
BRANCH   3   4
ATOM      4  C   UNL     1      -8.043   8.798  -0.459  1.00  0.00    -0.000 C 
BRANCH   4   5
ATOM      5  C   UNL     1      -7.229   9.888  -1.181  1.00  0.00    -0.000 C 
BRANCH   5   6
ATOM      6  C   UNL     1      -6.439   9.407  -2.416  1.00  0.00    -0.000 C 
BRANCH   6   7
ATOM      7  C   UNL     1      -6.392   7.878  -2.612  1.00  0.00    -0.000 C 
BRANCH   7   8
ATOM      8  C   UNL     1      -6.676   7.403  -4.047  1.00  0.00    -0.003 C 
ATOM      9  C   UNL     1      -8.042   7.855  -4.564  1.00  0.00     0.004 C 
ENDBRANCH   7   8
ENDBRANCH   6   7
ENDBRANCH   5   6
ENDBRANCH   4   5
ENDBRANCH   3   4
ENDBRANCH   2   3
ENDBRANCH   1   2
BRANCH   1  10
ATOM     10  C   UNL     1      -8.633   5.095  -1.655  1.00  0.00     0.000 C 
BRANCH  10  11
ATOM     11  C   UNL     1      -8.283   5.083  -0.159  1.00  0.00     0.000 C 
BRANCH  11  12
ATOM     12  C   UNL     1      -6.827   5.500   0.117  1.00  0.00     0.004 C 
BRANCH  12  13
ATOM     13  C   UNL     1      -6.549   5.910   1.574  1.00  0.00     0.027 C 
BRANCH  13  14
ATOM     14  C   UNL     1      -7.699   5.604   2.501  1.00  0.00    -0.027 C 
ATOM     15  C   UNL     1      -7.669   5.749   3.832  1.00  0.00    -0.004 C 
BRANCH  15  16
ATOM     16  C   UNL     1      -6.518   6.311   4.572  1.00  0.00     0.007 C 
ATOM     17  C   UNL     1      -6.477   6.469   5.903  1.00  0.00     0.093 C 
BRANCH  17  18
ATOM     18  C   UNL     1      -7.474   5.954   6.859  1.00  0.00     0.330 C 
ATOM     19  O   UNL     1      -8.420   6.709   7.217  1.00  0.00    -0.247 OA
BRANCH  18  20
ATOM     20  O   UNL     1      -7.348   4.678   7.416  1.00  0.00    -0.466 OA
ATOM     21  C   UNL     1      -8.342   3.672   7.268  1.00  0.00     0.282 C 
ENDBRANCH  18  20
ENDBRANCH  17  18
ENDBRANCH  15  16
ENDBRANCH  13  14
ENDBRANCH  12  13
ENDBRANCH  11  12
ENDBRANCH  10  11
ENDBRANCH   1  10
TORSDOF 15
ENDMDL
MODEL 7
REMARK VINA RESULT:    -3.872      2.022      3.658
REMARK INTER + INTRA:         -10.291
REMARK INTER:                  -8.105
REMARK INTRA:                  -2.186
REMARK UNBOUND:                -3.024
REMARK SMILES CCCCCCCCCCCCCC=CC=CC(=O)OC
REMARK SMILES IDX 9 1 8 2 7 3 6 4 5 5 4 6 3 7 2 8 1 9 10 10 11 11 12 12 13 13
REMARK SMILES IDX 14 14 15 15 16 16 17 17 18 18 19 19 20 20 21 21
REMARK H PARENT
REMARK Flexibility Score: inf
ROOT
ATOM      1  C   UNL     1      -8.329   4.894   0.498  1.00  0.00     0.000 C 
ENDROOT
BRANCH   1   2
ATOM      2  C   UNL     1      -7.810   6.190   1.149  1.00  0.00     0.000 C 
BRANCH   2   3
ATOM      3  C   UNL     1      -6.384   6.110   1.724  1.00  0.00     0.000 C 
BRANCH   3   4
ATOM      4  C   UNL     1      -6.362   6.002   3.258  1.00  0.00    -0.000 C 
BRANCH   4   5
ATOM      5  C   UNL     1      -7.758   5.758   3.860  1.00  0.00    -0.000 C 
BRANCH   5   6
ATOM      6  C   UNL     1      -7.776   5.442   5.371  1.00  0.00    -0.000 C 
BRANCH   6   7
ATOM      7  C   UNL     1      -6.448   5.697   6.111  1.00  0.00    -0.000 C 
BRANCH   7   8
ATOM      8  C   UNL     1      -6.309   7.103   6.720  1.00  0.00    -0.003 C 
ATOM      9  C   UNL     1      -7.310   7.365   7.845  1.00  0.00     0.004 C 
ENDBRANCH   7   8
ENDBRANCH   6   7
ENDBRANCH   5   6
ENDBRANCH   4   5
ENDBRANCH   3   4
ENDBRANCH   2   3
ENDBRANCH   1   2
BRANCH   1  10
ATOM     10  C   UNL     1      -9.766   4.548   0.912  1.00  0.00     0.000 C 
BRANCH  10  11
ATOM     11  C   UNL     1     -10.509   5.796   1.413  1.00  0.00     0.000 C 
BRANCH  11  12
ATOM     12  C   UNL     1     -11.853   6.019   0.697  1.00  0.00     0.004 C 
BRANCH  12  13
ATOM     13  C   UNL     1     -11.726   6.574  -0.734  1.00  0.00     0.027 C 
BRANCH  13  14
ATOM     14  C   UNL     1     -10.697   7.670  -0.850  1.00  0.00    -0.027 C 
ATOM     15  C   UNL     1      -9.664   7.663  -1.702  1.00  0.00    -0.004 C 
BRANCH  15  16
ATOM     16  C   UNL     1      -9.437   6.604  -2.710  1.00  0.00     0.007 C 
ATOM     17  C   UNL     1      -8.244   6.316  -3.251  1.00  0.00     0.093 C 
BRANCH  17  18
ATOM     18  C   UNL     1      -6.948   6.866  -2.813  1.00  0.00     0.330 C 
ATOM     19  O   UNL     1      -6.276   6.228  -1.956  1.00  0.00    -0.247 OA
BRANCH  18  20
ATOM     20  O   UNL     1      -6.493   8.103  -3.281  1.00  0.00    -0.466 OA
ATOM     21  C   UNL     1      -6.479   9.274  -2.474  1.00  0.00     0.282 C 
ENDBRANCH  18  20
ENDBRANCH  17  18
ENDBRANCH  15  16
ENDBRANCH  13  14
ENDBRANCH  12  13
ENDBRANCH  11  12
ENDBRANCH  10  11
ENDBRANCH   1  10
TORSDOF 15
ENDMDL
MODEL 8
REMARK VINA RESULT:    -3.872      1.281      2.074
REMARK INTER + INTRA:         -10.291
REMARK INTER:                  -7.545
REMARK INTRA:                  -2.746
REMARK UNBOUND:                -3.024
REMARK SMILES CCCCCCCCCCCCCC=CC=CC(=O)OC
REMARK SMILES IDX 9 1 8 2 7 3 6 4 5 5 4 6 3 7 2 8 1 9 10 10 11 11 12 12 13 13
REMARK SMILES IDX 14 14 15 15 16 16 17 17 18 18 19 19 20 20 21 21
REMARK H PARENT
REMARK Flexibility Score: inf
ROOT
ATOM      1  C   UNL     1     -11.383   8.200  -1.277  1.00  0.00     0.000 C 
ENDROOT
BRANCH   1   2
ATOM      2  C   UNL     1     -11.200   6.678  -1.424  1.00  0.00     0.000 C 
BRANCH   2   3
ATOM      3  C   UNL     1     -10.082   6.241  -2.388  1.00  0.00     0.000 C 
BRANCH   3   4
ATOM      4  C   UNL     1      -8.943   5.487  -1.682  1.00  0.00    -0.000 C 
BRANCH   4   5
ATOM      5  C   UNL     1      -9.125   5.422  -0.154  1.00  0.00    -0.000 C 
BRANCH   5   6
ATOM      6  C   UNL     1      -7.930   4.835   0.625  1.00  0.00    -0.000 C 
BRANCH   6   7
ATOM      7  C   UNL     1      -6.657   5.704   0.629  1.00  0.00    -0.000 C 
BRANCH   7   8
ATOM      8  C   UNL     1      -6.458   6.550   1.899  1.00  0.00    -0.003 C 
ATOM      9  C   UNL     1      -7.137   5.946   3.128  1.00  0.00     0.004 C 
ENDBRANCH   7   8
ENDBRANCH   6   7
ENDBRANCH   5   6
ENDBRANCH   4   5
ENDBRANCH   3   4
ENDBRANCH   2   3
ENDBRANCH   1   2
BRANCH   1  10
ATOM     10  C   UNL     1     -10.086   8.987  -1.518  1.00  0.00     0.000 C 
BRANCH  10  11
ATOM     11  C   UNL     1      -9.378   9.297  -0.190  1.00  0.00     0.000 C 
BRANCH  11  12
ATOM     12  C   UNL     1      -7.865   9.020  -0.241  1.00  0.00     0.004 C 
BRANCH  12  13
ATOM     13  C   UNL     1      -7.196   9.391  -1.577  1.00  0.00     0.027 C 
BRANCH  13  14
ATOM     14  C   UNL     1      -6.572   8.207  -2.272  1.00  0.00    -0.027 C 
ATOM     15  C   UNL     1      -6.694   7.935  -3.578  1.00  0.00    -0.004 C 
BRANCH  15  16
ATOM     16  C   UNL     1      -7.397   8.812  -4.539  1.00  0.00     0.007 C 
ATOM     17  C   UNL     1      -7.896   8.403  -5.715  1.00  0.00     0.093 C 
BRANCH  17  18
ATOM     18  C   UNL     1      -7.991   7.001  -6.165  1.00  0.00     0.330 C 
ATOM     19  O   UNL     1      -8.871   6.257  -5.651  1.00  0.00    -0.247 OA
BRANCH  18  20
ATOM     20  O   UNL     1      -7.087   6.479  -7.095  1.00  0.00    -0.466 OA
ATOM     21  C   UNL     1      -7.217   6.688  -8.496  1.00  0.00     0.282 C 
ENDBRANCH  18  20
ENDBRANCH  17  18
ENDBRANCH  15  16
ENDBRANCH  13  14
ENDBRANCH  12  13
ENDBRANCH  11  12
ENDBRANCH  10  11
ENDBRANCH   1  10
TORSDOF 15
ENDMDL
MODEL 9
REMARK VINA RESULT:    -3.852      4.279      7.238
REMARK INTER + INTRA:         -10.253
REMARK INTER:                  -8.029
REMARK INTRA:                  -2.224
REMARK UNBOUND:                -3.024
REMARK SMILES CCCCCCCCCCCCCC=CC=CC(=O)OC
REMARK SMILES IDX 9 1 8 2 7 3 6 4 5 5 4 6 3 7 2 8 1 9 10 10 11 11 12 12 13 13
REMARK SMILES IDX 14 14 15 15 16 16 17 17 18 18 19 19 20 20 21 21
REMARK H PARENT
REMARK Flexibility Score: inf
ROOT
ATOM      1  C   UNL     1      -8.742   5.513  -2.634  1.00  0.00     0.000 C 
ENDROOT
BRANCH   1   2
ATOM      2  C   UNL     1     -10.024   6.343  -2.828  1.00  0.00     0.000 C 
BRANCH   2   3
ATOM      3  C   UNL     1     -10.464   7.168  -1.604  1.00  0.00     0.000 C 
BRANCH   3   4
ATOM      4  C   UNL     1     -11.275   6.346  -0.588  1.00  0.00    -0.000 C 
BRANCH   4   5
ATOM      5  C   UNL     1     -10.704   6.428   0.839  1.00  0.00    -0.000 C 
BRANCH   5   6
ATOM      6  C   UNL     1     -10.321   5.074   1.473  1.00  0.00    -0.000 C 
BRANCH   6   7
ATOM      7  C   UNL     1      -9.429   4.169   0.600  1.00  0.00    -0.000 C 
BRANCH   7   8
ATOM      8  C   UNL     1      -9.413   2.687   1.015  1.00  0.00    -0.003 C 
ATOM      9  C   UNL     1      -8.680   1.797   0.012  1.00  0.00     0.004 C 
ENDBRANCH   7   8
ENDBRANCH   6   7
ENDBRANCH   5   6
ENDBRANCH   4   5
ENDBRANCH   3   4
ENDBRANCH   2   3
ENDBRANCH   1   2
BRANCH   1  10
ATOM     10  C   UNL     1      -7.460   6.314  -2.906  1.00  0.00     0.000 C 
BRANCH  10  11
ATOM     11  C   UNL     1      -6.514   6.263  -1.697  1.00  0.00     0.000 C 
BRANCH  11  12
ATOM     12  C   UNL     1      -6.688   7.465  -0.751  1.00  0.00     0.004 C 
BRANCH  12  13
ATOM     13  C   UNL     1      -7.269   7.108   0.629  1.00  0.00     0.027 C 
BRANCH  13  14
ATOM     14  C   UNL     1      -6.356   6.224   1.441  1.00  0.00    -0.027 C 
ATOM     15  C   UNL     1      -6.590   5.833   2.700  1.00  0.00    -0.004 C 
BRANCH  15  16
ATOM     16  C   UNL     1      -7.827   6.155   3.444  1.00  0.00     0.007 C 
ATOM     17  C   UNL     1      -7.922   6.181   4.782  1.00  0.00     0.093 C 
BRANCH  17  18
ATOM     18  C   UNL     1      -6.792   6.077   5.725  1.00  0.00     0.330 C 
ATOM     19  O   UNL     1      -5.861   6.924   5.651  1.00  0.00    -0.247 OA
BRANCH  18  20
ATOM     20  O   UNL     1      -6.713   5.025   6.643  1.00  0.00    -0.466 OA
ATOM     21  C   UNL     1      -7.820   4.188   6.951  1.00  0.00     0.282 C 
ENDBRANCH  18  20
ENDBRANCH  17  18
ENDBRANCH  15  16
ENDBRANCH  13  14
ENDBRANCH  12  13
ENDBRANCH  11  12
ENDBRANCH  10  11
ENDBRANCH   1  10
TORSDOF 15
ENDMDL
