MODEL 1
REMARK VINA RESULT:     5.192      0.000      0.000
REMARK INTER + INTRA:           6.330
REMARK INTER:                   6.406
REMARK INTRA:                  -0.075
REMARK UNBOUND:                -0.075
REMARK SMILES CCCCCC(=O)[O-]
REMARK SMILES IDX 4 1 5 2 6 3 7 4 8 5 3 6 2 7 1 8
REMARK H PARENT
REMARK Flexibility Score: inf
ROOT
ATOM      1  C   UNL     1      -0.954   8.830 -24.341  1.00  0.00     0.006 C 
ENDROOT
BRANCH   1   2
ATOM      2  C   UNL     1      -0.575   9.579 -25.625  1.00  0.00     0.053 C 
BRANCH   2   3
ATOM      3  C   UNL     1       0.592   8.942 -26.317  1.00  0.00     0.041 C 
ATOM      4  O   UNL     1       1.343   9.631 -27.058  1.00  0.00    -0.550 OA
ATOM      5  O   UNL     1       0.831   7.581 -26.170  1.00  0.00    -0.550 OA
ENDBRANCH   2   3
ENDBRANCH   1   2
BRANCH   1   6
ATOM      6  C   UNL     1      -2.473   8.795 -24.117  1.00  0.00     0.000 C 
BRANCH   6   7
ATOM      7  C   UNL     1      -2.865   7.634 -23.195  1.00  0.00    -0.003 C 
ATOM      8  C   UNL     1      -2.109   7.702 -21.871  1.00  0.00     0.004 C 
ENDBRANCH   6   7
ENDBRANCH   1   6
TORSDOF 4
ENDMDL
MODEL 2
REMARK VINA RESULT:     5.570      2.866      4.428
REMARK INTER + INTRA:           6.798
REMARK INTER:                   6.903
REMARK INTRA:                  -0.105
REMARK UNBOUND:                -0.075
REMARK SMILES CCCCCC(=O)[O-]
REMARK SMILES IDX 4 1 5 2 6 3 7 4 8 5 3 6 2 7 1 8
REMARK H PARENT
REMARK Flexibility Score: inf
ROOT
ATOM      1  C   UNL     1      -0.822   9.185 -25.150  1.00  0.00     0.006 C 
ENDROOT
BRANCH   1   2
ATOM      2  C   UNL     1      -1.584   9.128 -23.820  1.00  0.00     0.053 C 
BRANCH   2   3
ATOM      3  C   UNL     1      -2.885   8.396 -23.955  1.00  0.00     0.041 C 
ATOM      4  O   UNL     1      -3.766   8.812 -24.753  1.00  0.00    -0.550 OA
ATOM      5  O   UNL     1      -3.137   7.275 -23.174  1.00  0.00    -0.550 OA
ENDBRANCH   2   3
ENDBRANCH   1   2
BRANCH   1   6
ATOM      6  C   UNL     1       0.237   8.078 -25.261  1.00  0.00     0.000 C 
BRANCH   6   7
ATOM      7  C   UNL     1       0.987   8.167 -26.595  1.00  0.00    -0.003 C 
ATOM      8  C   UNL     1       1.002   9.598 -27.125  1.00  0.00     0.004 C 
ENDBRANCH   6   7
ENDBRANCH   1   6
TORSDOF 4
ENDMDL
MODEL 3
REMARK VINA RESULT:     6.969      9.552     10.301
REMARK INTER + INTRA:           8.523
REMARK INTER:                   8.675
REMARK INTRA:                  -0.152
REMARK UNBOUND:                -0.075
REMARK SMILES CCCCCC(=O)[O-]
REMARK SMILES IDX 4 1 5 2 6 3 7 4 8 5 3 6 2 7 1 8
REMARK H PARENT
REMARK Flexibility Score: inf
ROOT
ATOM      1  C   UNL     1      -4.852  17.615 -26.257  1.00  0.00     0.006 C 
ENDROOT
BRANCH   1   2
ATOM      2  C   UNL     1      -5.894  18.495 -25.555  1.00  0.00     0.053 C 
BRANCH   2   3
ATOM      3  C   UNL     1      -5.819  18.365 -24.064  1.00  0.00     0.041 C 
ATOM      4  O   UNL     1      -6.700  18.897 -23.337  1.00  0.00    -0.550 OA
ATOM      5  O   UNL     1      -4.758  17.688 -23.476  1.00  0.00    -0.550 OA
ENDBRANCH   2   3
ENDBRANCH   1   2
BRANCH   1   6
ATOM      6  C   UNL     1      -5.436  16.265 -26.700  1.00  0.00     0.000 C 
BRANCH   6   7
ATOM      7  C   UNL     1      -4.724  15.102 -26.000  1.00  0.00    -0.003 C 
ATOM      8  C   UNL     1      -5.678  13.935 -25.761  1.00  0.00     0.004 C 
ENDBRANCH   6   7
ENDBRANCH   1   6
TORSDOF 4
ENDMDL
MODEL 4
REMARK VINA RESULT:     7.965      8.927      9.548
REMARK INTER + INTRA:           9.753
REMARK INTER:                   9.898
REMARK INTRA:                  -0.145
REMARK UNBOUND:                -0.075
REMARK SMILES CCCCCC(=O)[O-]
REMARK SMILES IDX 4 1 5 2 6 3 7 4 8 5 3 6 2 7 1 8
REMARK H PARENT
REMARK Flexibility Score: inf
ROOT
ATOM      1  C   UNL     1      -4.906  17.522 -25.993  1.00  0.00     0.006 C 
ENDROOT
BRANCH   1   2
ATOM      2  C   UNL     1      -5.457  16.295 -26.731  1.00  0.00     0.053 C 
BRANCH   2   3
ATOM      3  C   UNL     1      -4.993  15.015 -26.105  1.00  0.00     0.041 C 
ATOM      4  O   UNL     1      -3.807  14.904 -25.695  1.00  0.00    -0.550 OA
ATOM      5  O   UNL     1      -5.860  13.934 -26.007  1.00  0.00    -0.550 OA
ENDBRANCH   2   3
ENDBRANCH   1   2
BRANCH   1   6
ATOM      6  C   UNL     1      -6.015  18.512 -25.603  1.00  0.00     0.000 C 
BRANCH   6   7
ATOM      7  C   UNL     1      -6.016  18.766 -24.091  1.00  0.00    -0.003 C 
ATOM      8  C   UNL     1      -5.197  17.710 -23.353  1.00  0.00     0.004 C 
ENDBRANCH   6   7
ENDBRANCH   1   6
TORSDOF 4
ENDMDL
