MODEL 1
REMARK VINA RESULT:    -5.780      0.000      0.000
REMARK INTER + INTRA:          -7.072
REMARK INTER:                  -6.962
REMARK INTRA:                  -0.110
REMARK UNBOUND:                -0.110
REMARK SMILES COC(=O)c1cc(O)c(O)c(O)c1
REMARK SMILES IDX 5 1 13 2 11 3 9 4 7 5 6 6 3 7 4 8 2 9 1 10 12 11 8 13 10 15
REMARK H PARENT 12 12 8 14 10 16
REMARK Flexibility Score: inf
ROOT
ATOM      1  C   UNL     1       1.727  31.352  77.894  1.00  0.00     0.067 A 
ATOM      2  C   UNL     1       1.459  32.701  78.179  1.00  0.00     0.066 A 
ATOM      3  C   UNL     1       0.758  33.505  77.274  1.00  0.00     0.162 A 
ATOM      4  C   UNL     1       0.311  32.954  76.049  1.00  0.00     0.200 A 
ATOM      5  C   UNL     1       0.579  31.603  75.762  1.00  0.00     0.162 A 
ATOM      6  C   UNL     1       1.280  30.814  76.678  1.00  0.00     0.066 A 
ENDROOT
BRANCH   1   7
ATOM      7  C   UNL     1       2.469  30.508  78.857  1.00  0.00     0.338 C 
ATOM      8  O   UNL     1       3.385  29.740  78.452  1.00  0.00    -0.246 OA
BRANCH   7   9
ATOM      9  O   UNL     1       2.154  30.563  80.219  1.00  0.00    -0.465 OA
ATOM     10  C   UNL     1       1.355  29.577  80.863  1.00  0.00     0.282 C 
ENDBRANCH   7   9
ENDBRANCH   1   7
BRANCH   3  11
ATOM     11  O   UNL     1       0.531  34.836  77.631  1.00  0.00    -0.504 OA
ATOM     12  H   UNL     1       0.175  35.129  78.529  1.00  0.00     0.293 HD
ENDBRANCH   3  11
BRANCH   5  13
ATOM     13  O   UNL     1       0.154  31.023  74.566  1.00  0.00    -0.504 OA
ATOM     14  H   UNL     1       0.008  30.026  74.469  1.00  0.00     0.293 HD
ENDBRANCH   5  13
BRANCH   4  15
ATOM     15  O   UNL     1      -0.394  33.707  75.106  1.00  0.00    -0.502 OA
ATOM     16  H   UNL     1      -0.808  34.608  75.294  1.00  0.00     0.293 HD
ENDBRANCH   4  15
TORSDOF 5
ENDMDL
MODEL 2
REMARK VINA RESULT:    -5.763      0.040      2.349
REMARK INTER + INTRA:          -7.053
REMARK INTER:                  -6.942
REMARK INTRA:                  -0.111
REMARK UNBOUND:                -0.110
REMARK SMILES COC(=O)c1cc(O)c(O)c(O)c1
REMARK SMILES IDX 5 1 13 2 11 3 9 4 7 5 6 6 3 7 4 8 2 9 1 10 12 11 8 13 10 15
REMARK H PARENT 12 12 8 14 10 16
REMARK Flexibility Score: inf
ROOT
ATOM      1  C   UNL     1       1.724  31.349  77.877  1.00  0.00     0.067 A 
ATOM      2  C   UNL     1       1.275  30.806  76.663  1.00  0.00     0.066 A 
ATOM      3  C   UNL     1       0.564  31.584  75.742  1.00  0.00     0.162 A 
ATOM      4  C   UNL     1       0.291  32.941  76.037  1.00  0.00     0.200 A 
ATOM      5  C   UNL     1       0.740  33.487  77.254  1.00  0.00     0.162 A 
ATOM      6  C   UNL     1       1.449  32.695  78.161  1.00  0.00     0.066 A 
ENDROOT
BRANCH   1   7
ATOM      7  C   UNL     1       2.475  30.519  78.846  1.00  0.00     0.338 C 
ATOM      8  O   UNL     1       3.409  29.769  78.448  1.00  0.00    -0.246 OA
BRANCH   7   9
ATOM      9  O   UNL     1       2.148  30.568  80.205  1.00  0.00    -0.465 OA
ATOM     10  C   UNL     1       1.349  29.575  80.838  1.00  0.00     0.282 C 
ENDBRANCH   7   9
ENDBRANCH   1   7
BRANCH   3  11
ATOM     11  O   UNL     1       0.152  30.971  74.557  1.00  0.00    -0.504 OA
ATOM     12  H   UNL     1       0.749  30.399  73.978  1.00  0.00     0.293 HD
ENDBRANCH   3  11
BRANCH   5  13
ATOM     13  O   UNL     1       0.492  34.820  77.580  1.00  0.00    -0.504 OA
ATOM     14  H   UNL     1       0.237  35.510  76.883  1.00  0.00     0.293 HD
ENDBRANCH   5  13
BRANCH   4  15
ATOM     15  O   UNL     1      -0.414  33.768  75.158  1.00  0.00    -0.502 OA
ATOM     16  H   UNL     1      -0.407  34.777  75.199  1.00  0.00     0.293 HD
ENDBRANCH   4  15
TORSDOF 5
ENDMDL
MODEL 3
REMARK VINA RESULT:    -5.730      1.575      2.146
REMARK INTER + INTRA:          -7.013
REMARK INTER:                  -6.900
REMARK INTRA:                  -0.113
REMARK UNBOUND:                -0.110
REMARK SMILES COC(=O)c1cc(O)c(O)c(O)c1
REMARK SMILES IDX 5 1 13 2 11 3 9 4 7 5 6 6 3 7 4 8 2 9 1 10 12 11 8 13 10 15
REMARK H PARENT 12 12 8 14 10 16
REMARK Flexibility Score: inf
ROOT
ATOM      1  C   UNL     1       1.492  31.403  78.344  1.00  0.00     0.067 A 
ATOM      2  C   UNL     1       2.476  32.302  78.786  1.00  0.00     0.066 A 
ATOM      3  C   UNL     1       2.387  33.669  78.499  1.00  0.00     0.162 A 
ATOM      4  C   UNL     1       1.289  34.156  77.751  1.00  0.00     0.200 A 
ATOM      5  C   UNL     1       0.302  33.256  77.307  1.00  0.00     0.162 A 
ATOM      6  C   UNL     1       0.408  31.894  77.603  1.00  0.00     0.066 A 
ENDROOT
BRANCH   1   7
ATOM      7  C   UNL     1       1.594  29.959  78.651  1.00  0.00     0.338 C 
ATOM      8  O   UNL     1       1.402  29.102  77.744  1.00  0.00    -0.246 OA
BRANCH   7   9
ATOM      9  O   UNL     1       1.905  29.543  79.951  1.00  0.00    -0.465 OA
ATOM     10  C   UNL     1       1.064  29.819  81.066  1.00  0.00     0.282 C 
ENDBRANCH   7   9
ENDBRANCH   1   7
BRANCH   3  11
ATOM     11  O   UNL     1       3.405  34.498  78.974  1.00  0.00    -0.504 OA
ATOM     12  H   UNL     1       3.677  35.368  78.540  1.00  0.00     0.293 HD
ENDBRANCH   3  11
BRANCH   5  13
ATOM     13  O   UNL     1      -0.795  33.699  76.569  1.00  0.00    -0.504 OA
ATOM     14  H   UNL     1      -0.699  34.114  75.650  1.00  0.00     0.293 HD
ENDBRANCH   5  13
BRANCH   4  15
ATOM     15  O   UNL     1       1.145  35.510  77.433  1.00  0.00    -0.502 OA
ATOM     16  H   UNL     1       1.233  35.886  76.501  1.00  0.00     0.293 HD
ENDBRANCH   4  15
TORSDOF 5
ENDMDL
MODEL 4
REMARK VINA RESULT:    -5.727      1.431      2.722
REMARK INTER + INTRA:          -7.009
REMARK INTER:                  -6.919
REMARK INTRA:                  -0.090
REMARK UNBOUND:                -0.110
REMARK SMILES COC(=O)c1cc(O)c(O)c(O)c1
REMARK SMILES IDX 5 1 13 2 11 3 9 4 7 5 6 6 3 7 4 8 2 9 1 10 12 11 8 13 10 15
REMARK H PARENT 12 12 8 14 10 16
REMARK Flexibility Score: inf
ROOT
ATOM      1  C   UNL     1       1.540  31.350  78.062  1.00  0.00     0.067 A 
ATOM      2  C   UNL     1       0.513  31.851  77.246  1.00  0.00     0.066 A 
ATOM      3  C   UNL     1       0.365  33.226  77.032  1.00  0.00     0.162 A 
ATOM      4  C   UNL     1       1.263  34.130  77.648  1.00  0.00     0.200 A 
ATOM      5  C   UNL     1       2.293  33.630  78.467  1.00  0.00     0.162 A 
ATOM      6  C   UNL     1       2.425  32.254  78.669  1.00  0.00     0.066 A 
ENDROOT
BRANCH   1   7
ATOM      7  C   UNL     1       1.690  29.895  78.283  1.00  0.00     0.338 C 
ATOM      8  O   UNL     1       1.345  29.078  77.385  1.00  0.00    -0.246 OA
BRANCH   7   9
ATOM      9  O   UNL     1       2.215  29.424  79.492  1.00  0.00    -0.465 OA
ATOM     10  C   UNL     1       1.469  29.421  80.704  1.00  0.00     0.282 C 
ENDBRANCH   7   9
ENDBRANCH   1   7
BRANCH   3  11
ATOM     11  O   UNL     1      -0.681  33.645  76.207  1.00  0.00    -0.504 OA
ATOM     12  H   UNL     1      -0.615  33.718  75.202  1.00  0.00     0.293 HD
ENDBRANCH   3  11
BRANCH   5  13
ATOM     13  O   UNL     1       3.198  34.489  79.090  1.00  0.00    -0.504 OA
ATOM     14  H   UNL     1       2.994  35.468  79.251  1.00  0.00     0.293 HD
ENDBRANCH   5  13
BRANCH   4  15
ATOM     15  O   UNL     1       1.166  35.514  77.473  1.00  0.00    -0.502 OA
ATOM     16  H   UNL     1       1.087  36.177  78.230  1.00  0.00     0.293 HD
ENDBRANCH   4  15
TORSDOF 5
ENDMDL
MODEL 5
REMARK VINA RESULT:    -5.512      2.194      5.827
REMARK INTER + INTRA:          -6.750
REMARK INTER:                  -6.661
REMARK INTRA:                  -0.088
REMARK UNBOUND:                -0.110
REMARK SMILES COC(=O)c1cc(O)c(O)c(O)c1
REMARK SMILES IDX 5 1 13 2 11 3 9 4 7 5 6 6 3 7 4 8 2 9 1 10 12 11 8 13 10 15
REMARK H PARENT 12 12 8 14 10 16
REMARK Flexibility Score: inf
ROOT
ATOM      1  C   UNL     1       1.727  30.142  79.010  1.00  0.00     0.067 A 
ATOM      2  C   UNL     1       2.259  28.938  78.522  1.00  0.00     0.066 A 
ATOM      3  C   UNL     1       2.426  27.829  79.360  1.00  0.00     0.162 A 
ATOM      4  C   UNL     1       2.054  27.921  80.723  1.00  0.00     0.200 A 
ATOM      5  C   UNL     1       1.522  29.128  81.213  1.00  0.00     0.162 A 
ATOM      6  C   UNL     1       1.362  30.224  80.362  1.00  0.00     0.066 A 
ENDROOT
BRANCH   1   7
ATOM      7  C   UNL     1       1.554  31.310  78.117  1.00  0.00     0.338 C 
ATOM      8  O   UNL     1       0.972  31.177  77.005  1.00  0.00    -0.246 OA
BRANCH   7   9
ATOM      9  O   UNL     1       2.037  32.564  78.508  1.00  0.00    -0.465 OA
ATOM     10  C   UNL     1       1.670  33.768  77.845  1.00  0.00     0.282 C 
ENDBRANCH   7   9
ENDBRANCH   1   7
BRANCH   3  11
ATOM     11  O   UNL     1       2.960  26.668  78.800  1.00  0.00    -0.504 OA
ATOM     12  H   UNL     1       3.402  26.627  77.893  1.00  0.00     0.293 HD
ENDBRANCH   3  11
BRANCH   5  13
ATOM     13  O   UNL     1       1.142  29.256  82.550  1.00  0.00    -0.504 OA
ATOM     14  H   UNL     1       1.457  30.023  83.132  1.00  0.00     0.293 HD
ENDBRANCH   5  13
BRANCH   4  15
ATOM     15  O   UNL     1       2.197  26.849  81.609  1.00  0.00    -0.502 OA
ATOM     16  H   UNL     1       2.622  26.920  82.521  1.00  0.00     0.293 HD
ENDBRANCH   4  15
TORSDOF 5
ENDMDL
MODEL 6
REMARK VINA RESULT:    -5.493      2.295      5.528
REMARK INTER + INTRA:          -6.727
REMARK INTER:                  -6.637
REMARK INTRA:                  -0.089
REMARK UNBOUND:                -0.110
REMARK SMILES COC(=O)c1cc(O)c(O)c(O)c1
REMARK SMILES IDX 5 1 13 2 11 3 9 4 7 5 6 6 3 7 4 8 2 9 1 10 12 11 8 13 10 15
REMARK H PARENT 12 12 8 14 10 16
REMARK Flexibility Score: inf
ROOT
ATOM      1  C   UNL     1       1.737  29.871  79.031  1.00  0.00     0.067 A 
ATOM      2  C   UNL     1       1.441  30.019  80.396  1.00  0.00     0.066 A 
ATOM      3  C   UNL     1       1.625  28.963  81.294  1.00  0.00     0.162 A 
ATOM      4  C   UNL     1       2.118  27.722  80.823  1.00  0.00     0.200 A 
ATOM      5  C   UNL     1       2.414  27.571  79.456  1.00  0.00     0.162 A 
ATOM      6  C   UNL     1       2.224  28.637  78.573  1.00  0.00     0.066 A 
ENDROOT
BRANCH   1   7
ATOM      7  C   UNL     1       1.540  30.993  78.087  1.00  0.00     0.338 C 
ATOM      8  O   UNL     1       1.145  30.769  76.909  1.00  0.00    -0.246 OA
BRANCH   7   9
ATOM      9  O   UNL     1       1.791  32.306  78.503  1.00  0.00    -0.465 OA
ATOM     10  C   UNL     1       1.646  33.426  77.637  1.00  0.00     0.282 C 
ENDBRANCH   7   9
ENDBRANCH   1   7
BRANCH   3  11
ATOM     11  O   UNL     1       1.309  29.190  82.635  1.00  0.00    -0.504 OA
ATOM     12  H   UNL     1       0.837  28.522  83.227  1.00  0.00     0.293 HD
ENDBRANCH   3  11
BRANCH   5  13
ATOM     13  O   UNL     1       2.902  26.364  78.954  1.00  0.00    -0.504 OA
ATOM     14  H   UNL     1       2.296  25.579  78.748  1.00  0.00     0.293 HD
ENDBRANCH   5  13
BRANCH   4  15
ATOM     15  O   UNL     1       2.322  26.630  81.672  1.00  0.00    -0.502 OA
ATOM     16  H   UNL     1       2.442  26.704  82.672  1.00  0.00     0.293 HD
ENDBRANCH   4  15
TORSDOF 5
ENDMDL
MODEL 7
REMARK VINA RESULT:    -5.442      1.720      2.692
REMARK INTER + INTRA:          -6.666
REMARK INTER:                  -6.565
REMARK INTRA:                  -0.101
REMARK UNBOUND:                -0.110
REMARK SMILES COC(=O)c1cc(O)c(O)c(O)c1
REMARK SMILES IDX 5 1 13 2 11 3 9 4 7 5 6 6 3 7 4 8 2 9 1 10 12 11 8 13 10 15
REMARK H PARENT 12 12 8 14 10 16
REMARK Flexibility Score: inf
ROOT
ATOM      1  C   UNL     1       1.537  30.984  77.432  1.00  0.00     0.067 A 
ATOM      2  C   UNL     1       2.281  31.774  78.323  1.00  0.00     0.066 A 
ATOM      3  C   UNL     1       2.173  33.169  78.316  1.00  0.00     0.162 A 
ATOM      4  C   UNL     1       1.300  33.798  77.396  1.00  0.00     0.200 A 
ATOM      5  C   UNL     1       0.554  33.007  76.501  1.00  0.00     0.162 A 
ATOM      6  C   UNL     1       0.675  31.616  76.523  1.00  0.00     0.066 A 
ENDROOT
BRANCH   1   7
ATOM      7  C   UNL     1       1.658  29.509  77.445  1.00  0.00     0.338 C 
ATOM      8  O   UNL     1       2.053  28.915  78.486  1.00  0.00    -0.246 OA
BRANCH   7   9
ATOM      9  O   UNL     1       1.332  28.773  76.300  1.00  0.00    -0.465 OA
ATOM     10  C   UNL     1       2.190  27.772  75.762  1.00  0.00     0.282 C 
ENDBRANCH   7   9
ENDBRANCH   1   7
BRANCH   3  11
ATOM     11  O   UNL     1       2.945  33.883  79.234  1.00  0.00    -0.504 OA
ATOM     12  H   UNL     1       3.942  34.015  79.154  1.00  0.00     0.293 HD
ENDBRANCH   3  11
BRANCH   5  13
ATOM     13  O   UNL     1      -0.317  33.591  75.581  1.00  0.00    -0.504 OA
ATOM     14  H   UNL     1      -0.243  34.563  75.305  1.00  0.00     0.293 HD
ENDBRANCH   5  13
BRANCH   4  15
ATOM     15  O   UNL     1       1.149  35.186  77.341  1.00  0.00    -0.502 OA
ATOM     16  H   UNL     1       1.058  35.714  76.485  1.00  0.00     0.293 HD
ENDBRANCH   4  15
TORSDOF 5
ENDMDL
MODEL 8
REMARK VINA RESULT:    -5.282     14.799     16.538
REMARK INTER + INTRA:          -6.473
REMARK INTER:                  -6.373
REMARK INTRA:                  -0.100
REMARK UNBOUND:                -0.110
REMARK SMILES COC(=O)c1cc(O)c(O)c(O)c1
REMARK SMILES IDX 5 1 13 2 11 3 9 4 7 5 6 6 3 7 4 8 2 9 1 10 12 11 8 13 10 15
REMARK H PARENT 12 12 8 14 10 16
REMARK Flexibility Score: inf
ROOT
ATOM      1  C   UNL     1      12.982  36.041  86.525  1.00  0.00     0.067 A 
ATOM      2  C   UNL     1      12.975  37.432  86.331  1.00  0.00     0.066 A 
ATOM      3  C   UNL     1      13.277  38.310  87.378  1.00  0.00     0.162 A 
ATOM      4  C   UNL     1      13.595  37.790  88.656  1.00  0.00     0.200 A 
ATOM      5  C   UNL     1      13.602  36.397  88.852  1.00  0.00     0.162 A 
ATOM      6  C   UNL     1      13.299  35.536  87.795  1.00  0.00     0.066 A 
ENDROOT
BRANCH   1   7
ATOM      7  C   UNL     1      12.662  35.120  85.413  1.00  0.00     0.338 C 
ATOM      8  O   UNL     1      12.324  33.928  85.653  1.00  0.00    -0.246 OA
BRANCH   7   9
ATOM      9  O   UNL     1      12.733  35.573  84.090  1.00  0.00    -0.465 OA
ATOM     10  C   UNL     1      13.316  34.802  83.045  1.00  0.00     0.282 C 
ENDBRANCH   7   9
ENDBRANCH   1   7
BRANCH   3  11
ATOM     11  O   UNL     1      13.248  39.679  87.105  1.00  0.00    -0.504 OA
ATOM     12  H   UNL     1      13.264  40.398  87.813  1.00  0.00     0.293 HD
ENDBRANCH   3  11
BRANCH   5  13
ATOM     13  O   UNL     1      13.913  35.847  90.097  1.00  0.00    -0.504 OA
ATOM     14  H   UNL     1      14.628  36.237  90.698  1.00  0.00     0.293 HD
ENDBRANCH   5  13
BRANCH   4  15
ATOM     15  O   UNL     1      13.905  38.616  89.741  1.00  0.00    -0.502 OA
ATOM     16  H   UNL     1      14.701  38.482  90.346  1.00  0.00     0.293 HD
ENDBRANCH   4  15
TORSDOF 5
ENDMDL
MODEL 9
REMARK VINA RESULT:    -5.237     14.853     16.620
REMARK INTER + INTRA:          -6.418
REMARK INTER:                  -6.312
REMARK INTRA:                  -0.107
REMARK UNBOUND:                -0.110
REMARK SMILES COC(=O)c1cc(O)c(O)c(O)c1
REMARK SMILES IDX 5 1 13 2 11 3 9 4 7 5 6 6 3 7 4 8 2 9 1 10 12 11 8 13 10 15
REMARK H PARENT 12 12 8 14 10 16
REMARK Flexibility Score: inf
ROOT
ATOM      1  C   UNL     1      13.023  35.977  86.603  1.00  0.00     0.067 A 
ATOM      2  C   UNL     1      13.376  35.529  87.886  1.00  0.00     0.066 A 
ATOM      3  C   UNL     1      13.689  36.434  88.907  1.00  0.00     0.162 A 
ATOM      4  C   UNL     1      13.650  37.825  88.645  1.00  0.00     0.200 A 
ATOM      5  C   UNL     1      13.296  38.275  87.359  1.00  0.00     0.162 A 
ATOM      6  C   UNL     1      12.987  37.357  86.352  1.00  0.00     0.066 A 
ENDROOT
BRANCH   1   7
ATOM      7  C   UNL     1      12.694  35.014  85.529  1.00  0.00     0.338 C 
ATOM      8  O   UNL     1      12.408  33.819  85.815  1.00  0.00    -0.246 OA
BRANCH   7   9
ATOM      9  O   UNL     1      12.702  35.431  84.193  1.00  0.00    -0.465 OA
ATOM     10  C   UNL     1      13.481  34.785  83.192  1.00  0.00     0.282 C 
ENDBRANCH   7   9
ENDBRANCH   1   7
BRANCH   3  11
ATOM     11  O   UNL     1      14.030  35.910  90.155  1.00  0.00    -0.504 OA
ATOM     12  H   UNL     1      13.507  36.078  91.002  1.00  0.00     0.293 HD
ENDBRANCH   3  11
BRANCH   5  13
ATOM     13  O   UNL     1      13.245  39.638  87.063  1.00  0.00    -0.504 OA
ATOM     14  H   UNL     1      13.278  39.988  86.114  1.00  0.00     0.293 HD
ENDBRANCH   5  13
BRANCH   4  15
ATOM     15  O   UNL     1      13.951  38.777  89.623  1.00  0.00    -0.502 OA
ATOM     16  H   UNL     1      14.479  38.581  90.461  1.00  0.00     0.293 HD
ENDBRANCH   4  15
TORSDOF 5
ENDMDL
