MODEL 1
REMARK VINA RESULT:    -2.231      0.000      0.000
REMARK INTER + INTRA:          -5.935
REMARK INTER:                  -4.057
REMARK INTRA:                  -1.878
REMARK UNBOUND:                -1.878
REMARK SMILES CCCCCCCCCCCCCCCC(=O)[O-]
REMARK SMILES IDX 9 1 10 2 11 3 12 4 13 5 14 6 15 7 16 8 17 9 18 10 8 11 7 12
REMARK SMILES IDX 6 13 5 14 4 15 3 16 2 17 1 18
REMARK H PARENT
REMARK Flexibility Score: inf
ROOT
ATOM      1  C   UNL     1      -4.907  -7.597  -6.661  1.00  0.00     0.000 C 
ENDROOT
BRANCH   1   2
ATOM      2  C   UNL     1      -6.404  -7.254  -6.643  1.00  0.00     0.000 C 
BRANCH   2   3
ATOM      3  C   UNL     1      -7.163  -7.941  -5.493  1.00  0.00     0.000 C 
BRANCH   3   4
ATOM      4  C   UNL     1      -7.720  -9.338  -5.822  1.00  0.00     0.000 C 
BRANCH   4   5
ATOM      5  C   UNL     1      -9.171  -9.533  -5.344  1.00  0.00     0.000 C 
BRANCH   5   6
ATOM      6  C   UNL     1     -10.040  -8.278  -5.568  1.00  0.00     0.006 C 
BRANCH   6   7
ATOM      7  C   UNL     1     -10.117  -7.840  -7.038  1.00  0.00     0.053 C 
BRANCH   7   8
ATOM      8  C   UNL     1      -9.990  -6.356  -7.197  1.00  0.00     0.041 C 
ATOM      9  O   UNL     1     -10.066  -5.832  -8.339  1.00  0.00    -0.550 OA
ATOM     10  O   UNL     1      -9.760  -5.556  -6.086  1.00  0.00    -0.550 OA
ENDBRANCH   7   8
ENDBRANCH   6   7
ENDBRANCH   5   6
ENDBRANCH   4   5
ENDBRANCH   3   4
ENDBRANCH   2   3
ENDBRANCH   1   2
BRANCH   1  11
ATOM     11  C   UNL     1      -4.187  -6.835  -7.782  1.00  0.00     0.000 C 
BRANCH  11  12
ATOM     12  C   UNL     1      -4.286  -7.548  -9.142  1.00  0.00    -0.000 C 
BRANCH  12  13
ATOM     13  C   UNL     1      -3.449  -8.837  -9.254  1.00  0.00    -0.000 C 
BRANCH  13  14
ATOM     14  C   UNL     1      -4.299 -10.125  -9.280  1.00  0.00    -0.000 C 
BRANCH  14  15
ATOM     15  C   UNL     1      -5.576  -9.963 -10.125  1.00  0.00    -0.000 C 
BRANCH  15  16
ATOM     16  C   UNL     1      -6.854  -9.956  -9.272  1.00  0.00    -0.000 C 
BRANCH  16  17
ATOM     17  C   UNL     1      -8.064  -9.381 -10.021  1.00  0.00    -0.003 C 
ATOM     18  C   UNL     1      -8.011  -7.857 -10.060  1.00  0.00     0.004 C 
ENDBRANCH  16  17
ENDBRANCH  15  16
ENDBRANCH  14  15
ENDBRANCH  13  14
ENDBRANCH  12  13
ENDBRANCH  11  12
ENDBRANCH   1  11
TORSDOF 14
ENDMDL
MODEL 2
REMARK VINA RESULT:    -2.089      1.848      5.132
REMARK INTER + INTRA:          -5.677
REMARK INTER:                  -4.946
REMARK INTRA:                  -0.731
REMARK UNBOUND:                -1.878
REMARK SMILES CCCCCCCCCCCCCCCC(=O)[O-]
REMARK SMILES IDX 9 1 10 2 11 3 12 4 13 5 14 6 15 7 16 8 17 9 18 10 8 11 7 12
REMARK SMILES IDX 6 13 5 14 4 15 3 16 2 17 1 18
REMARK H PARENT
REMARK Flexibility Score: inf
ROOT
ATOM      1  C   UNL     1      -5.161  -6.208  -7.083  1.00  0.00     0.000 C 
ENDROOT
BRANCH   1   2
ATOM      2  C   UNL     1      -4.002  -7.122  -7.504  1.00  0.00     0.000 C 
BRANCH   2   3
ATOM      3  C   UNL     1      -4.089  -7.559  -8.978  1.00  0.00     0.000 C 
BRANCH   3   4
ATOM      4  C   UNL     1      -3.789  -9.047  -9.235  1.00  0.00     0.000 C 
BRANCH   4   5
ATOM      5  C   UNL     1      -4.927  -9.769  -9.979  1.00  0.00     0.000 C 
BRANCH   5   6
ATOM      6  C   UNL     1      -6.197  -9.915  -9.116  1.00  0.00     0.006 C 
BRANCH   6   7
ATOM      7  C   UNL     1      -7.491 -10.008  -9.941  1.00  0.00     0.053 C 
BRANCH   7   8
ATOM      8  C   UNL     1      -8.272  -8.731  -9.920  1.00  0.00     0.041 C 
ATOM      9  O   UNL     1      -9.529  -8.758  -9.880  1.00  0.00    -0.550 OA
ATOM     10  O   UNL     1      -7.611  -7.511  -9.974  1.00  0.00    -0.550 OA
ENDBRANCH   7   8
ENDBRANCH   6   7
ENDBRANCH   5   6
ENDBRANCH   4   5
ENDBRANCH   3   4
ENDBRANCH   2   3
ENDBRANCH   1   2
BRANCH   1  11
ATOM     11  C   UNL     1      -6.510  -6.919  -7.263  1.00  0.00     0.000 C 
BRANCH  11  12
ATOM     12  C   UNL     1      -7.415  -6.797  -6.025  1.00  0.00    -0.000 C 
BRANCH  12  13
ATOM     13  C   UNL     1      -8.861  -7.286  -6.235  1.00  0.00    -0.000 C 
BRANCH  13  14
ATOM     14  C   UNL     1      -9.917  -6.412  -5.525  1.00  0.00    -0.000 C 
BRANCH  14  15
ATOM     15  C   UNL     1     -10.124  -5.059  -6.230  1.00  0.00    -0.000 C 
BRANCH  15  16
ATOM     16  C   UNL     1      -9.558  -5.044  -7.659  1.00  0.00    -0.000 C 
BRANCH  16  17
ATOM     17  C   UNL     1      -9.908  -3.758  -8.421  1.00  0.00    -0.003 C 
ATOM     18  C   UNL     1      -9.922  -4.001  -9.927  1.00  0.00     0.004 C 
ENDBRANCH  16  17
ENDBRANCH  15  16
ENDBRANCH  14  15
ENDBRANCH  13  14
ENDBRANCH  12  13
ENDBRANCH  11  12
ENDBRANCH   1  11
TORSDOF 14
ENDMDL
MODEL 3
REMARK VINA RESULT:    -1.506      1.578      4.046
REMARK INTER + INTRA:          -4.617
REMARK INTER:                  -3.590
REMARK INTRA:                  -1.028
REMARK UNBOUND:                -1.878
REMARK SMILES CCCCCCCCCCCCCCCC(=O)[O-]
REMARK SMILES IDX 9 1 10 2 11 3 12 4 13 5 14 6 15 7 16 8 17 9 18 10 8 11 7 12
REMARK SMILES IDX 6 13 5 14 4 15 3 16 2 17 1 18
REMARK H PARENT
REMARK Flexibility Score: inf
ROOT
ATOM      1  C   UNL     1      -4.908  -7.249  -7.709  1.00  0.00     0.000 C 
ENDROOT
BRANCH   1   2
ATOM      2  C   UNL     1      -4.634  -7.517  -9.196  1.00  0.00     0.000 C 
BRANCH   2   3
ATOM      3  C   UNL     1      -5.837  -7.181 -10.097  1.00  0.00     0.000 C 
BRANCH   3   4
ATOM      4  C   UNL     1      -7.033  -8.142  -9.972  1.00  0.00     0.000 C 
BRANCH   4   5
ATOM      5  C   UNL     1      -8.391  -7.433 -10.125  1.00  0.00     0.000 C 
BRANCH   5   6
ATOM      6  C   UNL     1      -8.795  -6.651  -8.858  1.00  0.00     0.006 C 
BRANCH   6   7
ATOM      7  C   UNL     1     -10.017  -5.741  -9.063  1.00  0.00     0.053 C 
BRANCH   7   8
ATOM      8  C   UNL     1      -9.897  -4.450  -8.315  1.00  0.00     0.041 C 
ATOM      9  O   UNL     1      -9.781  -4.451  -7.062  1.00  0.00    -0.550 OA
ATOM     10  O   UNL     1      -9.940  -3.244  -9.001  1.00  0.00    -0.550 OA
ENDBRANCH   7   8
ENDBRANCH   6   7
ENDBRANCH   5   6
ENDBRANCH   4   5
ENDBRANCH   3   4
ENDBRANCH   2   3
ENDBRANCH   1   2
BRANCH   1  11
ATOM     11  C   UNL     1      -5.744  -8.381  -7.096  1.00  0.00     0.000 C 
BRANCH  11  12
ATOM     12  C   UNL     1      -6.224  -8.059  -5.670  1.00  0.00    -0.000 C 
BRANCH  12  13
ATOM     13  C   UNL     1      -7.330  -6.989  -5.591  1.00  0.00    -0.000 C 
BRANCH  13  14
ATOM     14  C   UNL     1      -8.758  -7.575  -5.609  1.00  0.00    -0.000 C 
BRANCH  14  15
ATOM     15  C   UNL     1      -8.797  -9.029  -5.104  1.00  0.00    -0.000 C 
BRANCH  15  16
ATOM     16  C   UNL     1      -9.710  -9.927  -5.953  1.00  0.00    -0.000 C 
BRANCH  16  17
ATOM     17  C   UNL     1      -9.185 -10.124  -7.382  1.00  0.00    -0.003 C 
ATOM     18  C   UNL     1     -10.106  -9.459  -8.400  1.00  0.00     0.004 C 
ENDBRANCH  16  17
ENDBRANCH  15  16
ENDBRANCH  14  15
ENDBRANCH  13  14
ENDBRANCH  12  13
ENDBRANCH  11  12
ENDBRANCH   1  11
TORSDOF 14
ENDMDL
MODEL 4
REMARK VINA RESULT:    -1.186      2.375      3.305
REMARK INTER + INTRA:          -4.035
REMARK INTER:                  -3.716
REMARK INTRA:                  -0.319
REMARK UNBOUND:                -1.878
REMARK SMILES CCCCCCCCCCCCCCCC(=O)[O-]
REMARK SMILES IDX 9 1 10 2 11 3 12 4 13 5 14 6 15 7 16 8 17 9 18 10 8 11 7 12
REMARK SMILES IDX 6 13 5 14 4 15 3 16 2 17 1 18
REMARK H PARENT
REMARK Flexibility Score: inf
ROOT
ATOM      1  C   UNL     1      -4.628  -8.941  -7.053  1.00  0.00     0.000 C 
ENDROOT
BRANCH   1   2
ATOM      2  C   UNL     1      -4.532  -7.497  -7.567  1.00  0.00     0.000 C 
BRANCH   2   3
ATOM      3  C   UNL     1      -5.312  -6.497  -6.693  1.00  0.00     0.000 C 
BRANCH   3   4
ATOM      4  C   UNL     1      -6.268  -7.135  -5.669  1.00  0.00     0.000 C 
BRANCH   4   5
ATOM      5  C   UNL     1      -7.728  -7.175  -6.155  1.00  0.00     0.000 C 
BRANCH   5   6
ATOM      6  C   UNL     1      -8.389  -8.549  -5.926  1.00  0.00     0.006 C 
BRANCH   6   7
ATOM      7  C   UNL     1      -7.383  -9.672  -5.626  1.00  0.00     0.053 C 
BRANCH   7   8
ATOM      8  C   UNL     1      -7.277  -9.963  -4.161  1.00  0.00     0.041 C 
ATOM      9  O   UNL     1      -8.314 -10.039  -3.453  1.00  0.00    -0.550 OA
ATOM     10  O   UNL     1      -6.029 -10.122  -3.573  1.00  0.00    -0.550 OA
ENDBRANCH   7   8
ENDBRANCH   6   7
ENDBRANCH   5   6
ENDBRANCH   4   5
ENDBRANCH   3   4
ENDBRANCH   2   3
ENDBRANCH   1   2
BRANCH   1  11
ATOM     11  C   UNL     1      -3.764  -9.881  -7.906  1.00  0.00     0.000 C 
BRANCH  11  12
ATOM     12  C   UNL     1      -3.779  -9.509  -9.399  1.00  0.00    -0.000 C 
BRANCH  12  13
ATOM     13  C   UNL     1      -5.102  -9.819 -10.125  1.00  0.00    -0.000 C 
BRANCH  13  14
ATOM     14  C   UNL     1      -6.288 -10.068  -9.168  1.00  0.00    -0.000 C 
BRANCH  14  15
ATOM     15  C   UNL     1      -7.647  -9.823  -9.849  1.00  0.00    -0.000 C 
BRANCH  15  16
ATOM     16  C   UNL     1      -8.660  -9.138  -8.920  1.00  0.00    -0.000 C 
BRANCH  16  17
ATOM     17  C   UNL     1      -9.755  -8.385  -9.688  1.00  0.00    -0.003 C 
ATOM     18  C   UNL     1      -9.279  -6.994 -10.097  1.00  0.00     0.004 C 
ENDBRANCH  16  17
ENDBRANCH  15  16
ENDBRANCH  14  15
ENDBRANCH  13  14
ENDBRANCH  12  13
ENDBRANCH  11  12
ENDBRANCH   1  11
TORSDOF 14
ENDMDL
MODEL 5
REMARK VINA RESULT:    -0.928      1.979      3.046
REMARK INTER + INTRA:          -3.566
REMARK INTER:                  -3.418
REMARK INTRA:                  -0.148
REMARK UNBOUND:                -1.878
REMARK SMILES CCCCCCCCCCCCCCCC(=O)[O-]
REMARK SMILES IDX 9 1 10 2 11 3 12 4 13 5 14 6 15 7 16 8 17 9 18 10 8 11 7 12
REMARK SMILES IDX 6 13 5 14 4 15 3 16 2 17 1 18
REMARK H PARENT
REMARK Flexibility Score: inf
ROOT
ATOM      1  C   UNL     1      -5.606  -8.903  -6.791  1.00  0.00     0.000 C 
ENDROOT
BRANCH   1   2
ATOM      2  C   UNL     1      -5.300  -7.558  -7.467  1.00  0.00     0.000 C 
BRANCH   2   3
ATOM      3  C   UNL     1      -5.651  -6.349  -6.581  1.00  0.00     0.000 C 
BRANCH   3   4
ATOM      4  C   UNL     1      -6.378  -6.692  -5.269  1.00  0.00     0.000 C 
BRANCH   4   5
ATOM      5  C   UNL     1      -7.568  -7.647  -5.474  1.00  0.00     0.000 C 
BRANCH   5   6
ATOM      6  C   UNL     1      -8.794  -6.940  -6.087  1.00  0.00     0.006 C 
BRANCH   6   7
ATOM      7  C   UNL     1     -10.091  -7.758  -5.978  1.00  0.00     0.053 C 
BRANCH   7   8
ATOM      8  C   UNL     1      -9.828  -9.218  -5.776  1.00  0.00     0.041 C 
ATOM      9  O   UNL     1      -9.425  -9.927  -6.734  1.00  0.00    -0.550 OA
ATOM     10  O   UNL     1     -10.056  -9.800  -4.537  1.00  0.00    -0.550 OA
ENDBRANCH   7   8
ENDBRANCH   6   7
ENDBRANCH   5   6
ENDBRANCH   4   5
ENDBRANCH   3   4
ENDBRANCH   2   3
ENDBRANCH   1   2
BRANCH   1  11
ATOM     11  C   UNL     1      -5.417 -10.064  -7.778  1.00  0.00     0.000 C 
BRANCH  11  12
ATOM     12  C   UNL     1      -5.190  -9.585  -9.222  1.00  0.00    -0.000 C 
BRANCH  12  13
ATOM     13  C   UNL     1      -6.383  -8.833  -9.844  1.00  0.00    -0.000 C 
BRANCH  13  14
ATOM     14  C   UNL     1      -7.713  -9.612  -9.764  1.00  0.00    -0.000 C 
BRANCH  14  15
ATOM     15  C   UNL     1      -8.925  -8.733 -10.124  1.00  0.00    -0.000 C 
BRANCH  15  16
ATOM     16  C   UNL     1      -8.774  -7.286  -9.632  1.00  0.00    -0.000 C 
BRANCH  16  17
ATOM     17  C   UNL     1     -10.125  -6.584  -9.431  1.00  0.00    -0.003 C 
ATOM     18  C   UNL     1      -9.933  -5.100  -9.135  1.00  0.00     0.004 C 
ENDBRANCH  16  17
ENDBRANCH  15  16
ENDBRANCH  14  15
ENDBRANCH  13  14
ENDBRANCH  12  13
ENDBRANCH  11  12
ENDBRANCH   1  11
TORSDOF 14
ENDMDL
