MODEL 1
REMARK VINA RESULT:    -3.976      0.000      0.000
REMARK INTER + INTRA:          -5.353
REMARK INTER:                  -5.138
REMARK INTRA:                  -0.215
REMARK UNBOUND:                -0.215
REMARK SMILES CCCCCCC(=O)[O-]
REMARK SMILES IDX 5 1 6 2 7 3 8 4 9 5 4 6 3 7 2 8 1 9
REMARK H PARENT
REMARK Flexibility Score: inf
ROOT
ATOM      1  C   UNL     1      -1.833   8.458  21.447  1.00  0.00     0.006 C 
ENDROOT
BRANCH   1   2
ATOM      2  C   UNL     1      -2.283   8.069  22.858  1.00  0.00     0.053 C 
BRANCH   2   3
ATOM      3  C   UNL     1      -1.384   8.683  23.884  1.00  0.00     0.041 C 
ATOM      4  O   UNL     1      -0.242   9.101  23.556  1.00  0.00    -0.550 OA
ATOM      5  O   UNL     1      -1.786   8.748  25.212  1.00  0.00    -0.550 OA
ENDBRANCH   2   3
ENDBRANCH   1   2
BRANCH   1   6
ATOM      6  C   UNL     1      -3.003   9.035  20.637  1.00  0.00     0.000 C 
BRANCH   6   7
ATOM      7  C   UNL     1      -3.876   9.997  21.459  1.00  0.00    -0.000 C 
BRANCH   7   8
ATOM      8  C   UNL     1      -3.239  11.387  21.611  1.00  0.00    -0.003 C 
ATOM      9  C   UNL     1      -4.219  12.372  22.243  1.00  0.00     0.004 C 
ENDBRANCH   7   8
ENDBRANCH   6   7
ENDBRANCH   1   6
TORSDOF 5
ENDMDL
MODEL 2
REMARK VINA RESULT:    -3.912      1.967      2.800
REMARK INTER + INTRA:          -5.270
REMARK INTER:                  -5.073
REMARK INTRA:                  -0.197
REMARK UNBOUND:                -0.215
REMARK SMILES CCCCCCC(=O)[O-]
REMARK SMILES IDX 5 1 6 2 7 3 8 4 9 5 4 6 3 7 2 8 1 9
REMARK H PARENT
REMARK Flexibility Score: inf
ROOT
ATOM      1  C   UNL     1      -1.694   8.382  24.071  1.00  0.00     0.006 C 
ENDROOT
BRANCH   1   2
ATOM      2  C   UNL     1      -0.424   9.107  23.619  1.00  0.00     0.053 C 
BRANCH   2   3
ATOM      3  C   UNL     1       0.366   9.568  24.803  1.00  0.00     0.041 C 
ATOM      4  O   UNL     1      -0.214  10.110  25.780  1.00  0.00    -0.550 OA
ATOM      5  O   UNL     1       1.750   9.445  24.806  1.00  0.00    -0.550 OA
ENDBRANCH   2   3
ENDBRANCH   1   2
BRANCH   1   6
ATOM      6  C   UNL     1      -2.640   8.141  22.885  1.00  0.00     0.000 C 
BRANCH   6   7
ATOM      7  C   UNL     1      -1.959   8.372  21.527  1.00  0.00    -0.000 C 
BRANCH   7   8
ATOM      8  C   UNL     1      -2.851   9.140  20.541  1.00  0.00    -0.003 C 
ATOM      9  C   UNL     1      -4.307   8.693  20.657  1.00  0.00     0.004 C 
ENDBRANCH   7   8
ENDBRANCH   6   7
ENDBRANCH   1   6
TORSDOF 5
ENDMDL
MODEL 3
REMARK VINA RESULT:    -3.808      1.807      2.747
REMARK INTER + INTRA:          -5.136
REMARK INTER:                  -4.904
REMARK INTRA:                  -0.233
REMARK UNBOUND:                -0.215
REMARK SMILES CCCCCCC(=O)[O-]
REMARK SMILES IDX 5 1 6 2 7 3 8 4 9 5 4 6 3 7 2 8 1 9
REMARK H PARENT
REMARK Flexibility Score: inf
ROOT
ATOM      1  C   UNL     1      -2.101   8.122  23.714  1.00  0.00     0.006 C 
ENDROOT
BRANCH   1   2
ATOM      2  C   UNL     1      -2.542   9.136  24.773  1.00  0.00     0.053 C 
BRANCH   2   3
ATOM      3  C   UNL     1      -1.692   9.018  25.998  1.00  0.00     0.041 C 
ATOM      4  O   UNL     1      -2.228   8.874  27.129  1.00  0.00    -0.550 OA
ATOM      5  O   UNL     1      -0.310   9.117  25.899  1.00  0.00    -0.550 OA
ENDBRANCH   2   3
ENDBRANCH   1   2
BRANCH   1   6
ATOM      6  C   UNL     1      -1.378   8.821  22.553  1.00  0.00     0.000 C 
BRANCH   6   7
ATOM      7  C   UNL     1      -1.944   8.425  21.179  1.00  0.00    -0.000 C 
BRANCH   7   8
ATOM      8  C   UNL     1      -3.032   9.392  20.688  1.00  0.00    -0.003 C 
ATOM      9  C   UNL     1      -4.396   8.708  20.652  1.00  0.00     0.004 C 
ENDBRANCH   7   8
ENDBRANCH   6   7
ENDBRANCH   1   6
TORSDOF 5
ENDMDL
MODEL 4
REMARK VINA RESULT:    -3.778      1.688      3.381
REMARK INTER + INTRA:          -5.097
REMARK INTER:                  -4.672
REMARK INTRA:                  -0.425
REMARK UNBOUND:                -0.215
REMARK SMILES CCCCCCC(=O)[O-]
REMARK SMILES IDX 5 1 6 2 7 3 8 4 9 5 4 6 3 7 2 8 1 9
REMARK H PARENT
REMARK Flexibility Score: inf
ROOT
ATOM      1  C   UNL     1      -3.253  11.325  21.410  1.00  0.00     0.006 C 
ENDROOT
BRANCH   1   2
ATOM      2  C   UNL     1      -3.963  12.048  22.558  1.00  0.00     0.053 C 
BRANCH   2   3
ATOM      3  C   UNL     1      -3.596  11.435  23.872  1.00  0.00     0.041 C 
ATOM      4  O   UNL     1      -2.404  11.470  24.276  1.00  0.00    -0.550 OA
ATOM      5  O   UNL     1      -4.560  10.780  24.628  1.00  0.00    -0.550 OA
ENDBRANCH   2   3
ENDBRANCH   1   2
BRANCH   1   6
ATOM      6  C   UNL     1      -3.764   9.884  21.270  1.00  0.00     0.000 C 
BRANCH   6   7
ATOM      7  C   UNL     1      -2.674   8.912  20.792  1.00  0.00    -0.000 C 
BRANCH   7   8
ATOM      8  C   UNL     1      -1.729   8.482  21.923  1.00  0.00    -0.003 C 
ATOM      9  C   UNL     1      -2.514   7.994  23.138  1.00  0.00     0.004 C 
ENDBRANCH   7   8
ENDBRANCH   6   7
ENDBRANCH   1   6
TORSDOF 5
ENDMDL
MODEL 5
REMARK VINA RESULT:    -3.770      2.695      3.713
REMARK INTER + INTRA:          -5.087
REMARK INTER:                  -4.630
REMARK INTRA:                  -0.458
REMARK UNBOUND:                -0.215
REMARK SMILES CCCCCCC(=O)[O-]
REMARK SMILES IDX 5 1 6 2 7 3 8 4 9 5 4 6 3 7 2 8 1 9
REMARK H PARENT
REMARK Flexibility Score: inf
ROOT
ATOM      1  C   UNL     1      -1.408   8.847  22.550  1.00  0.00     0.006 C 
ENDROOT
BRANCH   1   2
ATOM      2  C   UNL     1      -1.891   8.422  21.161  1.00  0.00     0.053 C 
BRANCH   2   3
ATOM      3  C   UNL     1      -3.130   9.171  20.785  1.00  0.00     0.041 C 
ATOM      4  O   UNL     1      -3.171  10.425  20.897  1.00  0.00    -0.550 OA
ATOM      5  O   UNL     1      -4.258   8.482  20.357  1.00  0.00    -0.550 OA
ENDBRANCH   2   3
ENDBRANCH   1   2
BRANCH   1   6
ATOM      6  C   UNL     1      -2.155   8.077  23.650  1.00  0.00     0.000 C 
BRANCH   6   7
ATOM      7  C   UNL     1      -2.927   9.004  24.603  1.00  0.00    -0.000 C 
BRANCH   7   8
ATOM      8  C   UNL     1      -4.401   9.166  24.204  1.00  0.00    -0.003 C 
ATOM      9  C   UNL     1      -5.017   7.821  23.824  1.00  0.00     0.004 C 
ENDBRANCH   7   8
ENDBRANCH   6   7
ENDBRANCH   1   6
TORSDOF 5
ENDMDL
MODEL 6
REMARK VINA RESULT:    -3.727      2.403      3.802
REMARK INTER + INTRA:          -5.031
REMARK INTER:                  -4.645
REMARK INTRA:                  -0.386
REMARK UNBOUND:                -0.215
REMARK SMILES CCCCCCC(=O)[O-]
REMARK SMILES IDX 5 1 6 2 7 3 8 4 9 5 4 6 3 7 2 8 1 9
REMARK H PARENT
REMARK Flexibility Score: inf
ROOT
ATOM      1  C   UNL     1      -3.157   9.739  20.997  1.00  0.00     0.006 C 
ENDROOT
BRANCH   1   2
ATOM      2  C   UNL     1      -4.208  10.207  22.007  1.00  0.00     0.053 C 
BRANCH   2   3
ATOM      3  C   UNL     1      -3.907  11.597  22.471  1.00  0.00     0.041 C 
ATOM      4  O   UNL     1      -2.974  11.804  23.291  1.00  0.00    -0.550 OA
ATOM      5  O   UNL     1      -4.689  12.660  22.035  1.00  0.00    -0.550 OA
ENDBRANCH   2   3
ENDBRANCH   1   2
BRANCH   1   6
ATOM      6  C   UNL     1      -2.317   8.589  21.572  1.00  0.00     0.000 C 
BRANCH   6   7
ATOM      7  C   UNL     1      -2.819   8.118  22.947  1.00  0.00    -0.000 C 
BRANCH   7   8
ATOM      8  C   UNL     1      -1.761   8.280  24.049  1.00  0.00    -0.003 C 
ATOM      9  C   UNL     1      -0.569   9.092  23.549  1.00  0.00     0.004 C 
ENDBRANCH   7   8
ENDBRANCH   6   7
ENDBRANCH   1   6
TORSDOF 5
ENDMDL
MODEL 7
REMARK VINA RESULT:    -3.696      2.112      3.086
REMARK INTER + INTRA:          -4.991
REMARK INTER:                  -4.544
REMARK INTRA:                  -0.447
REMARK UNBOUND:                -0.215
REMARK SMILES CCCCCCC(=O)[O-]
REMARK SMILES IDX 5 1 6 2 7 3 8 4 9 5 4 6 3 7 2 8 1 9
REMARK H PARENT
REMARK Flexibility Score: inf
ROOT
ATOM      1  C   UNL     1      -1.593   8.788  23.800  1.00  0.00     0.006 C 
ENDROOT
BRANCH   1   2
ATOM      2  C   UNL     1      -2.571   9.439  24.782  1.00  0.00     0.053 C 
BRANCH   2   3
ATOM      3  C   UNL     1      -3.422  10.452  24.082  1.00  0.00     0.041 C 
ATOM      4  O   UNL     1      -4.674  10.323  24.063  1.00  0.00    -0.550 OA
ATOM      5  O   UNL     1      -2.828  11.510  23.406  1.00  0.00    -0.550 OA
ENDBRANCH   2   3
ENDBRANCH   1   2
BRANCH   1   6
ATOM      6  C   UNL     1      -2.345   8.007  22.713  1.00  0.00     0.000 C 
BRANCH   6   7
ATOM      7  C   UNL     1      -1.902   8.392  21.292  1.00  0.00    -0.000 C 
BRANCH   7   8
ATOM      8  C   UNL     1      -2.925   9.287  20.577  1.00  0.00    -0.003 C 
ATOM      9  C   UNL     1      -4.336   8.716  20.702  1.00  0.00     0.004 C 
ENDBRANCH   7   8
ENDBRANCH   6   7
ENDBRANCH   1   6
TORSDOF 5
ENDMDL
MODEL 8
REMARK VINA RESULT:    -3.660      2.631      4.391
REMARK INTER + INTRA:          -4.945
REMARK INTER:                  -4.786
REMARK INTRA:                  -0.159
REMARK UNBOUND:                -0.215
REMARK SMILES CCCCCCC(=O)[O-]
REMARK SMILES IDX 5 1 6 2 7 3 8 4 9 5 4 6 3 7 2 8 1 9
REMARK H PARENT
REMARK Flexibility Score: inf
ROOT
ATOM      1  C   UNL     1      -2.490   7.944  22.982  1.00  0.00     0.006 C 
ENDROOT
BRANCH   1   2
ATOM      2  C   UNL     1      -2.028   8.454  21.614  1.00  0.00     0.053 C 
BRANCH   2   3
ATOM      3  C   UNL     1      -3.131   9.201  20.932  1.00  0.00     0.041 C 
ATOM      4  O   UNL     1      -3.135  10.460  20.928  1.00  0.00    -0.550 OA
ATOM      5  O   UNL     1      -4.181   8.507  20.344  1.00  0.00    -0.550 OA
ENDBRANCH   2   3
ENDBRANCH   1   2
BRANCH   1   6
ATOM      6  C   UNL     1      -2.006   8.872  24.105  1.00  0.00     0.000 C 
BRANCH   6   7
ATOM      7  C   UNL     1      -0.508   9.202  23.998  1.00  0.00    -0.000 C 
BRANCH   7   8
ATOM      8  C   UNL     1       0.116   9.565  25.353  1.00  0.00    -0.003 C 
ATOM      9  C   UNL     1       1.628   9.738  25.233  1.00  0.00     0.004 C 
ENDBRANCH   7   8
ENDBRANCH   6   7
ENDBRANCH   1   6
TORSDOF 5
ENDMDL
MODEL 9
REMARK VINA RESULT:    -3.581      9.011     10.072
REMARK INTER + INTRA:          -4.843
REMARK INTER:                  -4.557
REMARK INTRA:                  -0.286
REMARK UNBOUND:                -0.215
REMARK SMILES CCCCCCC(=O)[O-]
REMARK SMILES IDX 5 1 6 2 7 3 8 4 9 5 4 6 3 7 2 8 1 9
REMARK H PARENT
REMARK Flexibility Score: inf
ROOT
ATOM      1  C   UNL     1       3.463  17.822  24.220  1.00  0.00     0.006 C 
ENDROOT
BRANCH   1   2
ATOM      2  C   UNL     1       2.069  17.561  24.798  1.00  0.00     0.053 C 
BRANCH   2   3
ATOM      3  C   UNL     1       2.024  17.933  26.246  1.00  0.00     0.041 C 
ATOM      4  O   UNL     1       2.421  17.120  27.122  1.00  0.00    -0.550 OA
ATOM      5  O   UNL     1       1.496  19.158  26.633  1.00  0.00    -0.550 OA
ENDBRANCH   2   3
ENDBRANCH   1   2
BRANCH   1   6
ATOM      6  C   UNL     1       4.078  16.530  23.664  1.00  0.00     0.000 C 
BRANCH   6   7
ATOM      7  C   UNL     1       3.195  15.297  23.917  1.00  0.00    -0.000 C 
BRANCH   7   8
ATOM      8  C   UNL     1       3.894  14.239  24.784  1.00  0.00    -0.003 C 
ATOM      9  C   UNL     1       5.376  14.133  24.434  1.00  0.00     0.004 C 
ENDBRANCH   7   8
ENDBRANCH   6   7
ENDBRANCH   1   6
TORSDOF 5
ENDMDL
