MODEL 1
REMARK VINA RESULT:    -0.247      0.000      0.000
REMARK INTER + INTRA:          -0.632
REMARK INTER:                  -0.297
REMARK INTRA:                  -0.335
REMARK UNBOUND:                -0.335
REMARK SMILES O=c1c(O)c(-c2ccc(O)c(O)c2)oc2cc(O)cc(O)c12
REMARK SMILES IDX 5 1 3 2 2 3 1 4 22 5 20 6 19 7 17 8 16 9 15 10 14 11 6 12
REMARK SMILES IDX 7 13 8 14 9 15 13 16 11 17 10 18 12 20 4 22 21 24 18 26
REMARK H PARENT 10 19 12 21 4 23 21 25 18 27
REMARK Flexibility Score: inf
ROOT
ATOM      1  C   UNL     1      24.576  29.764  47.758  1.00  0.00     0.180 A 
ATOM      2  C   UNL     1      25.811  29.135  47.526  1.00  0.00     0.208 A 
ATOM      3  C   UNL     1      25.833  27.758  47.252  1.00  0.00     0.238 A 
ATOM      4  O   UNL     1      26.936  27.211  46.991  1.00  0.00    -0.285 OA
ATOM      5  C   UNL     1      24.622  27.024  47.230  1.00  0.00     0.111 A 
ATOM      6  C   UNL     1      24.530  25.618  47.005  1.00  0.00     0.134 A 
ATOM      7  C   UNL     1      23.271  25.020  46.875  1.00  0.00     0.093 A 
ATOM      8  C   UNL     1      22.100  25.766  47.029  1.00  0.00     0.123 A 
ATOM      9  C   UNL     1      22.180  27.128  47.310  1.00  0.00     0.094 A 
ATOM     10  C   UNL     1      23.422  27.760  47.408  1.00  0.00     0.146 A 
ATOM     11  O   UNL     1      23.452  29.061  47.667  1.00  0.00    -0.452 OA
ENDROOT
BRANCH   1  12
ATOM     12  C   UNL     1      24.474  31.207  48.077  1.00  0.00     0.025 A 
ATOM     13  C   UNL     1      24.255  32.129  47.042  1.00  0.00     0.016 A 
ATOM     14  C   UNL     1      24.135  33.493  47.324  1.00  0.00     0.051 A 
ATOM     15  C   UNL     1      24.215  33.951  48.646  1.00  0.00     0.157 A 
ATOM     16  C   UNL     1      24.534  31.669  49.405  1.00  0.00     0.062 A 
ATOM     17  C   UNL     1      24.411  33.037  49.689  1.00  0.00     0.158 A 
BRANCH  15  18
ATOM     18  O   UNL     1      24.097  35.310  48.930  1.00  0.00    -0.504 OA
ATOM     19  H   UNL     1      23.323  35.673  49.473  1.00  0.00     0.293 HD
ENDBRANCH  15  18
BRANCH  17  20
ATOM     20  O   UNL     1      24.478  33.494  51.003  1.00  0.00    -0.504 OA
ATOM     21  H   UNL     1      24.829  32.907  51.752  1.00  0.00     0.293 HD
ENDBRANCH  17  20
ENDBRANCH   1  12
BRANCH   2  22
ATOM     22  O   UNL     1      26.992  29.882  47.530  1.00  0.00    -0.502 OA
ATOM     23  H   UNL     1      27.104  30.719  48.089  1.00  0.00     0.293 HD
ENDBRANCH   2  22
BRANCH   6  24
ATOM     24  O   UNL     1      25.637  24.766  46.927  1.00  0.00    -0.507 OA
ATOM     25  H   UNL     1      26.268  24.573  47.690  1.00  0.00     0.293 HD
ENDBRANCH   6  24
BRANCH   8  26
ATOM     26  O   UNL     1      20.850  25.160  46.915  1.00  0.00    -0.508 OA
ATOM     27  H   UNL     1      20.727  24.292  46.408  1.00  0.00     0.293 HD
ENDBRANCH   8  26
TORSDOF 6
ENDMDL
MODEL 2
REMARK VINA RESULT:    -0.243      2.707      6.330
REMARK INTER + INTRA:          -0.627
REMARK INTER:                  -0.299
REMARK INTRA:                  -0.329
REMARK UNBOUND:                -0.335
REMARK SMILES O=c1c(O)c(-c2ccc(O)c(O)c2)oc2cc(O)cc(O)c12
REMARK SMILES IDX 5 1 3 2 2 3 1 4 22 5 20 6 19 7 17 8 16 9 15 10 14 11 6 12
REMARK SMILES IDX 7 13 8 14 9 15 13 16 11 17 10 18 12 20 4 22 21 24 18 26
REMARK H PARENT 10 19 12 21 4 23 21 25 18 27
REMARK Flexibility Score: inf
ROOT
ATOM      1  C   UNL     1      24.258  26.760  47.722  1.00  0.00     0.180 A 
ATOM      2  C   UNL     1      23.155  25.926  47.470  1.00  0.00     0.208 A 
ATOM      3  C   UNL     1      21.907  26.510  47.199  1.00  0.00     0.238 A 
ATOM      4  O   UNL     1      20.936  25.759  46.921  1.00  0.00    -0.285 OA
ATOM      5  C   UNL     1      21.774  27.919  47.201  1.00  0.00     0.111 A 
ATOM      6  C   UNL     1      20.548  28.618  46.981  1.00  0.00     0.134 A 
ATOM      7  C   UNL     1      20.559  30.014  46.875  1.00  0.00     0.093 A 
ATOM      8  C   UNL     1      21.740  30.741  47.047  1.00  0.00     0.123 A 
ATOM      9  C   UNL     1      22.929  30.072  47.323  1.00  0.00     0.094 A 
ATOM     10  C   UNL     1      22.957  28.677  47.398  1.00  0.00     0.146 A 
ATOM     11  O   UNL     1      24.115  28.079  47.652  1.00  0.00    -0.452 OA
ENDROOT
BRANCH   1  12
ATOM     12  C   UNL     1      25.600  26.219  48.039  1.00  0.00     0.025 A 
ATOM     13  C   UNL     1      26.511  25.980  46.998  1.00  0.00     0.016 A 
ATOM     14  C   UNL     1      27.790  25.488  47.277  1.00  0.00     0.051 A 
ATOM     15  C   UNL     1      28.180  25.246  48.601  1.00  0.00     0.157 A 
ATOM     16  C   UNL     1      26.003  25.993  49.368  1.00  0.00     0.062 A 
ATOM     17  C   UNL     1      27.286  25.502  49.648  1.00  0.00     0.158 A 
BRANCH  15  18
ATOM     18  O   UNL     1      29.453  24.755  48.882  1.00  0.00    -0.504 OA
ATOM     19  H   UNL     1      29.593  23.966  49.502  1.00  0.00     0.293 HD
ENDBRANCH  15  18
BRANCH  17  20
ATOM     20  O   UNL     1      27.682  25.272  50.964  1.00  0.00    -0.504 OA
ATOM     21  H   UNL     1      27.500  24.388  51.426  1.00  0.00     0.293 HD
ENDBRANCH  17  20
ENDBRANCH   1  12
BRANCH   2  22
ATOM     22  O   UNL     1      23.314  24.538  47.452  1.00  0.00    -0.502 OA
ATOM     23  H   UNL     1      23.193  23.987  46.610  1.00  0.00     0.293 HD
ENDBRANCH   2  22
BRANCH   6  24
ATOM     24  O   UNL     1      19.301  27.994  46.886  1.00  0.00    -0.507 OA
ATOM     25  H   UNL     1      18.507  28.205  47.472  1.00  0.00     0.293 HD
ENDBRANCH   6  24
BRANCH   8  26
ATOM     26  O   UNL     1      21.738  32.132  46.957  1.00  0.00    -0.508 OA
ATOM     27  H   UNL     1      21.500  32.606  46.094  1.00  0.00     0.293 HD
ENDBRANCH   8  26
TORSDOF 6
ENDMDL
MODEL 3
REMARK VINA RESULT:    -0.232      3.150      6.312
REMARK INTER + INTRA:          -0.614
REMARK INTER:                  -0.290
REMARK INTRA:                  -0.323
REMARK UNBOUND:                -0.335
REMARK SMILES O=c1c(O)c(-c2ccc(O)c(O)c2)oc2cc(O)cc(O)c12
REMARK SMILES IDX 5 1 3 2 2 3 1 4 22 5 20 6 19 7 17 8 16 9 15 10 14 11 6 12
REMARK SMILES IDX 7 13 8 14 9 15 13 16 11 17 10 18 12 20 4 22 21 24 18 26
REMARK H PARENT 10 19 12 21 4 23 21 25 18 27
REMARK Flexibility Score: inf
ROOT
ATOM      1  C   UNL     1      25.035  26.181  47.822  1.00  0.00     0.180 A 
ATOM      2  C   UNL     1      24.999  27.586  47.860  1.00  0.00     0.208 A 
ATOM      3  C   UNL     1      23.778  28.242  47.638  1.00  0.00     0.238 A 
ATOM      4  O   UNL     1      23.741  29.497  47.727  1.00  0.00    -0.285 OA
ATOM      5  C   UNL     1      22.611  27.487  47.365  1.00  0.00     0.111 A 
ATOM      6  C   UNL     1      21.329  28.049  47.085  1.00  0.00     0.134 A 
ATOM      7  C   UNL     1      20.219  27.205  46.959  1.00  0.00     0.093 A 
ATOM      8  C   UNL     1      20.356  25.817  47.038  1.00  0.00     0.123 A 
ATOM      9  C   UNL     1      21.613  25.257  47.250  1.00  0.00     0.094 A 
ATOM     10  C   UNL     1      22.734  26.075  47.417  1.00  0.00     0.146 A 
ATOM     11  O   UNL     1      23.911  25.500  47.628  1.00  0.00    -0.452 OA
ENDROOT
BRANCH   1  12
ATOM     12  C   UNL     1      26.289  25.419  48.021  1.00  0.00     0.025 A 
ATOM     13  C   UNL     1      27.114  25.145  46.919  1.00  0.00     0.016 A 
ATOM     14  C   UNL     1      28.311  24.444  47.088  1.00  0.00     0.051 A 
ATOM     15  C   UNL     1      28.709  24.023  48.365  1.00  0.00     0.157 A 
ATOM     16  C   UNL     1      26.701  25.012  49.304  1.00  0.00     0.062 A 
ATOM     17  C   UNL     1      27.904  24.311  49.475  1.00  0.00     0.158 A 
BRANCH  15  18
ATOM     18  O   UNL     1      29.901  23.324  48.537  1.00  0.00    -0.504 OA
ATOM     19  H   UNL     1      29.943  22.315  48.448  1.00  0.00     0.293 HD
ENDBRANCH  15  18
BRANCH  17  20
ATOM     20  O   UNL     1      28.308  23.902  50.743  1.00  0.00    -0.504 OA
ATOM     21  H   UNL     1      28.096  22.975  51.095  1.00  0.00     0.293 HD
ENDBRANCH  17  20
ENDBRANCH   1  12
BRANCH   2  22
ATOM     22  O   UNL     1      26.157  28.311  48.152  1.00  0.00    -0.502 OA
ATOM     23  H   UNL     1      26.727  28.740  47.432  1.00  0.00     0.293 HD
ENDBRANCH   2  22
BRANCH   6  24
ATOM     24  O   UNL     1      21.100  29.415  46.897  1.00  0.00    -0.507 OA
ATOM     25  H   UNL     1      21.227  30.122  47.605  1.00  0.00     0.293 HD
ENDBRANCH   6  24
BRANCH   8  26
ATOM     26  O   UNL     1      19.247  24.984  46.895  1.00  0.00    -0.508 OA
ATOM     27  H   UNL     1      19.275  24.163  46.303  1.00  0.00     0.293 HD
ENDBRANCH   8  26
TORSDOF 6
ENDMDL
MODEL 4
REMARK VINA RESULT:    -0.221      1.743      1.779
REMARK INTER + INTRA:          -0.601
REMARK INTER:                  -0.267
REMARK INTRA:                  -0.334
REMARK UNBOUND:                -0.335
REMARK SMILES O=c1c(O)c(-c2ccc(O)c(O)c2)oc2cc(O)cc(O)c12
REMARK SMILES IDX 5 1 3 2 2 3 1 4 22 5 20 6 19 7 17 8 16 9 15 10 14 11 6 12
REMARK SMILES IDX 7 13 8 14 9 15 13 16 11 17 10 18 12 20 4 22 21 24 18 26
REMARK H PARENT 10 19 12 21 4 23 21 25 18 27
REMARK Flexibility Score: inf
ROOT
ATOM      1  C   UNL     1      25.509  29.057  47.968  1.00  0.00     0.180 A 
ATOM      2  C   UNL     1      26.379  27.990  47.689  1.00  0.00     0.208 A 
ATOM      3  C   UNL     1      25.837  26.740  47.349  1.00  0.00     0.238 A 
ATOM      4  O   UNL     1      26.621  25.802  47.047  1.00  0.00    -0.285 OA
ATOM      5  C   UNL     1      24.432  26.568  47.309  1.00  0.00     0.111 A 
ATOM      6  C   UNL     1      23.774  25.335  47.017  1.00  0.00     0.134 A 
ATOM      7  C   UNL     1      22.381  25.313  46.877  1.00  0.00     0.093 A 
ATOM      8  C   UNL     1      21.618  26.464  47.082  1.00  0.00     0.123 A 
ATOM      9  C   UNL     1      22.246  27.658  47.427  1.00  0.00     0.094 A 
ATOM     10  C   UNL     1      23.637  27.720  47.538  1.00  0.00     0.146 A 
ATOM     11  O   UNL     1      24.196  28.881  47.858  1.00  0.00    -0.452 OA
ENDROOT
BRANCH   1  12
ATOM     12  C   UNL     1      26.004  30.397  48.357  1.00  0.00     0.025 A 
ATOM     13  C   UNL     1      26.173  31.384  47.373  1.00  0.00     0.016 A 
ATOM     14  C   UNL     1      26.620  32.661  47.721  1.00  0.00     0.051 A 
ATOM     15  C   UNL     1      26.887  32.975  49.060  1.00  0.00     0.157 A 
ATOM     16  C   UNL     1      26.254  30.723  49.703  1.00  0.00     0.062 A 
ATOM     17  C   UNL     1      26.700  32.006  50.053  1.00  0.00     0.158 A 
BRANCH  15  18
ATOM     18  O   UNL     1      27.334  34.248  49.411  1.00  0.00    -0.504 OA
ATOM     19  H   UNL     1      26.825  34.826  50.069  1.00  0.00     0.293 HD
ENDBRANCH  15  18
BRANCH  17  20
ATOM     20  O   UNL     1      26.955  32.325  51.385  1.00  0.00    -0.504 OA
ATOM     21  H   UNL     1      26.484  33.096  51.846  1.00  0.00     0.293 HD
ENDBRANCH  17  20
ENDBRANCH   1  12
BRANCH   2  22
ATOM     22  O   UNL     1      27.762  28.186  47.713  1.00  0.00    -0.502 OA
ATOM     23  H   UNL     1      28.403  27.610  47.180  1.00  0.00     0.293 HD
ENDBRANCH   2  22
BRANCH   6  24
ATOM     24  O   UNL     1      24.435  24.110  46.884  1.00  0.00    -0.507 OA
ATOM     25  H   UNL     1      24.063  23.307  46.400  1.00  0.00     0.293 HD
ENDBRANCH   6  24
BRANCH   8  26
ATOM     26  O   UNL     1      20.230  26.429  46.957  1.00  0.00    -0.508 OA
ATOM     27  H   UNL     1      19.783  26.192  46.079  1.00  0.00     0.293 HD
ENDBRANCH   8  26
TORSDOF 6
ENDMDL
MODEL 5
REMARK VINA RESULT:    -0.220      1.949      2.065
REMARK INTER + INTRA:          -0.600
REMARK INTER:                  -0.269
REMARK INTRA:                  -0.331
REMARK UNBOUND:                -0.335
REMARK SMILES O=c1c(O)c(-c2ccc(O)c(O)c2)oc2cc(O)cc(O)c12
REMARK SMILES IDX 5 1 3 2 2 3 1 4 22 5 20 6 19 7 17 8 16 9 15 10 14 11 6 12
REMARK SMILES IDX 7 13 8 14 9 15 13 16 11 17 10 18 12 20 4 22 21 24 18 26
REMARK H PARENT 10 19 12 21 4 23 21 25 18 27
REMARK Flexibility Score: inf
ROOT
ATOM      1  C   UNL     1      26.533  29.286  47.666  1.00  0.00     0.180 A 
ATOM      2  C   UNL     1      27.599  28.394  47.460  1.00  0.00     0.208 A 
ATOM      3  C   UNL     1      27.316  27.039  47.222  1.00  0.00     0.238 A 
ATOM      4  O   UNL     1      28.272  26.255  46.985  1.00  0.00    -0.285 OA
ATOM      5  C   UNL     1      25.974  26.590  47.209  1.00  0.00     0.111 A 
ATOM      6  C   UNL     1      25.574  25.233  47.019  1.00  0.00     0.134 A 
ATOM      7  C   UNL     1      24.214  24.925  46.894  1.00  0.00     0.093 A 
ATOM      8  C   UNL     1      23.236  25.915  47.019  1.00  0.00     0.123 A 
ATOM      9  C   UNL     1      23.614  27.233  47.266  1.00  0.00     0.094 A 
ATOM     10  C   UNL     1      24.965  27.577  47.358  1.00  0.00     0.146 A 
ATOM     11  O   UNL     1      25.281  28.847  47.583  1.00  0.00    -0.452 OA
ENDROOT
BRANCH   1  12
ATOM     12  C   UNL     1      26.751  30.724  47.947  1.00  0.00     0.025 A 
ATOM     13  C   UNL     1      26.761  31.641  46.884  1.00  0.00     0.016 A 
ATOM     14  C   UNL     1      26.945  33.005  47.129  1.00  0.00     0.051 A 
ATOM     15  C   UNL     1      27.104  33.472  48.441  1.00  0.00     0.157 A 
ATOM     16  C   UNL     1      26.891  31.199  49.264  1.00  0.00     0.062 A 
ATOM     17  C   UNL     1      27.073  32.568  49.510  1.00  0.00     0.158 A 
BRANCH  15  18
ATOM     18  O   UNL     1      27.289  34.830  48.689  1.00  0.00    -0.504 OA
ATOM     19  H   UNL     1      27.650  35.164  49.575  1.00  0.00     0.293 HD
ENDBRANCH  15  18
BRANCH  17  20
ATOM     20  O   UNL     1      27.219  33.036  50.814  1.00  0.00    -0.504 OA
ATOM     21  H   UNL     1      26.422  33.150  51.430  1.00  0.00     0.293 HD
ENDBRANCH  17  20
ENDBRANCH   1  12
BRANCH   2  22
ATOM     22  O   UNL     1      28.915  28.861  47.455  1.00  0.00    -0.502 OA
ATOM     23  H   UNL     1      29.502  28.844  48.281  1.00  0.00     0.293 HD
ENDBRANCH   2  22
BRANCH   6  24
ATOM     24  O   UNL     1      26.465  24.157  46.972  1.00  0.00    -0.507 OA
ATOM     25  H   UNL     1      26.984  23.806  47.763  1.00  0.00     0.293 HD
ENDBRANCH   6  24
BRANCH   8  26
ATOM     26  O   UNL     1      21.884  25.597  46.911  1.00  0.00    -0.508 OA
ATOM     27  H   UNL     1      21.385  25.694  46.033  1.00  0.00     0.293 HD
ENDBRANCH   8  26
TORSDOF 6
ENDMDL
MODEL 6
REMARK VINA RESULT:    -0.217      2.335      6.710
REMARK INTER + INTRA:          -0.597
REMARK INTER:                  -0.279
REMARK INTRA:                  -0.318
REMARK UNBOUND:                -0.335
REMARK SMILES O=c1c(O)c(-c2ccc(O)c(O)c2)oc2cc(O)cc(O)c12
REMARK SMILES IDX 5 1 3 2 2 3 1 4 22 5 20 6 19 7 17 8 16 9 15 10 14 11 6 12
REMARK SMILES IDX 7 13 8 14 9 15 13 16 11 17 10 18 12 20 4 22 21 24 18 26
REMARK H PARENT 10 19 12 21 4 23 21 25 18 27
REMARK Flexibility Score: inf
ROOT
ATOM      1  C   UNL     1      22.994  26.127  47.825  1.00  0.00     0.180 A 
ATOM      2  C   UNL     1      24.157  25.347  47.706  1.00  0.00     0.208 A 
ATOM      3  C   UNL     1      25.391  25.990  47.516  1.00  0.00     0.238 A 
ATOM      4  O   UNL     1      26.436  25.290  47.465  1.00  0.00    -0.285 OA
ATOM      5  C   UNL     1      25.444  27.402  47.430  1.00  0.00     0.111 A 
ATOM      6  C   UNL     1      26.634  28.156  47.198  1.00  0.00     0.134 A 
ATOM      7  C   UNL     1      26.589  29.554  47.263  1.00  0.00     0.093 A 
ATOM      8  C   UNL     1      25.385  30.227  47.487  1.00  0.00     0.123 A 
ATOM      9  C   UNL     1      24.208  29.501  47.654  1.00  0.00     0.094 A 
ATOM     10  C   UNL     1      24.228  28.105  47.631  1.00  0.00     0.146 A 
ATOM     11  O   UNL     1      23.085  27.452  47.806  1.00  0.00    -0.452 OA
ENDROOT
BRANCH   1  12
ATOM     12  C   UNL     1      21.654  25.522  48.002  1.00  0.00     0.025 A 
ATOM     13  C   UNL     1      20.933  25.096  46.876  1.00  0.00     0.016 A 
ATOM     14  C   UNL     1      19.675  24.504  47.022  1.00  0.00     0.051 A 
ATOM     15  C   UNL     1      19.129  24.314  48.298  1.00  0.00     0.157 A 
ATOM     16  C   UNL     1      21.110  25.311  49.283  1.00  0.00     0.062 A 
ATOM     17  C   UNL     1      19.849  24.714  49.431  1.00  0.00     0.158 A 
BRANCH  15  18
ATOM     18  O   UNL     1      17.875  23.725  48.448  1.00  0.00    -0.504 OA
ATOM     19  H   UNL     1      17.487  23.115  47.738  1.00  0.00     0.293 HD
ENDBRANCH  15  18
BRANCH  17  20
ATOM     20  O   UNL     1      19.309  24.512  50.699  1.00  0.00    -0.504 OA
ATOM     21  H   UNL     1      18.615  25.142  51.087  1.00  0.00     0.293 HD
ENDBRANCH  17  20
ENDBRANCH   1  12
BRANCH   2  22
ATOM     22  O   UNL     1      24.085  23.956  47.815  1.00  0.00    -0.502 OA
ATOM     23  H   UNL     1      24.818  23.345  47.474  1.00  0.00     0.293 HD
ENDBRANCH   2  22
BRANCH   6  24
ATOM     24  O   UNL     1      27.869  27.585  46.876  1.00  0.00    -0.507 OA
ATOM     25  H   UNL     1      28.628  27.453  47.528  1.00  0.00     0.293 HD
ENDBRANCH   6  24
BRANCH   8  26
ATOM     26  O   UNL     1      25.347  31.619  47.534  1.00  0.00    -0.508 OA
ATOM     27  H   UNL     1      25.089  32.114  48.380  1.00  0.00     0.293 HD
ENDBRANCH   8  26
TORSDOF 6
ENDMDL
MODEL 7
REMARK VINA RESULT:    -0.192      3.733      4.957
REMARK INTER + INTRA:          -0.566
REMARK INTER:                  -0.246
REMARK INTRA:                  -0.320
REMARK UNBOUND:                -0.335
REMARK SMILES O=c1c(O)c(-c2ccc(O)c(O)c2)oc2cc(O)cc(O)c12
REMARK SMILES IDX 5 1 3 2 2 3 1 4 22 5 20 6 19 7 17 8 16 9 15 10 14 11 6 12
REMARK SMILES IDX 7 13 8 14 9 15 13 16 11 17 10 18 12 20 4 22 21 24 18 26
REMARK H PARENT 10 19 12 21 4 23 21 25 18 27
REMARK Flexibility Score: inf
ROOT
ATOM      1  C   UNL     1      24.358  26.871  48.035  1.00  0.00     0.180 A 
ATOM      2  C   UNL     1      24.050  25.536  47.722  1.00  0.00     0.208 A 
ATOM      3  C   UNL     1      22.729  25.205  47.380  1.00  0.00     0.238 A 
ATOM      4  O   UNL     1      22.470  24.018  47.047  1.00  0.00    -0.285 OA
ATOM      5  C   UNL     1      21.730  26.207  47.373  1.00  0.00     0.111 A 
ATOM      6  C   UNL     1      20.351  25.976  47.082  1.00  0.00     0.134 A 
ATOM      7  C   UNL     1      19.476  27.064  46.976  1.00  0.00     0.093 A 
ATOM      8  C   UNL     1      19.916  28.368  47.214  1.00  0.00     0.123 A 
ATOM      9  C   UNL     1      21.246  28.598  47.558  1.00  0.00     0.094 A 
ATOM     10  C   UNL     1      22.151  27.536  47.635  1.00  0.00     0.146 A 
ATOM     11  O   UNL     1      23.412  27.801  47.956  1.00  0.00    -0.452 OA
ENDROOT
BRANCH   1  12
ATOM     12  C   UNL     1      25.722  27.294  48.429  1.00  0.00     0.025 A 
ATOM     13  C   UNL     1      26.552  27.915  47.482  1.00  0.00     0.016 A 
ATOM     14  C   UNL     1      27.835  28.340  47.838  1.00  0.00     0.051 A 
ATOM     15  C   UNL     1      28.299  28.166  49.149  1.00  0.00     0.157 A 
ATOM     16  C   UNL     1      26.184  27.140  49.749  1.00  0.00     0.062 A 
ATOM     17  C   UNL     1      27.470  27.569  50.107  1.00  0.00     0.158 A 
BRANCH  15  18
ATOM     18  O   UNL     1      29.578  28.588  49.506  1.00  0.00    -0.504 OA
ATOM     19  H   UNL     1      30.150  29.138  48.877  1.00  0.00     0.293 HD
ENDBRANCH  15  18
BRANCH  17  20
ATOM     20  O   UNL     1      27.929  27.409  51.412  1.00  0.00    -0.504 OA
ATOM     21  H   UNL     1      28.179  26.497  51.779  1.00  0.00     0.293 HD
ENDBRANCH  17  20
ENDBRANCH   1  12
BRANCH   2  22
ATOM     22  O   UNL     1      25.056  24.566  47.714  1.00  0.00    -0.502 OA
ATOM     23  H   UNL     1      24.927  23.646  48.117  1.00  0.00     0.293 HD
ENDBRANCH   2  22
BRANCH   6  24
ATOM     24  O   UNL     1      19.791  24.706  46.917  1.00  0.00    -0.507 OA
ATOM     25  H   UNL     1      19.217  24.428  46.135  1.00  0.00     0.293 HD
ENDBRANCH   6  24
BRANCH   8  26
ATOM     26  O   UNL     1      19.035  29.444  47.122  1.00  0.00    -0.508 OA
ATOM     27  H   UNL     1      18.942  29.982  46.268  1.00  0.00     0.293 HD
ENDBRANCH   8  26
TORSDOF 6
ENDMDL
MODEL 8
REMARK VINA RESULT:    -0.170      3.095      6.182
REMARK INTER + INTRA:          -0.539
REMARK INTER:                  -0.216
REMARK INTRA:                  -0.323
REMARK UNBOUND:                -0.335
REMARK SMILES O=c1c(O)c(-c2ccc(O)c(O)c2)oc2cc(O)cc(O)c12
REMARK SMILES IDX 5 1 3 2 2 3 1 4 22 5 20 6 19 7 17 8 16 9 15 10 14 11 6 12
REMARK SMILES IDX 7 13 8 14 9 15 13 16 11 17 10 18 12 20 4 22 21 24 18 26
REMARK H PARENT 10 19 12 21 4 23 21 25 18 27
REMARK Flexibility Score: inf
ROOT
ATOM      1  C   UNL     1      26.254  26.602  48.692  1.00  0.00     0.180 A 
ATOM      2  C   UNL     1      25.523  25.453  48.343  1.00  0.00     0.208 A 
ATOM      3  C   UNL     1      24.237  25.603  47.800  1.00  0.00     0.238 A 
ATOM      4  O   UNL     1      23.609  24.574  47.440  1.00  0.00    -0.285 OA
ATOM      5  C   UNL     1      23.691  26.898  47.628  1.00  0.00     0.111 A 
ATOM      6  C   UNL     1      22.382  27.167  47.126  1.00  0.00     0.134 A 
ATOM      7  C   UNL     1      21.996  28.489  46.876  1.00  0.00     0.093 A 
ATOM      8  C   UNL     1      22.848  29.556  47.171  1.00  0.00     0.123 A 
ATOM      9  C   UNL     1      24.104  29.308  47.718  1.00  0.00     0.094 A 
ATOM     10  C   UNL     1      24.531  27.997  47.945  1.00  0.00     0.146 A 
ATOM     11  O   UNL     1      25.741  27.805  48.458  1.00  0.00    -0.452 OA
ENDROOT
BRANCH   1  12
ATOM     12  C   UNL     1      27.606  26.524  49.292  1.00  0.00     0.025 A 
ATOM     13  C   UNL     1      27.739  26.412  50.685  1.00  0.00     0.016 A 
ATOM     14  C   UNL     1      29.004  26.317  51.270  1.00  0.00     0.051 A 
ATOM     15  C   UNL     1      30.154  26.316  50.468  1.00  0.00     0.157 A 
ATOM     16  C   UNL     1      28.762  26.502  48.490  1.00  0.00     0.062 A 
ATOM     17  C   UNL     1      30.033  26.404  49.076  1.00  0.00     0.158 A 
BRANCH  15  18
ATOM     18  O   UNL     1      31.418  26.222  51.048  1.00  0.00    -0.504 OA
ATOM     19  H   UNL     1      31.858  25.326  51.220  1.00  0.00     0.293 HD
ENDBRANCH  15  18
BRANCH  17  20
ATOM     20  O   UNL     1      31.177  26.390  48.282  1.00  0.00    -0.504 OA
ATOM     21  H   UNL     1      31.811  25.598  48.279  1.00  0.00     0.293 HD
ENDBRANCH  17  20
ENDBRANCH   1  12
BRANCH   2  22
ATOM     22  O   UNL     1      26.089  24.185  48.501  1.00  0.00    -0.502 OA
ATOM     23  H   UNL     1      26.393  23.624  47.714  1.00  0.00     0.293 HD
ENDBRANCH   2  22
BRANCH   6  24
ATOM     24  O   UNL     1      21.422  26.180  46.884  1.00  0.00    -0.507 OA
ATOM     25  H   UNL     1      21.587  25.187  46.959  1.00  0.00     0.293 HD
ENDBRANCH   6  24
BRANCH   8  26
ATOM     26  O   UNL     1      22.450  30.871  46.934  1.00  0.00    -0.508 OA
ATOM     27  H   UNL     1      21.876  31.378  47.597  1.00  0.00     0.293 HD
ENDBRANCH   8  26
TORSDOF 6
ENDMDL
MODEL 9
REMARK VINA RESULT:    -0.166      4.201      7.986
REMARK INTER + INTRA:          -0.534
REMARK INTER:                  -0.211
REMARK INTRA:                  -0.323
REMARK UNBOUND:                -0.335
REMARK SMILES O=c1c(O)c(-c2ccc(O)c(O)c2)oc2cc(O)cc(O)c12
REMARK SMILES IDX 5 1 3 2 2 3 1 4 22 5 20 6 19 7 17 8 16 9 15 10 14 11 6 12
REMARK SMILES IDX 7 13 8 14 9 15 13 16 11 17 10 18 12 20 4 22 21 24 18 26
REMARK H PARENT 10 19 12 21 4 23 21 25 18 27
REMARK Flexibility Score: inf
ROOT
ATOM      1  C   UNL     1      26.573  24.180  49.022  1.00  0.00     0.180 A 
ATOM      2  C   UNL     1      25.554  23.297  48.627  1.00  0.00     0.208 A 
ATOM      3  C   UNL     1      24.412  23.816  47.994  1.00  0.00     0.238 A 
ATOM      4  O   UNL     1      23.527  23.015  47.594  1.00  0.00    -0.285 OA
ATOM      5  C   UNL     1      24.297  25.210  47.779  1.00  0.00     0.111 A 
ATOM      6  C   UNL     1      23.167  25.849  47.185  1.00  0.00     0.134 A 
ATOM      7  C   UNL     1      23.218  27.220  46.903  1.00  0.00     0.093 A 
ATOM      8  C   UNL     1      24.331  27.986  47.254  1.00  0.00     0.123 A 
ATOM      9  C   UNL     1      25.414  27.384  47.889  1.00  0.00     0.094 A 
ATOM     10  C   UNL     1      25.408  26.011  48.150  1.00  0.00     0.146 A 
ATOM     11  O   UNL     1      26.465  25.475  48.748  1.00  0.00    -0.452 OA
ENDROOT
BRANCH   1  12
ATOM     12  C   UNL     1      27.795  23.712  49.716  1.00  0.00     0.025 A 
ATOM     13  C   UNL     1      27.805  23.627  51.117  1.00  0.00     0.016 A 
ATOM     14  C   UNL     1      28.940  23.169  51.791  1.00  0.00     0.051 A 
ATOM     15  C   UNL     1      30.076  22.774  51.071  1.00  0.00     0.157 A 
ATOM     16  C   UNL     1      28.931  23.296  48.997  1.00  0.00     0.062 A 
ATOM     17  C   UNL     1      30.070  22.834  49.672  1.00  0.00     0.158 A 
BRANCH  15  18
ATOM     18  O   UNL     1      31.211  22.318  51.740  1.00  0.00    -0.504 OA
ATOM     19  H   UNL     1      31.837  22.955  52.218  1.00  0.00     0.293 HD
ENDBRANCH  15  18
BRANCH  17  20
ATOM     20  O   UNL     1      31.197  22.429  48.960  1.00  0.00    -0.504 OA
ATOM     21  H   UNL     1      32.056  22.164  49.430  1.00  0.00     0.293 HD
ENDBRANCH  17  20
ENDBRANCH   1  12
BRANCH   2  22
ATOM     22  O   UNL     1      25.696  21.922  48.828  1.00  0.00    -0.502 OA
ATOM     23  H   UNL     1      24.907  21.314  49.010  1.00  0.00     0.293 HD
ENDBRANCH   2  22
BRANCH   6  24
ATOM     24  O   UNL     1      21.971  25.192  46.880  1.00  0.00    -0.507 OA
ATOM     25  H   UNL     1      21.905  24.235  46.567  1.00  0.00     0.293 HD
ENDBRANCH   6  24
BRANCH   8  26
ATOM     26  O   UNL     1      24.367  29.354  46.984  1.00  0.00    -0.508 OA
ATOM     27  H   UNL     1      24.426  30.039  47.728  1.00  0.00     0.293 HD
ENDBRANCH   8  26
TORSDOF 6
ENDMDL
