MODEL 1
REMARK VINA RESULT:    -5.424      0.000      0.000
REMARK INTER + INTRA:         -10.173
REMARK INTER:                  -8.595
REMARK INTRA:                  -1.578
REMARK UNBOUND:                -1.578
REMARK SMILES C[C@@H]1O[C@@H](O[C@@H]2[C@@H](Oc3cc(O)c4c(c3)O[C@H](c3ccc(O)cc3)CC4=O)O[C@@H](CO)[C@H](O)[C@@H]2O)[C@@H](O)[C@H](O)[C@@H]1O
REMARK SMILES IDX 6 1 34 2 32 3 29 4 28 5 7 6 5 7 4 8 1 9 2 10 40 11 3 12
REMARK SMILES IDX 38 13 36 14 41 15 39 17 37 19 35 21 8 23 9 24 10 25 15 26
REMARK SMILES IDX 11 27 14 28 13 29 16 30 26 31 17 32 27 33 25 34 12 35 18 37
REMARK SMILES IDX 19 38 24 39 20 40 23 41 21 42 22 43 33 45 30 47 31 48
REMARK H PARENT 41 16 39 18 37 20 35 22 12 36 22 44 33 46 31 49
REMARK Flexibility Score: inf
ROOT
ATOM      1  C   UNL     1      42.032  18.763  -5.688  1.00  0.00     0.221 C 
ATOM      2  C   UNL     1      41.566  20.244  -5.770  1.00  0.00     0.181 C 
ATOM      3  C   UNL     1      42.424  21.140  -4.865  1.00  0.00     0.177 C 
ATOM      4  C   UNL     1      43.937  21.001  -5.248  1.00  0.00     0.179 C 
ATOM      5  O   UNL     1      44.200  19.858  -6.053  1.00  0.00    -0.332 OA
ATOM      6  C   UNL     1      43.572  18.706  -5.520  1.00  0.00     0.339 C 
ENDROOT
BRANCH   1   7
ATOM      7  O   UNL     1      41.448  18.107  -4.570  1.00  0.00    -0.337 OA
BRANCH   7   8
ATOM      8  C   UNL     1      42.195  16.977  -4.129  1.00  0.00     0.282 C 
ATOM      9  C   UNL     1      39.854  14.387  -5.306  1.00  0.00     0.041 C 
ATOM     10  C   UNL     1      40.353  15.551  -4.449  1.00  0.00     0.150 C 
ATOM     11  C   UNL     1      40.187  15.257  -2.943  1.00  0.00     0.174 C 
ATOM     12  O   UNL     1      41.716  15.801  -4.768  1.00  0.00    -0.344 OA
ATOM     13  C   UNL     1      40.697  16.463  -2.136  1.00  0.00     0.179 C 
ATOM     14  C   UNL     1      42.123  16.832  -2.591  1.00  0.00     0.202 C 
BRANCH  11  15
ATOM     15  O   UNL     1      40.919  14.108  -2.588  1.00  0.00    -0.388 OA
ATOM     16  H   UNL     1      40.902  13.496  -3.373  1.00  0.00     0.211 HD
ENDBRANCH  11  15
BRANCH  13  17
ATOM     17  O   UNL     1      40.706  16.160  -0.765  1.00  0.00    -0.387 OA
ATOM     18  H   UNL     1      40.841  17.018  -0.282  1.00  0.00     0.211 HD
ENDBRANCH  13  17
BRANCH  14  19
ATOM     19  O   UNL     1      42.579  17.994  -1.944  1.00  0.00    -0.385 OA
ATOM     20  H   UNL     1      43.029  17.720  -1.104  1.00  0.00     0.211 HD
ENDBRANCH  14  19
ENDBRANCH   7   8
ENDBRANCH   1   7
BRANCH   2  21
ATOM     21  O   UNL     1      40.213  20.379  -5.420  1.00  0.00    -0.387 OA
ATOM     22  H   UNL     1      40.026  21.351  -5.361  1.00  0.00     0.211 HD
ENDBRANCH   2  21
BRANCH   6  23
ATOM     23  O   UNL     1      44.111  17.530  -6.125  1.00  0.00    -0.462 OA
BRANCH  23  24
ATOM     24  C   UNL     1      45.393  16.816  -5.767  1.00  0.00     0.130 A 
ATOM     25  C   UNL     1      46.772  17.513  -5.507  1.00  0.00     0.093 A 
ATOM     26  C   UNL     1      45.340  15.323  -5.671  1.00  0.00     0.094 A 
ATOM     27  C   UNL     1      47.860  16.689  -5.222  1.00  0.00     0.133 A 
ATOM     28  C   UNL     1      46.494  14.617  -5.344  1.00  0.00     0.138 A 
ATOM     29  C   UNL     1      47.729  15.274  -5.112  1.00  0.00     0.102 A 
ATOM     30  O   UNL     1      46.396  13.218  -5.247  1.00  0.00    -0.484 OA
ATOM     31  C   UNL     1      48.864  14.400  -4.740  1.00  0.00     0.174 C 
ATOM     32  C   UNL     1      47.472  12.355  -4.849  1.00  0.00     0.211 C 
ATOM     33  O   UNL     1      49.800  14.804  -4.000  1.00  0.00    -0.294 OA
ATOM     34  C   UNL     1      48.837  12.973  -5.185  1.00  0.00     0.131 C 
BRANCH  27  35
ATOM     35  O   UNL     1      49.091  17.335  -5.093  1.00  0.00    -0.507 OA
ATOM     36  H   UNL     1      49.920  17.084  -5.612  1.00  0.00     0.293 HD
ENDBRANCH  27  35
BRANCH  32  37
ATOM     37  C   UNL     1      47.377  11.999  -3.376  1.00  0.00    -0.007 A 
ATOM     38  C   UNL     1      48.561  11.820  -2.634  1.00  0.00     0.011 A 
ATOM     39  C   UNL     1      46.140  11.940  -2.706  1.00  0.00     0.011 A 
ATOM     40  C   UNL     1      48.508  11.566  -1.261  1.00  0.00     0.046 A 
ATOM     41  C   UNL     1      46.090  11.687  -1.331  1.00  0.00     0.046 A 
ATOM     42  C   UNL     1      47.275  11.502  -0.604  1.00  0.00     0.115 A 
BRANCH  42  43
ATOM     43  O   UNL     1      47.239  11.259   0.768  1.00  0.00    -0.508 OA
ATOM     44  H   UNL     1      46.707  10.487   1.155  1.00  0.00     0.293 HD
ENDBRANCH  42  43
ENDBRANCH  32  37
ENDBRANCH  23  24
ENDBRANCH   6  23
BRANCH   3  45
ATOM     45  O   UNL     1      42.226  20.774  -3.522  1.00  0.00    -0.387 OA
ATOM     46  H   UNL     1      43.007  21.120  -3.015  1.00  0.00     0.211 HD
ENDBRANCH   3  45
BRANCH   4  47
ATOM     47  C   UNL     1      44.420  22.234  -6.020  1.00  0.00     0.191 C 
BRANCH  47  48
ATOM     48  O   UNL     1      43.397  23.191  -6.099  1.00  0.00    -0.394 OA
ATOM     49  H   UNL     1      43.663  23.926  -5.484  1.00  0.00     0.210 HD
ENDBRANCH  47  48
ENDBRANCH   4  47
TORSDOF 14
ENDMDL
MODEL 2
REMARK VINA RESULT:    -5.101      2.438      9.377
REMARK INTER + INTRA:          -9.662
REMARK INTER:                  -9.337
REMARK INTRA:                  -0.325
REMARK UNBOUND:                -1.578
REMARK SMILES C[C@@H]1O[C@@H](O[C@@H]2[C@@H](Oc3cc(O)c4c(c3)O[C@H](c3ccc(O)cc3)CC4=O)O[C@@H](CO)[C@H](O)[C@@H]2O)[C@@H](O)[C@H](O)[C@@H]1O
REMARK SMILES IDX 6 1 34 2 32 3 29 4 28 5 7 6 5 7 4 8 1 9 2 10 40 11 3 12
REMARK SMILES IDX 38 13 36 14 41 15 39 17 37 19 35 21 8 23 9 24 10 25 15 26
REMARK SMILES IDX 11 27 14 28 13 29 16 30 26 31 17 32 27 33 25 34 12 35 18 37
REMARK SMILES IDX 19 38 24 39 20 40 23 41 21 42 22 43 33 45 30 47 31 48
REMARK H PARENT 41 16 39 18 37 20 35 22 12 36 22 44 33 46 31 49
REMARK Flexibility Score: inf
ROOT
ATOM      1  C   UNL     1      47.619  13.073  -3.379  1.00  0.00     0.221 C 
ATOM      2  C   UNL     1      47.573  11.530  -3.194  1.00  0.00     0.181 C 
ATOM      3  C   UNL     1      47.965  11.138  -1.762  1.00  0.00     0.177 C 
ATOM      4  C   UNL     1      47.033  11.860  -0.730  1.00  0.00     0.179 C 
ATOM      5  O   UNL     1      46.314  12.946  -1.302  1.00  0.00    -0.332 OA
ATOM      6  C   UNL     1      47.170  13.773  -2.070  1.00  0.00     0.339 C 
ENDROOT
BRANCH   1   7
ATOM      7  O   UNL     1      48.939  13.511  -3.676  1.00  0.00    -0.337 OA
BRANCH   7   8
ATOM      8  C   UNL     1      49.101  13.928  -5.028  1.00  0.00     0.282 C 
ATOM      9  C   UNL     1      52.345  15.622  -4.603  1.00  0.00     0.041 C 
ATOM     10  C   UNL     1      50.842  15.393  -4.437  1.00  0.00     0.150 C 
ATOM     11  C   UNL     1      50.035  16.661  -4.788  1.00  0.00     0.174 C 
ATOM     12  O   UNL     1      50.453  14.302  -5.260  1.00  0.00    -0.344 OA
ATOM     13  C   UNL     1      48.537  16.372  -4.594  1.00  0.00     0.179 C 
ATOM     14  C   UNL     1      48.145  15.096  -5.366  1.00  0.00     0.202 C 
BRANCH  11  15
ATOM     15  O   UNL     1      50.274  17.036  -6.124  1.00  0.00    -0.388 OA
ATOM     16  H   UNL     1      51.196  17.408  -6.162  1.00  0.00     0.211 HD
ENDBRANCH  11  15
BRANCH  13  17
ATOM     17  O   UNL     1      47.770  17.454  -5.058  1.00  0.00    -0.387 OA
ATOM     18  H   UNL     1      48.128  18.269  -4.616  1.00  0.00     0.211 HD
ENDBRANCH  13  17
BRANCH  14  19
ATOM     19  O   UNL     1      46.804  14.747  -5.126  1.00  0.00    -0.385 OA
ATOM     20  H   UNL     1      46.574  13.989  -5.723  1.00  0.00     0.211 HD
ENDBRANCH  14  19
ENDBRANCH   7   8
ENDBRANCH   1   7
BRANCH   2  21
ATOM     21  O   UNL     1      48.413  10.875  -4.109  1.00  0.00    -0.387 OA
ATOM     22  H   UNL     1      48.416   9.915  -3.862  1.00  0.00     0.211 HD
ENDBRANCH   2  21
BRANCH   6  23
ATOM     23  O   UNL     1      46.529  15.018  -2.348  1.00  0.00    -0.462 OA
BRANCH  23  24
ATOM     24  C   UNL     1      45.084  15.245  -2.725  1.00  0.00     0.130 A 
ATOM     25  C   UNL     1      43.990  14.128  -2.823  1.00  0.00     0.093 A 
ATOM     26  C   UNL     1      44.673  16.649  -3.046  1.00  0.00     0.094 A 
ATOM     27  C   UNL     1      42.712  14.518  -3.220  1.00  0.00     0.133 A 
ATOM     28  C   UNL     1      43.353  16.912  -3.398  1.00  0.00     0.138 A 
ATOM     29  C   UNL     1      42.383  15.881  -3.477  1.00  0.00     0.102 A 
ATOM     30  O   UNL     1      43.006  18.246  -3.674  1.00  0.00    -0.484 OA
ATOM     31  C   UNL     1      41.012  16.311  -3.830  1.00  0.00     0.174 C 
ATOM     32  C   UNL     1      41.677  18.692  -3.979  1.00  0.00     0.211 C 
ATOM     33  O   UNL     1      39.994  15.694  -3.420  1.00  0.00    -0.294 OA
ATOM     34  C   UNL     1      40.844  17.571  -4.618  1.00  0.00     0.131 C 
BRANCH  27  35
ATOM     35  O   UNL     1      41.789  13.485  -3.391  1.00  0.00    -0.507 OA
ATOM     36  H   UNL     1      41.549  12.816  -2.673  1.00  0.00     0.293 HD
ENDBRANCH  27  35
BRANCH  32  37
ATOM     37  C   UNL     1      40.988  19.255  -2.748  1.00  0.00    -0.007 A 
ATOM     38  C   UNL     1      41.752  19.944  -1.787  1.00  0.00     0.011 A 
ATOM     39  C   UNL     1      39.590  19.194  -2.589  1.00  0.00     0.011 A 
ATOM     40  C   UNL     1      41.135  20.539  -0.682  1.00  0.00     0.046 A 
ATOM     41  C   UNL     1      38.976  19.792  -1.483  1.00  0.00     0.046 A 
ATOM     42  C   UNL     1      39.747  20.467  -0.527  1.00  0.00     0.115 A 
BRANCH  42  43
ATOM     43  O   UNL     1      39.146  21.076   0.573  1.00  0.00    -0.508 OA
ATOM     44  H   UNL     1      38.219  21.482   0.513  1.00  0.00     0.293 HD
ENDBRANCH  42  43
ENDBRANCH  32  37
ENDBRANCH  23  24
ENDBRANCH   6  23
BRANCH   3  45
ATOM     45  O   UNL     1      49.308  11.488  -1.533  1.00  0.00    -0.387 OA
ATOM     46  H   UNL     1      49.728  10.717  -1.068  1.00  0.00     0.211 HD
ENDBRANCH   3  45
BRANCH   4  47
ATOM     47  C   UNL     1      46.008  10.882  -0.144  1.00  0.00     0.191 C 
BRANCH  47  48
ATOM     48  O   UNL     1      46.033  10.933   1.257  1.00  0.00    -0.394 OA
ATOM     49  H   UNL     1      45.082  10.921   1.548  1.00  0.00     0.210 HD
ENDBRANCH  47  48
ENDBRANCH   4  47
TORSDOF 14
ENDMDL
MODEL 3
REMARK VINA RESULT:    -5.097      2.117      5.650
REMARK INTER + INTRA:          -9.655
REMARK INTER:                  -7.751
REMARK INTRA:                  -1.904
REMARK UNBOUND:                -1.578
REMARK SMILES C[C@@H]1O[C@@H](O[C@@H]2[C@@H](Oc3cc(O)c4c(c3)O[C@H](c3ccc(O)cc3)CC4=O)O[C@@H](CO)[C@H](O)[C@@H]2O)[C@@H](O)[C@H](O)[C@@H]1O
REMARK SMILES IDX 6 1 34 2 32 3 29 4 28 5 7 6 5 7 4 8 1 9 2 10 40 11 3 12
REMARK SMILES IDX 38 13 36 14 41 15 39 17 37 19 35 21 8 23 9 24 10 25 15 26
REMARK SMILES IDX 11 27 14 28 13 29 16 30 26 31 17 32 27 33 25 34 12 35 18 37
REMARK SMILES IDX 19 38 24 39 20 40 23 41 21 42 22 43 33 45 30 47 31 48
REMARK H PARENT 41 16 39 18 37 20 35 22 12 36 22 44 33 46 31 49
REMARK Flexibility Score: inf
ROOT
ATOM      1  C   UNL     1      41.155  17.353  -2.661  1.00  0.00     0.221 C 
ATOM      2  C   UNL     1      39.666  17.252  -2.227  1.00  0.00     0.181 C 
ATOM      3  C   UNL     1      38.930  16.173  -3.035  1.00  0.00     0.177 C 
ATOM      4  C   UNL     1      39.659  14.795  -2.882  1.00  0.00     0.179 C 
ATOM      5  O   UNL     1      40.976  14.922  -2.360  1.00  0.00    -0.332 OA
ATOM      6  C   UNL     1      41.690  15.945  -3.030  1.00  0.00     0.339 C 
ENDROOT
BRANCH   1   7
ATOM      7  O   UNL     1      41.297  18.185  -3.805  1.00  0.00    -0.337 OA
BRANCH   7   8
ATOM      8  C   UNL     1      41.885  19.449  -3.510  1.00  0.00     0.282 C 
ATOM      9  C   UNL     1      39.937  21.440  -5.921  1.00  0.00     0.041 C 
ATOM     10  C   UNL     1      40.959  20.406  -5.447  1.00  0.00     0.150 C 
ATOM     11  C   UNL     1      42.331  20.616  -6.125  1.00  0.00     0.174 C 
ATOM     12  O   UNL     1      41.076  20.493  -4.034  1.00  0.00    -0.344 OA
ATOM     13  C   UNL     1      43.311  19.546  -5.617  1.00  0.00     0.179 C 
ATOM     14  C   UNL     1      43.323  19.535  -4.075  1.00  0.00     0.202 C 
BRANCH  11  15
ATOM     15  O   UNL     1      42.832  21.897  -5.822  1.00  0.00    -0.388 OA
ATOM     16  H   UNL     1      42.455  22.156  -4.938  1.00  0.00     0.211 HD
ENDBRANCH  11  15
BRANCH  13  17
ATOM     17  O   UNL     1      44.606  19.809  -6.094  1.00  0.00    -0.387 OA
ATOM     18  H   UNL     1      45.083  20.300  -5.373  1.00  0.00     0.211 HD
ENDBRANCH  13  17
BRANCH  14  19
ATOM     19  O   UNL     1      44.133  18.498  -3.579  1.00  0.00    -0.385 OA
ATOM     20  H   UNL     1      45.078  18.787  -3.652  1.00  0.00     0.211 HD
ENDBRANCH  14  19
ENDBRANCH   7   8
ENDBRANCH   1   7
BRANCH   2  21
ATOM     21  O   UNL     1      39.003  18.482  -2.370  1.00  0.00    -0.387 OA
ATOM     22  H   UNL     1      38.592  18.692  -1.493  1.00  0.00     0.211 HD
ENDBRANCH   2  21
BRANCH   6  23
ATOM     23  O   UNL     1      43.085  15.835  -2.745  1.00  0.00    -0.462 OA
BRANCH  23  24
ATOM     24  C   UNL     1      44.082  14.892  -3.376  1.00  0.00     0.130 A 
ATOM     25  C   UNL     1      43.798  13.976  -4.615  1.00  0.00     0.093 A 
ATOM     26  C   UNL     1      45.442  14.818  -2.753  1.00  0.00     0.094 A 
ATOM     27  C   UNL     1      44.831  13.140  -5.040  1.00  0.00     0.133 A 
ATOM     28  C   UNL     1      46.397  13.964  -3.297  1.00  0.00     0.138 A 
ATOM     29  C   UNL     1      46.114  13.148  -4.420  1.00  0.00     0.102 A 
ATOM     30  O   UNL     1      47.666  13.939  -2.692  1.00  0.00    -0.484 OA
ATOM     31  C   UNL     1      47.235  12.315  -4.911  1.00  0.00     0.174 C 
ATOM     32  C   UNL     1      48.779  13.172  -3.175  1.00  0.00     0.211 C 
ATOM     33  O   UNL     1      47.346  11.997  -6.125  1.00  0.00    -0.294 OA
ATOM     34  C   UNL     1      48.309  11.929  -3.945  1.00  0.00     0.131 C 
BRANCH  27  35
ATOM     35  O   UNL     1      44.512  12.269  -6.083  1.00  0.00    -0.507 OA
ATOM     36  H   UNL     1      43.916  11.460  -5.984  1.00  0.00     0.293 HD
ENDBRANCH  27  35
BRANCH  32  37
ATOM     37  C   UNL     1      49.711  14.022  -4.020  1.00  0.00    -0.007 A 
ATOM     38  C   UNL     1      49.537  15.419  -4.042  1.00  0.00     0.011 A 
ATOM     39  C   UNL     1      50.807  13.463  -4.705  1.00  0.00     0.011 A 
ATOM     40  C   UNL     1      50.425  16.235  -4.750  1.00  0.00     0.046 A 
ATOM     41  C   UNL     1      51.694  14.282  -5.411  1.00  0.00     0.046 A 
ATOM     42  C   UNL     1      51.506  15.671  -5.434  1.00  0.00     0.115 A 
BRANCH  42  43
ATOM     43  O   UNL     1      52.389  16.499  -6.125  1.00  0.00    -0.508 OA
ATOM     44  H   UNL     1      52.084  17.054  -6.917  1.00  0.00     0.293 HD
ENDBRANCH  42  43
ENDBRANCH  32  37
ENDBRANCH  23  24
ENDBRANCH   6  23
BRANCH   3  45
ATOM     45  O   UNL     1      38.886  16.552  -4.389  1.00  0.00    -0.387 OA
ATOM     46  H   UNL     1      37.953  16.839  -4.574  1.00  0.00     0.211 HD
ENDBRANCH   3  45
BRANCH   4  47
ATOM     47  C   UNL     1      38.876  13.866  -1.946  1.00  0.00     0.191 C 
BRANCH  47  48
ATOM     48  O   UNL     1      39.074  14.241  -0.609  1.00  0.00    -0.394 OA
ATOM     49  H   UNL     1      38.791  15.193  -0.547  1.00  0.00     0.210 HD
ENDBRANCH  47  48
ENDBRANCH   4  47
TORSDOF 14
ENDMDL
MODEL 4
REMARK VINA RESULT:    -5.049      2.462      3.862
REMARK INTER + INTRA:          -9.579
REMARK INTER:                  -8.653
REMARK INTRA:                  -0.926
REMARK UNBOUND:                -1.578
REMARK SMILES C[C@@H]1O[C@@H](O[C@@H]2[C@@H](Oc3cc(O)c4c(c3)O[C@H](c3ccc(O)cc3)CC4=O)O[C@@H](CO)[C@H](O)[C@@H]2O)[C@@H](O)[C@H](O)[C@@H]1O
REMARK SMILES IDX 6 1 34 2 32 3 29 4 28 5 7 6 5 7 4 8 1 9 2 10 40 11 3 12
REMARK SMILES IDX 38 13 36 14 41 15 39 17 37 19 35 21 8 23 9 24 10 25 15 26
REMARK SMILES IDX 11 27 14 28 13 29 16 30 26 31 17 32 27 33 25 34 12 35 18 37
REMARK SMILES IDX 19 38 24 39 20 40 23 41 21 42 22 43 33 45 30 47 31 48
REMARK H PARENT 41 16 39 18 37 20 35 22 12 36 22 44 33 46 31 49
REMARK Flexibility Score: inf
ROOT
ATOM      1  C   UNL     1      40.854  18.295  -3.779  1.00  0.00     0.221 C 
ATOM      2  C   UNL     1      40.417  19.555  -2.981  1.00  0.00     0.181 C 
ATOM      3  C   UNL     1      41.126  19.616  -1.620  1.00  0.00     0.177 C 
ATOM      4  C   UNL     1      42.680  19.584  -1.822  1.00  0.00     0.179 C 
ATOM      5  O   UNL     1      43.059  19.153  -3.123  1.00  0.00    -0.332 OA
ATOM      6  C   UNL     1      42.348  17.988  -3.499  1.00  0.00     0.339 C 
ENDROOT
BRANCH   1   7
ATOM      7  O   UNL     1      40.096  17.157  -3.390  1.00  0.00    -0.337 OA
BRANCH   7   8
ATOM      8  C   UNL     1      40.869  15.963  -3.324  1.00  0.00     0.282 C 
ATOM      9  C   UNL     1      39.009  14.066  -5.876  1.00  0.00     0.041 C 
ATOM     10  C   UNL     1      39.250  14.768  -4.540  1.00  0.00     0.150 C 
ATOM     11  C   UNL     1      38.875  13.860  -3.348  1.00  0.00     0.174 C 
ATOM     12  O   UNL     1      40.615  15.158  -4.468  1.00  0.00    -0.344 OA
ATOM     13  C   UNL     1      39.130  14.622  -2.037  1.00  0.00     0.179 C 
ATOM     14  C   UNL     1      40.568  15.179  -2.025  1.00  0.00     0.202 C 
BRANCH  11  15
ATOM     15  O   UNL     1      39.650  12.685  -3.370  1.00  0.00    -0.388 OA
ATOM     16  H   UNL     1      40.385  12.808  -2.710  1.00  0.00     0.211 HD
ENDBRANCH  11  15
BRANCH  13  17
ATOM     17  O   UNL     1      38.949  13.767  -0.937  1.00  0.00    -0.387 OA
ATOM     18  H   UNL     1      39.436  12.926  -1.144  1.00  0.00     0.211 HD
ENDBRANCH  13  17
BRANCH  14  19
ATOM     19  O   UNL     1      40.799  15.967  -0.884  1.00  0.00    -0.385 OA
ATOM     20  H   UNL     1      40.078  15.779  -0.231  1.00  0.00     0.211 HD
ENDBRANCH  14  19
ENDBRANCH   7   8
ENDBRANCH   1   7
BRANCH   2  21
ATOM     21  O   UNL     1      39.026  19.587  -2.788  1.00  0.00    -0.387 OA
ATOM     22  H   UNL     1      38.869  19.574  -1.809  1.00  0.00     0.211 HD
ENDBRANCH   2  21
BRANCH   6  23
ATOM     23  O   UNL     1      42.968  17.380  -4.632  1.00  0.00    -0.462 OA
BRANCH  23  24
ATOM     24  C   UNL     1      43.777  16.105  -4.664  1.00  0.00     0.130 A 
ATOM     25  C   UNL     1      43.426  14.835  -5.512  1.00  0.00     0.093 A 
ATOM     26  C   UNL     1      45.001  16.049  -3.803  1.00  0.00     0.094 A 
ATOM     27  C   UNL     1      44.271  13.732  -5.390  1.00  0.00     0.133 A 
ATOM     28  C   UNL     1      45.781  14.897  -3.798  1.00  0.00     0.138 A 
ATOM     29  C   UNL     1      45.441  13.763  -4.576  1.00  0.00     0.102 A 
ATOM     30  O   UNL     1      46.931  14.894  -2.989  1.00  0.00    -0.484 OA
ATOM     31  C   UNL     1      46.379  12.621  -4.498  1.00  0.00     0.174 C 
ATOM     32  C   UNL     1      47.877  13.816  -2.929  1.00  0.00     0.211 C 
ATOM     33  O   UNL     1      46.548  11.830  -5.464  1.00  0.00    -0.294 OA
ATOM     34  C   UNL     1      47.215  12.472  -3.267  1.00  0.00     0.131 C 
BRANCH  27  35
ATOM     35  O   UNL     1      43.875  12.587  -6.083  1.00  0.00    -0.507 OA
ATOM     36  H   UNL     1      44.512  11.879  -6.419  1.00  0.00     0.293 HD
ENDBRANCH  27  35
BRANCH  32  37
ATOM     37  C   UNL     1      49.073  14.080  -3.825  1.00  0.00    -0.007 A 
ATOM     38  C   UNL     1      49.438  15.410  -4.112  1.00  0.00     0.011 A 
ATOM     39  C   UNL     1      49.890  13.034  -4.299  1.00  0.00     0.011 A 
ATOM     40  C   UNL     1      50.578  15.686  -4.872  1.00  0.00     0.046 A 
ATOM     41  C   UNL     1      51.031  13.314  -5.057  1.00  0.00     0.046 A 
ATOM     42  C   UNL     1      51.379  14.642  -5.344  1.00  0.00     0.115 A 
BRANCH  42  43
ATOM     43  O   UNL     1      52.520  14.934  -6.090  1.00  0.00    -0.508 OA
ATOM     44  H   UNL     1      53.122  15.716  -5.853  1.00  0.00     0.293 HD
ENDBRANCH  42  43
ENDBRANCH  32  37
ENDBRANCH  23  24
ENDBRANCH   6  23
BRANCH   3  45
ATOM     45  O   UNL     1      40.715  18.528  -0.829  1.00  0.00    -0.387 OA
ATOM     46  H   UNL     1      40.162  17.946  -1.413  1.00  0.00     0.211 HD
ENDBRANCH   3  45
BRANCH   4  47
ATOM     47  C   UNL     1      43.287  20.974  -1.597  1.00  0.00     0.191 C 
BRANCH  47  48
ATOM     48  O   UNL     1      44.245  20.928  -0.574  1.00  0.00    -0.394 OA
ATOM     49  H   UNL     1      45.083  20.601  -0.999  1.00  0.00     0.210 HD
ENDBRANCH  47  48
ENDBRANCH   4  47
TORSDOF 14
ENDMDL
MODEL 5
REMARK VINA RESULT:    -4.707      2.370      7.902
REMARK INTER + INTRA:          -9.038
REMARK INTER:                  -9.030
REMARK INTRA:                  -0.008
REMARK UNBOUND:                -1.578
REMARK SMILES C[C@@H]1O[C@@H](O[C@@H]2[C@@H](Oc3cc(O)c4c(c3)O[C@H](c3ccc(O)cc3)CC4=O)O[C@@H](CO)[C@H](O)[C@@H]2O)[C@@H](O)[C@H](O)[C@@H]1O
REMARK SMILES IDX 6 1 34 2 32 3 29 4 28 5 7 6 5 7 4 8 1 9 2 10 40 11 3 12
REMARK SMILES IDX 38 13 36 14 41 15 39 17 37 19 35 21 8 23 9 24 10 25 15 26
REMARK SMILES IDX 11 27 14 28 13 29 16 30 26 31 17 32 27 33 25 34 12 35 18 37
REMARK SMILES IDX 19 38 24 39 20 40 23 41 21 42 22 43 33 45 30 47 31 48
REMARK H PARENT 41 16 39 18 37 20 35 22 12 36 22 44 33 46 31 49
REMARK Flexibility Score: inf
ROOT
ATOM      1  C   UNL     1      48.357  14.677  -4.182  1.00  0.00     0.221 C 
ATOM      2  C   UNL     1      49.693  13.910  -3.974  1.00  0.00     0.181 C 
ATOM      3  C   UNL     1      50.364  13.602  -5.321  1.00  0.00     0.177 C 
ATOM      4  C   UNL     1      50.591  14.928  -6.125  1.00  0.00     0.179 C 
ATOM      5  O   UNL     1      49.829  16.018  -5.619  1.00  0.00    -0.332 OA
ATOM      6  C   UNL     1      48.485  15.636  -5.394  1.00  0.00     0.339 C 
ENDROOT
BRANCH   1   7
ATOM      7  O   UNL     1      47.290  13.777  -4.450  1.00  0.00    -0.337 OA
BRANCH   7   8
ATOM      8  C   UNL     1      46.872  13.043  -3.302  1.00  0.00     0.282 C 
ATOM      9  C   UNL     1      44.427  10.876  -5.002  1.00  0.00     0.041 C 
ATOM     10  C   UNL     1      45.014  12.175  -4.450  1.00  0.00     0.150 C 
ATOM     11  C   UNL     1      43.989  12.933  -3.578  1.00  0.00     0.174 C 
ATOM     12  O   UNL     1      46.183  11.867  -3.704  1.00  0.00    -0.344 OA
ATOM     13  C   UNL     1      44.633  14.230  -3.060  1.00  0.00     0.179 C 
ATOM     14  C   UNL     1      45.981  13.913  -2.383  1.00  0.00     0.202 C 
BRANCH  11  15
ATOM     15  O   UNL     1      43.594  12.134  -2.488  1.00  0.00    -0.388 OA
ATOM     16  H   UNL     1      43.258  11.275  -2.862  1.00  0.00     0.211 HD
ENDBRANCH  11  15
BRANCH  13  17
ATOM     17  O   UNL     1      43.781  14.859  -2.137  1.00  0.00    -0.387 OA
ATOM     18  H   UNL     1      44.364  15.331  -1.485  1.00  0.00     0.211 HD
ENDBRANCH  13  17
BRANCH  14  19
ATOM     19  O   UNL     1      46.643  15.089  -1.989  1.00  0.00    -0.385 OA
ATOM     20  H   UNL     1      46.138  15.860  -2.355  1.00  0.00     0.211 HD
ENDBRANCH  14  19
ENDBRANCH   7   8
ENDBRANCH   1   7
BRANCH   2  21
ATOM     21  O   UNL     1      49.497  12.716  -3.262  1.00  0.00    -0.387 OA
ATOM     22  H   UNL     1      49.937  11.995  -3.780  1.00  0.00     0.211 HD
ENDBRANCH   2  21
BRANCH   6  23
ATOM     23  O   UNL     1      47.669  16.794  -5.220  1.00  0.00    -0.462 OA
BRANCH  23  24
ATOM     24  C   UNL     1      46.167  16.890  -5.343  1.00  0.00     0.130 A 
ATOM     25  C   UNL     1      45.208  15.688  -5.646  1.00  0.00     0.093 A 
ATOM     26  C   UNL     1      45.551  18.245  -5.178  1.00  0.00     0.094 A 
ATOM     27  C   UNL     1      43.847  15.969  -5.759  1.00  0.00     0.133 A 
ATOM     28  C   UNL     1      44.170  18.386  -5.282  1.00  0.00     0.138 A 
ATOM     29  C   UNL     1      43.327  17.281  -5.555  1.00  0.00     0.102 A 
ATOM     30  O   UNL     1      43.633  19.673  -5.103  1.00  0.00    -0.484 OA
ATOM     31  C   UNL     1      41.876  17.572  -5.604  1.00  0.00     0.174 C 
ATOM     32  C   UNL     1      42.229  19.972  -5.106  1.00  0.00     0.211 C 
ATOM     33  O   UNL     1      41.013  16.713  -5.284  1.00  0.00    -0.294 OA
ATOM     34  C   UNL     1      41.443  18.960  -5.952  1.00  0.00     0.131 C 
BRANCH  27  35
ATOM     35  O   UNL     1      43.035  14.894  -6.125  1.00  0.00    -0.507 OA
ATOM     36  H   UNL     1      42.856  14.619  -7.080  1.00  0.00     0.293 HD
ENDBRANCH  27  35
BRANCH  32  37
ATOM     37  C   UNL     1      41.679  20.051  -3.692  1.00  0.00    -0.007 A 
ATOM     38  C   UNL     1      40.397  19.534  -3.424  1.00  0.00     0.011 A 
ATOM     39  C   UNL     1      42.454  20.538  -2.622  1.00  0.00     0.011 A 
ATOM     40  C   UNL     1      39.894  19.524  -2.119  1.00  0.00     0.046 A 
ATOM     41  C   UNL     1      41.948  20.524  -1.318  1.00  0.00     0.046 A 
ATOM     42  C   UNL     1      40.667  20.015  -1.063  1.00  0.00     0.115 A 
BRANCH  42  43
ATOM     43  O   UNL     1      40.156  19.987   0.233  1.00  0.00    -0.508 OA
ATOM     44  H   UNL     1      39.275  20.435   0.465  1.00  0.00     0.293 HD
ENDBRANCH  42  43
ENDBRANCH  32  37
ENDBRANCH  23  24
ENDBRANCH   6  23
BRANCH   3  45
ATOM     45  O   UNL     1      49.552  12.720  -6.057  1.00  0.00    -0.387 OA
ATOM     46  H   UNL     1      49.631  12.988  -7.009  1.00  0.00     0.211 HD
ENDBRANCH   3  45
BRANCH   4  47
ATOM     47  C   UNL     1      52.067  15.339  -6.093  1.00  0.00     0.191 C 
BRANCH  47  48
ATOM     48  O   UNL     1      52.335  16.109  -4.952  1.00  0.00    -0.394 OA
ATOM     49  H   UNL     1      52.455  15.461  -4.206  1.00  0.00     0.210 HD
ENDBRANCH  47  48
ENDBRANCH   4  47
TORSDOF 14
ENDMDL
MODEL 6
REMARK VINA RESULT:    -4.389      2.621      4.299
REMARK INTER + INTRA:          -8.533
REMARK INTER:                  -7.721
REMARK INTRA:                  -0.813
REMARK UNBOUND:                -1.578
REMARK SMILES C[C@@H]1O[C@@H](O[C@@H]2[C@@H](Oc3cc(O)c4c(c3)O[C@H](c3ccc(O)cc3)CC4=O)O[C@@H](CO)[C@H](O)[C@@H]2O)[C@@H](O)[C@H](O)[C@@H]1O
REMARK SMILES IDX 6 1 34 2 32 3 29 4 28 5 7 6 5 7 4 8 1 9 2 10 40 11 3 12
REMARK SMILES IDX 38 13 36 14 41 15 39 17 37 19 35 21 8 23 9 24 10 25 15 26
REMARK SMILES IDX 11 27 14 28 13 29 16 30 26 31 17 32 27 33 25 34 12 35 18 37
REMARK SMILES IDX 19 38 24 39 20 40 23 41 21 42 22 43 33 45 30 47 31 48
REMARK H PARENT 41 16 39 18 37 20 35 22 12 36 22 44 33 46 31 49
REMARK Flexibility Score: inf
ROOT
ATOM      1  C   UNL     1      41.079  17.630  -3.106  1.00  0.00     0.221 C 
ATOM      2  C   UNL     1      40.591  18.861  -2.292  1.00  0.00     0.181 C 
ATOM      3  C   UNL     1      41.522  19.136  -1.102  1.00  0.00     0.177 C 
ATOM      4  C   UNL     1      42.993  19.336  -1.604  1.00  0.00     0.179 C 
ATOM      5  O   UNL     1      43.189  18.875  -2.935  1.00  0.00    -0.332 OA
ATOM      6  C   UNL     1      42.629  17.587  -3.113  1.00  0.00     0.339 C 
ENDROOT
BRANCH   1   7
ATOM      7  O   UNL     1      40.612  16.419  -2.527  1.00  0.00    -0.337 OA
BRANCH   7   8
ATOM      8  C   UNL     1      39.445  15.906  -3.163  1.00  0.00     0.282 C 
ATOM      9  C   UNL     1      39.174  12.802  -1.199  1.00  0.00     0.041 C 
ATOM     10  C   UNL     1      39.774  13.785  -2.204  1.00  0.00     0.150 C 
ATOM     11  C   UNL     1      40.064  13.102  -3.558  1.00  0.00     0.174 C 
ATOM     12  O   UNL     1      38.875  14.873  -2.370  1.00  0.00    -0.344 OA
ATOM     13  C   UNL     1      40.671  14.136  -4.522  1.00  0.00     0.179 C 
ATOM     14  C   UNL     1      39.772  15.386  -4.584  1.00  0.00     0.202 C 
BRANCH  11  15
ATOM     15  O   UNL     1      38.875  12.586  -4.108  1.00  0.00    -0.388 OA
ATOM     16  H   UNL     1      39.050  12.416  -5.073  1.00  0.00     0.211 HD
ENDBRANCH  11  15
BRANCH  13  17
ATOM     17  O   UNL     1      40.797  13.585  -5.807  1.00  0.00    -0.387 OA
ATOM     18  H   UNL     1      41.715  13.799  -6.123  1.00  0.00     0.211 HD
ENDBRANCH  13  17
BRANCH  14  19
ATOM     19  O   UNL     1      40.351  16.392  -5.378  1.00  0.00    -0.385 OA
ATOM     20  H   UNL     1      39.878  16.405  -6.248  1.00  0.00     0.211 HD
ENDBRANCH  14  19
ENDBRANCH   7   8
ENDBRANCH   1   7
BRANCH   2  21
ATOM     21  O   UNL     1      39.276  18.686  -1.831  1.00  0.00    -0.387 OA
ATOM     22  H   UNL     1      38.853  18.007  -2.416  1.00  0.00     0.211 HD
ENDBRANCH   2  21
BRANCH   6  23
ATOM     23  O   UNL     1      43.120  17.001  -4.319  1.00  0.00    -0.462 OA
BRANCH  23  24
ATOM     24  C   UNL     1      44.016  15.793  -4.458  1.00  0.00     0.130 A 
ATOM     25  C   UNL     1      43.734  14.563  -5.387  1.00  0.00     0.093 A 
ATOM     26  C   UNL     1      45.261  15.765  -3.627  1.00  0.00     0.094 A 
ATOM     27  C   UNL     1      44.657  13.518  -5.360  1.00  0.00     0.133 A 
ATOM     28  C   UNL     1      46.120  14.674  -3.718  1.00  0.00     0.138 A 
ATOM     29  C   UNL     1      45.841  13.575  -4.568  1.00  0.00     0.102 A 
ATOM     30  O   UNL     1      47.287  14.697  -2.934  1.00  0.00    -0.484 OA
ATOM     31  C   UNL     1      46.859  12.501  -4.590  1.00  0.00     0.174 C 
ATOM     32  C   UNL     1      48.306  13.688  -2.968  1.00  0.00     0.211 C 
ATOM     33  O   UNL     1      47.060  11.794  -5.613  1.00  0.00    -0.294 OA
ATOM     34  C   UNL     1      47.732  12.327  -3.389  1.00  0.00     0.131 C 
BRANCH  27  35
ATOM     35  O   UNL     1      44.326  12.399  -6.125  1.00  0.00    -0.507 OA
ATOM     36  H   UNL     1      44.990  11.697  -6.420  1.00  0.00     0.293 HD
ENDBRANCH  27  35
BRANCH  32  37
ATOM     37  C   UNL     1      49.460  14.099  -3.866  1.00  0.00    -0.007 A 
ATOM     38  C   UNL     1      49.831  15.456  -3.932  1.00  0.00     0.011 A 
ATOM     39  C   UNL     1      50.233  13.149  -4.561  1.00  0.00     0.011 A 
ATOM     40  C   UNL     1      50.936  15.855  -4.690  1.00  0.00     0.046 A 
ATOM     41  C   UNL     1      51.339  13.551  -5.317  1.00  0.00     0.046 A 
ATOM     42  C   UNL     1      51.694  14.906  -5.382  1.00  0.00     0.115 A 
BRANCH  42  43
ATOM     43  O   UNL     1      52.799  15.318  -6.125  1.00  0.00    -0.508 OA
ATOM     44  H   UNL     1      52.951  14.993  -7.074  1.00  0.00     0.293 HD
ENDBRANCH  42  43
ENDBRANCH  32  37
ENDBRANCH  23  24
ENDBRANCH   6  23
BRANCH   3  45
ATOM     45  O   UNL     1      41.458  18.058  -0.200  1.00  0.00    -0.387 OA
ATOM     46  H   UNL     1      42.252  17.490  -0.378  1.00  0.00     0.211 HD
ENDBRANCH   3  45
BRANCH   4  47
ATOM     47  C   UNL     1      43.385  20.817  -1.563  1.00  0.00     0.191 C 
BRANCH  47  48
ATOM     48  O   UNL     1      44.244  21.064  -0.482  1.00  0.00    -0.394 OA
ATOM     49  H   UNL     1      43.898  20.517   0.274  1.00  0.00     0.210 HD
ENDBRANCH  47  48
ENDBRANCH   4  47
TORSDOF 14
ENDMDL
MODEL 7
REMARK VINA RESULT:    -4.117      1.417      4.695
REMARK INTER + INTRA:          -8.102
REMARK INTER:                  -6.658
REMARK INTRA:                  -1.444
REMARK UNBOUND:                -1.578
REMARK SMILES C[C@@H]1O[C@@H](O[C@@H]2[C@@H](Oc3cc(O)c4c(c3)O[C@H](c3ccc(O)cc3)CC4=O)O[C@@H](CO)[C@H](O)[C@@H]2O)[C@@H](O)[C@H](O)[C@@H]1O
REMARK SMILES IDX 6 1 34 2 32 3 29 4 28 5 7 6 5 7 4 8 1 9 2 10 40 11 3 12
REMARK SMILES IDX 38 13 36 14 41 15 39 17 37 19 35 21 8 23 9 24 10 25 15 26
REMARK SMILES IDX 11 27 14 28 13 29 16 30 26 31 17 32 27 33 25 34 12 35 18 37
REMARK SMILES IDX 19 38 24 39 20 40 23 41 21 42 22 43 33 45 30 47 31 48
REMARK H PARENT 41 16 39 18 37 20 35 22 12 36 22 44 33 46 31 49
REMARK Flexibility Score: inf
ROOT
ATOM      1  C   UNL     1      41.799  16.338  -3.591  1.00  0.00     0.221 C 
ATOM      2  C   UNL     1      41.181  15.766  -2.285  1.00  0.00     0.181 C 
ATOM      3  C   UNL     1      39.710  15.380  -2.497  1.00  0.00     0.177 C 
ATOM      4  C   UNL     1      39.587  14.357  -3.677  1.00  0.00     0.179 C 
ATOM      5  O   UNL     1      40.756  14.303  -4.485  1.00  0.00    -0.332 OA
ATOM      6  C   UNL     1      41.202  15.604  -4.819  1.00  0.00     0.339 C 
ENDROOT
BRANCH   1   7
ATOM      7  O   UNL     1      41.509  17.723  -3.728  1.00  0.00    -0.337 OA
BRANCH   7   8
ATOM      8  C   UNL     1      41.648  18.196  -5.065  1.00  0.00     0.282 C 
ATOM      9  C   UNL     1      43.743  21.129  -4.303  1.00  0.00     0.041 C 
ATOM     10  C   UNL     1      42.483  20.262  -4.318  1.00  0.00     0.150 C 
ATOM     11  C   UNL     1      41.256  21.057  -4.816  1.00  0.00     0.174 C 
ATOM     12  O   UNL     1      42.718  19.128  -5.140  1.00  0.00    -0.344 OA
ATOM     13  C   UNL     1      40.023  20.138  -4.800  1.00  0.00     0.179 C 
ATOM     14  C   UNL     1      40.330  18.835  -5.565  1.00  0.00     0.202 C 
BRANCH  11  15
ATOM     15  O   UNL     1      41.479  21.525  -6.125  1.00  0.00    -0.388 OA
ATOM     16  H   UNL     1      41.268  20.774  -6.744  1.00  0.00     0.211 HD
ENDBRANCH  11  15
BRANCH  13  17
ATOM     17  O   UNL     1      38.929  20.785  -5.398  1.00  0.00    -0.387 OA
ATOM     18  H   UNL     1      38.110  20.336  -5.059  1.00  0.00     0.211 HD
ENDBRANCH  13  17
BRANCH  14  19
ATOM     19  O   UNL     1      39.257  17.930  -5.482  1.00  0.00    -0.385 OA
ATOM     20  H   UNL     1      39.229  17.574  -4.557  1.00  0.00     0.211 HD
ENDBRANCH  14  19
ENDBRANCH   7   8
ENDBRANCH   1   7
BRANCH   2  21
ATOM     21  O   UNL     1      41.280  16.681  -1.224  1.00  0.00    -0.387 OA
ATOM     22  H   UNL     1      41.613  17.532  -1.607  1.00  0.00     0.211 HD
ENDBRANCH   2  21
BRANCH   6  23
ATOM     23  O   UNL     1      42.147  15.539  -5.887  1.00  0.00    -0.462 OA
BRANCH  23  24
ATOM     24  C   UNL     1      43.628  15.255  -5.791  1.00  0.00     0.130 A 
ATOM     25  C   UNL     1      44.758  16.339  -5.820  1.00  0.00     0.093 A 
ATOM     26  C   UNL     1      44.044  13.821  -5.676  1.00  0.00     0.094 A 
ATOM     27  C   UNL     1      46.076  15.889  -5.754  1.00  0.00     0.133 A 
ATOM     28  C   UNL     1      45.396  13.506  -5.584  1.00  0.00     0.138 A 
ATOM     29  C   UNL     1      46.398  14.508  -5.611  1.00  0.00     0.102 A 
ATOM     30  O   UNL     1      45.741  12.149  -5.460  1.00  0.00    -0.484 OA
ATOM     31  C   UNL     1      47.792  14.031  -5.470  1.00  0.00     0.174 C 
ATOM     32  C   UNL     1      47.081  11.666  -5.281  1.00  0.00     0.211 C 
ATOM     33  O   UNL     1      48.687  14.739  -4.936  1.00  0.00    -0.294 OA
ATOM     34  C   UNL     1      48.109  12.632  -5.890  1.00  0.00     0.131 C 
BRANCH  27  35
ATOM     35  O   UNL     1      47.058  16.874  -5.880  1.00  0.00    -0.507 OA
ATOM     36  H   UNL     1      48.048  16.681  -5.948  1.00  0.00     0.293 HD
ENDBRANCH  27  35
BRANCH  32  37
ATOM     37  C   UNL     1      47.380  11.397  -3.817  1.00  0.00    -0.007 A 
ATOM     38  C   UNL     1      48.693  11.060  -3.434  1.00  0.00     0.011 A 
ATOM     39  C   UNL     1      46.404  11.572  -2.817  1.00  0.00     0.011 A 
ATOM     40  C   UNL     1      49.016  10.881  -2.085  1.00  0.00     0.046 A 
ATOM     41  C   UNL     1      46.730  11.393  -1.468  1.00  0.00     0.046 A 
ATOM     42  C   UNL     1      48.038  11.049  -1.099  1.00  0.00     0.115 A 
BRANCH  42  43
ATOM     43  O   UNL     1      48.379  10.878   0.241  1.00  0.00    -0.508 OA
ATOM     44  H   UNL     1      47.674  10.885   0.972  1.00  0.00     0.293 HD
ENDBRANCH  42  43
ENDBRANCH  32  37
ENDBRANCH  23  24
ENDBRANCH   6  23
BRANCH   3  45
ATOM     45  O   UNL     1      38.959  16.537  -2.775  1.00  0.00    -0.387 OA
ATOM     46  H   UNL     1      38.092  16.433  -2.302  1.00  0.00     0.211 HD
ENDBRANCH   3  45
BRANCH   4  47
ATOM     47  C   UNL     1      39.323  12.943  -3.147  1.00  0.00     0.191 C 
BRANCH  47  48
ATOM     48  O   UNL     1      39.988  12.747  -1.928  1.00  0.00    -0.394 OA
ATOM     49  H   UNL     1      39.696  11.856  -1.596  1.00  0.00     0.210 HD
ENDBRANCH  47  48
ENDBRANCH   4  47
TORSDOF 14
ENDMDL
