MODEL 1
REMARK VINA RESULT:    -4.049      0.000      0.000
REMARK INTER + INTRA:         -13.796
REMARK INTER:                 -10.203
REMARK INTRA:                  -3.593
REMARK UNBOUND:                -3.593
REMARK SMILES CCCCCCCCCCCCCCCCCCCCCCCCCCCC(=O)[O-]
REMARK SMILES IDX 15 1 16 2 17 3 18 4 19 5 20 6 21 7 22 8 23 9 24 10 25 11
REMARK SMILES IDX 26 12 27 13 28 14 29 15 30 16 14 17 13 18 12 19 11 20 10 21
REMARK SMILES IDX 9 22 8 23 7 24 6 25 5 26 4 27 3 28 2 29 1 30
REMARK H PARENT
REMARK Flexibility Score: inf
ROOT
ATOM      1  C   UNL     1      10.607  -3.097 -20.484  1.00  0.00     0.000 C 
ENDROOT
BRANCH   1   2
ATOM      2  C   UNL     1      11.583  -2.327 -21.398  1.00  0.00     0.000 C 
BRANCH   2   3
ATOM      3  C   UNL     1      11.951  -3.065 -22.699  1.00  0.00     0.000 C 
BRANCH   3   4
ATOM      4  C   UNL     1      13.240  -3.906 -22.646  1.00  0.00     0.000 C 
BRANCH   4   5
ATOM      5  C   UNL     1      13.054  -5.414 -22.896  1.00  0.00     0.000 C 
BRANCH   5   6
ATOM      6  C   UNL     1      11.888  -5.728 -23.847  1.00  0.00     0.000 C 
BRANCH   6   7
ATOM      7  C   UNL     1      12.013  -7.116 -24.501  1.00  0.00     0.000 C 
BRANCH   7   8
ATOM      8  C   UNL     1      13.223  -7.954 -24.041  1.00  0.00     0.000 C 
BRANCH   8   9
ATOM      9  C   UNL     1      13.366  -9.327 -24.725  1.00  0.00     0.000 C 
BRANCH   9  10
ATOM     10  C   UNL     1      13.414 -10.490 -23.723  1.00  0.00     0.000 C 
BRANCH  10  11
ATOM     11  C   UNL     1      12.482 -11.631 -24.156  1.00  0.00     0.000 C 
BRANCH  11  12
ATOM     12  C   UNL     1      11.110 -11.133 -24.648  1.00  0.00     0.006 C 
BRANCH  12  13
ATOM     13  C   UNL     1      10.482 -12.010 -25.745  1.00  0.00     0.053 C 
BRANCH  13  14
ATOM     14  C   UNL     1      11.312 -12.061 -26.990  1.00  0.00     0.041 C 
ATOM     15  O   UNL     1      11.697 -10.995 -27.540  1.00  0.00    -0.550 OA
ATOM     16  O   UNL     1      11.675 -13.285 -27.535  1.00  0.00    -0.550 OA
ENDBRANCH  13  14
ENDBRANCH  12  13
ENDBRANCH  11  12
ENDBRANCH  10  11
ENDBRANCH   9  10
ENDBRANCH   8   9
ENDBRANCH   7   8
ENDBRANCH   6   7
ENDBRANCH   5   6
ENDBRANCH   4   5
ENDBRANCH   3   4
ENDBRANCH   2   3
ENDBRANCH   1   2
BRANCH   1  17
ATOM     17  C   UNL     1       9.637  -3.997 -21.271  1.00  0.00     0.000 C 
BRANCH  17  18
ATOM     18  C   UNL     1       9.703  -5.472 -20.837  1.00  0.00     0.000 C 
BRANCH  18  19
ATOM     19  C   UNL     1      10.964  -5.861 -20.038  1.00  0.00     0.000 C 
BRANCH  19  20
ATOM     20  C   UNL     1      11.132  -7.384 -19.839  1.00  0.00     0.000 C 
BRANCH  20  21
ATOM     21  C   UNL     1      10.715  -8.183 -21.087  1.00  0.00     0.000 C 
BRANCH  21  22
ATOM     22  C   UNL     1       9.992  -9.501 -20.731  1.00  0.00    -0.000 C 
BRANCH  22  23
ATOM     23  C   UNL     1      10.795 -10.768 -21.086  1.00  0.00    -0.000 C 
BRANCH  23  24
ATOM     24  C   UNL     1      10.929 -11.788 -19.943  1.00  0.00    -0.000 C 
BRANCH  24  25
ATOM     25  C   UNL     1      12.038 -12.823 -20.199  1.00  0.00    -0.000 C 
BRANCH  25  26
ATOM     26  C   UNL     1      12.275 -13.747 -18.993  1.00  0.00    -0.000 C 
BRANCH  26  27
ATOM     27  C   UNL     1      13.540 -13.369 -18.204  1.00  0.00    -0.000 C 
BRANCH  27  28
ATOM     28  C   UNL     1      13.302 -13.310 -16.684  1.00  0.00    -0.000 C 
BRANCH  28  29
ATOM     29  C   UNL     1      12.163 -14.208 -16.167  1.00  0.00    -0.003 C 
ATOM     30  C   UNL     1      12.559 -15.033 -14.942  1.00  0.00     0.004 C 
ENDBRANCH  28  29
ENDBRANCH  27  28
ENDBRANCH  26  27
ENDBRANCH  25  26
ENDBRANCH  24  25
ENDBRANCH  23  24
ENDBRANCH  22  23
ENDBRANCH  21  22
ENDBRANCH  20  21
ENDBRANCH  19  20
ENDBRANCH  18  19
ENDBRANCH  17  18
ENDBRANCH   1  17
TORSDOF 26
ENDMDL
MODEL 2
REMARK VINA RESULT:    -3.974      4.541      7.406
REMARK INTER + INTRA:         -13.608
REMARK INTER:                  -9.661
REMARK INTRA:                  -3.947
REMARK UNBOUND:                -3.593
REMARK SMILES CCCCCCCCCCCCCCCCCCCCCCCCCCCC(=O)[O-]
REMARK SMILES IDX 15 1 16 2 17 3 18 4 19 5 20 6 21 7 22 8 23 9 24 10 25 11
REMARK SMILES IDX 26 12 27 13 28 14 29 15 30 16 14 17 13 18 12 19 11 20 10 21
REMARK SMILES IDX 9 22 8 23 7 24 6 25 5 26 4 27 3 28 2 29 1 30
REMARK H PARENT
REMARK Flexibility Score: inf
ROOT
ATOM      1  C   UNL     1      13.518  -4.714 -21.796  1.00  0.00     0.000 C 
ENDROOT
BRANCH   1   2
ATOM      2  C   UNL     1      13.176  -3.506 -22.693  1.00  0.00     0.000 C 
BRANCH   2   3
ATOM      3  C   UNL     1      12.096  -2.572 -22.114  1.00  0.00     0.000 C 
BRANCH   3   4
ATOM      4  C   UNL     1      10.750  -3.241 -21.775  1.00  0.00     0.000 C 
BRANCH   4   5
ATOM      5  C   UNL     1       9.588  -2.907 -22.728  1.00  0.00     0.000 C 
BRANCH   5   6
ATOM      6  C   UNL     1       9.282  -4.037 -23.724  1.00  0.00     0.000 C 
BRANCH   6   7
ATOM      7  C   UNL     1       9.486  -3.609 -25.189  1.00  0.00     0.000 C 
BRANCH   7   8
ATOM      8  C   UNL     1      10.953  -3.551 -25.660  1.00  0.00     0.000 C 
BRANCH   8   9
ATOM      9  C   UNL     1      11.566  -2.140 -25.722  1.00  0.00     0.000 C 
BRANCH   9  10
ATOM     10  C   UNL     1      11.536  -1.538 -27.134  1.00  0.00     0.000 C 
BRANCH  10  11
ATOM     11  C   UNL     1      12.753  -0.633 -27.375  1.00  0.00     0.000 C 
BRANCH  11  12
ATOM     12  C   UNL     1      12.719   0.067 -28.746  1.00  0.00     0.006 C 
BRANCH  12  13
ATOM     13  C   UNL     1      13.922  -0.264 -29.648  1.00  0.00     0.053 C 
BRANCH  13  14
ATOM     14  C   UNL     1      13.649   0.001 -31.096  1.00  0.00     0.041 C 
ATOM     15  O   UNL     1      13.816  -0.910 -31.950  1.00  0.00    -0.550 OA
ATOM     16  O   UNL     1      13.196   1.249 -31.502  1.00  0.00    -0.550 OA
ENDBRANCH  13  14
ENDBRANCH  12  13
ENDBRANCH  11  12
ENDBRANCH  10  11
ENDBRANCH   9  10
ENDBRANCH   8   9
ENDBRANCH   7   8
ENDBRANCH   6   7
ENDBRANCH   5   6
ENDBRANCH   4   5
ENDBRANCH   3   4
ENDBRANCH   2   3
ENDBRANCH   1   2
BRANCH   1  17
ATOM     17  C   UNL     1      13.681  -6.022 -22.592  1.00  0.00     0.000 C 
BRANCH  17  18
ATOM     18  C   UNL     1      12.362  -6.513 -23.214  1.00  0.00     0.000 C 
BRANCH  18  19
ATOM     19  C   UNL     1      11.365  -7.142 -22.218  1.00  0.00     0.000 C 
BRANCH  19  20
ATOM     20  C   UNL     1      10.006  -7.516 -22.848  1.00  0.00     0.000 C 
BRANCH  20  21
ATOM     21  C   UNL     1      10.039  -7.448 -24.385  1.00  0.00     0.000 C 
BRANCH  21  22
ATOM     22  C   UNL     1       9.147  -8.523 -25.044  1.00  0.00    -0.000 C 
BRANCH  22  23
ATOM     23  C   UNL     1       9.893  -9.419 -26.053  1.00  0.00    -0.000 C 
BRANCH  23  24
ATOM     24  C   UNL     1      10.164 -10.852 -25.565  1.00  0.00    -0.000 C 
BRANCH  24  25
ATOM     25  C   UNL     1      11.662 -11.205 -25.567  1.00  0.00    -0.000 C 
BRANCH  25  26
ATOM     26  C   UNL     1      12.557  -9.989 -25.276  1.00  0.00    -0.000 C 
BRANCH  26  27
ATOM     27  C   UNL     1      13.242 -10.079 -23.902  1.00  0.00    -0.000 C 
BRANCH  27  28
ATOM     28  C   UNL     1      13.431 -11.530 -23.422  1.00  0.00    -0.000 C 
BRANCH  28  29
ATOM     29  C   UNL     1      12.582 -11.928 -22.201  1.00  0.00    -0.003 C 
ATOM     30  C   UNL     1      11.577 -10.851 -21.792  1.00  0.00     0.004 C 
ENDBRANCH  28  29
ENDBRANCH  27  28
ENDBRANCH  26  27
ENDBRANCH  25  26
ENDBRANCH  24  25
ENDBRANCH  23  24
ENDBRANCH  22  23
ENDBRANCH  21  22
ENDBRANCH  20  21
ENDBRANCH  19  20
ENDBRANCH  18  19
ENDBRANCH  17  18
ENDBRANCH   1  17
TORSDOF 26
ENDMDL
MODEL 3
REMARK VINA RESULT:    -3.969     14.244     17.181
REMARK INTER + INTRA:         -13.595
REMARK INTER:                  -8.323
REMARK INTRA:                  -5.271
REMARK UNBOUND:                -3.593
REMARK SMILES CCCCCCCCCCCCCCCCCCCCCCCCCCCC(=O)[O-]
REMARK SMILES IDX 15 1 16 2 17 3 18 4 19 5 20 6 21 7 22 8 23 9 24 10 25 11
REMARK SMILES IDX 26 12 27 13 28 14 29 15 30 16 14 17 13 18 12 19 11 20 10 21
REMARK SMILES IDX 9 22 8 23 7 24 6 25 5 26 4 27 3 28 2 29 1 30
REMARK H PARENT
REMARK Flexibility Score: inf
ROOT
ATOM      1  C   UNL     1      -4.479  -6.140 -24.118  1.00  0.00     0.000 C 
ENDROOT
BRANCH   1   2
ATOM      2  C   UNL     1      -3.267  -7.062 -23.870  1.00  0.00     0.000 C 
BRANCH   2   3
ATOM      3  C   UNL     1      -1.995  -6.328 -23.407  1.00  0.00     0.000 C 
BRANCH   3   4
ATOM      4  C   UNL     1      -1.043  -5.873 -24.530  1.00  0.00     0.000 C 
BRANCH   4   5
ATOM      5  C   UNL     1      -0.707  -6.944 -25.584  1.00  0.00     0.000 C 
BRANCH   5   6
ATOM      6  C   UNL     1      -1.378  -6.683 -26.943  1.00  0.00     0.000 C 
BRANCH   6   7
ATOM      7  C   UNL     1      -0.384  -6.187 -28.009  1.00  0.00     0.000 C 
BRANCH   7   8
ATOM      8  C   UNL     1       0.041  -4.710 -27.878  1.00  0.00     0.000 C 
BRANCH   8   9
ATOM      9  C   UNL     1      -1.110  -3.718 -27.628  1.00  0.00     0.000 C 
BRANCH   9  10
ATOM     10  C   UNL     1      -0.888  -2.363 -28.315  1.00  0.00     0.000 C 
BRANCH  10  11
ATOM     11  C   UNL     1      -2.013  -1.376 -27.967  1.00  0.00     0.000 C 
BRANCH  11  12
ATOM     12  C   UNL     1      -1.949  -0.078 -28.793  1.00  0.00     0.006 C 
BRANCH  12  13
ATOM     13  C   UNL     1      -0.748  -0.005 -29.752  1.00  0.00     0.053 C 
BRANCH  13  14
ATOM     14  C   UNL     1       0.236   1.055 -29.368  1.00  0.00     0.041 C 
ATOM     15  O   UNL     1       0.919   0.935 -28.316  1.00  0.00    -0.550 OA
ATOM     16  O   UNL     1       0.411   2.169 -30.178  1.00  0.00    -0.550 OA
ENDBRANCH  13  14
ENDBRANCH  12  13
ENDBRANCH  11  12
ENDBRANCH  10  11
ENDBRANCH   9  10
ENDBRANCH   8   9
ENDBRANCH   7   8
ENDBRANCH   6   7
ENDBRANCH   5   6
ENDBRANCH   4   5
ENDBRANCH   3   4
ENDBRANCH   2   3
ENDBRANCH   1   2
BRANCH   1  17
ATOM     17  C   UNL     1      -4.610  -5.708 -25.590  1.00  0.00     0.000 C 
BRANCH  17  18
ATOM     18  C   UNL     1      -4.294  -4.218 -25.808  1.00  0.00     0.000 C 
BRANCH  18  19
ATOM     19  C   UNL     1      -5.154  -3.519 -26.882  1.00  0.00     0.000 C 
BRANCH  19  20
ATOM     20  C   UNL     1      -5.156  -1.979 -26.775  1.00  0.00     0.000 C 
BRANCH  20  21
ATOM     21  C   UNL     1      -4.601  -1.488 -25.425  1.00  0.00     0.000 C 
BRANCH  21  22
ATOM     22  C   UNL     1      -5.047  -0.048 -25.089  1.00  0.00    -0.000 C 
BRANCH  22  23
ATOM     23  C   UNL     1      -4.026   0.740 -24.245  1.00  0.00    -0.000 C 
BRANCH  23  24
ATOM     24  C   UNL     1      -2.596   0.752 -24.809  1.00  0.00    -0.000 C 
BRANCH  24  25
ATOM     25  C   UNL     1      -1.575   0.118 -23.848  1.00  0.00    -0.000 C 
BRANCH  25  26
ATOM     26  C   UNL     1      -0.851  -1.090 -24.466  1.00  0.00    -0.000 C 
BRANCH  26  27
ATOM     27  C   UNL     1      -1.510  -2.427 -24.086  1.00  0.00    -0.000 C 
BRANCH  27  28
ATOM     28  C   UNL     1      -1.972  -2.469 -22.618  1.00  0.00    -0.000 C 
BRANCH  28  29
ATOM     29  C   UNL     1      -3.419  -2.951 -22.404  1.00  0.00    -0.003 C 
ATOM     30  C   UNL     1      -3.577  -3.843 -21.173  1.00  0.00     0.004 C 
ENDBRANCH  28  29
ENDBRANCH  27  28
ENDBRANCH  26  27
ENDBRANCH  25  26
ENDBRANCH  24  25
ENDBRANCH  23  24
ENDBRANCH  22  23
ENDBRANCH  21  22
ENDBRANCH  20  21
ENDBRANCH  19  20
ENDBRANCH  18  19
ENDBRANCH  17  18
ENDBRANCH   1  17
TORSDOF 26
ENDMDL
MODEL 4
REMARK VINA RESULT:    -3.959      5.105      7.970
REMARK INTER + INTRA:         -13.569
REMARK INTER:                  -9.151
REMARK INTRA:                  -4.419
REMARK UNBOUND:                -3.593
REMARK SMILES CCCCCCCCCCCCCCCCCCCCCCCCCCCC(=O)[O-]
REMARK SMILES IDX 15 1 16 2 17 3 18 4 19 5 20 6 21 7 22 8 23 9 24 10 25 11
REMARK SMILES IDX 26 12 27 13 28 14 29 15 30 16 14 17 13 18 12 19 11 20 10 21
REMARK SMILES IDX 9 22 8 23 7 24 6 25 5 26 4 27 3 28 2 29 1 30
REMARK H PARENT
REMARK Flexibility Score: inf
ROOT
ATOM      1  C   UNL     1      11.827  -2.813 -23.946  1.00  0.00     0.000 C 
ENDROOT
BRANCH   1   2
ATOM      2  C   UNL     1      12.812  -2.972 -22.769  1.00  0.00     0.000 C 
BRANCH   2   3
ATOM      3  C   UNL     1      13.538  -4.330 -22.729  1.00  0.00     0.000 C 
BRANCH   3   4
ATOM      4  C   UNL     1      13.470  -5.082 -21.387  1.00  0.00     0.000 C 
BRANCH   4   5
ATOM      5  C   UNL     1      12.141  -4.945 -20.621  1.00  0.00     0.000 C 
BRANCH   5   6
ATOM      6  C   UNL     1      11.771  -6.208 -19.826  1.00  0.00     0.000 C 
BRANCH   6   7
ATOM      7  C   UNL     1      10.290  -6.598 -19.989  1.00  0.00     0.000 C 
BRANCH   7   8
ATOM      8  C   UNL     1       9.431  -5.601 -20.793  1.00  0.00     0.000 C 
BRANCH   8   9
ATOM      9  C   UNL     1       7.961  -5.495 -20.345  1.00  0.00     0.000 C 
BRANCH   9  10
ATOM     10  C   UNL     1       7.499  -4.042 -20.160  1.00  0.00     0.000 C 
BRANCH  10  11
ATOM     11  C   UNL     1       8.620  -3.055 -20.519  1.00  0.00     0.000 C 
BRANCH  11  12
ATOM     12  C   UNL     1       8.562  -1.755 -19.695  1.00  0.00     0.006 C 
BRANCH  12  13
ATOM     13  C   UNL     1       9.374  -0.596 -20.300  1.00  0.00     0.053 C 
BRANCH  13  14
ATOM     14  C   UNL     1      10.487  -0.142 -19.406  1.00  0.00     0.041 C 
ATOM     15  O   UNL     1      10.573   1.067 -19.065  1.00  0.00    -0.550 OA
ATOM     16  O   UNL     1      11.421  -1.056 -18.938  1.00  0.00    -0.550 OA
ENDBRANCH  13  14
ENDBRANCH  12  13
ENDBRANCH  11  12
ENDBRANCH  10  11
ENDBRANCH   9  10
ENDBRANCH   8   9
ENDBRANCH   7   8
ENDBRANCH   6   7
ENDBRANCH   5   6
ENDBRANCH   4   5
ENDBRANCH   3   4
ENDBRANCH   2   3
ENDBRANCH   1   2
BRANCH   1  17
ATOM     17  C   UNL     1      10.379  -3.170 -23.564  1.00  0.00     0.000 C 
BRANCH  17  18
ATOM     18  C   UNL     1       9.910  -4.503 -24.174  1.00  0.00     0.000 C 
BRANCH  18  19
ATOM     19  C   UNL     1      10.737  -4.995 -25.380  1.00  0.00     0.000 C 
BRANCH  19  20
ATOM     20  C   UNL     1      11.422  -6.360 -25.151  1.00  0.00     0.000 C 
BRANCH  20  21
ATOM     21  C   UNL     1      10.841  -7.107 -23.937  1.00  0.00     0.000 C 
BRANCH  21  22
ATOM     22  C   UNL     1      11.900  -7.962 -23.205  1.00  0.00    -0.000 C 
BRANCH  22  23
ATOM     23  C   UNL     1      13.287  -7.945 -23.878  1.00  0.00    -0.000 C 
BRANCH  23  24
ATOM     24  C   UNL     1      13.682  -9.260 -24.572  1.00  0.00    -0.000 C 
BRANCH  24  25
ATOM     25  C   UNL     1      13.281 -10.503 -23.758  1.00  0.00    -0.000 C 
BRANCH  25  26
ATOM     26  C   UNL     1      12.506 -11.533 -24.596  1.00  0.00    -0.000 C 
BRANCH  26  27
ATOM     27  C   UNL     1      10.988 -11.456 -24.363  1.00  0.00    -0.000 C 
BRANCH  27  28
ATOM     28  C   UNL     1      10.172 -11.824 -25.616  1.00  0.00    -0.000 C 
BRANCH  28  29
ATOM     29  C   UNL     1      11.006 -12.092 -26.882  1.00  0.00    -0.003 C 
ATOM     30  C   UNL     1      11.103 -13.577 -27.232  1.00  0.00     0.004 C 
ENDBRANCH  28  29
ENDBRANCH  27  28
ENDBRANCH  26  27
ENDBRANCH  25  26
ENDBRANCH  24  25
ENDBRANCH  23  24
ENDBRANCH  22  23
ENDBRANCH  21  22
ENDBRANCH  20  21
ENDBRANCH  19  20
ENDBRANCH  18  19
ENDBRANCH  17  18
ENDBRANCH   1  17
TORSDOF 26
ENDMDL
MODEL 5
REMARK VINA RESULT:    -3.958     13.640     16.784
REMARK INTER + INTRA:         -13.567
REMARK INTER:                  -9.295
REMARK INTRA:                  -4.273
REMARK UNBOUND:                -3.593
REMARK SMILES CCCCCCCCCCCCCCCCCCCCCCCCCCCC(=O)[O-]
REMARK SMILES IDX 15 1 16 2 17 3 18 4 19 5 20 6 21 7 22 8 23 9 24 10 25 11
REMARK SMILES IDX 26 12 27 13 28 14 29 15 30 16 14 17 13 18 12 19 11 20 10 21
REMARK SMILES IDX 9 22 8 23 7 24 6 25 5 26 4 27 3 28 2 29 1 30
REMARK H PARENT
REMARK Flexibility Score: inf
ROOT
ATOM      1  C   UNL     1      -0.406  -1.413 -26.733  1.00  0.00     0.000 C 
ENDROOT
BRANCH   1   2
ATOM      2  C   UNL     1      -0.864  -1.943 -25.358  1.00  0.00     0.000 C 
BRANCH   2   3
ATOM      3  C   UNL     1      -1.372  -0.854 -24.395  1.00  0.00     0.000 C 
BRANCH   3   4
ATOM      4  C   UNL     1      -2.869  -0.924 -24.041  1.00  0.00     0.000 C 
BRANCH   4   5
ATOM      5  C   UNL     1      -3.737   0.211 -24.615  1.00  0.00     0.000 C 
BRANCH   5   6
ATOM      6  C   UNL     1      -4.841  -0.293 -25.559  1.00  0.00     0.000 C 
BRANCH   6   7
ATOM      7  C   UNL     1      -4.998  -1.824 -25.523  1.00  0.00     0.000 C 
BRANCH   7   8
ATOM      8  C   UNL     1      -4.892  -2.529 -26.890  1.00  0.00     0.000 C 
BRANCH   8   9
ATOM      9  C   UNL     1      -4.752  -4.062 -26.827  1.00  0.00     0.000 C 
BRANCH   9  10
ATOM     10  C   UNL     1      -3.289  -4.528 -26.849  1.00  0.00     0.000 C 
BRANCH  10  11
ATOM     11  C   UNL     1      -3.095  -5.779 -25.979  1.00  0.00     0.000 C 
BRANCH  11  12
ATOM     12  C   UNL     1      -4.220  -6.815 -26.158  1.00  0.00     0.006 C 
BRANCH  12  13
ATOM     13  C   UNL     1      -3.924  -8.179 -25.509  1.00  0.00     0.053 C 
BRANCH  13  14
ATOM     14  C   UNL     1      -2.658  -8.797 -26.016  1.00  0.00     0.041 C 
ATOM     15  O   UNL     1      -1.736  -9.103 -25.214  1.00  0.00    -0.550 OA
ATOM     16  O   UNL     1      -2.502  -9.051 -27.371  1.00  0.00    -0.550 OA
ENDBRANCH  13  14
ENDBRANCH  12  13
ENDBRANCH  11  12
ENDBRANCH  10  11
ENDBRANCH   9  10
ENDBRANCH   8   9
ENDBRANCH   7   8
ENDBRANCH   6   7
ENDBRANCH   5   6
ENDBRANCH   4   5
ENDBRANCH   3   4
ENDBRANCH   2   3
ENDBRANCH   1   2
BRANCH   1  17
ATOM     17  C   UNL     1      -1.402  -1.739 -27.861  1.00  0.00     0.000 C 
BRANCH  17  18
ATOM     18  C   UNL     1      -2.162  -0.500 -28.365  1.00  0.00     0.000 C 
BRANCH  18  19
ATOM     19  C   UNL     1      -1.344   0.443 -29.272  1.00  0.00     0.000 C 
BRANCH  19  20
ATOM     20  C   UNL     1      -1.891   0.555 -30.711  1.00  0.00     0.000 C 
BRANCH  20  21
ATOM     21  C   UNL     1      -0.815   0.251 -31.769  1.00  0.00     0.000 C 
BRANCH  21  22
ATOM     22  C   UNL     1       0.535  -0.158 -31.139  1.00  0.00    -0.000 C 
BRANCH  22  23
ATOM     23  C   UNL     1       1.451  -0.956 -32.088  1.00  0.00    -0.000 C 
BRANCH  23  24
ATOM     24  C   UNL     1       1.751  -2.395 -31.635  1.00  0.00    -0.000 C 
BRANCH  24  25
ATOM     25  C   UNL     1       1.447  -2.622 -30.143  1.00  0.00    -0.000 C 
BRANCH  25  26
ATOM     26  C   UNL     1       1.361  -4.113 -29.778  1.00  0.00    -0.000 C 
BRANCH  26  27
ATOM     27  C   UNL     1       1.278  -4.341 -28.259  1.00  0.00    -0.000 C 
BRANCH  27  28
ATOM     28  C   UNL     1       0.021  -5.127 -27.840  1.00  0.00    -0.000 C 
BRANCH  28  29
ATOM     29  C   UNL     1      -0.043  -6.576 -28.356  1.00  0.00    -0.003 C 
ATOM     30  C   UNL     1       0.692  -7.567 -27.452  1.00  0.00     0.004 C 
ENDBRANCH  28  29
ENDBRANCH  27  28
ENDBRANCH  26  27
ENDBRANCH  25  26
ENDBRANCH  24  25
ENDBRANCH  23  24
ENDBRANCH  22  23
ENDBRANCH  21  22
ENDBRANCH  20  21
ENDBRANCH  19  20
ENDBRANCH  18  19
ENDBRANCH  17  18
ENDBRANCH   1  17
TORSDOF 26
ENDMDL
MODEL 6
REMARK VINA RESULT:    -3.955      3.139      7.273
REMARK INTER + INTRA:         -13.560
REMARK INTER:                  -9.069
REMARK INTRA:                  -4.491
REMARK UNBOUND:                -3.593
REMARK SMILES CCCCCCCCCCCCCCCCCCCCCCCCCCCC(=O)[O-]
REMARK SMILES IDX 15 1 16 2 17 3 18 4 19 5 20 6 21 7 22 8 23 9 24 10 25 11
REMARK SMILES IDX 26 12 27 13 28 14 29 15 30 16 14 17 13 18 12 19 11 20 10 21
REMARK SMILES IDX 9 22 8 23 7 24 6 25 5 26 4 27 3 28 2 29 1 30
REMARK H PARENT
REMARK Flexibility Score: inf
ROOT
ATOM      1  C   UNL     1      12.078 -11.547 -23.035  1.00  0.00     0.000 C 
ENDROOT
BRANCH   1   2
ATOM      2  C   UNL     1      13.424 -10.985 -23.535  1.00  0.00     0.000 C 
BRANCH   2   3
ATOM      3  C   UNL     1      13.387  -9.492 -23.913  1.00  0.00     0.000 C 
BRANCH   3   4
ATOM      4  C   UNL     1      14.074  -9.124 -25.242  1.00  0.00     0.000 C 
BRANCH   4   5
ATOM      5  C   UNL     1      13.123  -8.813 -26.412  1.00  0.00     0.000 C 
BRANCH   5   6
ATOM      6  C   UNL     1      11.673  -8.569 -25.962  1.00  0.00     0.000 C 
BRANCH   6   7
ATOM      7  C   UNL     1      10.691  -9.603 -26.540  1.00  0.00     0.000 C 
BRANCH   7   8
ATOM      8  C   UNL     1      11.330 -10.921 -27.022  1.00  0.00     0.000 C 
BRANCH   8   9
ATOM      9  C   UNL     1      10.906 -12.179 -26.240  1.00  0.00     0.000 C 
BRANCH   9  10
ATOM     10  C   UNL     1       9.465 -12.097 -25.716  1.00  0.00     0.000 C 
BRANCH  10  11
ATOM     11  C   UNL     1       8.896 -13.498 -25.445  1.00  0.00     0.000 C 
BRANCH  11  12
ATOM     12  C   UNL     1       8.409 -14.206 -26.723  1.00  0.00     0.006 C 
BRANCH  12  13
ATOM     13  C   UNL     1       8.971 -15.627 -26.903  1.00  0.00     0.053 C 
BRANCH  13  14
ATOM     14  C   UNL     1       9.996 -15.711 -27.990  1.00  0.00     0.041 C 
ATOM     15  O   UNL     1      11.161 -15.270 -27.800  1.00  0.00    -0.550 OA
ATOM     16  O   UNL     1       9.672 -16.290 -29.210  1.00  0.00    -0.550 OA
ENDBRANCH  13  14
ENDBRANCH  12  13
ENDBRANCH  11  12
ENDBRANCH  10  11
ENDBRANCH   9  10
ENDBRANCH   8   9
ENDBRANCH   7   8
ENDBRANCH   6   7
ENDBRANCH   5   6
ENDBRANCH   4   5
ENDBRANCH   3   4
ENDBRANCH   2   3
ENDBRANCH   1   2
BRANCH   1  17
ATOM     17  C   UNL     1      11.352 -10.591 -22.071  1.00  0.00     0.000 C 
BRANCH  17  18
ATOM     18  C   UNL     1       9.861 -10.417 -22.408  1.00  0.00     0.000 C 
BRANCH  18  19
ATOM     19  C   UNL     1       9.426  -8.969 -22.716  1.00  0.00     0.000 C 
BRANCH  19  20
ATOM     20  C   UNL     1      10.564  -7.933 -22.579  1.00  0.00     0.000 C 
BRANCH  20  21
ATOM     21  C   UNL     1      10.427  -7.083 -21.303  1.00  0.00     0.000 C 
BRANCH  21  22
ATOM     22  C   UNL     1      11.746  -6.380 -20.915  1.00  0.00    -0.000 C 
BRANCH  22  23
ATOM     23  C   UNL     1      12.768  -6.294 -22.066  1.00  0.00    -0.000 C 
BRANCH  23  24
ATOM     24  C   UNL     1      13.806  -5.169 -21.925  1.00  0.00    -0.000 C 
BRANCH  24  25
ATOM     25  C   UNL     1      13.475  -3.943 -22.795  1.00  0.00    -0.000 C 
BRANCH  25  26
ATOM     26  C   UNL     1      12.433  -3.020 -22.143  1.00  0.00    -0.000 C 
BRANCH  26  27
ATOM     27  C   UNL     1      11.318  -2.610 -23.120  1.00  0.00    -0.000 C 
BRANCH  27  28
ATOM     28  C   UNL     1      11.702  -2.836 -24.594  1.00  0.00    -0.000 C 
BRANCH  28  29
ATOM     29  C   UNL     1      10.707  -3.687 -25.404  1.00  0.00    -0.003 C 
ATOM     30  C   UNL     1      10.780  -5.177 -25.068  1.00  0.00     0.004 C 
ENDBRANCH  28  29
ENDBRANCH  27  28
ENDBRANCH  26  27
ENDBRANCH  25  26
ENDBRANCH  24  25
ENDBRANCH  23  24
ENDBRANCH  22  23
ENDBRANCH  21  22
ENDBRANCH  20  21
ENDBRANCH  19  20
ENDBRANCH  18  19
ENDBRANCH  17  18
ENDBRANCH   1  17
TORSDOF 26
ENDMDL
MODEL 7
REMARK VINA RESULT:    -3.944     13.398     16.034
REMARK INTER + INTRA:         -13.532
REMARK INTER:                  -8.635
REMARK INTRA:                  -4.897
REMARK UNBOUND:                -3.593
REMARK SMILES CCCCCCCCCCCCCCCCCCCCCCCCCCCC(=O)[O-]
REMARK SMILES IDX 15 1 16 2 17 3 18 4 19 5 20 6 21 7 22 8 23 9 24 10 25 11
REMARK SMILES IDX 26 12 27 13 28 14 29 15 30 16 14 17 13 18 12 19 11 20 10 21
REMARK SMILES IDX 9 22 8 23 7 24 6 25 5 26 4 27 3 28 2 29 1 30
REMARK H PARENT
REMARK Flexibility Score: inf
ROOT
ATOM      1  C   UNL     1      -2.426  -6.292 -17.072  1.00  0.00     0.000 C 
ENDROOT
BRANCH   1   2
ATOM      2  C   UNL     1      -3.880  -5.858 -16.792  1.00  0.00     0.000 C 
BRANCH   2   3
ATOM      3  C   UNL     1      -4.921  -6.980 -16.965  1.00  0.00     0.000 C 
BRANCH   3   4
ATOM      4  C   UNL     1      -4.759  -7.850 -18.226  1.00  0.00     0.000 C 
BRANCH   4   5
ATOM      5  C   UNL     1      -5.052  -9.349 -18.036  1.00  0.00     0.000 C 
BRANCH   5   6
ATOM      6  C   UNL     1      -4.600  -9.882 -16.666  1.00  0.00     0.000 C 
BRANCH   6   7
ATOM      7  C   UNL     1      -5.209 -11.256 -16.335  1.00  0.00     0.000 C 
BRANCH   7   8
ATOM      8  C   UNL     1      -4.671 -12.435 -17.171  1.00  0.00     0.000 C 
BRANCH   8   9
ATOM      9  C   UNL     1      -3.267 -12.931 -16.774  1.00  0.00     0.000 C 
BRANCH   9  10
ATOM     10  C   UNL     1      -3.080 -13.035 -15.253  1.00  0.00     0.000 C 
BRANCH  10  11
ATOM     11  C   UNL     1      -1.677 -12.568 -14.837  1.00  0.00     0.000 C 
BRANCH  11  12
ATOM     12  C   UNL     1      -1.466 -11.054 -15.030  1.00  0.00     0.006 C 
BRANCH  12  13
ATOM     13  C   UNL     1      -0.060 -10.565 -14.641  1.00  0.00     0.053 C 
BRANCH  13  14
ATOM     14  C   UNL     1       0.960 -10.831 -15.705  1.00  0.00     0.041 C 
ATOM     15  O   UNL     1       1.010 -10.103 -16.732  1.00  0.00    -0.550 OA
ATOM     16  O   UNL     1       1.865 -11.873 -15.556  1.00  0.00    -0.550 OA
ENDBRANCH  13  14
ENDBRANCH  12  13
ENDBRANCH  11  12
ENDBRANCH  10  11
ENDBRANCH   9  10
ENDBRANCH   8   9
ENDBRANCH   7   8
ENDBRANCH   6   7
ENDBRANCH   5   6
ENDBRANCH   4   5
ENDBRANCH   3   4
ENDBRANCH   2   3
ENDBRANCH   1   2
BRANCH   1  17
ATOM     17  C   UNL     1      -1.857  -7.214 -15.979  1.00  0.00     0.000 C 
BRANCH  17  18
ATOM     18  C   UNL     1      -0.331  -7.091 -15.825  1.00  0.00     0.000 C 
BRANCH  18  19
ATOM     19  C   UNL     1       0.296  -5.855 -16.504  1.00  0.00     0.000 C 
BRANCH  19  20
ATOM     20  C   UNL     1       1.081  -4.943 -15.537  1.00  0.00     0.000 C 
BRANCH  20  21
ATOM     21  C   UNL     1       0.637  -3.472 -15.634  1.00  0.00     0.000 C 
BRANCH  21  22
ATOM     22  C   UNL     1      -0.897  -3.323 -15.746  1.00  0.00    -0.000 C 
BRANCH  22  23
ATOM     23  C   UNL     1      -1.601  -3.091 -14.394  1.00  0.00    -0.000 C 
BRANCH  23  24
ATOM     24  C   UNL     1      -2.311  -4.327 -13.817  1.00  0.00    -0.000 C 
BRANCH  24  25
ATOM     25  C   UNL     1      -1.835  -4.674 -12.395  1.00  0.00    -0.000 C 
BRANCH  25  26
ATOM     26  C   UNL     1      -0.388  -4.228 -12.131  1.00  0.00    -0.000 C 
BRANCH  26  27
ATOM     27  C   UNL     1       0.562  -5.417 -11.908  1.00  0.00    -0.000 C 
BRANCH  27  28
ATOM     28  C   UNL     1      -0.105  -6.776 -12.191  1.00  0.00    -0.000 C 
BRANCH  28  29
ATOM     29  C   UNL     1       0.811  -8.001 -12.013  1.00  0.00    -0.003 C 
ATOM     30  C   UNL     1       2.046  -7.962 -12.913  1.00  0.00     0.004 C 
ENDBRANCH  28  29
ENDBRANCH  27  28
ENDBRANCH  26  27
ENDBRANCH  25  26
ENDBRANCH  24  25
ENDBRANCH  23  24
ENDBRANCH  22  23
ENDBRANCH  21  22
ENDBRANCH  20  21
ENDBRANCH  19  20
ENDBRANCH  18  19
ENDBRANCH  17  18
ENDBRANCH   1  17
TORSDOF 26
ENDMDL
MODEL 8
REMARK VINA RESULT:    -3.939      3.931      7.424
REMARK INTER + INTRA:         -13.519
REMARK INTER:                  -7.514
REMARK INTRA:                  -6.006
REMARK UNBOUND:                -3.593
REMARK SMILES CCCCCCCCCCCCCCCCCCCCCCCCCCCC(=O)[O-]
REMARK SMILES IDX 15 1 16 2 17 3 18 4 19 5 20 6 21 7 22 8 23 9 24 10 25 11
REMARK SMILES IDX 26 12 27 13 28 14 29 15 30 16 14 17 13 18 12 19 11 20 10 21
REMARK SMILES IDX 9 22 8 23 7 24 6 25 5 26 4 27 3 28 2 29 1 30
REMARK H PARENT
REMARK Flexibility Score: inf
ROOT
ATOM      1  C   UNL     1      10.167  -8.409 -20.222  1.00  0.00     0.000 C 
ENDROOT
BRANCH   1   2
ATOM      2  C   UNL     1      11.335  -7.512 -20.682  1.00  0.00     0.000 C 
BRANCH   2   3
ATOM      3  C   UNL     1      11.705  -6.394 -19.688  1.00  0.00     0.000 C 
BRANCH   3   4
ATOM      4  C   UNL     1      12.416  -5.171 -20.297  1.00  0.00     0.000 C 
BRANCH   4   5
ATOM      5  C   UNL     1      13.497  -5.490 -21.346  1.00  0.00     0.000 C 
BRANCH   5   6
ATOM      6  C   UNL     1      13.669  -4.377 -22.393  1.00  0.00     0.000 C 
BRANCH   6   7
ATOM      7  C   UNL     1      12.544  -3.328 -22.332  1.00  0.00     0.000 C 
BRANCH   7   8
ATOM      8  C   UNL     1      11.579  -3.325 -23.536  1.00  0.00     0.000 C 
BRANCH   8   9
ATOM      9  C   UNL     1      10.083  -3.260 -23.176  1.00  0.00     0.000 C 
BRANCH   9  10
ATOM     10  C   UNL     1       9.825  -2.583 -21.822  1.00  0.00     0.000 C 
BRANCH  10  11
ATOM     11  C   UNL     1       9.160  -3.555 -20.836  1.00  0.00     0.000 C 
BRANCH  11  12
ATOM     12  C   UNL     1       8.800  -4.908 -21.477  1.00  0.00     0.006 C 
BRANCH  12  13
ATOM     13  C   UNL     1       7.327  -5.314 -21.297  1.00  0.00     0.053 C 
BRANCH  13  14
ATOM     14  C   UNL     1       6.940  -5.462 -19.858  1.00  0.00     0.041 C 
ATOM     15  O   UNL     1       5.933  -4.855 -19.406  1.00  0.00    -0.550 OA
ATOM     16  O   UNL     1       7.682  -6.282 -19.019  1.00  0.00    -0.550 OA
ENDBRANCH  13  14
ENDBRANCH  12  13
ENDBRANCH  11  12
ENDBRANCH  10  11
ENDBRANCH   9  10
ENDBRANCH   8   9
ENDBRANCH   7   8
ENDBRANCH   6   7
ENDBRANCH   5   6
ENDBRANCH   4   5
ENDBRANCH   3   4
ENDBRANCH   2   3
ENDBRANCH   1   2
BRANCH   1  17
ATOM     17  C   UNL     1      10.331  -9.875 -20.662  1.00  0.00     0.000 C 
BRANCH  17  18
ATOM     18  C   UNL     1      11.264 -10.036 -21.875  1.00  0.00     0.000 C 
BRANCH  18  19
ATOM     19  C   UNL     1      11.938 -11.418 -22.001  1.00  0.00     0.000 C 
BRANCH  19  20
ATOM     20  C   UNL     1      12.831 -11.565 -23.252  1.00  0.00     0.000 C 
BRANCH  20  21
ATOM     21  C   UNL     1      12.048 -11.332 -24.557  1.00  0.00     0.000 C 
BRANCH  21  22
ATOM     22  C   UNL     1      12.496 -10.051 -25.295  1.00  0.00    -0.000 C 
BRANCH  22  23
ATOM     23  C   UNL     1      13.665  -9.314 -24.612  1.00  0.00    -0.000 C 
BRANCH  23  24
ATOM     24  C   UNL     1      13.317  -7.921 -24.063  1.00  0.00    -0.000 C 
BRANCH  24  25
ATOM     25  C   UNL     1      12.121  -7.279 -24.789  1.00  0.00    -0.000 C 
BRANCH  25  26
ATOM     26  C   UNL     1      10.983  -6.895 -23.830  1.00  0.00    -0.000 C 
BRANCH  26  27
ATOM     27  C   UNL     1       9.603  -6.948 -24.506  1.00  0.00    -0.000 C 
BRANCH  27  28
ATOM     28  C   UNL     1       8.702  -8.061 -23.940  1.00  0.00    -0.000 C 
BRANCH  28  29
ATOM     29  C   UNL     1       8.842  -9.429 -24.634  1.00  0.00    -0.003 C 
ATOM     30  C   UNL     1       8.272 -10.581 -23.808  1.00  0.00     0.004 C 
ENDBRANCH  28  29
ENDBRANCH  27  28
ENDBRANCH  26  27
ENDBRANCH  25  26
ENDBRANCH  24  25
ENDBRANCH  23  24
ENDBRANCH  22  23
ENDBRANCH  21  22
ENDBRANCH  20  21
ENDBRANCH  19  20
ENDBRANCH  18  19
ENDBRANCH  17  18
ENDBRANCH   1  17
TORSDOF 26
ENDMDL
MODEL 9
REMARK VINA RESULT:    -3.936      4.575      7.658
REMARK INTER + INTRA:         -13.511
REMARK INTER:                  -8.536
REMARK INTRA:                  -4.975
REMARK UNBOUND:                -3.593
REMARK SMILES CCCCCCCCCCCCCCCCCCCCCCCCCCCC(=O)[O-]
REMARK SMILES IDX 15 1 16 2 17 3 18 4 19 5 20 6 21 7 22 8 23 9 24 10 25 11
REMARK SMILES IDX 26 12 27 13 28 14 29 15 30 16 14 17 13 18 12 19 11 20 10 21
REMARK SMILES IDX 9 22 8 23 7 24 6 25 5 26 4 27 3 28 2 29 1 30
REMARK H PARENT
REMARK Flexibility Score: inf
ROOT
ATOM      1  C   UNL     1      10.062  -6.198 -25.183  1.00  0.00     0.000 C 
ENDROOT
BRANCH   1   2
ATOM      2  C   UNL     1      10.620  -6.707 -23.837  1.00  0.00     0.000 C 
BRANCH   2   3
ATOM      3  C   UNL     1       9.542  -7.025 -22.783  1.00  0.00     0.000 C 
BRANCH   3   4
ATOM      4  C   UNL     1       9.422  -6.013 -21.628  1.00  0.00     0.000 C 
BRANCH   4   5
ATOM      5  C   UNL     1      10.117  -6.422 -20.317  1.00  0.00     0.000 C 
BRANCH   5   6
ATOM      6  C   UNL     1      11.375  -5.591 -20.017  1.00  0.00     0.000 C 
BRANCH   6   7
ATOM      7  C   UNL     1      12.630  -6.141 -20.719  1.00  0.00     0.000 C 
BRANCH   7   8
ATOM      8  C   UNL     1      13.602  -5.074 -21.263  1.00  0.00     0.000 C 
BRANCH   8   9
ATOM      9  C   UNL     1      13.419  -4.719 -22.750  1.00  0.00     0.000 C 
BRANCH   9  10
ATOM     10  C   UNL     1      13.394  -3.205 -23.003  1.00  0.00     0.000 C 
BRANCH  10  11
ATOM     11  C   UNL     1      12.182  -2.808 -23.860  1.00  0.00     0.000 C 
BRANCH  11  12
ATOM     12  C   UNL     1      10.842  -2.983 -23.122  1.00  0.00     0.006 C 
BRANCH  12  13
ATOM     13  C   UNL     1      10.823  -2.379 -21.707  1.00  0.00     0.053 C 
BRANCH  13  14
ATOM     14  C   UNL     1       9.528  -1.701 -21.385  1.00  0.00     0.041 C 
ATOM     15  O   UNL     1       8.463  -2.064 -21.952  1.00  0.00    -0.550 OA
ATOM     16  O   UNL     1       9.492  -0.677 -20.448  1.00  0.00    -0.550 OA
ENDBRANCH  13  14
ENDBRANCH  12  13
ENDBRANCH  11  12
ENDBRANCH  10  11
ENDBRANCH   9  10
ENDBRANCH   8   9
ENDBRANCH   7   8
ENDBRANCH   6   7
ENDBRANCH   5   6
ENDBRANCH   4   5
ENDBRANCH   3   4
ENDBRANCH   2   3
ENDBRANCH   1   2
BRANCH   1  17
ATOM     17  C   UNL     1      10.757  -6.839 -26.398  1.00  0.00     0.000 C 
BRANCH  17  18
ATOM     18  C   UNL     1      10.403  -8.326 -26.575  1.00  0.00     0.000 C 
BRANCH  18  19
ATOM     19  C   UNL     1      11.608  -9.260 -26.809  1.00  0.00     0.000 C 
BRANCH  19  20
ATOM     20  C   UNL     1      12.970  -8.531 -26.819  1.00  0.00     0.000 C 
BRANCH  20  21
ATOM     21  C   UNL     1      13.941  -9.099 -25.767  1.00  0.00     0.000 C 
BRANCH  21  22
ATOM     22  C   UNL     1      13.321  -9.143 -24.352  1.00  0.00    -0.000 C 
BRANCH  22  23
ATOM     23  C   UNL     1      13.351 -10.541 -23.703  1.00  0.00    -0.000 C 
BRANCH  23  24
ATOM     24  C   UNL     1      12.043 -11.339 -23.831  1.00  0.00    -0.000 C 
BRANCH  24  25
ATOM     25  C   UNL     1      10.861 -10.659 -23.117  1.00  0.00    -0.000 C 
BRANCH  25  26
ATOM     26  C   UNL     1       9.557 -10.735 -23.927  1.00  0.00    -0.000 C 
BRANCH  26  27
ATOM     27  C   UNL     1       9.430 -12.052 -24.712  1.00  0.00    -0.000 C 
BRANCH  27  28
ATOM     28  C   UNL     1       9.078 -11.832 -26.195  1.00  0.00    -0.000 C 
BRANCH  28  29
ATOM     29  C   UNL     1       9.670 -12.870 -27.166  1.00  0.00    -0.003 C 
ATOM     30  C   UNL     1      11.192 -12.982 -27.069  1.00  0.00     0.004 C 
ENDBRANCH  28  29
ENDBRANCH  27  28
ENDBRANCH  26  27
ENDBRANCH  25  26
ENDBRANCH  24  25
ENDBRANCH  23  24
ENDBRANCH  22  23
ENDBRANCH  21  22
ENDBRANCH  20  21
ENDBRANCH  19  20
ENDBRANCH  18  19
ENDBRANCH  17  18
ENDBRANCH   1  17
TORSDOF 26
ENDMDL
