MODEL 1
REMARK VINA RESULT:    -4.099      0.000      0.000
REMARK INTER + INTRA:          -5.662
REMARK INTER:                  -5.297
REMARK INTRA:                  -0.365
REMARK UNBOUND:                -0.365
REMARK SMILES CCOC(=O)C=Cc1ccc(O)c(O)c1
REMARK SMILES IDX 6 1 7 2 4 3 5 4 3 5 2 6 1 7 8 8 15 9 9 10 13 11 10 12 11 13
REMARK SMILES IDX 14 14 12 16
REMARK H PARENT 14 15 12 17
REMARK Flexibility Score: inf
ROOT
ATOM      1  C   UNL     1      -5.875  15.416  21.725  1.00  0.00     0.094 C 
ATOM      2  C   UNL     1      -5.103  16.427  22.146  1.00  0.00     0.016 C 
ENDROOT
BRANCH   1   3
ATOM      3  C   UNL     1      -7.346  15.488  21.741  1.00  0.00     0.330 C 
ATOM      4  O   UNL     1      -8.043  14.497  21.386  1.00  0.00    -0.247 OA
BRANCH   3   5
ATOM      5  O   UNL     1      -7.958  16.679  22.148  1.00  0.00    -0.463 OA
BRANCH   5   6
ATOM      6  C   UNL     1      -8.829  17.439  21.313  1.00  0.00     0.230 C 
ATOM      7  C   UNL     1      -8.186  17.696  19.955  1.00  0.00     0.049 C 
ENDBRANCH   5   6
ENDBRANCH   3   5
ENDBRANCH   1   3
BRANCH   2   8
ATOM      8  C   UNL     1      -3.619  16.392  22.132  1.00  0.00    -0.021 A 
ATOM      9  C   UNL     1      -2.888  15.616  21.212  1.00  0.00     0.058 A 
ATOM     10  C   UNL     1      -2.921  17.134  23.095  1.00  0.00     0.012 A 
ATOM     11  C   UNL     1      -1.487  15.598  21.236  1.00  0.00     0.157 A 
ATOM     12  C   UNL     1      -1.525  17.124  23.125  1.00  0.00     0.051 A 
ATOM     13  C   UNL     1      -0.797  16.367  22.202  1.00  0.00     0.157 A 
BRANCH  11  14
ATOM     14  O   UNL     1      -0.829  14.805  20.294  1.00  0.00    -0.504 OA
ATOM     15  H   UNL     1      -1.029  14.821  19.304  1.00  0.00     0.293 HD
ENDBRANCH  11  14
BRANCH  13  16
ATOM     16  O   UNL     1       0.597  16.407  22.281  1.00  0.00    -0.504 OA
ATOM     17  H   UNL     1       1.108  16.924  22.981  1.00  0.00     0.293 HD
ENDBRANCH  13  16
ENDBRANCH   2   8
TORSDOF 6
ENDMDL
MODEL 2
REMARK VINA RESULT:    -3.834      1.327      1.979
REMARK INTER + INTRA:          -5.320
REMARK INTER:                  -5.027
REMARK INTRA:                  -0.293
REMARK UNBOUND:                -0.365
REMARK SMILES CCOC(=O)C=Cc1ccc(O)c(O)c1
REMARK SMILES IDX 6 1 7 2 4 3 5 4 3 5 2 6 1 7 8 8 15 9 9 10 13 11 10 12 11 13
REMARK SMILES IDX 14 14 12 16
REMARK H PARENT 14 15 12 17
REMARK Flexibility Score: inf
ROOT
ATOM      1  C   UNL     1      -6.605  16.182  21.261  1.00  0.00     0.094 C 
ATOM      2  C   UNL     1      -5.596  15.666  21.976  1.00  0.00     0.016 C 
ENDROOT
BRANCH   1   3
ATOM      3  C   UNL     1      -8.003  15.756  21.449  1.00  0.00     0.330 C 
ATOM      4  O   UNL     1      -8.280  14.551  21.705  1.00  0.00    -0.247 OA
BRANCH   3   5
ATOM      5  O   UNL     1      -9.021  16.709  21.328  1.00  0.00    -0.463 OA
BRANCH   5   6
ATOM      6  C   UNL     1      -8.775  18.106  21.183  1.00  0.00     0.230 C 
ATOM      7  C   UNL     1      -9.032  18.552  19.748  1.00  0.00     0.049 C 
ENDBRANCH   5   6
ENDBRANCH   3   5
ENDBRANCH   1   3
BRANCH   2   8
ATOM      8  C   UNL     1      -4.180  16.082  21.820  1.00  0.00    -0.021 A 
ATOM      9  C   UNL     1      -3.718  17.357  22.197  1.00  0.00     0.058 A 
ATOM     10  C   UNL     1      -3.276  15.179  21.242  1.00  0.00     0.012 A 
ATOM     11  C   UNL     1      -2.375  17.718  22.024  1.00  0.00     0.157 A 
ATOM     12  C   UNL     1      -1.935  15.530  21.069  1.00  0.00     0.051 A 
ATOM     13  C   UNL     1      -1.471  16.790  21.458  1.00  0.00     0.157 A 
BRANCH  11  14
ATOM     14  O   UNL     1      -1.989  19.000  22.421  1.00  0.00    -0.504 OA
ATOM     15  H   UNL     1      -1.764  19.746  21.778  1.00  0.00     0.293 HD
ENDBRANCH  11  14
BRANCH  13  16
ATOM     16  O   UNL     1      -0.118  17.075  21.264  1.00  0.00    -0.504 OA
ATOM     17  H   UNL     1       0.456  17.570  21.931  1.00  0.00     0.293 HD
ENDBRANCH  13  16
ENDBRANCH   2   8
TORSDOF 6
ENDMDL
MODEL 3
REMARK VINA RESULT:    -3.817      1.433      6.873
REMARK INTER + INTRA:          -5.297
REMARK INTER:                  -5.077
REMARK INTRA:                  -0.220
REMARK UNBOUND:                -0.365
REMARK SMILES CCOC(=O)C=Cc1ccc(O)c(O)c1
REMARK SMILES IDX 6 1 7 2 4 3 5 4 3 5 2 6 1 7 8 8 15 9 9 10 13 11 10 12 11 13
REMARK SMILES IDX 14 14 12 16
REMARK H PARENT 14 15 12 17
REMARK Flexibility Score: inf
ROOT
ATOM      1  C   UNL     1      -2.786  16.397  21.675  1.00  0.00     0.094 C 
ATOM      2  C   UNL     1      -3.870  17.114  22.004  1.00  0.00     0.016 C 
ENDROOT
BRANCH   1   3
ATOM      3  C   UNL     1      -1.421  16.938  21.784  1.00  0.00     0.330 C 
ATOM      4  O   UNL     1      -1.124  18.047  21.261  1.00  0.00    -0.247 OA
BRANCH   3   5
ATOM      5  O   UNL     1      -0.454  16.195  22.471  1.00  0.00    -0.463 OA
BRANCH   5   6
ATOM      6  C   UNL     1       0.872  15.994  21.987  1.00  0.00     0.230 C 
ATOM      7  C   UNL     1       1.882  16.092  23.123  1.00  0.00     0.049 C 
ENDBRANCH   5   6
ENDBRANCH   3   5
ENDBRANCH   1   3
BRANCH   2   8
ATOM      8  C   UNL     1      -5.258  16.595  21.917  1.00  0.00    -0.021 A 
ATOM      9  C   UNL     1      -6.385  17.396  22.182  1.00  0.00     0.058 A 
ATOM     10  C   UNL     1      -5.450  15.244  21.594  1.00  0.00     0.012 A 
ATOM     11  C   UNL     1      -7.680  16.867  22.101  1.00  0.00     0.157 A 
ATOM     12  C   UNL     1      -6.737  14.710  21.508  1.00  0.00     0.051 A 
ATOM     13  C   UNL     1      -7.859  15.508  21.754  1.00  0.00     0.157 A 
BRANCH  11  14
ATOM     14  O   UNL     1      -8.751  17.721  22.377  1.00  0.00    -0.504 OA
ATOM     15  H   UNL     1      -8.858  18.640  21.974  1.00  0.00     0.293 HD
ENDBRANCH  11  14
BRANCH  13  16
ATOM     16  O   UNL     1      -9.118  14.914  21.645  1.00  0.00    -0.504 OA
ATOM     17  H   UNL     1      -9.971  15.335  21.984  1.00  0.00     0.293 HD
ENDBRANCH  13  16
ENDBRANCH   2   8
TORSDOF 6
ENDMDL
MODEL 4
REMARK VINA RESULT:    -3.747      1.333      6.648
REMARK INTER + INTRA:          -5.208
REMARK INTER:                  -4.966
REMARK INTRA:                  -0.242
REMARK UNBOUND:                -0.365
REMARK SMILES CCOC(=O)C=Cc1ccc(O)c(O)c1
REMARK SMILES IDX 6 1 7 2 4 3 5 4 3 5 2 6 1 7 8 8 15 9 9 10 13 11 10 12 11 13
REMARK SMILES IDX 14 14 12 16
REMARK H PARENT 14 15 12 17
REMARK Flexibility Score: inf
ROOT
ATOM      1  C   UNL     1      -2.542  16.448  21.640  1.00  0.00     0.094 C 
ATOM      2  C   UNL     1      -3.617  15.648  21.682  1.00  0.00     0.016 C 
ENDROOT
BRANCH   1   3
ATOM      3  C   UNL     1      -1.170  15.920  21.556  1.00  0.00     0.330 C 
ATOM      4  O   UNL     1      -0.933  14.834  20.957  1.00  0.00    -0.247 OA
BRANCH   3   5
ATOM      5  O   UNL     1      -0.133  16.638  22.162  1.00  0.00    -0.463 OA
BRANCH   5   6
ATOM      6  C   UNL     1       0.932  16.021  22.883  1.00  0.00     0.230 C 
ATOM      7  C   UNL     1       2.261  16.234  22.169  1.00  0.00     0.049 C 
ENDBRANCH   5   6
ENDBRANCH   3   5
ENDBRANCH   1   3
BRANCH   2   8
ATOM      8  C   UNL     1      -5.013  16.148  21.754  1.00  0.00    -0.021 A 
ATOM      9  C   UNL     1      -6.128  15.318  21.533  1.00  0.00     0.058 A 
ATOM     10  C   UNL     1      -5.225  17.509  22.019  1.00  0.00     0.012 A 
ATOM     11  C   UNL     1      -7.431  15.829  21.597  1.00  0.00     0.157 A 
ATOM     12  C   UNL     1      -6.520  18.026  22.088  1.00  0.00     0.051 A 
ATOM     13  C   UNL     1      -7.630  17.199  21.884  1.00  0.00     0.157 A 
BRANCH  11  14
ATOM     14  O   UNL     1      -8.489  14.947  21.366  1.00  0.00    -0.504 OA
ATOM     15  H   UNL     1      -9.416  15.064  21.749  1.00  0.00     0.293 HD
ENDBRANCH  11  14
BRANCH  13  16
ATOM     16  O   UNL     1      -8.898  17.777  21.975  1.00  0.00    -0.504 OA
ATOM     17  H   UNL     1      -9.084  18.757  21.822  1.00  0.00     0.293 HD
ENDBRANCH  13  16
ENDBRANCH   2   8
TORSDOF 6
ENDMDL
MODEL 5
REMARK VINA RESULT:    -3.703      1.129      1.839
REMARK INTER + INTRA:          -5.151
REMARK INTER:                  -4.813
REMARK INTRA:                  -0.338
REMARK UNBOUND:                -0.365
REMARK SMILES CCOC(=O)C=Cc1ccc(O)c(O)c1
REMARK SMILES IDX 6 1 7 2 4 3 5 4 3 5 2 6 1 7 8 8 15 9 9 10 13 11 10 12 11 13
REMARK SMILES IDX 14 14 12 16
REMARK H PARENT 14 15 12 17
REMARK Flexibility Score: inf
ROOT
ATOM      1  C   UNL     1      -5.541  17.935  22.178  1.00  0.00     0.094 C 
ATOM      2  C   UNL     1      -4.924  16.746  22.220  1.00  0.00     0.016 C 
ENDROOT
BRANCH   1   3
ATOM      3  C   UNL     1      -7.007  18.065  22.244  1.00  0.00     0.330 C 
ATOM      4  O   UNL     1      -7.565  19.176  22.027  1.00  0.00    -0.247 OA
BRANCH   3   5
ATOM      5  O   UNL     1      -7.770  16.936  22.561  1.00  0.00    -0.463 OA
BRANCH   5   6
ATOM      6  C   UNL     1      -8.431  16.134  21.584  1.00  0.00     0.230 C 
ATOM      7  C   UNL     1      -7.922  14.698  21.630  1.00  0.00     0.049 C 
ENDBRANCH   5   6
ENDBRANCH   3   5
ENDBRANCH   1   3
BRANCH   2   8
ATOM      8  C   UNL     1      -3.450  16.581  22.168  1.00  0.00    -0.021 A 
ATOM      9  C   UNL     1      -2.811  15.759  21.220  1.00  0.00     0.058 A 
ATOM     10  C   UNL     1      -2.667  17.244  23.125  1.00  0.00     0.012 A 
ATOM     11  C   UNL     1      -1.417  15.619  21.210  1.00  0.00     0.157 A 
ATOM     12  C   UNL     1      -1.277  17.112  23.120  1.00  0.00     0.051 A 
ATOM     13  C   UNL     1      -0.640  16.309  22.169  1.00  0.00     0.157 A 
BRANCH  11  14
ATOM     14  O   UNL     1      -0.853  14.786  20.241  1.00  0.00    -0.504 OA
ATOM     15  H   UNL     1       0.038  14.322  20.345  1.00  0.00     0.293 HD
ENDBRANCH  11  14
BRANCH  13  16
ATOM     16  O   UNL     1       0.754  16.226  22.215  1.00  0.00    -0.504 OA
ATOM     17  H   UNL     1       1.262  15.375  22.406  1.00  0.00     0.293 HD
ENDBRANCH  13  16
ENDBRANCH   2   8
TORSDOF 6
ENDMDL
MODEL 6
REMARK VINA RESULT:    -3.559     11.314     14.846
REMARK INTER + INTRA:          -4.964
REMARK INTER:                  -4.664
REMARK INTRA:                  -0.300
REMARK UNBOUND:                -0.365
REMARK SMILES CCOC(=O)C=Cc1ccc(O)c(O)c1
REMARK SMILES IDX 6 1 7 2 4 3 5 4 3 5 2 6 1 7 8 8 15 9 9 10 13 11 10 12 11 13
REMARK SMILES IDX 14 14 12 16
REMARK H PARENT 14 15 12 17
REMARK Flexibility Score: inf
ROOT
ATOM      1  C   UNL     1       9.103  14.595  21.014  1.00  0.00     0.094 C 
ATOM      2  C   UNL     1      10.117  14.170  20.247  1.00  0.00     0.016 C 
ENDROOT
BRANCH   1   3
ATOM      3  C   UNL     1       8.869  16.022  21.290  1.00  0.00     0.330 C 
ATOM      4  O   UNL     1       9.343  16.912  20.530  1.00  0.00    -0.247 OA
BRANCH   3   5
ATOM      5  O   UNL     1       8.120  16.377  22.418  1.00  0.00    -0.463 OA
BRANCH   5   6
ATOM      6  C   UNL     1       6.805  15.889  22.672  1.00  0.00     0.230 C 
ATOM      7  C   UNL     1       5.837  16.360  21.593  1.00  0.00     0.049 C 
ENDBRANCH   5   6
ENDBRANCH   3   5
ENDBRANCH   1   3
BRANCH   2   8
ATOM      8  C   UNL     1      10.373  12.740  19.939  1.00  0.00    -0.021 A 
ATOM      9  C   UNL     1      10.629  11.783  20.939  1.00  0.00     0.058 A 
ATOM     10  C   UNL     1      10.396  12.338  18.596  1.00  0.00     0.012 A 
ATOM     11  C   UNL     1      10.879  10.445  20.609  1.00  0.00     0.157 A 
ATOM     12  C   UNL     1      10.640  11.005  18.258  1.00  0.00     0.051 A 
ATOM     13  C   UNL     1      10.879  10.050  19.251  1.00  0.00     0.157 A 
BRANCH  11  14
ATOM     14  O   UNL     1      11.125   9.551  21.653  1.00  0.00    -0.504 OA
ATOM     15  H   UNL     1      10.761   9.662  22.589  1.00  0.00     0.293 HD
ENDBRANCH  11  14
BRANCH  13  16
ATOM     16  O   UNL     1      11.110   8.733  18.847  1.00  0.00    -0.504 OA
ATOM     17  H   UNL     1      11.126   7.944  19.476  1.00  0.00     0.293 HD
ENDBRANCH  13  16
ENDBRANCH   2   8
TORSDOF 6
ENDMDL
MODEL 7
REMARK VINA RESULT:    -3.558     12.833     15.348
REMARK INTER + INTRA:          -4.964
REMARK INTER:                  -4.584
REMARK INTRA:                  -0.380
REMARK UNBOUND:                -0.365
REMARK SMILES CCOC(=O)C=Cc1ccc(O)c(O)c1
REMARK SMILES IDX 6 1 7 2 4 3 5 4 3 5 2 6 1 7 8 8 15 9 9 10 13 11 10 12 11 13
REMARK SMILES IDX 14 14 12 16
REMARK H PARENT 14 15 12 17
REMARK Flexibility Score: inf
ROOT
ATOM      1  C   UNL     1      10.565  12.004  19.724  1.00  0.00     0.094 C 
ATOM      2  C   UNL     1      10.029  12.592  20.803  1.00  0.00     0.016 C 
ENDROOT
BRANCH   1   3
ATOM      3  C   UNL     1      10.872  10.564  19.683  1.00  0.00     0.330 C 
ATOM      4  O   UNL     1      10.899   9.942  18.585  1.00  0.00    -0.247 OA
BRANCH   3   5
ATOM      5  O   UNL     1      11.125   9.894  20.885  1.00  0.00    -0.463 OA
BRANCH   5   6
ATOM      6  C   UNL     1      10.632   8.587  21.174  1.00  0.00     0.230 C 
ATOM      7  C   UNL     1       9.144   8.631  21.497  1.00  0.00     0.049 C 
ENDBRANCH   5   6
ENDBRANCH   3   5
ENDBRANCH   1   3
BRANCH   2   8
ATOM      8  C   UNL     1       9.695  14.037  20.873  1.00  0.00    -0.021 A 
ATOM      9  C   UNL     1       8.618  14.531  21.632  1.00  0.00     0.058 A 
ATOM     10  C   UNL     1      10.464  14.939  20.123  1.00  0.00     0.012 A 
ATOM     11  C   UNL     1       8.327  15.901  21.664  1.00  0.00     0.157 A 
ATOM     12  C   UNL     1      10.183  16.306  20.151  1.00  0.00     0.051 A 
ATOM     13  C   UNL     1       9.123  16.801  20.918  1.00  0.00     0.157 A 
BRANCH  11  14
ATOM     14  O   UNL     1       7.243  16.319  22.439  1.00  0.00    -0.504 OA
ATOM     15  H   UNL     1       6.837  17.242  22.392  1.00  0.00     0.293 HD
ENDBRANCH  11  14
BRANCH  13  16
ATOM     16  O   UNL     1       8.899  18.179  20.909  1.00  0.00    -0.504 OA
ATOM     17  H   UNL     1       7.983  18.602  20.928  1.00  0.00     0.293 HD
ENDBRANCH  13  16
ENDBRANCH   2   8
TORSDOF 6
ENDMDL
MODEL 8
REMARK VINA RESULT:    -3.436      8.914     13.386
REMARK INTER + INTRA:          -4.805
REMARK INTER:                  -4.554
REMARK INTRA:                  -0.251
REMARK UNBOUND:                -0.365
REMARK SMILES CCOC(=O)C=Cc1ccc(O)c(O)c1
REMARK SMILES IDX 6 1 7 2 4 3 5 4 3 5 2 6 1 7 8 8 15 9 9 10 13 11 10 12 11 13
REMARK SMILES IDX 14 14 12 16
REMARK H PARENT 14 15 12 17
REMARK Flexibility Score: inf
ROOT
ATOM      1  C   UNL     1       8.822  13.769  21.041  1.00  0.00     0.094 C 
ATOM      2  C   UNL     1       8.340  14.916  21.540  1.00  0.00     0.016 C 
ENDROOT
BRANCH   1   3
ATOM      3  C   UNL     1      10.254  13.573  20.757  1.00  0.00     0.330 C 
ATOM      4  O   UNL     1      11.120  13.757  21.657  1.00  0.00    -0.247 OA
BRANCH   3   5
ATOM      5  O   UNL     1      10.639  13.189  19.468  1.00  0.00    -0.463 OA
BRANCH   5   6
ATOM      6  C   UNL     1      10.858  11.833  19.085  1.00  0.00     0.230 C 
ATOM      7  C   UNL     1       9.987  11.463  17.890  1.00  0.00     0.049 C 
ENDBRANCH   5   6
ENDBRANCH   3   5
ENDBRANCH   1   3
BRANCH   2   8
ATOM      8  C   UNL     1       6.906  15.141  21.849  1.00  0.00    -0.021 A 
ATOM      9  C   UNL     1       6.162  16.191  21.276  1.00  0.00     0.058 A 
ATOM     10  C   UNL     1       6.279  14.295  22.775  1.00  0.00     0.012 A 
ATOM     11  C   UNL     1       4.813  16.379  21.602  1.00  0.00     0.157 A 
ATOM     12  C   UNL     1       4.933  14.474  23.102  1.00  0.00     0.051 A 
ATOM     13  C   UNL     1       4.188  15.506  22.522  1.00  0.00     0.157 A 
BRANCH  11  14
ATOM     14  O   UNL     1       4.139  17.441  20.995  1.00  0.00    -0.504 OA
ATOM     15  H   UNL     1       3.135  17.550  21.001  1.00  0.00     0.293 HD
ENDBRANCH  11  14
BRANCH  13  16
ATOM     16  O   UNL     1       2.846  15.626  22.887  1.00  0.00    -0.504 OA
ATOM     17  H   UNL     1       2.364  14.973  23.488  1.00  0.00     0.293 HD
ENDBRANCH  13  16
ENDBRANCH   2   8
TORSDOF 6
ENDMDL
MODEL 9
REMARK VINA RESULT:    -3.422      7.794     10.903
REMARK INTER + INTRA:          -4.788
REMARK INTER:                  -4.548
REMARK INTRA:                  -0.240
REMARK UNBOUND:                -0.365
REMARK SMILES CCOC(=O)C=Cc1ccc(O)c(O)c1
REMARK SMILES IDX 6 1 7 2 4 3 5 4 3 5 2 6 1 7 8 8 15 9 9 10 13 11 10 12 11 13
REMARK SMILES IDX 14 14 12 16
REMARK H PARENT 14 15 12 17
REMARK Flexibility Score: inf
ROOT
ATOM      1  C   UNL     1       4.969  15.897  21.913  1.00  0.00     0.094 C 
ATOM      2  C   UNL     1       6.141  15.474  22.407  1.00  0.00     0.016 C 
ENDROOT
BRANCH   1   3
ATOM      3  C   UNL     1       3.681  15.556  22.541  1.00  0.00     0.330 C 
ATOM      4  O   UNL     1       3.523  14.448  23.125  1.00  0.00    -0.247 OA
BRANCH   3   5
ATOM      5  O   UNL     1       2.631  16.477  22.470  1.00  0.00    -0.463 OA
BRANCH   5   6
ATOM      6  C   UNL     1       1.336  16.237  23.018  1.00  0.00     0.230 C 
ATOM      7  C   UNL     1       0.319  15.989  21.911  1.00  0.00     0.049 C 
ENDBRANCH   5   6
ENDBRANCH   3   5
ENDBRANCH   1   3
BRANCH   2   8
ATOM      8  C   UNL     1       7.457  15.810  21.807  1.00  0.00    -0.021 A 
ATOM      9  C   UNL     1       8.540  14.910  21.801  1.00  0.00     0.058 A 
ATOM     10  C   UNL     1       7.636  17.087  21.256  1.00  0.00     0.012 A 
ATOM     11  C   UNL     1       9.771  15.267  21.236  1.00  0.00     0.157 A 
ATOM     12  C   UNL     1       8.858  17.450  20.688  1.00  0.00     0.051 A 
ATOM     13  C   UNL     1       9.930  16.552  20.666  1.00  0.00     0.157 A 
BRANCH  11  14
ATOM     14  O   UNL     1      10.800  14.324  21.267  1.00  0.00    -0.504 OA
ATOM     15  H   UNL     1      11.072  13.812  22.093  1.00  0.00     0.293 HD
ENDBRANCH  11  14
BRANCH  13  16
ATOM     16  O   UNL     1      11.123  16.975  20.077  1.00  0.00    -0.504 OA
ATOM     17  H   UNL     1      11.711  17.705  20.452  1.00  0.00     0.293 HD
ENDBRANCH  13  16
ENDBRANCH   2   8
TORSDOF 6
ENDMDL
