MODEL 1
REMARK VINA RESULT:    -6.265      0.000      0.000
REMARK INTER + INTRA:          -8.580
REMARK INTER:                  -7.730
REMARK INTRA:                  -0.850
REMARK UNBOUND:                -0.850
REMARK SMILES CC(C)=CCC[C@@H](C)c1ccc(C)cc1
REMARK SMILES IDX 6 1 7 2 8 3 9 4 13 5 12 6 11 7 14 8 10 9 15 10 5 11 4 12
REMARK SMILES IDX 2 13 1 14 3 15
REMARK H PARENT
REMARK Flexibility Score: inf
ROOT
ATOM      1  C   UNL     1      21.467  78.380  16.763  1.00  0.00     0.012 C 
ENDROOT
BRANCH   1   2
ATOM      2  C   UNL     1      21.230  77.109  15.916  1.00  0.00     0.016 C 
ATOM      3  C   UNL     1      21.108  77.421  14.417  1.00  0.00     0.013 C 
BRANCH   2   4
ATOM      4  C   UNL     1      22.337  76.099  16.159  1.00  0.00    -0.045 A 
ATOM      5  C   UNL     1      25.511  73.239  16.798  1.00  0.00     0.044 C 
ATOM      6  C   UNL     1      24.408  74.237  16.605  1.00  0.00    -0.051 A 
ATOM      7  C   UNL     1      23.070  73.817  16.591  1.00  0.00     0.004 A 
ATOM      8  C   UNL     1      24.707  75.586  16.370  1.00  0.00     0.004 A 
ATOM      9  C   UNL     1      22.043  74.740  16.375  1.00  0.00     0.004 A 
ATOM     10  C   UNL     1      23.682  76.510  16.154  1.00  0.00     0.004 A 
ENDBRANCH   2   4
ENDBRANCH   1   2
BRANCH   1  11
ATOM     11  C   UNL     1      21.182  79.673  15.982  1.00  0.00     0.028 C 
BRANCH  11  12
ATOM     12  C   UNL     1      22.115  80.775  16.418  1.00  0.00    -0.028 C 
ATOM     13  C   UNL     1      23.373  80.938  15.955  1.00  0.00    -0.080 C 
ATOM     14  C   UNL     1      24.176  82.113  16.452  1.00  0.00     0.039 C 
ATOM     15  C   UNL     1      23.997  79.972  14.974  1.00  0.00     0.039 C 
ENDBRANCH  11  12
ENDBRANCH   1  11
TORSDOF 4
ENDMDL
MODEL 2
REMARK VINA RESULT:    -5.756      2.940      7.699
REMARK INTER + INTRA:          -7.952
REMARK INTER:                  -7.479
REMARK INTRA:                  -0.473
REMARK UNBOUND:                -0.850
REMARK SMILES CC(C)=CCC[C@@H](C)c1ccc(C)cc1
REMARK SMILES IDX 6 1 7 2 8 3 9 4 13 5 12 6 11 7 14 8 10 9 15 10 5 11 4 12
REMARK SMILES IDX 2 13 1 14 3 15
REMARK H PARENT
REMARK Flexibility Score: inf
ROOT
ATOM      1  C   UNL     1      25.817  72.646  18.276  1.00  0.00     0.012 C 
ENDROOT
BRANCH   1   2
ATOM      2  C   UNL     1      25.924  73.323  16.891  1.00  0.00     0.016 C 
ATOM      3  C   UNL     1      26.089  72.304  15.754  1.00  0.00     0.013 C 
BRANCH   2   4
ATOM      4  C   UNL     1      24.714  74.206  16.641  1.00  0.00    -0.045 A 
ATOM      5  C   UNL     1      21.289  76.752  15.973  1.00  0.00     0.044 C 
ATOM      6  C   UNL     1      22.480  75.863  16.175  1.00  0.00    -0.051 A 
ATOM      7  C   UNL     1      22.304  74.499  16.447  1.00  0.00     0.004 A 
ATOM      8  C   UNL     1      23.775  76.400  16.163  1.00  0.00     0.004 A 
ATOM      9  C   UNL     1      23.411  73.675  16.673  1.00  0.00     0.004 A 
ATOM     10  C   UNL     1      24.882  75.579  16.388  1.00  0.00     0.004 A 
ENDBRANCH   2   4
ENDBRANCH   1   2
BRANCH   1  11
ATOM     11  C   UNL     1      27.152  72.644  19.038  1.00  0.00     0.028 C 
BRANCH  11  12
ATOM     12  C   UNL     1      27.479  71.259  19.537  1.00  0.00    -0.028 C 
ATOM     13  C   UNL     1      27.997  70.988  20.755  1.00  0.00    -0.080 C 
ATOM     14  C   UNL     1      28.233  69.548  21.131  1.00  0.00     0.039 C 
ATOM     15  C   UNL     1      28.358  72.082  21.732  1.00  0.00     0.039 C 
ENDBRANCH  11  12
ENDBRANCH   1  11
TORSDOF 4
ENDMDL
MODEL 3
REMARK VINA RESULT:    -5.734      1.975      5.598
REMARK INTER + INTRA:          -7.925
REMARK INTER:                  -6.633
REMARK INTRA:                  -1.293
REMARK UNBOUND:                -0.850
REMARK SMILES CC(C)=CCC[C@@H](C)c1ccc(C)cc1
REMARK SMILES IDX 6 1 7 2 8 3 9 4 13 5 12 6 11 7 14 8 10 9 15 10 5 11 4 12
REMARK SMILES IDX 2 13 1 14 3 15
REMARK H PARENT
REMARK Flexibility Score: inf
ROOT
ATOM      1  C   UNL     1      20.875  78.458  14.639  1.00  0.00     0.012 C 
ENDROOT
BRANCH   1   2
ATOM      2  C   UNL     1      20.904  79.215  15.986  1.00  0.00     0.016 C 
ATOM      3  C   UNL     1      21.258  78.296  17.164  1.00  0.00     0.013 C 
BRANCH   2   4
ATOM      4  C   UNL     1      21.873  80.382  15.915  1.00  0.00    -0.045 A 
ATOM      5  C   UNL     1      24.626  83.707  15.774  1.00  0.00     0.044 C 
ATOM      6  C   UNL     1      23.684  82.541  15.799  1.00  0.00    -0.051 A 
ATOM      7  C   UNL     1      22.465  82.602  15.108  1.00  0.00     0.004 A 
ATOM      8  C   UNL     1      23.981  81.407  16.569  1.00  0.00     0.004 A 
ATOM      9  C   UNL     1      21.569  81.531  15.161  1.00  0.00     0.004 A 
ATOM     10  C   UNL     1      23.087  80.336  16.622  1.00  0.00     0.004 A 
ENDBRANCH   2   4
ENDBRANCH   1   2
BRANCH   1  11
ATOM     11  C   UNL     1      21.873  77.291  14.594  1.00  0.00     0.028 C 
BRANCH  11  12
ATOM     12  C   UNL     1      23.201  77.746  14.042  1.00  0.00    -0.028 C 
ATOM     13  C   UNL     1      24.393  77.525  14.639  1.00  0.00    -0.080 C 
ATOM     14  C   UNL     1      25.643  78.004  13.947  1.00  0.00     0.039 C 
ATOM     15  C   UNL     1      24.501  76.832  15.978  1.00  0.00     0.039 C 
ENDBRANCH  11  12
ENDBRANCH   1  11
TORSDOF 4
ENDMDL
MODEL 4
REMARK VINA RESULT:    -5.734      6.494      9.802
REMARK INTER + INTRA:          -7.925
REMARK INTER:                  -6.834
REMARK INTRA:                  -1.091
REMARK UNBOUND:                -0.850
REMARK SMILES CC(C)=CCC[C@@H](C)c1ccc(C)cc1
REMARK SMILES IDX 6 1 7 2 8 3 9 4 13 5 12 6 11 7 14 8 10 9 15 10 5 11 4 12
REMARK SMILES IDX 2 13 1 14 3 15
REMARK H PARENT
REMARK Flexibility Score: inf
ROOT
ATOM      1  C   UNL     1      28.186  72.547  21.543  1.00  0.00     0.012 C 
ENDROOT
BRANCH   1   2
ATOM      2  C   UNL     1      29.283  71.464  21.438  1.00  0.00     0.016 C 
ATOM      3  C   UNL     1      28.696  70.056  21.252  1.00  0.00     0.013 C 
BRANCH   2   4
ATOM      4  C   UNL     1      30.243  71.792  20.308  1.00  0.00    -0.045 A 
ATOM      5  C   UNL     1      33.021  72.712  17.131  1.00  0.00     0.044 C 
ATOM      6  C   UNL     1      32.037  72.382  18.214  1.00  0.00    -0.051 A 
ATOM      7  C   UNL     1      31.113  73.345  18.647  1.00  0.00     0.004 A 
ATOM      8  C   UNL     1      32.077  71.133  18.850  1.00  0.00     0.004 A 
ATOM      9  C   UNL     1      30.220  73.051  19.681  1.00  0.00     0.004 A 
ATOM     10  C   UNL     1      31.185  70.838  19.884  1.00  0.00     0.004 A 
ENDBRANCH   2   4
ENDBRANCH   1   2
BRANCH   1  11
ATOM     11  C   UNL     1      26.852  72.101  20.926  1.00  0.00     0.028 C 
BRANCH  11  12
ATOM     12  C   UNL     1      26.658  72.726  19.566  1.00  0.00    -0.028 C 
ATOM     13  C   UNL     1      26.396  72.032  18.437  1.00  0.00    -0.080 C 
ATOM     14  C   UNL     1      26.186  72.797  17.156  1.00  0.00     0.039 C 
ATOM     15  C   UNL     1      26.327  70.522  18.423  1.00  0.00     0.039 C 
ENDBRANCH  11  12
ENDBRANCH   1  11
TORSDOF 4
ENDMDL
MODEL 5
REMARK VINA RESULT:    -5.724     12.500     13.804
REMARK INTER + INTRA:          -7.912
REMARK INTER:                  -6.827
REMARK INTRA:                  -1.086
REMARK UNBOUND:                -0.850
REMARK SMILES CC(C)=CCC[C@@H](C)c1ccc(C)cc1
REMARK SMILES IDX 6 1 7 2 8 3 9 4 13 5 12 6 11 7 14 8 10 9 15 10 5 11 4 12
REMARK SMILES IDX 2 13 1 14 3 15
REMARK H PARENT
REMARK Flexibility Score: inf
ROOT
ATOM      1  C   UNL     1      29.196  75.342   4.504  1.00  0.00     0.012 C 
ENDROOT
BRANCH   1   2
ATOM      2  C   UNL     1      30.233  74.440   5.211  1.00  0.00     0.016 C 
ATOM      3  C   UNL     1      30.088  74.472   6.740  1.00  0.00     0.013 C 
BRANCH   2   4
ATOM      4  C   UNL     1      30.130  73.015   4.698  1.00  0.00    -0.045 A 
ATOM      5  C   UNL     1      29.889  68.969   3.205  1.00  0.00     0.044 C 
ATOM      6  C   UNL     1      29.961  70.364   3.750  1.00  0.00    -0.051 A 
ATOM      7  C   UNL     1      28.891  71.251   3.566  1.00  0.00     0.004 A 
ATOM      8  C   UNL     1      31.126  70.816   4.386  1.00  0.00     0.004 A 
ATOM      9  C   UNL     1      28.972  72.563   4.040  1.00  0.00     0.004 A 
ATOM     10  C   UNL     1      31.209  72.127   4.861  1.00  0.00     0.004 A 
ENDBRANCH   2   4
ENDBRANCH   1   2
BRANCH   1  11
ATOM     11  C   UNL     1      28.168  75.938   5.479  1.00  0.00     0.028 C 
BRANCH  11  12
ATOM     12  C   UNL     1      26.764  75.711   4.977  1.00  0.00    -0.028 C 
ATOM     13  C   UNL     1      25.987  74.663   5.328  1.00  0.00    -0.080 C 
ATOM     14  C   UNL     1      24.587  74.589   4.777  1.00  0.00     0.039 C 
ATOM     15  C   UNL     1      26.489  73.564   6.236  1.00  0.00     0.039 C 
ENDBRANCH  11  12
ENDBRANCH   1  11
TORSDOF 4
ENDMDL
MODEL 6
REMARK VINA RESULT:    -5.652      2.926      5.781
REMARK INTER + INTRA:          -7.824
REMARK INTER:                  -7.365
REMARK INTRA:                  -0.459
REMARK UNBOUND:                -0.850
REMARK SMILES CC(C)=CCC[C@@H](C)c1ccc(C)cc1
REMARK SMILES IDX 6 1 7 2 8 3 9 4 13 5 12 6 11 7 14 8 10 9 15 10 5 11 4 12
REMARK SMILES IDX 2 13 1 14 3 15
REMARK H PARENT
REMARK Flexibility Score: inf
ROOT
ATOM      1  C   UNL     1      25.123  74.118  17.259  1.00  0.00     0.012 C 
ENDROOT
BRANCH   1   2
ATOM      2  C   UNL     1      25.416  72.611  17.083  1.00  0.00     0.016 C 
ATOM      3  C   UNL     1      26.104  72.302  15.745  1.00  0.00     0.013 C 
BRANCH   2   4
ATOM      4  C   UNL     1      26.253  72.097  18.241  1.00  0.00    -0.045 A 
ATOM      5  C   UNL     1      28.682  70.666  21.514  1.00  0.00     0.044 C 
ATOM      6  C   UNL     1      27.815  71.162  20.396  1.00  0.00    -0.051 A 
ATOM      7  C   UNL     1      27.217  70.254  19.509  1.00  0.00     0.004 A 
ATOM      8  C   UNL     1      27.649  72.538  20.185  1.00  0.00     0.004 A 
ATOM      9  C   UNL     1      26.439  70.716  18.444  1.00  0.00     0.004 A 
ATOM     10  C   UNL     1      26.872  73.002  19.121  1.00  0.00     0.004 A 
ENDBRANCH   2   4
ENDBRANCH   1   2
BRANCH   1  11
ATOM     11  C   UNL     1      23.717  74.508  16.778  1.00  0.00     0.028 C 
BRANCH  11  12
ATOM     12  C   UNL     1      23.719  75.902  16.201  1.00  0.00    -0.028 C 
ATOM     13  C   UNL     1      22.617  76.549  15.763  1.00  0.00    -0.080 C 
ATOM     14  C   UNL     1      22.767  77.958  15.249  1.00  0.00     0.039 C 
ATOM     15  C   UNL     1      21.254  75.896  15.759  1.00  0.00     0.039 C 
ENDBRANCH  11  12
ENDBRANCH   1  11
TORSDOF 4
ENDMDL
MODEL 7
REMARK VINA RESULT:    -5.644      1.975      3.131
REMARK INTER + INTRA:          -7.813
REMARK INTER:                  -6.704
REMARK INTRA:                  -1.109
REMARK UNBOUND:                -0.850
REMARK SMILES CC(C)=CCC[C@@H](C)c1ccc(C)cc1
REMARK SMILES IDX 6 1 7 2 8 3 9 4 13 5 12 6 11 7 14 8 10 9 15 10 5 11 4 12
REMARK SMILES IDX 2 13 1 14 3 15
REMARK H PARENT
REMARK Flexibility Score: inf
ROOT
ATOM      1  C   UNL     1      21.405  77.323  15.508  1.00  0.00     0.012 C 
ENDROOT
BRANCH   1   2
ATOM      2  C   UNL     1      22.616  76.638  16.181  1.00  0.00     0.016 C 
ATOM      3  C   UNL     1      22.415  75.124  16.343  1.00  0.00     0.013 C 
BRANCH   2   4
ATOM      4  C   UNL     1      23.886  76.923  15.399  1.00  0.00    -0.045 A 
ATOM      5  C   UNL     1      27.475  77.708  13.127  1.00  0.00     0.044 C 
ATOM      6  C   UNL     1      26.233  77.461  13.931  1.00  0.00    -0.051 A 
ATOM      7  C   UNL     1      26.298  76.729  15.125  1.00  0.00     0.004 A 
ATOM      8  C   UNL     1      24.987  77.901  13.461  1.00  0.00     0.004 A 
ATOM      9  C   UNL     1      25.136  76.466  15.856  1.00  0.00     0.004 A 
ATOM     10  C   UNL     1      23.825  77.640  14.190  1.00  0.00     0.004 A 
ENDBRANCH   2   4
ENDBRANCH   1   2
BRANCH   1  11
ATOM     11  C   UNL     1      20.876  78.517  16.316  1.00  0.00     0.028 C 
BRANCH  11  12
ATOM     12  C   UNL     1      21.183  79.815  15.612  1.00  0.00    -0.028 C 
ATOM     13  C   UNL     1      22.153  80.676  15.989  1.00  0.00    -0.080 C 
ATOM     14  C   UNL     1      22.372  81.918  15.163  1.00  0.00     0.039 C 
ATOM     15  C   UNL     1      23.005  80.438  17.215  1.00  0.00     0.039 C 
ENDBRANCH  11  12
ENDBRANCH   1  11
TORSDOF 4
ENDMDL
MODEL 8
REMARK VINA RESULT:    -5.640     11.784     13.594
REMARK INTER + INTRA:          -7.808
REMARK INTER:                  -6.514
REMARK INTRA:                  -1.295
REMARK UNBOUND:                -0.850
REMARK SMILES CC(C)=CCC[C@@H](C)c1ccc(C)cc1
REMARK SMILES IDX 6 1 7 2 8 3 9 4 13 5 12 6 11 7 14 8 10 9 15 10 5 11 4 12
REMARK SMILES IDX 2 13 1 14 3 15
REMARK H PARENT
REMARK Flexibility Score: inf
ROOT
ATOM      1  C   UNL     1      30.541  74.632   6.478  1.00  0.00     0.012 C 
ENDROOT
BRANCH   1   2
ATOM      2  C   UNL     1      29.520  75.766   6.229  1.00  0.00     0.016 C 
ATOM      3  C   UNL     1      29.942  76.687   5.074  1.00  0.00     0.013 C 
BRANCH   2   4
ATOM      4  C   UNL     1      28.141  75.187   5.968  1.00  0.00    -0.045 A 
ATOM      5  C   UNL     1      24.243  73.487   5.208  1.00  0.00     0.044 C 
ATOM      6  C   UNL     1      25.585  74.093   5.494  1.00  0.00    -0.051 A 
ATOM      7  C   UNL     1      25.979  75.274   4.850  1.00  0.00     0.004 A 
ATOM      8  C   UNL     1      26.483  73.447   6.356  1.00  0.00     0.004 A 
ATOM      9  C   UNL     1      27.244  75.820   5.088  1.00  0.00     0.004 A 
ATOM     10  C   UNL     1      27.747  73.991   6.595  1.00  0.00     0.004 A 
ENDBRANCH   2   4
ENDBRANCH   1   2
BRANCH   1  11
ATOM     11  C   UNL     1      31.170  74.106   5.179  1.00  0.00     0.028 C 
BRANCH  11  12
ATOM     12  C   UNL     1      31.172  72.598   5.160  1.00  0.00    -0.028 C 
ATOM     13  C   UNL     1      30.276  71.841   4.490  1.00  0.00    -0.080 C 
ATOM     14  C   UNL     1      30.428  70.343   4.530  1.00  0.00     0.039 C 
ATOM     15  C   UNL     1      29.127  72.453   3.722  1.00  0.00     0.039 C 
ENDBRANCH  11  12
ENDBRANCH   1  11
TORSDOF 4
ENDMDL
MODEL 9
REMARK VINA RESULT:    -5.554     12.277     14.367
REMARK INTER + INTRA:          -7.703
REMARK INTER:                  -6.687
REMARK INTRA:                  -1.016
REMARK UNBOUND:                -0.850
REMARK SMILES CC(C)=CCC[C@@H](C)c1ccc(C)cc1
REMARK SMILES IDX 6 1 7 2 8 3 9 4 13 5 12 6 11 7 14 8 10 9 15 10 5 11 4 12
REMARK SMILES IDX 2 13 1 14 3 15
REMARK H PARENT
REMARK Flexibility Score: inf
ROOT
ATOM      1  C   UNL     1      30.791  72.856   6.020  1.00  0.00     0.012 C 
ENDROOT
BRANCH   1   2
ATOM      2  C   UNL     1      30.289  74.309   6.175  1.00  0.00     0.016 C 
ATOM      3  C   UNL     1      31.077  75.295   5.300  1.00  0.00     0.013 C 
BRANCH   2   4
ATOM      4  C   UNL     1      28.805  74.391   5.862  1.00  0.00    -0.045 A 
ATOM      5  C   UNL     1      24.587  74.570   4.948  1.00  0.00     0.044 C 
ATOM      6  C   UNL     1      26.047  74.524   5.290  1.00  0.00    -0.051 A 
ATOM      7  C   UNL     1      26.922  75.494   4.781  1.00  0.00     0.004 A 
ATOM      8  C   UNL     1      26.560  73.474   6.064  1.00  0.00     0.004 A 
ATOM      9  C   UNL     1      28.289  75.432   5.068  1.00  0.00     0.004 A 
ATOM     10  C   UNL     1      27.925  73.410   6.353  1.00  0.00     0.004 A 
ENDBRANCH   2   4
ENDBRANCH   1   2
BRANCH   1  11
ATOM     11  C   UNL     1      31.160  72.509   4.570  1.00  0.00     0.028 C 
BRANCH  11  12
ATOM     12  C   UNL     1      31.089  71.019   4.343  1.00  0.00    -0.028 C 
ATOM     13  C   UNL     1      29.988  70.363   3.918  1.00  0.00    -0.080 C 
ATOM     14  C   UNL     1      30.078  68.875   3.697  1.00  0.00     0.039 C 
ATOM     15  C   UNL     1      28.676  71.073   3.678  1.00  0.00     0.039 C 
ENDBRANCH  11  12
ENDBRANCH   1  11
TORSDOF 4
ENDMDL
