MODEL 1
REMARK VINA RESULT:    -2.727      0.000      0.000
REMARK INTER + INTRA:          -3.854
REMARK INTER:                  -3.365
REMARK INTRA:                  -0.489
REMARK UNBOUND:                -0.489
REMARK SMILES CCCCC=CC(C)=O
REMARK SMILES IDX 4 1 3 2 2 3 1 4 5 5 6 6 7 7 9 8 8 9
REMARK H PARENT
REMARK Flexibility Score: inf
ROOT
ATOM      1  C   UNL     1      59.345   6.336  30.472  1.00  0.00     0.027 C 
ENDROOT
BRANCH   1   2
ATOM      2  C   UNL     1      58.845   4.895  30.691  1.00  0.00     0.004 C 
BRANCH   2   3
ATOM      3  C   UNL     1      59.688   3.823  29.977  1.00  0.00    -0.003 C 
ATOM      4  C   UNL     1      60.128   2.694  30.908  1.00  0.00     0.004 C 
ENDBRANCH   2   3
ENDBRANCH   1   2
BRANCH   1   5
ATOM      5  C   UNL     1      59.804   6.998  31.745  1.00  0.00    -0.023 C 
ATOM      6  C   UNL     1      61.079   7.153  32.135  1.00  0.00     0.042 C 
BRANCH   6   7
ATOM      7  C   UNL     1      62.279   6.799  31.350  1.00  0.00     0.152 C 
ATOM      8  O   UNL     1      62.801   7.681  30.620  1.00  0.00    -0.295 OA
ATOM      9  C   UNL     1      62.854   5.417  31.335  1.00  0.00     0.093 C 
ENDBRANCH   6   7
ENDBRANCH   1   5
TORSDOF 4
ENDMDL
MODEL 2
REMARK VINA RESULT:    -2.710      1.482      2.754
REMARK INTER + INTRA:          -3.832
REMARK INTER:                  -3.242
REMARK INTRA:                  -0.591
REMARK UNBOUND:                -0.489
REMARK SMILES CCCCC=CC(C)=O
REMARK SMILES IDX 4 1 3 2 2 3 1 4 5 5 6 6 7 7 9 8 8 9
REMARK H PARENT
REMARK Flexibility Score: inf
ROOT
ATOM      1  C   UNL     1      60.279   4.927  31.748  1.00  0.00     0.027 C 
ENDROOT
BRANCH   1   2
ATOM      2  C   UNL     1      59.452   5.423  30.546  1.00  0.00     0.004 C 
BRANCH   2   3
ATOM      3  C   UNL     1      58.631   6.693  30.831  1.00  0.00    -0.003 C 
ATOM      4  C   UNL     1      58.944   7.312  32.193  1.00  0.00     0.004 C 
ENDBRANCH   2   3
ENDBRANCH   1   2
BRANCH   1   5
ATOM      5  C   UNL     1      61.698   4.579  31.381  1.00  0.00    -0.023 C 
ATOM      6  C   UNL     1      62.726   5.438  31.313  1.00  0.00     0.042 C 
BRANCH   6   7
ATOM      7  C   UNL     1      62.692   6.868  31.682  1.00  0.00     0.152 C 
ATOM      8  O   UNL     1      62.788   7.178  32.898  1.00  0.00    -0.295 OA
ATOM      9  C   UNL     1      62.477   7.956  30.675  1.00  0.00     0.093 C 
ENDBRANCH   6   7
ENDBRANCH   1   5
TORSDOF 4
ENDMDL
MODEL 3
REMARK VINA RESULT:    -2.563      1.923      3.367
REMARK INTER + INTRA:          -3.652
REMARK INTER:                  -3.109
REMARK INTRA:                  -0.543
REMARK UNBOUND:                -0.489
REMARK SMILES CCCCC=CC(C)=O
REMARK SMILES IDX 4 1 3 2 2 3 1 4 5 5 6 6 7 7 9 8 8 9
REMARK H PARENT
REMARK Flexibility Score: inf
ROOT
ATOM      1  C   UNL     1      59.079   6.279  30.202  1.00  0.00     0.027 C 
ENDROOT
BRANCH   1   2
ATOM      2  C   UNL     1      57.935   6.641  31.167  1.00  0.00     0.004 C 
BRANCH   2   3
ATOM      3  C   UNL     1      58.403   7.313  32.471  1.00  0.00    -0.003 C 
ATOM      4  C   UNL     1      59.882   7.700  32.444  1.00  0.00     0.004 C 
ENDBRANCH   2   3
ENDBRANCH   1   2
BRANCH   1   5
ATOM      5  C   UNL     1      59.222   4.794  29.992  1.00  0.00    -0.023 C 
ATOM      6  C   UNL     1      60.116   3.997  30.596  1.00  0.00     0.042 C 
BRANCH   6   7
ATOM      7  C   UNL     1      61.063   4.397  31.657  1.00  0.00     0.152 C 
ATOM      8  O   UNL     1      60.710   4.267  32.858  1.00  0.00    -0.295 OA
ATOM      9  C   UNL     1      62.393   5.016  31.359  1.00  0.00     0.093 C 
ENDBRANCH   6   7
ENDBRANCH   1   5
TORSDOF 4
ENDMDL
MODEL 4
REMARK VINA RESULT:    -2.550     16.314     16.785
REMARK INTER + INTRA:          -3.634
REMARK INTER:                  -3.050
REMARK INTRA:                  -0.584
REMARK UNBOUND:                -0.489
REMARK SMILES CCCCC=CC(C)=O
REMARK SMILES IDX 4 1 3 2 2 3 1 4 5 5 6 6 7 7 9 8 8 9
REMARK H PARENT
REMARK Flexibility Score: inf
ROOT
ATOM      1  C   UNL     1      58.515   3.325  46.815  1.00  0.00     0.027 C 
ENDROOT
BRANCH   1   2
ATOM      2  C   UNL     1      57.875   2.503  47.950  1.00  0.00     0.004 C 
BRANCH   2   3
ATOM      3  C   UNL     1      58.249   1.010  47.931  1.00  0.00    -0.003 C 
ATOM      4  C   UNL     1      58.663   0.517  46.544  1.00  0.00     0.004 C 
ENDBRANCH   2   3
ENDBRANCH   1   2
BRANCH   1   5
ATOM      5  C   UNL     1      59.505   4.344  47.315  1.00  0.00    -0.023 C 
ATOM      6  C   UNL     1      60.772   4.095  47.682  1.00  0.00     0.042 C 
BRANCH   6   7
ATOM      7  C   UNL     1      61.472   2.799  47.572  1.00  0.00     0.152 C 
ATOM      8  O   UNL     1      61.635   2.112  48.614  1.00  0.00    -0.295 OA
ATOM      9  C   UNL     1      62.057   2.306  46.285  1.00  0.00     0.093 C 
ENDBRANCH   6   7
ENDBRANCH   1   5
TORSDOF 4
ENDMDL
MODEL 5
REMARK VINA RESULT:    -2.545     21.435     23.007
REMARK INTER + INTRA:          -3.629
REMARK INTER:                  -3.042
REMARK INTRA:                  -0.587
REMARK UNBOUND:                -0.489
REMARK SMILES CCCCC=CC(C)=O
REMARK SMILES IDX 4 1 3 2 2 3 1 4 5 5 6 6 7 7 9 8 8 9
REMARK H PARENT
REMARK Flexibility Score: inf
ROOT
ATOM      1  C   UNL     1      75.420  10.285  48.459  1.00  0.00     0.027 C 
ENDROOT
BRANCH   1   2
ATOM      2  C   UNL     1      76.568  10.950  49.243  1.00  0.00     0.004 C 
BRANCH   2   3
ATOM      3  C   UNL     1      77.859  11.137  48.427  1.00  0.00    -0.003 C 
ATOM      4  C   UNL     1      78.125   9.984  47.459  1.00  0.00     0.004 C 
ENDBRANCH   2   3
ENDBRANCH   1   2
BRANCH   1   5
ATOM      5  C   UNL     1      74.371  11.267  48.009  1.00  0.00    -0.023 C 
ATOM      6  C   UNL     1      74.318  11.868  46.810  1.00  0.00     0.042 C 
BRANCH   6   7
ATOM      7  C   UNL     1      75.215  11.608  45.666  1.00  0.00     0.152 C 
ATOM      8  O   UNL     1      75.103  10.517  45.049  1.00  0.00    -0.295 OA
ATOM      9  C   UNL     1      76.296  12.560  45.256  1.00  0.00     0.093 C 
ENDBRANCH   6   7
ENDBRANCH   1   5
TORSDOF 4
ENDMDL
MODEL 6
REMARK VINA RESULT:    -2.506     16.357     17.050
REMARK INTER + INTRA:          -3.581
REMARK INTER:                  -2.997
REMARK INTRA:                  -0.585
REMARK UNBOUND:                -0.489
REMARK SMILES CCCCC=CC(C)=O
REMARK SMILES IDX 4 1 3 2 2 3 1 4 5 5 6 6 7 7 9 8 8 9
REMARK H PARENT
REMARK Flexibility Score: inf
ROOT
ATOM      1  C   UNL     1      60.282   3.856  47.607  1.00  0.00     0.027 C 
ENDROOT
BRANCH   1   2
ATOM      2  C   UNL     1      60.962   3.576  46.254  1.00  0.00     0.004 C 
BRANCH   2   3
ATOM      3  C   UNL     1      62.088   2.529  46.322  1.00  0.00    -0.003 C 
ATOM      4  C   UNL     1      62.102   1.754  47.639  1.00  0.00     0.004 C 
ENDBRANCH   2   3
ENDBRANCH   1   2
BRANCH   1   5
ATOM      5  C   UNL     1      58.781   3.934  47.505  1.00  0.00    -0.023 C 
ATOM      6  C   UNL     1      57.937   2.891  47.513  1.00  0.00     0.042 C 
BRANCH   6   7
ATOM      7  C   UNL     1      58.302   1.476  47.727  1.00  0.00     0.152 C 
ATOM      8  O   UNL     1      58.352   1.040  48.907  1.00  0.00    -0.295 OA
ATOM      9  C   UNL     1      58.684   0.563  46.604  1.00  0.00     0.093 C 
ENDBRANCH   6   7
ENDBRANCH   1   5
TORSDOF 4
ENDMDL
MODEL 7
REMARK VINA RESULT:    -2.497      1.799      4.074
REMARK INTER + INTRA:          -3.570
REMARK INTER:                  -2.958
REMARK INTRA:                  -0.612
REMARK UNBOUND:                -0.489
REMARK SMILES CCCCC=CC(C)=O
REMARK SMILES IDX 4 1 3 2 2 3 1 4 5 5 6 6 7 7 9 8 8 9
REMARK H PARENT
REMARK Flexibility Score: inf
ROOT
ATOM      1  C   UNL     1      62.160   5.184  31.382  1.00  0.00     0.027 C 
ENDROOT
BRANCH   1   2
ATOM      2  C   UNL     1      62.563   5.943  32.661  1.00  0.00     0.004 C 
BRANCH   2   3
ATOM      3  C   UNL     1      62.737   7.459  32.463  1.00  0.00    -0.003 C 
ATOM      4  C   UNL     1      62.694   7.876  30.993  1.00  0.00     0.004 C 
ENDBRANCH   2   3
ENDBRANCH   1   2
BRANCH   1   5
ATOM      5  C   UNL     1      60.885   4.399  31.543  1.00  0.00    -0.023 C 
ATOM      6  C   UNL     1      59.640   4.895  31.463  1.00  0.00     0.042 C 
BRANCH   6   7
ATOM      7  C   UNL     1      59.276   6.279  31.100  1.00  0.00     0.152 C 
ATOM      8  O   UNL     1      59.240   6.592  29.881  1.00  0.00    -0.295 OA
ATOM      9  C   UNL     1      59.019   7.340  32.124  1.00  0.00     0.093 C 
ENDBRANCH   6   7
ENDBRANCH   1   5
TORSDOF 4
ENDMDL
MODEL 8
REMARK VINA RESULT:    -2.483      1.355      2.051
REMARK INTER + INTRA:          -3.552
REMARK INTER:                  -3.074
REMARK INTRA:                  -0.478
REMARK UNBOUND:                -0.489
REMARK SMILES CCCCC=CC(C)=O
REMARK SMILES IDX 4 1 3 2 2 3 1 4 5 5 6 6 7 7 9 8 8 9
REMARK H PARENT
REMARK Flexibility Score: inf
ROOT
ATOM      1  C   UNL     1      59.420   7.729  32.311  1.00  0.00     0.027 C 
ENDROOT
BRANCH   1   2
ATOM      2  C   UNL     1      58.459   6.801  31.543  1.00  0.00     0.004 C 
BRANCH   2   3
ATOM      3  C   UNL     1      58.996   6.333  30.179  1.00  0.00    -0.003 C 
ATOM      4  C   UNL     1      59.324   4.841  30.148  1.00  0.00     0.004 C 
ENDBRANCH   2   3
ENDBRANCH   1   2
BRANCH   1   5
ATOM      5  C   UNL     1      60.310   6.986  33.273  1.00  0.00    -0.023 C 
ATOM      6  C   UNL     1      61.545   6.530  33.010  1.00  0.00     0.042 C 
BRANCH   6   7
ATOM      7  C   UNL     1      62.310   6.756  31.768  1.00  0.00     0.152 C 
ATOM      8  O   UNL     1      62.653   5.757  31.082  1.00  0.00    -0.295 OA
ATOM      9  C   UNL     1      62.754   8.117  31.330  1.00  0.00     0.093 C 
ENDBRANCH   6   7
ENDBRANCH   1   5
TORSDOF 4
ENDMDL
MODEL 9
REMARK VINA RESULT:    -2.456      2.083      3.683
REMARK INTER + INTRA:          -3.520
REMARK INTER:                  -2.948
REMARK INTRA:                  -0.572
REMARK UNBOUND:                -0.489
REMARK SMILES CCCCC=CC(C)=O
REMARK SMILES IDX 4 1 3 2 2 3 1 4 5 5 6 6 7 7 9 8 8 9
REMARK H PARENT
REMARK Flexibility Score: inf
ROOT
ATOM      1  C   UNL     1      60.763   6.627  31.810  1.00  0.00     0.027 C 
ENDROOT
BRANCH   1   2
ATOM      2  C   UNL     1      62.223   6.622  31.318  1.00  0.00     0.004 C 
BRANCH   2   3
ATOM      3  C   UNL     1      62.900   5.241  31.374  1.00  0.00    -0.003 C 
ATOM      4  C   UNL     1      62.490   4.426  32.600  1.00  0.00     0.004 C 
ENDBRANCH   2   3
ENDBRANCH   1   2
BRANCH   1   5
ATOM      5  C   UNL     1      59.763   6.602  30.684  1.00  0.00    -0.023 C 
ATOM      6  C   UNL     1      59.093   5.523  30.251  1.00  0.00     0.042 C 
BRANCH   6   7
ATOM      7  C   UNL     1      59.125   4.177  30.858  1.00  0.00     0.152 C 
ATOM      8  O   UNL     1      58.526   3.995  31.950  1.00  0.00    -0.295 OA
ATOM      9  C   UNL     1      59.898   3.042  30.262  1.00  0.00     0.093 C 
ENDBRANCH   6   7
ENDBRANCH   1   5
TORSDOF 4
ENDMDL
