MODEL 1
REMARK VINA RESULT:    -4.895      0.000      0.000
REMARK INTER + INTRA:          -5.353
REMARK INTER:                  -5.324
REMARK INTRA:                  -0.029
REMARK UNBOUND:                -0.029
REMARK SMILES O=C([O-])c1ccc(O)cc1
REMARK SMILES IDX 4 1 5 2 10 3 6 4 9 5 7 6 2 7 1 8 3 9 8 10
REMARK H PARENT 8 11
REMARK Flexibility Score: inf
ROOT
ATOM      1  C   UNL     1       3.499  38.129   4.410  1.00  0.00    -0.003 A 
ATOM      2  C   UNL     1       4.097  37.227   3.511  1.00  0.00     0.014 A 
ATOM      3  C   UNL     1       2.769  37.622   5.500  1.00  0.00     0.014 A 
ATOM      4  C   UNL     1       3.966  35.848   3.701  1.00  0.00     0.047 A 
ATOM      5  C   UNL     1       2.640  36.242   5.686  1.00  0.00     0.047 A 
ATOM      6  C   UNL     1       3.239  35.351   4.786  1.00  0.00     0.115 A 
ENDROOT
BRANCH   1   7
ATOM      7  C   UNL     1       3.632  39.590   4.215  1.00  0.00     0.071 C 
ATOM      8  O   UNL     1       3.205  40.137   3.164  1.00  0.00    -0.545 OA
ATOM      9  O   UNL     1       4.232  40.378   5.189  1.00  0.00    -0.545 OA
ENDBRANCH   1   7
BRANCH   6  10
ATOM     10  O   UNL     1       3.119  33.975   4.961  1.00  0.00    -0.508 OA
ATOM     11  H   UNL     1       3.931  33.368   4.964  1.00  0.00     0.293 HD
ENDBRANCH   6  10
TORSDOF 2
ENDMDL
MODEL 2
REMARK VINA RESULT:    -4.880     10.704     12.842
REMARK INTER + INTRA:          -5.336
REMARK INTER:                  -5.306
REMARK INTRA:                  -0.031
REMARK UNBOUND:                -0.029
REMARK SMILES O=C([O-])c1ccc(O)cc1
REMARK SMILES IDX 4 1 5 2 10 3 6 4 9 5 7 6 2 7 1 8 3 9 8 10
REMARK H PARENT 8 11
REMARK Flexibility Score: inf
ROOT
ATOM      1  C   UNL     1      10.087  27.743  -0.432  1.00  0.00    -0.003 A 
ATOM      2  C   UNL     1       9.509  28.674   0.452  1.00  0.00     0.014 A 
ATOM      3  C   UNL     1       9.323  27.265  -1.511  1.00  0.00     0.014 A 
ATOM      4  C   UNL     1       8.196  29.113   0.258  1.00  0.00     0.047 A 
ATOM      5  C   UNL     1       8.011  27.707  -1.702  1.00  0.00     0.047 A 
ATOM      6  C   UNL     1       7.444  28.633  -0.817  1.00  0.00     0.115 A 
ENDROOT
BRANCH   1   7
ATOM      7  C   UNL     1      11.475  27.272  -0.232  1.00  0.00     0.071 C 
ATOM      8  O   UNL     1      11.858  26.871   0.900  1.00  0.00    -0.545 OA
ATOM      9  O   UNL     1      12.376  27.269  -1.289  1.00  0.00    -0.545 OA
ENDBRANCH   1   7
BRANCH   6  10
ATOM     10  O   UNL     1       6.137  29.082  -0.998  1.00  0.00    -0.508 OA
ATOM     11  H   UNL     1       5.393  28.811  -0.365  1.00  0.00     0.293 HD
ENDBRANCH   6  10
TORSDOF 2
ENDMDL
MODEL 3
REMARK VINA RESULT:    -4.875     10.708     12.780
REMARK INTER + INTRA:          -5.331
REMARK INTER:                  -5.301
REMARK INTRA:                  -0.031
REMARK UNBOUND:                -0.029
REMARK SMILES O=C([O-])c1ccc(O)cc1
REMARK SMILES IDX 4 1 5 2 10 3 6 4 9 5 7 6 2 7 1 8 3 9 8 10
REMARK H PARENT 8 11
REMARK Flexibility Score: inf
ROOT
ATOM      1  C   UNL     1      10.091  27.743  -0.444  1.00  0.00    -0.003 A 
ATOM      2  C   UNL     1       9.327  27.288  -1.535  1.00  0.00     0.014 A 
ATOM      3  C   UNL     1       9.517  28.659   0.455  1.00  0.00     0.014 A 
ATOM      4  C   UNL     1       8.017  27.741  -1.718  1.00  0.00     0.047 A 
ATOM      5  C   UNL     1       8.207  29.109   0.268  1.00  0.00     0.047 A 
ATOM      6  C   UNL     1       7.453  28.651  -0.820  1.00  0.00     0.115 A 
ENDROOT
BRANCH   1   7
ATOM      7  C   UNL     1      11.478  27.268  -0.245  1.00  0.00     0.071 C 
ATOM      8  O   UNL     1      11.858  26.854   0.883  1.00  0.00    -0.545 OA
ATOM      9  O   UNL     1      12.383  27.276  -1.299  1.00  0.00    -0.545 OA
ENDBRANCH   1   7
BRANCH   6  10
ATOM     10  O   UNL     1       6.146  29.093  -1.016  1.00  0.00    -0.508 OA
ATOM     11  H   UNL     1       5.609  28.811  -1.828  1.00  0.00     0.293 HD
ENDBRANCH   6  10
TORSDOF 2
ENDMDL
MODEL 4
REMARK VINA RESULT:    -4.690     10.761     12.712
REMARK INTER + INTRA:          -5.131
REMARK INTER:                  -5.098
REMARK INTRA:                  -0.032
REMARK UNBOUND:                -0.029
REMARK SMILES O=C([O-])c1ccc(O)cc1
REMARK SMILES IDX 4 1 5 2 10 3 6 4 9 5 7 6 2 7 1 8 3 9 8 10
REMARK H PARENT 8 11
REMARK Flexibility Score: inf
ROOT
ATOM      1  C   UNL     1       8.182  28.086  -0.941  1.00  0.00    -0.003 A 
ATOM      2  C   UNL     1       9.197  28.368  -0.006  1.00  0.00     0.014 A 
ATOM      3  C   UNL     1       8.525  27.453  -2.148  1.00  0.00     0.014 A 
ATOM      4  C   UNL     1      10.524  28.021  -0.277  1.00  0.00     0.047 A 
ATOM      5  C   UNL     1       9.854  27.108  -2.416  1.00  0.00     0.047 A 
ATOM      6  C   UNL     1      10.857  27.392  -1.479  1.00  0.00     0.115 A 
ENDROOT
BRANCH   1   7
ATOM      7  C   UNL     1       6.776  28.451  -0.661  1.00  0.00     0.071 C 
ATOM      8  O   UNL     1       6.498  29.532  -0.077  1.00  0.00    -0.545 OA
ATOM      9  O   UNL     1       5.741  27.604  -1.038  1.00  0.00    -0.545 OA
ENDBRANCH   1   7
BRANCH   6  10
ATOM     10  O   UNL     1      12.184  27.053  -1.734  1.00  0.00    -0.508 OA
ATOM     11  H   UNL     1      12.899  27.143  -1.022  1.00  0.00     0.293 HD
ENDBRANCH   6  10
TORSDOF 2
ENDMDL
MODEL 5
REMARK VINA RESULT:    -4.678      9.066     10.937
REMARK INTER + INTRA:          -5.117
REMARK INTER:                  -5.089
REMARK INTRA:                  -0.027
REMARK UNBOUND:                -0.029
REMARK SMILES O=C([O-])c1ccc(O)cc1
REMARK SMILES IDX 4 1 5 2 10 3 6 4 9 5 7 6 2 7 1 8 3 9 8 10
REMARK H PARENT 8 11
REMARK Flexibility Score: inf
ROOT
ATOM      1  C   UNL     1       7.888  29.329   0.574  1.00  0.00    -0.003 A 
ATOM      2  C   UNL     1       9.209  28.864   0.433  1.00  0.00     0.014 A 
ATOM      3  C   UNL     1       6.907  28.878  -0.327  1.00  0.00     0.014 A 
ATOM      4  C   UNL     1       9.538  27.967  -0.588  1.00  0.00     0.047 A 
ATOM      5  C   UNL     1       7.240  27.982  -1.347  1.00  0.00     0.047 A 
ATOM      6  C   UNL     1       8.558  27.524  -1.480  1.00  0.00     0.115 A 
ENDROOT
BRANCH   1   7
ATOM      7  C   UNL     1       7.532  30.279   1.651  1.00  0.00     0.071 C 
ATOM      8  O   UNL     1       7.331  31.495   1.392  1.00  0.00    -0.545 OA
ATOM      9  O   UNL     1       7.418  29.842   2.965  1.00  0.00    -0.545 OA
ENDBRANCH   1   7
BRANCH   6  10
ATOM     10  O   UNL     1       8.901  26.630  -2.492  1.00  0.00    -0.508 OA
ATOM     11  H   UNL     1       8.240  26.369  -3.214  1.00  0.00     0.293 HD
ENDBRANCH   6  10
TORSDOF 2
ENDMDL
MODEL 6
REMARK VINA RESULT:    -4.641      8.964     10.867
REMARK INTER + INTRA:          -5.077
REMARK INTER:                  -5.050
REMARK INTRA:                  -0.027
REMARK UNBOUND:                -0.029
REMARK SMILES O=C([O-])c1ccc(O)cc1
REMARK SMILES IDX 4 1 5 2 10 3 6 4 9 5 7 6 2 7 1 8 3 9 8 10
REMARK H PARENT 8 11
REMARK Flexibility Score: inf
ROOT
ATOM      1  C   UNL     1       7.848  29.399   0.639  1.00  0.00    -0.003 A 
ATOM      2  C   UNL     1       6.854  28.974  -0.263  1.00  0.00     0.014 A 
ATOM      3  C   UNL     1       9.160  28.916   0.485  1.00  0.00     0.014 A 
ATOM      4  C   UNL     1       7.170  28.085  -1.295  1.00  0.00     0.047 A 
ATOM      5  C   UNL     1       9.471  28.027  -0.549  1.00  0.00     0.047 A 
ATOM      6  C   UNL     1       8.475  27.609  -1.442  1.00  0.00     0.115 A 
ENDROOT
BRANCH   1   7
ATOM      7  C   UNL     1       7.521  30.339   1.734  1.00  0.00     0.071 C 
ATOM      8  O   UNL     1       7.461  31.579   1.518  1.00  0.00    -0.545 OA
ATOM      9  O   UNL     1       7.279  29.866   3.018  1.00  0.00    -0.545 OA
ENDBRANCH   1   7
BRANCH   6  10
ATOM     10  O   UNL     1       8.774  26.725  -2.476  1.00  0.00    -0.508 OA
ATOM     11  H   UNL     1       9.071  27.056  -3.386  1.00  0.00     0.293 HD
ENDBRANCH   6  10
TORSDOF 2
ENDMDL
MODEL 7
REMARK VINA RESULT:    -4.637      1.349      4.216
REMARK INTER + INTRA:          -5.072
REMARK INTER:                  -5.043
REMARK INTRA:                  -0.029
REMARK UNBOUND:                -0.029
REMARK SMILES O=C([O-])c1ccc(O)cc1
REMARK SMILES IDX 4 1 5 2 10 3 6 4 9 5 7 6 2 7 1 8 3 9 8 10
REMARK H PARENT 8 11
REMARK Flexibility Score: inf
ROOT
ATOM      1  C   UNL     1       2.914  36.546   5.144  1.00  0.00    -0.003 A 
ATOM      2  C   UNL     1       3.529  37.376   4.188  1.00  0.00     0.014 A 
ATOM      3  C   UNL     1       2.677  37.052   6.435  1.00  0.00     0.014 A 
ATOM      4  C   UNL     1       3.896  38.684   4.519  1.00  0.00     0.047 A 
ATOM      5  C   UNL     1       3.046  38.360   6.762  1.00  0.00     0.047 A 
ATOM      6  C   UNL     1       3.657  39.180   5.804  1.00  0.00     0.115 A 
ENDROOT
BRANCH   1   7
ATOM      7  C   UNL     1       2.523  35.161   4.802  1.00  0.00     0.071 C 
ATOM      8  O   UNL     1       3.385  34.331   4.405  1.00  0.00    -0.545 OA
ATOM      9  O   UNL     1       1.199  34.755   4.910  1.00  0.00    -0.545 OA
ENDBRANCH   1   7
BRANCH   6  10
ATOM     10  O   UNL     1       4.029  40.486   6.118  1.00  0.00    -0.508 OA
ATOM     11  H   UNL     1       4.766  40.679   6.786  1.00  0.00     0.293 HD
ENDBRANCH   6  10
TORSDOF 2
ENDMDL
MODEL 8
REMARK VINA RESULT:    -4.605      2.419      3.809
REMARK INTER + INTRA:          -5.038
REMARK INTER:                  -5.009
REMARK INTRA:                  -0.029
REMARK UNBOUND:                -0.029
REMARK SMILES O=C([O-])c1ccc(O)cc1
REMARK SMILES IDX 4 1 5 2 10 3 6 4 9 5 7 6 2 7 1 8 3 9 8 10
REMARK H PARENT 8 11
REMARK Flexibility Score: inf
ROOT
ATOM      1  C   UNL     1       4.223  36.079   3.270  1.00  0.00    -0.003 A 
ATOM      2  C   UNL     1       3.501  35.209   4.109  1.00  0.00     0.014 A 
ATOM      3  C   UNL     1       4.186  37.461   3.528  1.00  0.00     0.014 A 
ATOM      4  C   UNL     1       2.760  35.713   5.181  1.00  0.00     0.047 A 
ATOM      5  C   UNL     1       3.443  37.961   4.602  1.00  0.00     0.047 A 
ATOM      6  C   UNL     1       2.728  37.088   5.432  1.00  0.00     0.115 A 
ENDROOT
BRANCH   1   7
ATOM      7  C   UNL     1       5.009  35.553   2.132  1.00  0.00     0.071 C 
ATOM      8  O   UNL     1       6.249  35.764   2.057  1.00  0.00    -0.545 OA
ATOM      9  O   UNL     1       4.389  34.818   1.129  1.00  0.00    -0.545 OA
ENDBRANCH   1   7
BRANCH   6  10
ATOM     10  O   UNL     1       1.985  37.575   6.505  1.00  0.00    -0.508 OA
ATOM     11  H   UNL     1       1.527  36.949   7.159  1.00  0.00     0.293 HD
ENDBRANCH   6  10
TORSDOF 2
ENDMDL
MODEL 9
REMARK VINA RESULT:    -4.593      2.415      3.646
REMARK INTER + INTRA:          -5.025
REMARK INTER:                  -4.995
REMARK INTRA:                  -0.029
REMARK UNBOUND:                -0.029
REMARK SMILES O=C([O-])c1ccc(O)cc1
REMARK SMILES IDX 4 1 5 2 10 3 6 4 9 5 7 6 2 7 1 8 3 9 8 10
REMARK H PARENT 8 11
REMARK Flexibility Score: inf
ROOT
ATOM      1  C   UNL     1       4.248  36.083   3.271  1.00  0.00    -0.003 A 
ATOM      2  C   UNL     1       4.222  37.468   3.523  1.00  0.00     0.014 A 
ATOM      3  C   UNL     1       3.515  35.224   4.109  1.00  0.00     0.014 A 
ATOM      4  C   UNL     1       3.478  37.978   4.591  1.00  0.00     0.047 A 
ATOM      5  C   UNL     1       2.772  35.739   5.176  1.00  0.00     0.047 A 
ATOM      6  C   UNL     1       2.751  37.119   5.419  1.00  0.00     0.115 A 
ENDROOT
BRANCH   1   7
ATOM      7  C   UNL     1       5.034  35.535   2.144  1.00  0.00     0.071 C 
ATOM      8  O   UNL     1       4.481  34.822   1.264  1.00  0.00    -0.545 OA
ATOM      9  O   UNL     1       6.394  35.799   2.040  1.00  0.00    -0.545 OA
ENDBRANCH   1   7
BRANCH   6  10
ATOM     10  O   UNL     1       2.014  37.643   6.479  1.00  0.00    -0.508 OA
ATOM     11  H   UNL     1       1.999  38.638   6.671  1.00  0.00     0.293 HD
ENDBRANCH   6  10
TORSDOF 2
ENDMDL
