MODEL 1
REMARK VINA RESULT:    -5.747      0.000      0.000
REMARK INTER + INTRA:          -7.454
REMARK INTER:                  -7.090
REMARK INTRA:                  -0.364
REMARK UNBOUND:                -0.364
REMARK SMILES Oc1cc(O)c2cc(O)c(-c3cc(O)c(O)c(O)c3)[o+]c2c1
REMARK SMILES IDX 10 1 20 2 21 3 22 4 2 5 3 6 4 7 6 8 7 9 8 10 11 11 12 12
REMARK SMILES IDX 13 13 19 14 15 15 17 16 14 17 16 19 18 21 9 23 1 25 5 27
REMARK H PARENT 14 18 16 20 18 22 9 24 1 26 5 28
REMARK Flexibility Score: inf
ROOT
ATOM      1  C   UNL     1     -14.027  -2.900 -18.497  1.00  0.00     0.402 A 
ATOM      2  O   UNL     1     -13.115  -1.935 -18.568  1.00  0.00    -0.202 OA
ATOM      3  C   UNL     1     -11.975  -2.057 -19.241  1.00  0.00     0.368 A 
ATOM      4  C   UNL     1     -11.079  -0.985 -19.260  1.00  0.00     0.162 A 
ATOM      5  C   UNL     1      -9.874  -1.085 -19.963  1.00  0.00     0.128 A 
ATOM      6  C   UNL     1      -9.565  -2.261 -20.649  1.00  0.00     0.093 A 
ATOM      7  C   UNL     1     -10.446  -3.349 -20.645  1.00  0.00     0.136 A 
ATOM      8  C   UNL     1     -11.669  -3.254 -19.932  1.00  0.00     0.125 A 
ATOM      9  C   UNL     1     -12.606  -4.299 -19.862  1.00  0.00     0.078 A 
ATOM     10  C   UNL     1     -13.788  -4.133 -19.134  1.00  0.00     0.223 A 
ENDROOT
BRANCH   1  11
ATOM     11  C   UNL     1     -15.263  -2.640 -17.724  1.00  0.00     0.091 A 
ATOM     12  C   UNL     1     -16.436  -2.275 -18.400  1.00  0.00     0.068 A 
ATOM     13  C   UNL     1     -17.627  -2.040 -17.703  1.00  0.00     0.162 A 
ATOM     14  C   UNL     1     -15.303  -2.808 -16.332  1.00  0.00     0.068 A 
ATOM     15  C   UNL     1     -17.654  -2.189 -16.295  1.00  0.00     0.200 A 
ATOM     16  C   UNL     1     -16.484  -2.580 -15.620  1.00  0.00     0.162 A 
BRANCH  13  17
ATOM     17  O   UNL     1     -18.749  -1.668 -18.446  1.00  0.00    -0.504 OA
ATOM     18  H   UNL     1     -19.366  -0.907 -18.197  1.00  0.00     0.293 HD
ENDBRANCH  13  17
BRANCH  15  19
ATOM     19  O   UNL     1     -18.811  -1.964 -15.544  1.00  0.00    -0.502 OA
ATOM     20  H   UNL     1     -19.659  -1.561 -15.917  1.00  0.00     0.293 HD
ENDBRANCH  15  19
BRANCH  16  21
ATOM     21  O   UNL     1     -16.475  -2.754 -14.235  1.00  0.00    -0.504 OA
ATOM     22  H   UNL     1     -16.829  -2.050 -13.599  1.00  0.00     0.293 HD
ENDBRANCH  16  21
ENDBRANCH   1  11
BRANCH  10  23
ATOM     23  O   UNL     1     -14.695  -5.186 -19.023  1.00  0.00    -0.500 OA
ATOM     24  H   UNL     1     -14.449  -6.131 -19.293  1.00  0.00     0.294 HD
ENDBRANCH  10  23
BRANCH   5  25
ATOM     25  O   UNL     1      -8.976  -0.020 -19.986  1.00  0.00    -0.507 OA
ATOM     26  H   UNL     1      -8.061  -0.089 -19.556  1.00  0.00     0.293 HD
ENDBRANCH   5  25
BRANCH   7  27
ATOM     27  O   UNL     1     -10.064  -4.489 -21.359  1.00  0.00    -0.507 OA
ATOM     28  H   UNL     1      -9.160  -4.617 -21.789  1.00  0.00     0.293 HD
ENDBRANCH   7  27
TORSDOF 7
ENDMDL
MODEL 2
REMARK VINA RESULT:    -5.679      0.714      1.937
REMARK INTER + INTRA:          -7.371
REMARK INTER:                  -7.022
REMARK INTRA:                  -0.349
REMARK UNBOUND:                -0.364
REMARK SMILES Oc1cc(O)c2cc(O)c(-c3cc(O)c(O)c(O)c3)[o+]c2c1
REMARK SMILES IDX 10 1 20 2 21 3 22 4 2 5 3 6 4 7 6 8 7 9 8 10 11 11 12 12
REMARK SMILES IDX 13 13 19 14 15 15 17 16 14 17 16 19 18 21 9 23 1 25 5 27
REMARK H PARENT 14 18 16 20 18 22 9 24 1 26 5 28
REMARK Flexibility Score: inf
ROOT
ATOM      1  C   UNL     1     -14.100  -2.791 -18.433  1.00  0.00     0.402 A 
ATOM      2  O   UNL     1     -13.519  -1.666 -18.839  1.00  0.00    -0.202 OA
ATOM      3  C   UNL     1     -12.375  -1.639 -19.517  1.00  0.00     0.368 A 
ATOM      4  C   UNL     1     -11.844  -0.405 -19.902  1.00  0.00     0.162 A 
ATOM      5  C   UNL     1     -10.644  -0.347 -20.619  1.00  0.00     0.128 A 
ATOM      6  C   UNL     1      -9.974  -1.527 -20.950  1.00  0.00     0.093 A 
ATOM      7  C   UNL     1     -10.487  -2.775 -20.575  1.00  0.00     0.136 A 
ATOM      8  C   UNL     1     -11.703  -2.840 -19.846  1.00  0.00     0.125 A 
ATOM      9  C   UNL     1     -12.283  -4.045 -19.417  1.00  0.00     0.078 A 
ATOM     10  C   UNL     1     -13.482  -4.028 -18.698  1.00  0.00     0.223 A 
ENDROOT
BRANCH   1  11
ATOM     11  C   UNL     1     -15.379  -2.692 -17.694  1.00  0.00     0.091 A 
ATOM     12  C   UNL     1     -15.374  -2.763 -16.294  1.00  0.00     0.068 A 
ATOM     13  C   UNL     1     -16.562  -2.654 -15.562  1.00  0.00     0.162 A 
ATOM     14  C   UNL     1     -16.593  -2.470 -18.361  1.00  0.00     0.068 A 
ATOM     15  C   UNL     1     -17.787  -2.453 -16.243  1.00  0.00     0.200 A 
ATOM     16  C   UNL     1     -17.789  -2.357 -17.646  1.00  0.00     0.162 A 
BRANCH  13  17
ATOM     17  O   UNL     1     -16.476  -2.747 -14.171  1.00  0.00    -0.504 OA
ATOM     18  H   UNL     1     -17.275  -2.838 -13.559  1.00  0.00     0.293 HD
ENDBRANCH  13  17
BRANCH  15  19
ATOM     19  O   UNL     1     -19.005  -2.342 -15.567  1.00  0.00    -0.502 OA
ATOM     20  H   UNL     1     -19.840  -1.937 -15.966  1.00  0.00     0.293 HD
ENDBRANCH  15  19
BRANCH  16  21
ATOM     21  O   UNL     1     -18.973  -2.142 -18.352  1.00  0.00    -0.504 OA
ATOM     22  H   UNL     1     -19.562  -2.904 -18.665  1.00  0.00     0.293 HD
ENDBRANCH  16  21
ENDBRANCH   1  11
BRANCH  10  23
ATOM     23  O   UNL     1     -14.033  -5.220 -18.228  1.00  0.00    -0.500 OA
ATOM     24  H   UNL     1     -13.563  -6.109 -18.354  1.00  0.00     0.294 HD
ENDBRANCH  10  23
BRANCH   5  25
ATOM     25  O   UNL     1     -10.108   0.879 -21.007  1.00  0.00    -0.507 OA
ATOM     26  H   UNL     1      -9.355   0.937 -21.683  1.00  0.00     0.293 HD
ENDBRANCH   5  25
BRANCH   7  27
ATOM     27  O   UNL     1      -9.758  -3.909 -20.948  1.00  0.00    -0.507 OA
ATOM     28  H   UNL     1     -10.169  -4.801 -21.181  1.00  0.00     0.293 HD
ENDBRANCH   7  27
TORSDOF 7
ENDMDL
MODEL 3
REMARK VINA RESULT:    -5.656      1.446      2.876
REMARK INTER + INTRA:          -7.342
REMARK INTER:                  -7.001
REMARK INTRA:                  -0.341
REMARK UNBOUND:                -0.364
REMARK SMILES Oc1cc(O)c2cc(O)c(-c3cc(O)c(O)c(O)c3)[o+]c2c1
REMARK SMILES IDX 10 1 20 2 21 3 22 4 2 5 3 6 4 7 6 8 7 9 8 10 11 11 12 12
REMARK SMILES IDX 13 13 19 14 15 15 17 16 14 17 16 19 18 21 9 23 1 25 5 27
REMARK H PARENT 14 18 16 20 18 22 9 24 1 26 5 28
REMARK Flexibility Score: inf
ROOT
ATOM      1  C   UNL     1     -14.137  -3.214 -18.173  1.00  0.00     0.402 A 
ATOM      2  O   UNL     1     -13.674  -4.460 -18.216  1.00  0.00    -0.202 OA
ATOM      3  C   UNL     1     -12.533  -4.795 -18.811  1.00  0.00     0.368 A 
ATOM      4  C   UNL     1     -12.129  -6.132 -18.802  1.00  0.00     0.162 A 
ATOM      5  C   UNL     1     -10.932  -6.511 -19.417  1.00  0.00     0.128 A 
ATOM      6  C   UNL     1     -10.137  -5.549 -20.044  1.00  0.00     0.093 A 
ATOM      7  C   UNL     1     -10.521  -4.202 -20.067  1.00  0.00     0.136 A 
ATOM      8  C   UNL     1     -11.736  -3.812 -19.446  1.00  0.00     0.125 A 
ATOM      9  C   UNL     1     -12.206  -2.489 -19.432  1.00  0.00     0.078 A 
ATOM     10  C   UNL     1     -13.417  -2.182 -18.804  1.00  0.00     0.223 A 
ENDROOT
BRANCH   1  11
ATOM     11  C   UNL     1     -15.417  -2.966 -17.471  1.00  0.00     0.091 A 
ATOM     12  C   UNL     1     -16.598  -2.835 -18.215  1.00  0.00     0.068 A 
ATOM     13  C   UNL     1     -17.828  -2.619 -17.584  1.00  0.00     0.162 A 
ATOM     14  C   UNL     1     -15.485  -2.918 -16.071  1.00  0.00     0.068 A 
ATOM     15  C   UNL     1     -17.886  -2.548 -16.171  1.00  0.00     0.200 A 
ATOM     16  C   UNL     1     -16.706  -2.705 -15.423  1.00  0.00     0.162 A 
BRANCH  13  17
ATOM     17  O   UNL     1     -18.958  -2.486 -18.395  1.00  0.00    -0.504 OA
ATOM     18  H   UNL     1     -19.815  -3.003 -18.261  1.00  0.00     0.293 HD
ENDBRANCH  13  17
BRANCH  15  19
ATOM     19  O   UNL     1     -19.084  -2.330 -15.485  1.00  0.00    -0.502 OA
ATOM     20  H   UNL     1     -19.755  -3.053 -15.270  1.00  0.00     0.293 HD
ENDBRANCH  15  19
BRANCH  16  21
ATOM     21  O   UNL     1     -16.724  -2.658 -14.029  1.00  0.00    -0.504 OA
ATOM     22  H   UNL     1     -15.894  -2.814 -13.471  1.00  0.00     0.293 HD
ENDBRANCH  16  21
ENDBRANCH   1  11
BRANCH  10  23
ATOM     23  O   UNL     1     -13.909  -0.878 -18.832  1.00  0.00    -0.500 OA
ATOM     24  H   UNL     1     -13.342  -0.088 -18.546  1.00  0.00     0.294 HD
ENDBRANCH  10  23
BRANCH   5  25
ATOM     25  O   UNL     1     -10.521  -7.842 -19.411  1.00  0.00    -0.507 OA
ATOM     26  H   UNL     1     -10.301  -8.332 -20.270  1.00  0.00     0.293 HD
ENDBRANCH   5  25
BRANCH   7  27
ATOM     27  O   UNL     1      -9.669  -3.301 -20.713  1.00  0.00    -0.507 OA
ATOM     28  H   UNL     1      -8.699  -3.161 -20.472  1.00  0.00     0.293 HD
ENDBRANCH   7  27
TORSDOF 7
ENDMDL
MODEL 4
REMARK VINA RESULT:    -5.500      1.534      7.065
REMARK INTER + INTRA:          -7.149
REMARK INTER:                  -7.070
REMARK INTRA:                  -0.080
REMARK UNBOUND:                -0.364
REMARK SMILES Oc1cc(O)c2cc(O)c(-c3cc(O)c(O)c(O)c3)[o+]c2c1
REMARK SMILES IDX 10 1 20 2 21 3 22 4 2 5 3 6 4 7 6 8 7 9 8 10 11 11 12 12
REMARK SMILES IDX 13 13 19 14 15 15 17 16 14 17 16 19 18 21 9 23 1 25 5 27
REMARK H PARENT 14 18 16 20 18 22 9 24 1 26 5 28
REMARK Flexibility Score: inf
ROOT
ATOM      1  C   UNL     1     -12.385  -2.546 -18.754  1.00  0.00     0.402 A 
ATOM      2  O   UNL     1     -13.471  -1.778 -18.728  1.00  0.00    -0.202 OA
ATOM      3  C   UNL     1     -14.611  -2.147 -18.152  1.00  0.00     0.368 A 
ATOM      4  C   UNL     1     -15.697  -1.269 -18.174  1.00  0.00     0.162 A 
ATOM      5  C   UNL     1     -16.907  -1.629 -17.573  1.00  0.00     0.128 A 
ATOM      6  C   UNL     1     -17.031  -2.873 -16.949  1.00  0.00     0.093 A 
ATOM      7  C   UNL     1     -15.956  -3.770 -16.914  1.00  0.00     0.136 A 
ATOM      8  C   UNL     1     -14.727  -3.410 -17.524  1.00  0.00     0.125 A 
ATOM      9  C   UNL     1     -13.602  -4.251 -17.550  1.00  0.00     0.078 A 
ATOM     10  C   UNL     1     -12.425  -3.829 -18.175  1.00  0.00     0.223 A 
ENDROOT
BRANCH   1  11
ATOM     11  C   UNL     1     -11.171  -2.020 -19.418  1.00  0.00     0.091 A 
ATOM     12  C   UNL     1     -10.575  -2.757 -20.452  1.00  0.00     0.068 A 
ATOM     13  C   UNL     1      -9.438  -2.281 -21.115  1.00  0.00     0.162 A 
ATOM     14  C   UNL     1     -10.634  -0.770 -19.076  1.00  0.00     0.068 A 
ATOM     15  C   UNL     1      -8.888  -1.028 -20.748  1.00  0.00     0.200 A 
ATOM     16  C   UNL     1      -9.500  -0.278 -19.729  1.00  0.00     0.162 A 
BRANCH  13  17
ATOM     17  O   UNL     1      -8.896  -3.078 -22.125  1.00  0.00    -0.504 OA
ATOM     18  H   UNL     1      -8.951  -2.861 -23.110  1.00  0.00     0.293 HD
ENDBRANCH  13  17
BRANCH  15  19
ATOM     19  O   UNL     1      -7.751  -0.503 -21.370  1.00  0.00    -0.502 OA
ATOM     20  H   UNL     1      -7.076   0.090 -20.909  1.00  0.00     0.293 HD
ENDBRANCH  15  19
BRANCH  16  21
ATOM     21  O   UNL     1      -8.998   0.968 -19.350  1.00  0.00    -0.504 OA
ATOM     22  H   UNL     1      -8.171   1.370 -19.775  1.00  0.00     0.293 HD
ENDBRANCH  16  21
ENDBRANCH   1  11
BRANCH  10  23
ATOM     23  O   UNL     1     -11.324  -4.682 -18.245  1.00  0.00    -0.500 OA
ATOM     24  H   UNL     1     -10.389  -4.331 -18.418  1.00  0.00     0.294 HD
ENDBRANCH  10  23
BRANCH   5  25
ATOM     25  O   UNL     1     -17.995  -0.759 -17.590  1.00  0.00    -0.507 OA
ATOM     26  H   UNL     1     -18.501  -0.560 -18.445  1.00  0.00     0.293 HD
ENDBRANCH   5  25
BRANCH   7  27
ATOM     27  O   UNL     1     -16.160  -4.993 -16.267  1.00  0.00    -0.507 OA
ATOM     28  H   UNL     1     -15.423  -5.563 -15.879  1.00  0.00     0.293 HD
ENDBRANCH   7  27
TORSDOF 7
ENDMDL
MODEL 5
REMARK VINA RESULT:    -5.462      3.444      5.411
REMARK INTER + INTRA:          -7.103
REMARK INTER:                  -6.879
REMARK INTRA:                  -0.223
REMARK UNBOUND:                -0.364
REMARK SMILES Oc1cc(O)c2cc(O)c(-c3cc(O)c(O)c(O)c3)[o+]c2c1
REMARK SMILES IDX 10 1 20 2 21 3 22 4 2 5 3 6 4 7 6 8 7 9 8 10 11 11 12 12
REMARK SMILES IDX 13 13 19 14 15 15 17 16 14 17 16 19 18 21 9 23 1 25 5 27
REMARK H PARENT 14 18 16 20 18 22 9 24 1 26 5 28
REMARK Flexibility Score: inf
ROOT
ATOM      1  C   UNL     1     -16.682  -1.541 -16.893  1.00  0.00     0.402 A 
ATOM      2  O   UNL     1     -15.430  -1.985 -16.832  1.00  0.00    -0.202 OA
ATOM      3  C   UNL     1     -15.104  -3.268 -16.960  1.00  0.00     0.368 A 
ATOM      4  C   UNL     1     -13.758  -3.637 -16.884  1.00  0.00     0.162 A 
ATOM      5  C   UNL     1     -13.387  -4.978 -17.020  1.00  0.00     0.128 A 
ATOM      6  C   UNL     1     -14.365  -5.953 -17.231  1.00  0.00     0.093 A 
ATOM      7  C   UNL     1     -15.719  -5.607 -17.310  1.00  0.00     0.136 A 
ATOM      8  C   UNL     1     -16.102  -4.248 -17.172  1.00  0.00     0.125 A 
ATOM      9  C   UNL     1     -17.436  -3.812 -17.224  1.00  0.00     0.078 A 
ATOM     10  C   UNL     1     -17.737  -2.455 -17.074  1.00  0.00     0.223 A 
ENDROOT
BRANCH   1  11
ATOM     11  C   UNL     1     -16.917  -0.086 -16.745  1.00  0.00     0.091 A 
ATOM     12  C   UNL     1     -17.587   0.392 -15.610  1.00  0.00     0.068 A 
ATOM     13  C   UNL     1     -17.810   1.762 -15.427  1.00  0.00     0.162 A 
ATOM     14  C   UNL     1     -16.432   0.832 -17.687  1.00  0.00     0.068 A 
ATOM     15  C   UNL     1     -17.338   2.682 -16.395  1.00  0.00     0.200 A 
ATOM     16  C   UNL     1     -16.644   2.204 -17.521  1.00  0.00     0.162 A 
BRANCH  13  17
ATOM     17  O   UNL     1     -18.496   2.159 -14.278  1.00  0.00    -0.504 OA
ATOM     18  H   UNL     1     -18.738   1.538 -13.519  1.00  0.00     0.293 HD
ENDBRANCH  13  17
BRANCH  15  19
ATOM     19  O   UNL     1     -17.535   4.060 -16.271  1.00  0.00    -0.502 OA
ATOM     20  H   UNL     1     -17.369   4.726 -17.012  1.00  0.00     0.293 HD
ENDBRANCH  15  19
BRANCH  16  21
ATOM     21  O   UNL     1     -16.149   3.080 -18.488  1.00  0.00    -0.504 OA
ATOM     22  H   UNL     1     -15.158   3.249 -18.608  1.00  0.00     0.293 HD
ENDBRANCH  16  21
ENDBRANCH   1  11
BRANCH  10  23
ATOM     23  O   UNL     1     -19.064  -2.027 -17.076  1.00  0.00    -0.500 OA
ATOM     24  H   UNL     1     -19.497  -1.633 -16.249  1.00  0.00     0.294 HD
ENDBRANCH  10  23
BRANCH   5  25
ATOM     25  O   UNL     1     -12.048  -5.355 -16.945  1.00  0.00    -0.507 OA
ATOM     26  H   UNL     1     -11.609  -5.899 -17.679  1.00  0.00     0.293 HD
ENDBRANCH   5  25
BRANCH   7  27
ATOM     27  O   UNL     1     -16.636  -6.641 -17.527  1.00  0.00    -0.507 OA
ATOM     28  H   UNL     1     -17.592  -6.505 -17.819  1.00  0.00     0.293 HD
ENDBRANCH   7  27
TORSDOF 7
ENDMDL
MODEL 6
REMARK VINA RESULT:    -5.452      2.766      4.061
REMARK INTER + INTRA:          -7.090
REMARK INTER:                  -6.711
REMARK INTRA:                  -0.379
REMARK UNBOUND:                -0.364
REMARK SMILES Oc1cc(O)c2cc(O)c(-c3cc(O)c(O)c(O)c3)[o+]c2c1
REMARK SMILES IDX 10 1 20 2 21 3 22 4 2 5 3 6 4 7 6 8 7 9 8 10 11 11 12 12
REMARK SMILES IDX 13 13 19 14 15 15 17 16 14 17 16 19 18 21 9 23 1 25 5 27
REMARK H PARENT 14 18 16 20 18 22 9 24 1 26 5 28
REMARK Flexibility Score: inf
ROOT
ATOM      1  C   UNL     1     -13.966  -3.957 -17.591  1.00  0.00     0.402 A 
ATOM      2  O   UNL     1     -14.382  -4.926 -18.402  1.00  0.00    -0.202 OA
ATOM      3  C   UNL     1     -13.583  -5.883 -18.865  1.00  0.00     0.368 A 
ATOM      4  C   UNL     1     -14.114  -6.860 -19.711  1.00  0.00     0.162 A 
ATOM      5  C   UNL     1     -13.298  -7.880 -20.209  1.00  0.00     0.128 A 
ATOM      6  C   UNL     1     -11.946  -7.921 -19.861  1.00  0.00     0.093 A 
ATOM      7  C   UNL     1     -11.391  -6.953 -19.015  1.00  0.00     0.136 A 
ATOM      8  C   UNL     1     -12.214  -5.915 -18.508  1.00  0.00     0.125 A 
ATOM      9  C   UNL     1     -11.741  -4.895 -17.666  1.00  0.00     0.078 A 
ATOM     10  C   UNL     1     -12.612  -3.902 -17.209  1.00  0.00     0.223 A 
ENDROOT
BRANCH   1  11
ATOM     11  C   UNL     1     -14.954  -2.953 -17.134  1.00  0.00     0.091 A 
ATOM     12  C   UNL     1     -15.314  -1.902 -17.989  1.00  0.00     0.068 A 
ATOM     13  C   UNL     1     -16.260  -0.946 -17.598  1.00  0.00     0.162 A 
ATOM     14  C   UNL     1     -15.584  -3.062 -15.886  1.00  0.00     0.068 A 
ATOM     15  C   UNL     1     -16.874  -1.050 -16.327  1.00  0.00     0.200 A 
ATOM     16  C   UNL     1     -16.531  -2.118 -15.480  1.00  0.00     0.162 A 
BRANCH  13  17
ATOM     17  O   UNL     1     -16.556   0.078 -18.500  1.00  0.00    -0.504 OA
ATOM     18  H   UNL     1     -16.049   0.242 -19.359  1.00  0.00     0.293 HD
ENDBRANCH  13  17
BRANCH  15  19
ATOM     19  O   UNL     1     -17.820  -0.123 -15.879  1.00  0.00    -0.502 OA
ATOM     20  H   UNL     1     -17.589   0.760 -15.448  1.00  0.00     0.293 HD
ENDBRANCH  15  19
BRANCH  16  21
ATOM     21  O   UNL     1     -17.127  -2.264 -14.226  1.00  0.00    -0.504 OA
ATOM     22  H   UNL     1     -16.624  -2.633 -13.428  1.00  0.00     0.293 HD
ENDBRANCH  16  21
ENDBRANCH   1  11
BRANCH  10  23
ATOM     23  O   UNL     1     -12.133  -2.862 -16.414  1.00  0.00    -0.500 OA
ATOM     24  H   UNL     1     -12.671  -2.017 -16.262  1.00  0.00     0.294 HD
ENDBRANCH  10  23
BRANCH   5  25
ATOM     25  O   UNL     1     -13.820  -8.858 -21.053  1.00  0.00    -0.507 OA
ATOM     26  H   UNL     1     -13.256  -9.290 -21.776  1.00  0.00     0.293 HD
ENDBRANCH   5  25
BRANCH   7  27
ATOM     27  O   UNL     1     -10.030  -7.067 -18.713  1.00  0.00    -0.507 OA
ATOM     28  H   UNL     1      -9.451  -6.305 -18.392  1.00  0.00     0.293 HD
ENDBRANCH   7  27
TORSDOF 7
ENDMDL
MODEL 7
REMARK VINA RESULT:    -5.363      2.044      6.964
REMARK INTER + INTRA:          -6.980
REMARK INTER:                  -6.597
REMARK INTRA:                  -0.383
REMARK UNBOUND:                -0.364
REMARK SMILES Oc1cc(O)c2cc(O)c(-c3cc(O)c(O)c(O)c3)[o+]c2c1
REMARK SMILES IDX 10 1 20 2 21 3 22 4 2 5 3 6 4 7 6 8 7 9 8 10 11 11 12 12
REMARK SMILES IDX 13 13 19 14 15 15 17 16 14 17 16 19 18 21 9 23 1 25 5 27
REMARK H PARENT 14 18 16 20 18 22 9 24 1 26 5 28
REMARK Flexibility Score: inf
ROOT
ATOM      1  C   UNL     1     -14.717  -3.346 -17.694  1.00  0.00     0.402 A 
ATOM      2  O   UNL     1     -15.408  -2.604 -16.835  1.00  0.00    -0.202 OA
ATOM      3  C   UNL     1     -16.584  -2.971 -16.335  1.00  0.00     0.368 A 
ATOM      4  C   UNL     1     -17.234  -2.123 -15.435  1.00  0.00     0.162 A 
ATOM      5  C   UNL     1     -18.470  -2.486 -14.891  1.00  0.00     0.128 A 
ATOM      6  C   UNL     1     -19.058  -3.701 -15.250  1.00  0.00     0.093 A 
ATOM      7  C   UNL     1     -18.426  -4.568 -16.150  1.00  0.00     0.136 A 
ATOM      8  C   UNL     1     -17.172  -4.204 -16.706  1.00  0.00     0.125 A 
ATOM      9  C   UNL     1     -16.473  -5.003 -17.626  1.00  0.00     0.078 A 
ATOM     10  C   UNL     1     -15.244  -4.575 -18.135  1.00  0.00     0.223 A 
ENDROOT
BRANCH   1  11
ATOM     11  C   UNL     1     -13.412  -2.832 -18.173  1.00  0.00     0.091 A 
ATOM     12  C   UNL     1     -13.380  -1.909 -19.227  1.00  0.00     0.068 A 
ATOM     13  C   UNL     1     -12.167  -1.387 -19.692  1.00  0.00     0.162 A 
ATOM     14  C   UNL     1     -12.209  -3.205 -17.556  1.00  0.00     0.068 A 
ATOM     15  C   UNL     1     -10.954  -1.786 -19.079  1.00  0.00     0.200 A 
ATOM     16  C   UNL     1     -10.989  -2.693 -18.005  1.00  0.00     0.162 A 
BRANCH  13  17
ATOM     17  O   UNL     1     -12.215  -0.482 -20.754  1.00  0.00    -0.504 OA
ATOM     18  H   UNL     1     -11.567   0.284 -20.876  1.00  0.00     0.293 HD
ENDBRANCH  13  17
BRANCH  15  19
ATOM     19  O   UNL     1      -9.712  -1.304 -19.502  1.00  0.00    -0.502 OA
ATOM     20  H   UNL     1      -9.511  -0.330 -19.677  1.00  0.00     0.293 HD
ENDBRANCH  15  19
BRANCH  16  21
ATOM     21  O   UNL     1      -9.816  -3.097 -17.365  1.00  0.00    -0.504 OA
ATOM     22  H   UNL     1      -9.705  -3.047 -16.360  1.00  0.00     0.293 HD
ENDBRANCH  16  21
ENDBRANCH   1  11
BRANCH  10  23
ATOM     23  O   UNL     1     -14.573  -5.344 -19.085  1.00  0.00    -0.500 OA
ATOM     24  H   UNL     1     -14.303  -6.303 -18.899  1.00  0.00     0.294 HD
ENDBRANCH  10  23
BRANCH   5  25
ATOM     25  O   UNL     1     -19.125  -1.646 -13.993  1.00  0.00    -0.507 OA
ATOM     26  H   UNL     1     -19.026  -1.761 -12.991  1.00  0.00     0.293 HD
ENDBRANCH   5  25
BRANCH   7  27
ATOM     27  O   UNL     1     -19.078  -5.767 -16.455  1.00  0.00    -0.507 OA
ATOM     28  H   UNL     1     -18.986  -6.619 -15.921  1.00  0.00     0.293 HD
ENDBRANCH   7  27
TORSDOF 7
ENDMDL
MODEL 8
REMARK VINA RESULT:    -5.183      2.107      7.641
REMARK INTER + INTRA:          -6.759
REMARK INTER:                  -6.518
REMARK INTRA:                  -0.241
REMARK UNBOUND:                -0.364
REMARK SMILES Oc1cc(O)c2cc(O)c(-c3cc(O)c(O)c(O)c3)[o+]c2c1
REMARK SMILES IDX 10 1 20 2 21 3 22 4 2 5 3 6 4 7 6 8 7 9 8 10 11 11 12 12
REMARK SMILES IDX 13 13 19 14 15 15 17 16 14 17 16 19 18 21 9 23 1 25 5 27
REMARK H PARENT 14 18 16 20 18 22 9 24 1 26 5 28
REMARK Flexibility Score: inf
ROOT
ATOM      1  C   UNL     1     -14.748  -3.531 -18.226  1.00  0.00     0.402 A 
ATOM      2  O   UNL     1     -15.420  -4.603 -17.815  1.00  0.00    -0.202 OA
ATOM      3  C   UNL     1     -16.593  -4.534 -17.192  1.00  0.00     0.368 A 
ATOM      4  C   UNL     1     -17.224  -5.718 -16.801  1.00  0.00     0.162 A 
ATOM      5  C   UNL     1     -18.459  -5.675 -16.148  1.00  0.00     0.128 A 
ATOM      6  C   UNL     1     -19.065  -4.444 -15.884  1.00  0.00     0.093 A 
ATOM      7  C   UNL     1     -18.452  -3.245 -16.266  1.00  0.00     0.136 A 
ATOM      8  C   UNL     1     -17.197  -3.282 -16.928  1.00  0.00     0.125 A 
ATOM      9  C   UNL     1     -16.504  -2.130 -17.335  1.00  0.00     0.078 A 
ATOM     10  C   UNL     1     -15.268  -2.246 -17.978  1.00  0.00     0.223 A 
ENDROOT
BRANCH   1  11
ATOM     11  C   UNL     1     -13.455  -3.737 -18.918  1.00  0.00     0.091 A 
ATOM     12  C   UNL     1     -12.265  -3.354 -18.284  1.00  0.00     0.068 A 
ATOM     13  C   UNL     1     -11.024  -3.552 -18.899  1.00  0.00     0.162 A 
ATOM     14  C   UNL     1     -13.389  -4.361 -20.172  1.00  0.00     0.068 A 
ATOM     15  C   UNL     1     -10.966  -4.162 -20.176  1.00  0.00     0.200 A 
ATOM     16  C   UNL     1     -12.158  -4.568 -20.801  1.00  0.00     0.162 A 
BRANCH  13  17
ATOM     17  O   UNL     1      -9.884  -3.133 -18.209  1.00  0.00    -0.504 OA
ATOM     18  H   UNL     1      -9.153  -2.565 -18.615  1.00  0.00     0.293 HD
ENDBRANCH  13  17
BRANCH  15  19
ATOM     19  O   UNL     1      -9.757  -4.380 -20.843  1.00  0.00    -0.502 OA
ATOM     20  H   UNL     1      -9.511  -3.956 -21.726  1.00  0.00     0.293 HD
ENDBRANCH  15  19
BRANCH  16  21
ATOM     21  O   UNL     1     -12.141  -5.188 -22.052  1.00  0.00    -0.504 OA
ATOM     22  H   UNL     1     -12.973  -5.584 -22.470  1.00  0.00     0.293 HD
ENDBRANCH  16  21
ENDBRANCH   1  11
BRANCH  10  23
ATOM     23  O   UNL     1     -14.556  -1.102 -18.338  1.00  0.00    -0.500 OA
ATOM     24  H   UNL     1     -13.794  -0.750 -17.770  1.00  0.00     0.294 HD
ENDBRANCH  10  23
BRANCH   5  25
ATOM     25  O   UNL     1     -19.095  -6.851 -15.755  1.00  0.00    -0.507 OA
ATOM     26  H   UNL     1     -18.795  -7.756 -16.099  1.00  0.00     0.293 HD
ENDBRANCH   5  25
BRANCH   7  27
ATOM     27  O   UNL     1     -19.125  -2.055 -15.969  1.00  0.00    -0.507 OA
ATOM     28  H   UNL     1     -18.670  -1.175 -15.778  1.00  0.00     0.293 HD
ENDBRANCH   7  27
TORSDOF 7
ENDMDL
