MODEL 1
REMARK VINA RESULT:    -5.023      0.000      0.000
REMARK INTER + INTRA:         -14.108
REMARK INTER:                 -11.484
REMARK INTRA:                  -2.624
REMARK UNBOUND:                -2.624
REMARK SMILES CCCCCCCCCCCCCCCCCCCCCCCC(=O)[O-]
REMARK SMILES IDX 13 1 14 2 15 3 16 4 17 5 18 6 19 7 20 8 21 9 22 10 23 11
REMARK SMILES IDX 24 12 25 13 26 14 12 15 11 16 10 17 9 18 8 19 7 20 6 21 5 22
REMARK SMILES IDX 4 23 3 24 2 25 1 26
REMARK H PARENT
REMARK Flexibility Score: inf
ROOT
ATOM      1  C   UNL     1      12.413 -23.363  20.628  1.00  0.00     0.000 C 
ENDROOT
BRANCH   1   2
ATOM      2  C   UNL     1      11.627 -24.688  20.600  1.00  0.00     0.000 C 
BRANCH   2   3
ATOM      3  C   UNL     1      10.911 -25.059  21.914  1.00  0.00     0.000 C 
BRANCH   3   4
ATOM      4  C   UNL     1       9.402 -24.736  21.924  1.00  0.00     0.000 C 
BRANCH   4   5
ATOM      5  C   UNL     1       8.929 -24.124  23.255  1.00  0.00     0.000 C 
BRANCH   5   6
ATOM      6  C   UNL     1       9.532 -24.830  24.479  1.00  0.00     0.000 C 
BRANCH   6   7
ATOM      7  C   UNL     1       9.788 -23.868  25.655  1.00  0.00     0.000 C 
BRANCH   7   8
ATOM      8  C   UNL     1       9.786 -22.394  25.222  1.00  0.00     0.000 C 
BRANCH   8   9
ATOM      9  C   UNL     1      11.194 -21.775  25.231  1.00  0.00     0.000 C 
BRANCH   9  10
ATOM     10  C   UNL     1      12.060 -22.233  24.045  1.00  0.00     0.006 C 
BRANCH  10  11
ATOM     11  C   UNL     1      13.408 -22.851  24.464  1.00  0.00     0.053 C 
BRANCH  11  12
ATOM     12  C   UNL     1      14.573 -21.978  24.104  1.00  0.00     0.041 C 
ATOM     13  O   UNL     1      14.397 -20.760  23.840  1.00  0.00    -0.550 OA
ATOM     14  O   UNL     1      15.865 -22.497  24.119  1.00  0.00    -0.550 OA
ENDBRANCH  11  12
ENDBRANCH  10  11
ENDBRANCH   9  10
ENDBRANCH   8   9
ENDBRANCH   7   8
ENDBRANCH   6   7
ENDBRANCH   5   6
ENDBRANCH   4   5
ENDBRANCH   3   4
ENDBRANCH   2   3
ENDBRANCH   1   2
BRANCH   1  15
ATOM     15  C   UNL     1      13.949 -23.505  20.689  1.00  0.00     0.000 C 
BRANCH  15  16
ATOM     16  C   UNL     1      14.535 -24.663  19.862  1.00  0.00     0.000 C 
BRANCH  16  17
ATOM     17  C   UNL     1      15.011 -25.840  20.732  1.00  0.00     0.000 C 
BRANCH  17  18
ATOM     18  C   UNL     1      15.743 -25.384  22.007  1.00  0.00    -0.000 C 
BRANCH  18  19
ATOM     19  C   UNL     1      16.775 -26.384  22.559  1.00  0.00    -0.000 C 
BRANCH  19  20
ATOM     20  C   UNL     1      16.226 -27.820  22.656  1.00  0.00    -0.000 C 
BRANCH  20  21
ATOM     21  C   UNL     1      16.433 -28.438  24.047  1.00  0.00    -0.000 C 
BRANCH  21  22
ATOM     22  C   UNL     1      15.513 -29.642  24.303  1.00  0.00    -0.000 C 
BRANCH  22  23
ATOM     23  C   UNL     1      15.130 -30.332  22.985  1.00  0.00    -0.000 C 
BRANCH  23  24
ATOM     24  C   UNL     1      16.141 -31.411  22.566  1.00  0.00    -0.000 C 
BRANCH  24  25
ATOM     25  C   UNL     1      16.972 -31.936  23.747  1.00  0.00    -0.003 C 
ATOM     26  C   UNL     1      18.465 -31.894  23.431  1.00  0.00     0.004 C 
ENDBRANCH  24  25
ENDBRANCH  23  24
ENDBRANCH  22  23
ENDBRANCH  21  22
ENDBRANCH  20  21
ENDBRANCH  19  20
ENDBRANCH  18  19
ENDBRANCH  17  18
ENDBRANCH  16  17
ENDBRANCH  15  16
ENDBRANCH   1  15
TORSDOF 22
ENDMDL
MODEL 2
REMARK VINA RESULT:    -4.908      2.670      4.121
REMARK INTER + INTRA:         -13.845
REMARK INTER:                 -12.046
REMARK INTRA:                  -1.798
REMARK UNBOUND:                -2.624
REMARK SMILES CCCCCCCCCCCCCCCCCCCCCCCC(=O)[O-]
REMARK SMILES IDX 13 1 14 2 15 3 16 4 17 5 18 6 19 7 20 8 21 9 22 10 23 11
REMARK SMILES IDX 24 12 25 13 26 14 12 15 11 16 10 17 9 18 8 19 7 20 6 21 5 22
REMARK SMILES IDX 4 23 3 24 2 25 1 26
REMARK H PARENT
REMARK Flexibility Score: inf
ROOT
ATOM      1  C   UNL     1      14.491 -22.099  22.482  1.00  0.00     0.000 C 
ENDROOT
BRANCH   1   2
ATOM      2  C   UNL     1      14.142 -21.384  23.800  1.00  0.00     0.000 C 
BRANCH   2   3
ATOM      3  C   UNL     1      12.864 -21.882  24.505  1.00  0.00     0.000 C 
BRANCH   3   4
ATOM      4  C   UNL     1      13.089 -23.089  25.441  1.00  0.00     0.000 C 
BRANCH   4   5
ATOM      5  C   UNL     1      12.120 -23.106  26.638  1.00  0.00     0.000 C 
BRANCH   5   6
ATOM      6  C   UNL     1      11.359 -24.435  26.764  1.00  0.00     0.000 C 
BRANCH   6   7
ATOM      7  C   UNL     1       9.842 -24.274  26.549  1.00  0.00     0.000 C 
BRANCH   7   8
ATOM      8  C   UNL     1       9.397 -24.697  25.141  1.00  0.00     0.000 C 
BRANCH   8   9
ATOM      9  C   UNL     1       9.867 -23.715  24.054  1.00  0.00     0.000 C 
BRANCH   9  10
ATOM     10  C   UNL     1       9.954 -24.358  22.660  1.00  0.00     0.006 C 
BRANCH  10  11
ATOM     11  C   UNL     1       8.707 -25.177  22.275  1.00  0.00     0.053 C 
BRANCH  11  12
ATOM     12  C   UNL     1       7.554 -24.307  21.871  1.00  0.00     0.041 C 
ATOM     13  O   UNL     1       6.884 -23.696  22.744  1.00  0.00    -0.550 OA
ATOM     14  O   UNL     1       7.257 -24.123  20.524  1.00  0.00    -0.550 OA
ENDBRANCH  11  12
ENDBRANCH  10  11
ENDBRANCH   9  10
ENDBRANCH   8   9
ENDBRANCH   7   8
ENDBRANCH   6   7
ENDBRANCH   5   6
ENDBRANCH   4   5
ENDBRANCH   3   4
ENDBRANCH   2   3
ENDBRANCH   1   2
BRANCH   1  15
ATOM     15  C   UNL     1      13.291 -22.698  21.717  1.00  0.00     0.000 C 
BRANCH  15  16
ATOM     16  C   UNL     1      13.530 -22.956  20.218  1.00  0.00     0.000 C 
BRANCH  16  17
ATOM     17  C   UNL     1      14.986 -23.341  19.901  1.00  0.00     0.000 C 
BRANCH  17  18
ATOM     18  C   UNL     1      15.135 -24.808  19.460  1.00  0.00    -0.000 C 
BRANCH  18  19
ATOM     19  C   UNL     1      14.644 -25.849  20.483  1.00  0.00    -0.000 C 
BRANCH  19  20
ATOM     20  C   UNL     1      15.712 -26.210  21.532  1.00  0.00    -0.000 C 
BRANCH  20  21
ATOM     21  C   UNL     1      15.475 -27.589  22.167  1.00  0.00    -0.000 C 
BRANCH  21  22
ATOM     22  C   UNL     1      16.454 -27.889  23.312  1.00  0.00    -0.000 C 
BRANCH  22  23
ATOM     23  C   UNL     1      16.105 -29.217  24.001  1.00  0.00    -0.000 C 
BRANCH  23  24
ATOM     24  C   UNL     1      15.938 -30.376  23.005  1.00  0.00    -0.000 C 
BRANCH  24  25
ATOM     25  C   UNL     1      16.483 -31.706  23.547  1.00  0.00    -0.003 C 
ATOM     26  C   UNL     1      17.333 -31.483  24.797  1.00  0.00     0.004 C 
ENDBRANCH  24  25
ENDBRANCH  23  24
ENDBRANCH  22  23
ENDBRANCH  21  22
ENDBRANCH  20  21
ENDBRANCH  19  20
ENDBRANCH  18  19
ENDBRANCH  17  18
ENDBRANCH  16  17
ENDBRANCH  15  16
ENDBRANCH   1  15
TORSDOF 22
ENDMDL
MODEL 3
REMARK VINA RESULT:    -4.888      2.750      4.141
REMARK INTER + INTRA:         -13.798
REMARK INTER:                 -11.518
REMARK INTRA:                  -2.280
REMARK UNBOUND:                -2.624
REMARK SMILES CCCCCCCCCCCCCCCCCCCCCCCC(=O)[O-]
REMARK SMILES IDX 13 1 14 2 15 3 16 4 17 5 18 6 19 7 20 8 21 9 22 10 23 11
REMARK SMILES IDX 24 12 25 13 26 14 12 15 11 16 10 17 9 18 8 19 7 20 6 21 5 22
REMARK SMILES IDX 4 23 3 24 2 25 1 26
REMARK H PARENT
REMARK Flexibility Score: inf
ROOT
ATOM      1  C   UNL     1      15.063 -23.795  19.995  1.00  0.00     0.000 C 
ENDROOT
BRANCH   1   2
ATOM      2  C   UNL     1      13.771 -22.957  19.966  1.00  0.00     0.000 C 
BRANCH   2   3
ATOM      3  C   UNL     1      12.639 -23.457  20.886  1.00  0.00     0.000 C 
BRANCH   3   4
ATOM      4  C   UNL     1      12.389 -22.565  22.121  1.00  0.00     0.000 C 
BRANCH   4   5
ATOM      5  C   UNL     1      12.770 -23.255  23.444  1.00  0.00     0.000 C 
BRANCH   5   6
ATOM      6  C   UNL     1      12.755 -22.291  24.640  1.00  0.00     0.000 C 
BRANCH   6   7
ATOM      7  C   UNL     1      12.693 -23.024  25.994  1.00  0.00     0.000 C 
BRANCH   7   8
ATOM      8  C   UNL     1      11.345 -23.725  26.224  1.00  0.00     0.000 C 
BRANCH   8   9
ATOM      9  C   UNL     1      10.146 -22.792  25.980  1.00  0.00     0.000 C 
BRANCH   9  10
ATOM     10  C   UNL     1       9.357 -23.146  24.709  1.00  0.00     0.006 C 
BRANCH  10  11
ATOM     11  C   UNL     1       9.488 -24.623  24.290  1.00  0.00     0.053 C 
BRANCH  11  12
ATOM     12  C   UNL     1       9.169 -24.836  22.840  1.00  0.00     0.041 C 
ATOM     13  O   UNL     1       8.135 -24.326  22.336  1.00  0.00    -0.550 OA
ATOM     14  O   UNL     1      10.047 -25.550  22.030  1.00  0.00    -0.550 OA
ENDBRANCH  11  12
ENDBRANCH  10  11
ENDBRANCH   9  10
ENDBRANCH   8   9
ENDBRANCH   7   8
ENDBRANCH   6   7
ENDBRANCH   5   6
ENDBRANCH   4   5
ENDBRANCH   3   4
ENDBRANCH   2   3
ENDBRANCH   1   2
BRANCH   1  15
ATOM     15  C   UNL     1      14.903 -25.273  19.582  1.00  0.00     0.000 C 
BRANCH  15  16
ATOM     16  C   UNL     1      15.090 -26.297  20.716  1.00  0.00     0.000 C 
BRANCH  16  17
ATOM     17  C   UNL     1      15.789 -25.701  21.951  1.00  0.00     0.000 C 
BRANCH  17  18
ATOM     18  C   UNL     1      16.699 -26.712  22.671  1.00  0.00    -0.000 C 
BRANCH  18  19
ATOM     19  C   UNL     1      16.090 -28.112  22.869  1.00  0.00    -0.000 C 
BRANCH  19  20
ATOM     20  C   UNL     1      16.224 -28.625  24.315  1.00  0.00    -0.000 C 
BRANCH  20  21
ATOM     21  C   UNL     1      17.173 -29.828  24.428  1.00  0.00    -0.000 C 
BRANCH  21  22
ATOM     22  C   UNL     1      18.567 -29.437  24.941  1.00  0.00    -0.000 C 
BRANCH  22  23
ATOM     23  C   UNL     1      18.485 -28.246  25.907  1.00  0.00    -0.000 C 
BRANCH  23  24
ATOM     24  C   UNL     1      19.432 -27.100  25.518  1.00  0.00    -0.000 C 
BRANCH  24  25
ATOM     25  C   UNL     1      19.931 -26.305  26.734  1.00  0.00    -0.003 C 
ATOM     26  C   UNL     1      19.328 -26.845  28.029  1.00  0.00     0.004 C 
ENDBRANCH  24  25
ENDBRANCH  23  24
ENDBRANCH  22  23
ENDBRANCH  21  22
ENDBRANCH  20  21
ENDBRANCH  19  20
ENDBRANCH  18  19
ENDBRANCH  17  18
ENDBRANCH  16  17
ENDBRANCH  15  16
ENDBRANCH   1  15
TORSDOF 22
ENDMDL
MODEL 4
REMARK VINA RESULT:    -4.875      5.039      7.861
REMARK INTER + INTRA:         -13.770
REMARK INTER:                 -11.583
REMARK INTRA:                  -2.187
REMARK UNBOUND:                -2.624
REMARK SMILES CCCCCCCCCCCCCCCCCCCCCCCC(=O)[O-]
REMARK SMILES IDX 13 1 14 2 15 3 16 4 17 5 18 6 19 7 20 8 21 9 22 10 23 11
REMARK SMILES IDX 24 12 25 13 26 14 12 15 11 16 10 17 9 18 8 19 7 20 6 21 5 22
REMARK SMILES IDX 4 23 3 24 2 25 1 26
REMARK H PARENT
REMARK Flexibility Score: inf
ROOT
ATOM      1  C   UNL     1      10.018 -23.949  25.980  1.00  0.00     0.000 C 
ENDROOT
BRANCH   1   2
ATOM      2  C   UNL     1       9.775 -22.441  25.787  1.00  0.00     0.000 C 
BRANCH   2   3
ATOM      3  C   UNL     1      10.702 -21.513  26.597  1.00  0.00     0.000 C 
BRANCH   3   4
ATOM      4  C   UNL     1       9.993 -20.282  27.201  1.00  0.00     0.000 C 
BRANCH   4   5
ATOM      5  C   UNL     1      10.840 -19.567  28.270  1.00  0.00     0.000 C 
BRANCH   5   6
ATOM      6  C   UNL     1       9.989 -18.738  29.243  1.00  0.00     0.000 C 
BRANCH   6   7
ATOM      7  C   UNL     1      10.823 -17.716  30.041  1.00  0.00     0.000 C 
BRANCH   7   8
ATOM      8  C   UNL     1      11.845 -16.977  29.163  1.00  0.00     0.000 C 
BRANCH   8   9
ATOM      9  C   UNL     1      11.177 -16.115  28.078  1.00  0.00     0.000 C 
BRANCH   9  10
ATOM     10  C   UNL     1      10.242 -15.040  28.656  1.00  0.00     0.006 C 
BRANCH  10  11
ATOM     11  C   UNL     1       9.111 -14.622  27.697  1.00  0.00     0.053 C 
BRANCH  11  12
ATOM     12  C   UNL     1       7.845 -15.390  27.937  1.00  0.00     0.041 C 
ATOM     13  O   UNL     1       7.738 -16.140  28.942  1.00  0.00    -0.550 OA
ATOM     14  O   UNL     1       6.759 -15.230  27.082  1.00  0.00    -0.550 OA
ENDBRANCH  11  12
ENDBRANCH  10  11
ENDBRANCH   9  10
ENDBRANCH   8   9
ENDBRANCH   7   8
ENDBRANCH   6   7
ENDBRANCH   5   6
ENDBRANCH   4   5
ENDBRANCH   3   4
ENDBRANCH   2   3
ENDBRANCH   1   2
BRANCH   1  15
ATOM     15  C   UNL     1       9.658 -24.838  24.770  1.00  0.00     0.000 C 
BRANCH  15  16
ATOM     16  C   UNL     1       8.974 -24.109  23.599  1.00  0.00     0.000 C 
BRANCH  16  17
ATOM     17  C   UNL     1       9.043 -24.899  22.280  1.00  0.00     0.000 C 
BRANCH  17  18
ATOM     18  C   UNL     1      10.486 -25.227  21.855  1.00  0.00    -0.000 C 
BRANCH  18  19
ATOM     19  C   UNL     1      11.400 -24.005  21.652  1.00  0.00    -0.000 C 
BRANCH  19  20
ATOM     20  C   UNL     1      12.396 -24.188  20.492  1.00  0.00    -0.000 C 
BRANCH  20  21
ATOM     21  C   UNL     1      13.302 -22.962  20.293  1.00  0.00    -0.000 C 
BRANCH  21  22
ATOM     22  C   UNL     1      14.741 -23.205  20.774  1.00  0.00    -0.000 C 
BRANCH  22  23
ATOM     23  C   UNL     1      14.837 -23.090  22.303  1.00  0.00    -0.000 C 
BRANCH  23  24
ATOM     24  C   UNL     1      14.211 -21.793  22.840  1.00  0.00    -0.000 C 
BRANCH  24  25
ATOM     25  C   UNL     1      13.625 -21.959  24.250  1.00  0.00    -0.003 C 
ATOM     26  C   UNL     1      13.319 -23.425  24.550  1.00  0.00     0.004 C 
ENDBRANCH  24  25
ENDBRANCH  23  24
ENDBRANCH  22  23
ENDBRANCH  21  22
ENDBRANCH  20  21
ENDBRANCH  19  20
ENDBRANCH  18  19
ENDBRANCH  17  18
ENDBRANCH  16  17
ENDBRANCH  15  16
ENDBRANCH   1  15
TORSDOF 22
ENDMDL
MODEL 5
REMARK VINA RESULT:    -4.837      4.504     10.692
REMARK INTER + INTRA:         -13.682
REMARK INTER:                 -11.503
REMARK INTRA:                  -2.178
REMARK UNBOUND:                -2.624
REMARK SMILES CCCCCCCCCCCCCCCCCCCCCCCC(=O)[O-]
REMARK SMILES IDX 13 1 14 2 15 3 16 4 17 5 18 6 19 7 20 8 21 9 22 10 23 11
REMARK SMILES IDX 24 12 25 13 26 14 12 15 11 16 10 17 9 18 8 19 7 20 6 21 5 22
REMARK SMILES IDX 4 23 3 24 2 25 1 26
REMARK H PARENT
REMARK Flexibility Score: inf
ROOT
ATOM      1  C   UNL     1      12.539 -23.119  25.126  1.00  0.00     0.000 C 
ENDROOT
BRANCH   1   2
ATOM      2  C   UNL     1      12.633 -21.855  24.250  1.00  0.00     0.000 C 
BRANCH   2   3
ATOM      3  C   UNL     1      14.059 -21.448  23.829  1.00  0.00     0.000 C 
BRANCH   3   4
ATOM      4  C   UNL     1      15.109 -22.567  23.990  1.00  0.00     0.000 C 
BRANCH   4   5
ATOM      5  C   UNL     1      15.852 -22.885  22.679  1.00  0.00     0.000 C 
BRANCH   5   6
ATOM      6  C   UNL     1      15.169 -23.994  21.865  1.00  0.00     0.000 C 
BRANCH   6   7
ATOM      7  C   UNL     1      14.764 -23.531  20.452  1.00  0.00     0.000 C 
BRANCH   7   8
ATOM      8  C   UNL     1      13.347 -22.938  20.409  1.00  0.00     0.000 C 
BRANCH   8   9
ATOM      9  C   UNL     1      12.254 -24.020  20.408  1.00  0.00     0.000 C 
BRANCH   9  10
ATOM     10  C   UNL     1      11.527 -24.142  21.757  1.00  0.00     0.006 C 
BRANCH  10  11
ATOM     11  C   UNL     1      10.420 -25.213  21.771  1.00  0.00     0.053 C 
BRANCH  11  12
ATOM     12  C   UNL     1       9.185 -24.751  22.485  1.00  0.00     0.041 C 
ATOM     13  O   UNL     1       8.114 -24.572  21.849  1.00  0.00    -0.550 OA
ATOM     14  O   UNL     1       9.201 -24.576  23.865  1.00  0.00    -0.550 OA
ENDBRANCH  11  12
ENDBRANCH  10  11
ENDBRANCH   9  10
ENDBRANCH   8   9
ENDBRANCH   7   8
ENDBRANCH   6   7
ENDBRANCH   5   6
ENDBRANCH   4   5
ENDBRANCH   3   4
ENDBRANCH   2   3
ENDBRANCH   1   2
BRANCH   1  15
ATOM     15  C   UNL     1      11.434 -23.097  26.203  1.00  0.00     0.000 C 
BRANCH  15  16
ATOM     16  C   UNL     1      10.499 -21.874  26.162  1.00  0.00     0.000 C 
BRANCH  16  17
ATOM     17  C   UNL     1      10.514 -21.066  27.471  1.00  0.00     0.000 C 
BRANCH  17  18
ATOM     18  C   UNL     1       9.779 -19.719  27.351  1.00  0.00    -0.000 C 
BRANCH  18  19
ATOM     19  C   UNL     1       9.383 -19.071  28.690  1.00  0.00    -0.000 C 
BRANCH  19  20
ATOM     20  C   UNL     1      10.517 -18.234  29.310  1.00  0.00    -0.000 C 
BRANCH  20  21
ATOM     21  C   UNL     1      11.300 -17.430  28.259  1.00  0.00    -0.000 C 
BRANCH  21  22
ATOM     22  C   UNL     1      11.606 -15.996  28.718  1.00  0.00    -0.000 C 
BRANCH  22  23
ATOM     23  C   UNL     1      10.314 -15.181  28.876  1.00  0.00    -0.000 C 
BRANCH  23  24
ATOM     24  C   UNL     1       9.368 -15.331  27.673  1.00  0.00    -0.000 C 
BRANCH  24  25
ATOM     25  C   UNL     1       8.153 -14.394  27.756  1.00  0.00    -0.003 C 
ATOM     26  C   UNL     1       8.522 -12.974  27.332  1.00  0.00     0.004 C 
ENDBRANCH  24  25
ENDBRANCH  23  24
ENDBRANCH  22  23
ENDBRANCH  21  22
ENDBRANCH  20  21
ENDBRANCH  19  20
ENDBRANCH  18  19
ENDBRANCH  17  18
ENDBRANCH  16  17
ENDBRANCH  15  16
ENDBRANCH   1  15
TORSDOF 22
ENDMDL
MODEL 6
REMARK VINA RESULT:    -4.836      3.907      5.759
REMARK INTER + INTRA:         -13.680
REMARK INTER:                 -11.897
REMARK INTRA:                  -1.784
REMARK UNBOUND:                -2.624
REMARK SMILES CCCCCCCCCCCCCCCCCCCCCCCC(=O)[O-]
REMARK SMILES IDX 13 1 14 2 15 3 16 4 17 5 18 6 19 7 20 8 21 9 22 10 23 11
REMARK SMILES IDX 24 12 25 13 26 14 12 15 11 16 10 17 9 18 8 19 7 20 6 21 5 22
REMARK SMILES IDX 4 23 3 24 2 25 1 26
REMARK H PARENT
REMARK Flexibility Score: inf
ROOT
ATOM      1  C   UNL     1      15.750 -25.603  22.081  1.00  0.00     0.000 C 
ENDROOT
BRANCH   1   2
ATOM      2  C   UNL     1      15.028 -25.975  20.773  1.00  0.00     0.000 C 
BRANCH   2   3
ATOM      3  C   UNL     1      14.964 -24.858  19.713  1.00  0.00     0.000 C 
BRANCH   3   4
ATOM      4  C   UNL     1      14.709 -23.450  20.292  1.00  0.00     0.000 C 
BRANCH   4   5
ATOM      5  C   UNL     1      13.244 -23.000  20.149  1.00  0.00     0.000 C 
BRANCH   5   6
ATOM      6  C   UNL     1      12.338 -23.572  21.250  1.00  0.00     0.000 C 
BRANCH   6   7
ATOM      7  C   UNL     1      11.344 -24.621  20.717  1.00  0.00     0.000 C 
BRANCH   7   8
ATOM      8  C   UNL     1      10.601 -25.356  21.844  1.00  0.00     0.000 C 
BRANCH   8   9
ATOM      9  C   UNL     1       9.418 -24.543  22.399  1.00  0.00     0.000 C 
BRANCH   9  10
ATOM     10  C   UNL     1       9.307 -24.613  23.931  1.00  0.00     0.006 C 
BRANCH  10  11
ATOM     11  C   UNL     1      10.338 -23.736  24.668  1.00  0.00     0.053 C 
BRANCH  11  12
ATOM     12  C   UNL     1      10.434 -24.070  26.127  1.00  0.00     0.041 C 
ATOM     13  O   UNL     1      11.208 -23.420  26.877  1.00  0.00    -0.550 OA
ATOM     14  O   UNL     1       9.622 -25.060  26.671  1.00  0.00    -0.550 OA
ENDBRANCH  11  12
ENDBRANCH  10  11
ENDBRANCH   9  10
ENDBRANCH   8   9
ENDBRANCH   7   8
ENDBRANCH   6   7
ENDBRANCH   5   6
ENDBRANCH   4   5
ENDBRANCH   3   4
ENDBRANCH   2   3
ENDBRANCH   1   2
BRANCH   1  15
ATOM     15  C   UNL     1      16.737 -26.662  22.618  1.00  0.00     0.000 C 
BRANCH  15  16
ATOM     16  C   UNL     1      16.146 -28.070  22.817  1.00  0.00     0.000 C 
BRANCH  16  17
ATOM     17  C   UNL     1      16.511 -28.684  24.179  1.00  0.00     0.000 C 
BRANCH  17  18
ATOM     18  C   UNL     1      18.024 -28.657  24.463  1.00  0.00    -0.000 C 
BRANCH  18  19
ATOM     19  C   UNL     1      18.431 -27.940  25.763  1.00  0.00    -0.000 C 
BRANCH  19  20
ATOM     20  C   UNL     1      19.325 -26.711  25.514  1.00  0.00    -0.000 C 
BRANCH  20  21
ATOM     21  C   UNL     1      20.133 -26.822  24.212  1.00  0.00    -0.000 C 
BRANCH  21  22
ATOM     22  C   UNL     1      21.594 -27.230  24.455  1.00  0.00    -0.000 C 
BRANCH  22  23
ATOM     23  C   UNL     1      22.270 -26.287  25.461  1.00  0.00    -0.000 C 
BRANCH  23  24
ATOM     24  C   UNL     1      23.712 -26.706  25.789  1.00  0.00    -0.000 C 
BRANCH  24  25
ATOM     25  C   UNL     1      24.050 -26.550  27.280  1.00  0.00    -0.003 C 
ATOM     26  C   UNL     1      24.051 -25.080  27.693  1.00  0.00     0.004 C 
ENDBRANCH  24  25
ENDBRANCH  23  24
ENDBRANCH  22  23
ENDBRANCH  21  22
ENDBRANCH  20  21
ENDBRANCH  19  20
ENDBRANCH  18  19
ENDBRANCH  17  18
ENDBRANCH  16  17
ENDBRANCH  15  16
ENDBRANCH   1  15
TORSDOF 22
ENDMDL
MODEL 7
REMARK VINA RESULT:    -4.797      4.354      6.094
REMARK INTER + INTRA:         -13.590
REMARK INTER:                 -11.542
REMARK INTRA:                  -2.049
REMARK UNBOUND:                -2.624
REMARK SMILES CCCCCCCCCCCCCCCCCCCCCCCC(=O)[O-]
REMARK SMILES IDX 13 1 14 2 15 3 16 4 17 5 18 6 19 7 20 8 21 9 22 10 23 11
REMARK SMILES IDX 24 12 25 13 26 14 12 15 11 16 10 17 9 18 8 19 7 20 6 21 5 22
REMARK SMILES IDX 4 23 3 24 2 25 1 26
REMARK H PARENT
REMARK Flexibility Score: inf
ROOT
ATOM      1  C   UNL     1      16.200 -25.867  22.249  1.00  0.00     0.000 C 
ENDROOT
BRANCH   1   2
ATOM      2  C   UNL     1      15.373 -26.480  21.103  1.00  0.00     0.000 C 
BRANCH   2   3
ATOM      3  C   UNL     1      14.348 -25.533  20.449  1.00  0.00     0.000 C 
BRANCH   3   4
ATOM      4  C   UNL     1      14.978 -24.347  19.689  1.00  0.00     0.000 C 
BRANCH   4   5
ATOM      5  C   UNL     1      14.418 -22.984  20.136  1.00  0.00     0.000 C 
BRANCH   5   6
ATOM      6  C   UNL     1      12.904 -23.021  20.394  1.00  0.00     0.000 C 
BRANCH   6   7
ATOM      7  C   UNL     1      12.533 -22.586  21.825  1.00  0.00     0.000 C 
BRANCH   7   8
ATOM      8  C   UNL     1      13.769 -22.316  22.698  1.00  0.00     0.000 C 
BRANCH   8   9
ATOM      9  C   UNL     1      13.405 -22.058  24.170  1.00  0.00     0.000 C 
BRANCH   9  10
ATOM     10  C   UNL     1      13.038 -23.342  24.932  1.00  0.00     0.006 C 
BRANCH  10  11
ATOM     11  C   UNL     1      11.956 -23.136  26.009  1.00  0.00     0.053 C 
BRANCH  11  12
ATOM     12  C   UNL     1      10.571 -23.115  25.433  1.00  0.00     0.041 C 
ATOM     13  O   UNL     1      10.030 -24.183  25.043  1.00  0.00    -0.550 OA
ATOM     14  O   UNL     1       9.854 -21.924  25.383  1.00  0.00    -0.550 OA
ENDBRANCH  11  12
ENDBRANCH  10  11
ENDBRANCH   9  10
ENDBRANCH   8   9
ENDBRANCH   7   8
ENDBRANCH   6   7
ENDBRANCH   5   6
ENDBRANCH   4   5
ENDBRANCH   3   4
ENDBRANCH   2   3
ENDBRANCH   1   2
BRANCH   1  15
ATOM     15  C   UNL     1      17.143 -26.845  22.982  1.00  0.00     0.000 C 
BRANCH  15  16
ATOM     16  C   UNL     1      18.600 -26.369  23.128  1.00  0.00     0.000 C 
BRANCH  16  17
ATOM     17  C   UNL     1      19.375 -27.138  24.212  1.00  0.00     0.000 C 
BRANCH  17  18
ATOM     18  C   UNL     1      19.439 -26.382  25.552  1.00  0.00    -0.000 C 
BRANCH  18  19
ATOM     19  C   UNL     1      19.407 -27.275  26.806  1.00  0.00    -0.000 C 
BRANCH  19  20
ATOM     20  C   UNL     1      19.643 -26.487  28.108  1.00  0.00    -0.000 C 
BRANCH  20  21
ATOM     21  C   UNL     1      20.709 -27.136  29.005  1.00  0.00    -0.000 C 
BRANCH  21  22
ATOM     22  C   UNL     1      21.722 -26.117  29.551  1.00  0.00    -0.000 C 
BRANCH  22  23
ATOM     23  C   UNL     1      22.991 -26.085  28.687  1.00  0.00    -0.000 C 
BRANCH  23  24
ATOM     24  C   UNL     1      23.124 -27.320  27.781  1.00  0.00    -0.000 C 
BRANCH  24  25
ATOM     25  C   UNL     1      23.474 -26.956  26.331  1.00  0.00    -0.003 C 
ATOM     26  C   UNL     1      22.869 -25.610  25.939  1.00  0.00     0.004 C 
ENDBRANCH  24  25
ENDBRANCH  23  24
ENDBRANCH  22  23
ENDBRANCH  21  22
ENDBRANCH  20  21
ENDBRANCH  19  20
ENDBRANCH  18  19
ENDBRANCH  17  18
ENDBRANCH  16  17
ENDBRANCH  15  16
ENDBRANCH   1  15
TORSDOF 22
ENDMDL
MODEL 8
REMARK VINA RESULT:    -4.737      4.033      5.801
REMARK INTER + INTRA:         -13.454
REMARK INTER:                 -11.735
REMARK INTRA:                  -1.719
REMARK UNBOUND:                -2.624
REMARK SMILES CCCCCCCCCCCCCCCCCCCCCCCC(=O)[O-]
REMARK SMILES IDX 13 1 14 2 15 3 16 4 17 5 18 6 19 7 20 8 21 9 22 10 23 11
REMARK SMILES IDX 24 12 25 13 26 14 12 15 11 16 10 17 9 18 8 19 7 20 6 21 5 22
REMARK SMILES IDX 4 23 3 24 2 25 1 26
REMARK H PARENT
REMARK Flexibility Score: inf
ROOT
ATOM      1  C   UNL     1      15.764 -25.565  22.014  1.00  0.00     0.000 C 
ENDROOT
BRANCH   1   2
ATOM      2  C   UNL     1      14.918 -25.884  20.768  1.00  0.00     0.000 C 
BRANCH   2   3
ATOM      3  C   UNL     1      14.964 -24.825  19.649  1.00  0.00     0.000 C 
BRANCH   3   4
ATOM      4  C   UNL     1      14.727 -23.380  20.137  1.00  0.00     0.000 C 
BRANCH   4   5
ATOM      5  C   UNL     1      13.244 -23.080  20.424  1.00  0.00     0.000 C 
BRANCH   5   6
ATOM      6  C   UNL     1      12.988 -22.717  21.895  1.00  0.00     0.000 C 
BRANCH   6   7
ATOM      7  C   UNL     1      14.263 -22.245  22.622  1.00  0.00     0.000 C 
BRANCH   7   8
ATOM      8  C   UNL     1      14.113 -22.273  24.151  1.00  0.00     0.000 C 
BRANCH   8   9
ATOM      9  C   UNL     1      13.154 -23.376  24.630  1.00  0.00     0.000 C 
BRANCH   9  10
ATOM     10  C   UNL     1      12.213 -22.909  25.752  1.00  0.00     0.006 C 
BRANCH  10  11
ATOM     11  C   UNL     1      11.620 -24.061  26.585  1.00  0.00     0.053 C 
BRANCH  11  12
ATOM     12  C   UNL     1      10.152 -24.249  26.339  1.00  0.00     0.041 C 
ATOM     13  O   UNL     1       9.480 -23.339  25.786  1.00  0.00    -0.550 OA
ATOM     14  O   UNL     1       9.538 -25.454  26.665  1.00  0.00    -0.550 OA
ENDBRANCH  11  12
ENDBRANCH  10  11
ENDBRANCH   9  10
ENDBRANCH   8   9
ENDBRANCH   7   8
ENDBRANCH   6   7
ENDBRANCH   5   6
ENDBRANCH   4   5
ENDBRANCH   3   4
ENDBRANCH   2   3
ENDBRANCH   1   2
BRANCH   1  15
ATOM     15  C   UNL     1      16.602 -26.739  22.564  1.00  0.00     0.000 C 
BRANCH  15  16
ATOM     16  C   UNL     1      15.893 -28.106  22.571  1.00  0.00     0.000 C 
BRANCH  16  17
ATOM     17  C   UNL     1      16.080 -28.870  23.894  1.00  0.00     0.000 C 
BRANCH  17  18
ATOM     18  C   UNL     1      17.321 -28.411  24.680  1.00  0.00    -0.000 C 
BRANCH  18  19
ATOM     19  C   UNL     1      18.584 -29.264  24.460  1.00  0.00    -0.000 C 
BRANCH  19  20
ATOM     20  C   UNL     1      19.811 -28.726  25.218  1.00  0.00    -0.000 C 
BRANCH  20  21
ATOM     21  C   UNL     1      20.620 -27.714  24.391  1.00  0.00    -0.000 C 
BRANCH  21  22
ATOM     22  C   UNL     1      20.859 -26.394  25.140  1.00  0.00    -0.000 C 
BRANCH  22  23
ATOM     23  C   UNL     1      21.710 -26.620  26.398  1.00  0.00    -0.000 C 
BRANCH  23  24
ATOM     24  C   UNL     1      22.982 -25.757  26.416  1.00  0.00    -0.000 C 
BRANCH  24  25
ATOM     25  C   UNL     1      23.669 -25.743  27.790  1.00  0.00    -0.003 C 
ATOM     26  C   UNL     1      24.646 -24.575  27.905  1.00  0.00     0.004 C 
ENDBRANCH  24  25
ENDBRANCH  23  24
ENDBRANCH  22  23
ENDBRANCH  21  22
ENDBRANCH  20  21
ENDBRANCH  19  20
ENDBRANCH  18  19
ENDBRANCH  17  18
ENDBRANCH  16  17
ENDBRANCH  15  16
ENDBRANCH   1  15
TORSDOF 22
ENDMDL
MODEL 9
REMARK VINA RESULT:    -4.727      4.739     10.568
REMARK INTER + INTRA:         -13.431
REMARK INTER:                 -11.234
REMARK INTRA:                  -2.197
REMARK UNBOUND:                -2.624
REMARK SMILES CCCCCCCCCCCCCCCCCCCCCCCC(=O)[O-]
REMARK SMILES IDX 13 1 14 2 15 3 16 4 17 5 18 6 19 7 20 8 21 9 22 10 23 11
REMARK SMILES IDX 24 12 25 13 26 14 12 15 11 16 10 17 9 18 8 19 7 20 6 21 5 22
REMARK SMILES IDX 4 23 3 24 2 25 1 26
REMARK H PARENT
REMARK Flexibility Score: inf
ROOT
ATOM      1  C   UNL     1      10.163 -20.181  27.494  1.00  0.00     0.000 C 
ENDROOT
BRANCH   1   2
ATOM      2  C   UNL     1       9.711 -20.937  26.231  1.00  0.00     0.000 C 
BRANCH   2   3
ATOM      3  C   UNL     1      10.689 -22.013  25.720  1.00  0.00     0.000 C 
BRANCH   3   4
ATOM      4  C   UNL     1      10.457 -23.416  26.322  1.00  0.00     0.000 C 
BRANCH   4   5
ATOM      5  C   UNL     1       9.764 -24.381  25.343  1.00  0.00     0.000 C 
BRANCH   5   6
ATOM      6  C   UNL     1       9.499 -23.743  23.971  1.00  0.00     0.000 C 
BRANCH   6   7
ATOM      7  C   UNL     1       9.035 -24.768  22.918  1.00  0.00     0.000 C 
BRANCH   7   8
ATOM      8  C   UNL     1      10.150 -25.144  21.929  1.00  0.00     0.000 C 
BRANCH   8   9
ATOM      9  C   UNL     1      11.356 -24.192  22.011  1.00  0.00     0.000 C 
BRANCH   9  10
ATOM     10  C   UNL     1      12.274 -24.277  20.780  1.00  0.00     0.006 C 
BRANCH  10  11
ATOM     11  C   UNL     1      12.899 -22.927  20.378  1.00  0.00     0.053 C 
BRANCH  11  12
ATOM     12  C   UNL     1      14.199 -22.667  21.080  1.00  0.00     0.041 C 
ATOM     13  O   UNL     1      14.212 -22.088  22.197  1.00  0.00    -0.550 OA
ATOM     14  O   UNL     1      15.393 -23.120  20.528  1.00  0.00    -0.550 OA
ENDBRANCH  11  12
ENDBRANCH  10  11
ENDBRANCH   9  10
ENDBRANCH   8   9
ENDBRANCH   7   8
ENDBRANCH   6   7
ENDBRANCH   5   6
ENDBRANCH   4   5
ENDBRANCH   3   4
ENDBRANCH   2   3
ENDBRANCH   1   2
BRANCH   1  15
ATOM     15  C   UNL     1       9.097 -19.265  28.134  1.00  0.00     0.000 C 
BRANCH  15  16
ATOM     16  C   UNL     1       8.228 -18.473  27.140  1.00  0.00     0.000 C 
BRANCH  16  17
ATOM     17  C   UNL     1       7.160 -17.610  27.835  1.00  0.00     0.000 C 
BRANCH  17  18
ATOM     18  C   UNL     1       7.740 -16.329  28.462  1.00  0.00    -0.000 C 
BRANCH  18  19
ATOM     19  C   UNL     1       8.730 -15.557  27.570  1.00  0.00    -0.000 C 
BRANCH  19  20
ATOM     20  C   UNL     1      10.053 -15.230  28.286  1.00  0.00    -0.000 C 
BRANCH  20  21
ATOM     21  C   UNL     1      11.169 -16.231  27.949  1.00  0.00    -0.000 C 
BRANCH  21  22
ATOM     22  C   UNL     1      11.852 -16.800  29.203  1.00  0.00    -0.000 C 
BRANCH  22  23
ATOM     23  C   UNL     1      10.859 -16.910  30.369  1.00  0.00    -0.000 C 
BRANCH  23  24
ATOM     24  C   UNL     1      10.699 -18.352  30.878  1.00  0.00    -0.000 C 
BRANCH  24  25
ATOM     25  C   UNL     1      10.090 -18.419  32.287  1.00  0.00    -0.003 C 
ATOM     26  C   UNL     1       9.338 -17.133  32.623  1.00  0.00     0.004 C 
ENDBRANCH  24  25
ENDBRANCH  23  24
ENDBRANCH  22  23
ENDBRANCH  21  22
ENDBRANCH  20  21
ENDBRANCH  19  20
ENDBRANCH  18  19
ENDBRANCH  17  18
ENDBRANCH  16  17
ENDBRANCH  15  16
ENDBRANCH   1  15
TORSDOF 22
ENDMDL
