MODEL 1
REMARK VINA RESULT:    -4.379      0.000      0.000
REMARK INTER + INTRA:          -4.507
REMARK INTER:                  -4.507
REMARK INTRA:                   0.000
REMARK UNBOUND:                 0.000
REMARK SMILES Nc1ncnc2nc[nH]c12
REMARK SMILES IDX 8 1 7 2 6 3 5 4 4 5 3 6 2 7 10 8 9 9 1 11
REMARK H PARENT 9 10 1 12 1 13
REMARK Flexibility Score: inf
ROOT
ATOM      1  C   UNL     1       2.104  23.577  22.038  1.00  0.00     0.199 A 
ATOM      2  N   UNL     1       1.617  23.403  23.297  1.00  0.00    -0.217 NA
ATOM      3  C   UNL     1       2.701  23.627  24.057  1.00  0.00     0.182 A 
ATOM      4  N   UNL     1       2.764  23.580  25.409  1.00  0.00    -0.215 NA
ATOM      5  C   UNL     1       3.966  23.840  26.008  1.00  0.00     0.226 A 
ATOM      6  N   UNL     1       5.071  24.138  25.252  1.00  0.00    -0.217 NA
ATOM      7  C   UNL     1       5.009  24.185  23.888  1.00  0.00     0.152 A 
ATOM      8  C   UNL     1       3.779  23.919  23.293  1.00  0.00     0.127 A 
ATOM      9  N   UNL     1       3.424  23.893  22.002  1.00  0.00    -0.340 N 
ATOM     10  H   UNL     1       4.012  24.072  21.159  1.00  0.00     0.168 HD
ENDROOT
BRANCH   7  11
ATOM     11  N   UNL     1       6.174  24.498  23.121  1.00  0.00    -0.382 N 
ATOM     12  H   UNL     1       6.091  24.682  22.097  1.00  0.00     0.158 HD
ATOM     13  H   UNL     1       7.118  24.549  23.563  1.00  0.00     0.158 HD
ENDBRANCH   7  11
TORSDOF 1
ENDMDL
MODEL 2
REMARK VINA RESULT:    -4.314      2.911      4.121
REMARK INTER + INTRA:          -4.441
REMARK INTER:                  -4.441
REMARK INTRA:                   0.000
REMARK UNBOUND:                 0.000
REMARK SMILES Nc1ncnc2nc[nH]c12
REMARK SMILES IDX 8 1 7 2 6 3 5 4 4 5 3 6 2 7 10 8 9 9 1 11
REMARK H PARENT 9 10 1 12 1 13
REMARK Flexibility Score: inf
ROOT
ATOM      1  C   UNL     1       2.301  24.022  23.668  1.00  0.00     0.199 A 
ATOM      2  N   UNL     1       1.852  22.852  24.199  1.00  0.00    -0.217 NA
ATOM      3  C   UNL     1       1.073  23.275  25.207  1.00  0.00     0.182 A 
ATOM      4  N   UNL     1       0.375  22.498  26.069  1.00  0.00    -0.215 NA
ATOM      5  C   UNL     1      -0.368  23.116  27.038  1.00  0.00     0.226 A 
ATOM      6  N   UNL     1      -0.398  24.485  27.125  1.00  0.00    -0.217 NA
ATOM      7  C   UNL     1       0.306  25.270  26.256  1.00  0.00     0.152 A 
ATOM      8  C   UNL     1       1.056  24.626  25.276  1.00  0.00     0.127 A 
ATOM      9  N   UNL     1       1.832  25.126  24.305  1.00  0.00    -0.340 N 
ATOM     10  H   UNL     1       2.036  26.124  24.081  1.00  0.00     0.168 HD
ENDROOT
BRANCH   7  11
ATOM     11  N   UNL     1       0.259  26.693  26.366  1.00  0.00    -0.382 N 
ATOM     12  H   UNL     1       0.471  27.154  27.279  1.00  0.00     0.158 HD
ATOM     13  H   UNL     1       0.017  27.294  25.548  1.00  0.00     0.158 HD
ENDBRANCH   7  11
TORSDOF 1
ENDMDL
MODEL 3
REMARK VINA RESULT:    -4.194      2.461      3.866
REMARK INTER + INTRA:          -4.317
REMARK INTER:                  -4.317
REMARK INTRA:                   0.000
REMARK UNBOUND:                 0.000
REMARK SMILES Nc1ncnc2nc[nH]c12
REMARK SMILES IDX 8 1 7 2 6 3 5 4 4 5 3 6 2 7 10 8 9 9 1 11
REMARK H PARENT 9 10 1 12 1 13
REMARK Flexibility Score: inf
ROOT
ATOM      1  C   UNL     1       0.842  23.375  26.009  1.00  0.00     0.199 A 
ATOM      2  N   UNL     1       1.383  24.552  25.591  1.00  0.00    -0.217 NA
ATOM      3  C   UNL     1       1.674  24.292  24.305  1.00  0.00     0.182 A 
ATOM      4  N   UNL     1       2.239  25.143  23.417  1.00  0.00    -0.215 NA
ATOM      5  C   UNL     1       2.459  24.693  22.144  1.00  0.00     0.226 A 
ATOM      6  N   UNL     1       2.113  23.415  21.787  1.00  0.00    -0.217 NA
ATOM      7  C   UNL     1       1.543  22.555  22.683  1.00  0.00     0.152 A 
ATOM      8  C   UNL     1       1.325  23.027  23.974  1.00  0.00     0.127 A 
ATOM      9  N   UNL     1       0.793  22.423  25.044  1.00  0.00    -0.340 N 
ATOM     10  H   UNL     1       0.424  21.450  25.128  1.00  0.00     0.168 HD
ENDROOT
BRANCH   7  11
ATOM     11  N   UNL     1       1.191  21.228  22.288  1.00  0.00    -0.382 N 
ATOM     12  H   UNL     1       1.006  21.013  21.283  1.00  0.00     0.158 HD
ATOM     13  H   UNL     1       1.113  20.456  22.986  1.00  0.00     0.158 HD
ENDBRANCH   7  11
TORSDOF 1
ENDMDL
MODEL 4
REMARK VINA RESULT:    -4.179     18.441     20.321
REMARK INTER + INTRA:          -4.301
REMARK INTER:                  -4.301
REMARK INTRA:                   0.000
REMARK UNBOUND:                 0.000
REMARK SMILES Nc1ncnc2nc[nH]c12
REMARK SMILES IDX 8 1 7 2 6 3 5 4 4 5 3 6 2 7 10 8 9 9 1 11
REMARK H PARENT 9 10 1 12 1 13
REMARK Flexibility Score: inf
ROOT
ATOM      1  C   UNL     1     -11.945  24.500   8.280  1.00  0.00     0.199 A 
ATOM      2  N   UNL     1     -12.950  23.750   8.810  1.00  0.00    -0.217 NA
ATOM      3  C   UNL     1     -12.486  23.478  10.040  1.00  0.00     0.182 A 
ATOM      4  N   UNL     1     -13.110  22.750  10.996  1.00  0.00    -0.215 NA
ATOM      5  C   UNL     1     -12.475  22.581  12.196  1.00  0.00     0.226 A 
ATOM      6  N   UNL     1     -11.240  23.137  12.414  1.00  0.00    -0.217 NA
ATOM      7  C   UNL     1     -10.609  23.872  11.451  1.00  0.00     0.152 A 
ATOM      8  C   UNL     1     -11.269  24.035  10.236  1.00  0.00     0.127 A 
ATOM      9  N   UNL     1     -10.902  24.692   9.128  1.00  0.00    -0.340 N 
ATOM     10  H   UNL     1     -10.025  25.228   8.946  1.00  0.00     0.168 HD
ENDROOT
BRANCH   7  11
ATOM     11  N   UNL     1      -9.323  24.442  11.702  1.00  0.00    -0.382 N 
ATOM     12  H   UNL     1      -9.235  25.284  12.313  1.00  0.00     0.158 HD
ATOM     13  H   UNL     1      -8.457  24.034  11.286  1.00  0.00     0.158 HD
ENDBRANCH   7  11
TORSDOF 1
ENDMDL
MODEL 5
REMARK VINA RESULT:    -4.055      0.889      2.988
REMARK INTER + INTRA:          -4.173
REMARK INTER:                  -4.173
REMARK INTRA:                   0.000
REMARK UNBOUND:                 0.000
REMARK SMILES Nc1ncnc2nc[nH]c12
REMARK SMILES IDX 8 1 7 2 6 3 5 4 4 5 3 6 2 7 10 8 9 9 1 11
REMARK H PARENT 9 10 1 12 1 13
REMARK Flexibility Score: inf
ROOT
ATOM      1  C   UNL     1       5.855  24.407  24.549  1.00  0.00     0.199 A 
ATOM      2  N   UNL     1       4.998  24.420  25.606  1.00  0.00    -0.217 NA
ATOM      3  C   UNL     1       3.816  24.168  25.020  1.00  0.00     0.182 A 
ATOM      4  N   UNL     1       2.613  24.072  25.634  1.00  0.00    -0.215 NA
ATOM      5  C   UNL     1       1.515  23.808  24.863  1.00  0.00     0.226 A 
ATOM      6  N   UNL     1       1.639  23.647  23.506  1.00  0.00    -0.217 NA
ATOM      7  C   UNL     1       2.852  23.744  22.885  1.00  0.00     0.152 A 
ATOM      8  C   UNL     1       3.960  24.013  23.683  1.00  0.00     0.127 A 
ATOM      9  N   UNL     1       5.251  24.160  23.359  1.00  0.00    -0.340 N 
ATOM     10  H   UNL     1       5.699  24.103  22.418  1.00  0.00     0.168 HD
ENDROOT
BRANCH   7  11
ATOM     11  N   UNL     1       2.956  23.573  21.470  1.00  0.00    -0.382 N 
ATOM     12  H   UNL     1       3.847  23.809  20.980  1.00  0.00     0.158 HD
ATOM     13  H   UNL     1       2.156  23.212  20.906  1.00  0.00     0.158 HD
ENDBRANCH   7  11
TORSDOF 1
ENDMDL
MODEL 6
REMARK VINA RESULT:    -3.923     13.483     14.765
REMARK INTER + INTRA:          -4.038
REMARK INTER:                  -4.038
REMARK INTRA:                   0.000
REMARK UNBOUND:                 0.000
REMARK SMILES Nc1ncnc2nc[nH]c12
REMARK SMILES IDX 8 1 7 2 6 3 5 4 4 5 3 6 2 7 10 8 9 9 1 11
REMARK H PARENT 9 10 1 12 1 13
REMARK Flexibility Score: inf
ROOT
ATOM      1  C   UNL     1      -7.951  17.300  25.948  1.00  0.00     0.199 A 
ATOM      2  N   UNL     1      -9.198  17.334  25.405  1.00  0.00    -0.217 NA
ATOM      3  C   UNL     1      -9.111  16.414  24.430  1.00  0.00     0.182 A 
ATOM      4  N   UNL     1     -10.094  16.050  23.573  1.00  0.00    -0.215 NA
ATOM      5  C   UNL     1      -9.813  15.088  22.641  1.00  0.00     0.226 A 
ATOM      6  N   UNL     1      -8.568  14.515  22.585  1.00  0.00    -0.217 NA
ATOM      7  C   UNL     1      -7.575  14.882  23.450  1.00  0.00     0.152 A 
ATOM      8  C   UNL     1      -7.877  15.861  24.392  1.00  0.00     0.127 A 
ATOM      9  N   UNL     1      -7.119  16.410  25.350  1.00  0.00    -0.340 N 
ATOM     10  H   UNL     1      -6.123  16.210  25.589  1.00  0.00     0.168 HD
ENDROOT
BRANCH   7  11
ATOM     11  N   UNL     1      -6.286  14.270  23.372  1.00  0.00    -0.382 N 
ATOM     12  H   UNL     1      -5.477  14.693  23.879  1.00  0.00     0.158 HD
ATOM     13  H   UNL     1      -6.130  13.401  22.817  1.00  0.00     0.158 HD
ENDBRANCH   7  11
TORSDOF 1
ENDMDL
MODEL 7
REMARK VINA RESULT:    -3.898      1.093      3.725
REMARK INTER + INTRA:          -4.011
REMARK INTER:                  -4.011
REMARK INTRA:                   0.000
REMARK UNBOUND:                 0.000
REMARK SMILES Nc1ncnc2nc[nH]c12
REMARK SMILES IDX 8 1 7 2 6 3 5 4 4 5 3 6 2 7 10 8 9 9 1 11
REMARK H PARENT 9 10 1 12 1 13
REMARK Flexibility Score: inf
ROOT
ATOM      1  C   UNL     1       5.674  24.248  25.072  1.00  0.00     0.199 A 
ATOM      2  N   UNL     1       5.498  24.062  23.735  1.00  0.00    -0.217 NA
ATOM      3  C   UNL     1       4.161  24.105  23.613  1.00  0.00     0.182 A 
ATOM      4  N   UNL     1       3.450  23.972  22.469  1.00  0.00    -0.215 NA
ATOM      5  C   UNL     1       2.086  24.045  22.546  1.00  0.00     0.226 A 
ATOM      6  N   UNL     1       1.466  24.249  23.753  1.00  0.00    -0.217 NA
ATOM      7  C   UNL     1       2.183  24.383  24.908  1.00  0.00     0.152 A 
ATOM      8  C   UNL     1       3.570  24.307  24.814  1.00  0.00     0.127 A 
ATOM      9  N   UNL     1       4.513  24.401  25.759  1.00  0.00    -0.340 N 
ATOM     10  H   UNL     1       4.397  24.554  26.785  1.00  0.00     0.168 HD
ENDROOT
BRANCH   7  11
ATOM     11  N   UNL     1       1.515  24.595  26.153  1.00  0.00    -0.382 N 
ATOM     12  H   UNL     1       2.062  24.872  26.999  1.00  0.00     0.158 HD
ATOM     13  H   UNL     1       0.482  24.480  26.242  1.00  0.00     0.158 HD
ENDBRANCH   7  11
TORSDOF 1
ENDMDL
MODEL 8
REMARK VINA RESULT:    -3.891      1.240      2.439
REMARK INTER + INTRA:          -4.005
REMARK INTER:                  -4.005
REMARK INTRA:                   0.000
REMARK UNBOUND:                 0.000
REMARK SMILES Nc1ncnc2nc[nH]c12
REMARK SMILES IDX 8 1 7 2 6 3 5 4 4 5 3 6 2 7 10 8 9 9 1 11
REMARK H PARENT 9 10 1 12 1 13
REMARK Flexibility Score: inf
ROOT
ATOM      1  C   UNL     1       0.872  22.878  25.397  1.00  0.00     0.199 A 
ATOM      2  N   UNL     1       1.856  23.168  26.292  1.00  0.00    -0.217 NA
ATOM      3  C   UNL     1       2.868  23.545  25.492  1.00  0.00     0.182 A 
ATOM      4  N   UNL     1       4.101  23.944  25.884  1.00  0.00    -0.215 NA
ATOM      5  C   UNL     1       5.004  24.291  24.916  1.00  0.00     0.226 A 
ATOM      6  N   UNL     1       4.659  24.235  23.590  1.00  0.00    -0.217 NA
ATOM      7  C   UNL     1       3.415  23.833  23.194  1.00  0.00     0.152 A 
ATOM      8  C   UNL     1       2.508  23.483  24.190  1.00  0.00     0.127 A 
ATOM      9  N   UNL     1       1.240  23.060  24.103  1.00  0.00    -0.340 N 
ATOM     10  H   UNL     1       0.661  22.902  23.249  1.00  0.00     0.168 HD
ENDROOT
BRANCH   7  11
ATOM     11  N   UNL     1       3.079  23.782  21.806  1.00  0.00    -0.382 N 
ATOM     12  H   UNL     1       2.110  23.527  21.512  1.00  0.00     0.158 HD
ATOM     13  H   UNL     1       3.784  23.997  21.068  1.00  0.00     0.158 HD
ENDBRANCH   7  11
TORSDOF 1
ENDMDL
MODEL 9
REMARK VINA RESULT:    -3.836      1.039      2.939
REMARK INTER + INTRA:          -3.948
REMARK INTER:                  -3.948
REMARK INTRA:                   0.000
REMARK UNBOUND:                 0.000
REMARK SMILES Nc1ncnc2nc[nH]c12
REMARK SMILES IDX 8 1 7 2 6 3 5 4 4 5 3 6 2 7 10 8 9 9 1 11
REMARK H PARENT 9 10 1 12 1 13
REMARK Flexibility Score: inf
ROOT
ATOM      1  C   UNL     1       2.322  23.671  26.516  1.00  0.00     0.199 A 
ATOM      2  N   UNL     1       1.304  23.232  25.727  1.00  0.00    -0.217 NA
ATOM      3  C   UNL     1       1.817  23.371  24.493  1.00  0.00     0.182 A 
ATOM      4  N   UNL     1       1.204  23.071  23.324  1.00  0.00    -0.215 NA
ATOM      5  C   UNL     1       1.893  23.283  22.162  1.00  0.00     0.226 A 
ATOM      6  N   UNL     1       3.169  23.785  22.190  1.00  0.00    -0.217 NA
ATOM      7  C   UNL     1       3.789  24.088  23.369  1.00  0.00     0.152 A 
ATOM      8  C   UNL     1       3.075  23.867  24.544  1.00  0.00     0.127 A 
ATOM      9  N   UNL     1       3.419  24.067  25.822  1.00  0.00    -0.340 N 
ATOM     10  H   UNL     1       4.315  24.438  26.207  1.00  0.00     0.168 HD
ENDROOT
BRANCH   7  11
ATOM     11  N   UNL     1       5.119  24.610  23.374  1.00  0.00    -0.382 N 
ATOM     12  H   UNL     1       5.292  25.603  23.100  1.00  0.00     0.158 HD
ATOM     13  H   UNL     1       5.934  24.019  23.648  1.00  0.00     0.158 HD
ENDBRANCH   7  11
TORSDOF 1
ENDMDL
