MODEL 1
REMARK VINA RESULT:    -5.547      0.000      0.000
REMARK INTER + INTRA:          -8.510
REMARK INTER:                  -8.141
REMARK INTRA:                  -0.369
REMARK UNBOUND:                -0.369
REMARK SMILES O=C([O-])CCCCCCCC(=O)[O-]
REMARK SMILES IDX 7 1 6 2 5 3 4 4 2 5 1 6 3 7 8 8 9 9 10 10 11 11 12 12 13 13
REMARK H PARENT
REMARK Flexibility Score: inf
ROOT
ATOM      1  C   UNL     1      18.213  72.867  71.804  1.00  0.00     0.000 C 
ENDROOT
BRANCH   1   2
ATOM      2  C   UNL     1      16.737  72.892  72.218  1.00  0.00     0.000 C 
BRANCH   2   3
ATOM      3  C   UNL     1      16.200  71.468  72.426  1.00  0.00     0.006 C 
BRANCH   3   4
ATOM      4  C   UNL     1      15.218  71.384  73.601  1.00  0.00     0.053 C 
BRANCH   4   5
ATOM      5  C   UNL     1      14.418  70.118  73.568  1.00  0.00     0.041 C 
ATOM      6  O   UNL     1      14.082  69.553  74.642  1.00  0.00    -0.550 OA
ATOM      7  O   UNL     1      14.013  69.581  72.353  1.00  0.00    -0.550 OA
ENDBRANCH   4   5
ENDBRANCH   3   4
ENDBRANCH   2   3
ENDBRANCH   1   2
BRANCH   1   8
ATOM      8  C   UNL     1      18.711  71.428  71.623  1.00  0.00     0.000 C 
BRANCH   8   9
ATOM      9  C   UNL     1      20.240  71.354  71.741  1.00  0.00     0.006 C 
BRANCH   9  10
ATOM     10  C   UNL     1      20.768  69.924  71.570  1.00  0.00     0.053 C 
BRANCH  10  11
ATOM     11  C   UNL     1      20.534  69.407  70.184  1.00  0.00     0.041 C 
ATOM     12  O   UNL     1      20.882  70.090  69.185  1.00  0.00    -0.550 OA
ATOM     13  O   UNL     1      19.902  68.184  69.994  1.00  0.00    -0.550 OA
ENDBRANCH  10  11
ENDBRANCH   9  10
ENDBRANCH   8   9
ENDBRANCH   1   8
TORSDOF 8
ENDMDL
MODEL 2
REMARK VINA RESULT:    -5.532      0.380      5.936
REMARK INTER + INTRA:          -8.488
REMARK INTER:                  -8.147
REMARK INTRA:                  -0.341
REMARK UNBOUND:                -0.369
REMARK SMILES O=C([O-])CCCCCCCC(=O)[O-]
REMARK SMILES IDX 7 1 6 2 5 3 4 4 2 5 1 6 3 7 8 8 9 9 10 10 11 11 12 12 13 13
REMARK H PARENT
REMARK Flexibility Score: inf
ROOT
ATOM      1  C   UNL     1      17.743  72.911  71.620  1.00  0.00     0.000 C 
ENDROOT
BRANCH   1   2
ATOM      2  C   UNL     1      18.380  71.525  71.777  1.00  0.00     0.000 C 
BRANCH   2   3
ATOM      3  C   UNL     1      19.912  71.618  71.755  1.00  0.00     0.006 C 
BRANCH   3   4
ATOM      4  C   UNL     1      20.578  70.236  71.754  1.00  0.00     0.053 C 
BRANCH   4   5
ATOM      5  C   UNL     1      20.555  69.607  70.395  1.00  0.00     0.041 C 
ATOM      6  O   UNL     1      20.887  70.277  69.382  1.00  0.00    -0.550 OA
ATOM      7  O   UNL     1      20.201  68.272  70.251  1.00  0.00    -0.550 OA
ENDBRANCH   4   5
ENDBRANCH   3   4
ENDBRANCH   2   3
ENDBRANCH   1   2
BRANCH   1   8
ATOM      8  C   UNL     1      16.331  72.940  72.218  1.00  0.00     0.000 C 
BRANCH   8   9
ATOM      9  C   UNL     1      15.747  71.524  72.318  1.00  0.00     0.006 C 
BRANCH   9  10
ATOM     10  C   UNL     1      15.327  71.168  73.750  1.00  0.00     0.053 C 
BRANCH  10  11
ATOM     11  C   UNL     1      14.388  70.000  73.780  1.00  0.00     0.041 C 
ATOM     12  O   UNL     1      13.964  69.500  72.705  1.00  0.00    -0.550 OA
ATOM     13  O   UNL     1      13.954  69.486  74.996  1.00  0.00    -0.550 OA
ENDBRANCH  10  11
ENDBRANCH   9  10
ENDBRANCH   8   9
ENDBRANCH   1   8
TORSDOF 8
ENDMDL
MODEL 3
REMARK VINA RESULT:    -5.531      1.258      6.018
REMARK INTER + INTRA:          -8.486
REMARK INTER:                  -8.137
REMARK INTRA:                  -0.350
REMARK UNBOUND:                -0.369
REMARK SMILES O=C([O-])CCCCCCCC(=O)[O-]
REMARK SMILES IDX 7 1 6 2 5 3 4 4 2 5 1 6 3 7 8 8 9 9 10 10 11 11 12 12 13 13
REMARK H PARENT
REMARK Flexibility Score: inf
ROOT
ATOM      1  C   UNL     1      17.317  73.169  71.825  1.00  0.00     0.000 C 
ENDROOT
BRANCH   1   2
ATOM      2  C   UNL     1      18.818  72.975  71.573  1.00  0.00     0.000 C 
BRANCH   2   3
ATOM      3  C   UNL     1      19.208  71.495  71.685  1.00  0.00     0.006 C 
BRANCH   3   4
ATOM      4  C   UNL     1      20.640  71.233  71.204  1.00  0.00     0.053 C 
BRANCH   4   5
ATOM      5  C   UNL     1      21.147  69.899  71.660  1.00  0.00     0.041 C 
ATOM      6  O   UNL     1      20.791  68.849  71.064  1.00  0.00    -0.550 OA
ATOM      7  O   UNL     1      22.039  69.819  72.721  1.00  0.00    -0.550 OA
ENDBRANCH   4   5
ENDBRANCH   3   4
ENDBRANCH   2   3
ENDBRANCH   1   2
BRANCH   1   8
ATOM      8  C   UNL     1      16.616  71.821  72.031  1.00  0.00     0.000 C 
BRANCH   8   9
ATOM      9  C   UNL     1      15.292  71.999  72.789  1.00  0.00     0.006 C 
BRANCH   9  10
ATOM     10  C   UNL     1      15.268  71.218  74.110  1.00  0.00     0.053 C 
BRANCH  10  11
ATOM     11  C   UNL     1      14.387  70.009  74.025  1.00  0.00     0.041 C 
ATOM     12  O   UNL     1      13.988  69.442  75.075  1.00  0.00    -0.550 OA
ATOM     13  O   UNL     1      14.035  69.490  72.785  1.00  0.00    -0.550 OA
ENDBRANCH  10  11
ENDBRANCH   9  10
ENDBRANCH   8   9
ENDBRANCH   1   8
TORSDOF 8
ENDMDL
MODEL 4
REMARK VINA RESULT:    -5.529      1.210      1.598
REMARK INTER + INTRA:          -8.484
REMARK INTER:                  -8.103
REMARK INTRA:                  -0.381
REMARK UNBOUND:                -0.369
REMARK SMILES O=C([O-])CCCCCCCC(=O)[O-]
REMARK SMILES IDX 7 1 6 2 5 3 4 4 2 5 1 6 3 7 8 8 9 9 10 10 11 11 12 12 13 13
REMARK H PARENT
REMARK Flexibility Score: inf
ROOT
ATOM      1  C   UNL     1      17.697  73.154  71.772  1.00  0.00     0.000 C 
ENDROOT
BRANCH   1   2
ATOM      2  C   UNL     1      16.235  72.747  71.994  1.00  0.00     0.000 C 
BRANCH   2   3
ATOM      3  C   UNL     1      16.133  71.278  72.428  1.00  0.00     0.006 C 
BRANCH   3   4
ATOM      4  C   UNL     1      15.434  71.119  73.784  1.00  0.00     0.053 C 
BRANCH   4   5
ATOM      5  C   UNL     1      14.426  70.011  73.765  1.00  0.00     0.041 C 
ATOM      6  O   UNL     1      13.985  69.575  72.669  1.00  0.00    -0.550 OA
ATOM      7  O   UNL     1      14.000  69.437  74.955  1.00  0.00    -0.550 OA
ENDBRANCH   4   5
ENDBRANCH   3   4
ENDBRANCH   2   3
ENDBRANCH   1   2
BRANCH   1   8
ATOM      8  C   UNL     1      18.610  71.923  71.729  1.00  0.00     0.000 C 
BRANCH   8   9
ATOM      9  C   UNL     1      20.084  72.335  71.600  1.00  0.00     0.006 C 
BRANCH   9  10
ATOM     10  C   UNL     1      20.912  71.301  70.826  1.00  0.00     0.053 C 
BRANCH  10  11
ATOM     11  C   UNL     1      21.053  70.018  71.587  1.00  0.00     0.041 C 
ATOM     12  O   UNL     1      21.496  70.026  72.766  1.00  0.00    -0.550 OA
ATOM     13  O   UNL     1      20.726  68.810  70.983  1.00  0.00    -0.550 OA
ENDBRANCH  10  11
ENDBRANCH   9  10
ENDBRANCH   8   9
ENDBRANCH   1   8
TORSDOF 8
ENDMDL
MODEL 5
REMARK VINA RESULT:    -5.466      2.424      3.714
REMARK INTER + INTRA:          -8.392
REMARK INTER:                  -7.820
REMARK INTRA:                  -0.571
REMARK UNBOUND:                -0.369
REMARK SMILES O=C([O-])CCCCCCCC(=O)[O-]
REMARK SMILES IDX 7 1 6 2 5 3 4 4 2 5 1 6 3 7 8 8 9 9 10 10 11 11 12 12 13 13
REMARK H PARENT
REMARK Flexibility Score: inf
ROOT
ATOM      1  C   UNL     1      15.156  70.555  72.381  1.00  0.00     0.000 C 
ENDROOT
BRANCH   1   2
ATOM      2  C   UNL     1      14.045  69.918  73.225  1.00  0.00     0.000 C 
BRANCH   2   3
ATOM      3  C   UNL     1      13.737  70.772  74.463  1.00  0.00     0.006 C 
BRANCH   3   4
ATOM      4  C   UNL     1      14.118  70.061  75.768  1.00  0.00     0.053 C 
BRANCH   4   5
ATOM      5  C   UNL     1      15.331  70.670  76.400  1.00  0.00     0.041 C 
ATOM      6  O   UNL     1      15.572  70.480  77.622  1.00  0.00    -0.550 OA
ATOM      7  O   UNL     1      16.216  71.417  75.633  1.00  0.00    -0.550 OA
ENDBRANCH   4   5
ENDBRANCH   3   4
ENDBRANCH   2   3
ENDBRANCH   1   2
BRANCH   1   8
ATOM      8  C   UNL     1      15.073  72.086  72.428  1.00  0.00     0.000 C 
BRANCH   8   9
ATOM      9  C   UNL     1      16.423  72.721  72.064  1.00  0.00     0.006 C 
BRANCH   9  10
ATOM     10  C   UNL     1      17.609  71.823  72.438  1.00  0.00     0.053 C 
BRANCH  10  11
ATOM     11  C   UNL     1      18.857  72.217  71.708  1.00  0.00     0.041 C 
ATOM     12  O   UNL     1      19.065  73.423  71.414  1.00  0.00    -0.550 OA
ATOM     13  O   UNL     1      19.775  71.246  71.324  1.00  0.00    -0.550 OA
ENDBRANCH  10  11
ENDBRANCH   9  10
ENDBRANCH   8   9
ENDBRANCH   1   8
TORSDOF 8
ENDMDL
MODEL 6
REMARK VINA RESULT:    -5.442      2.586      6.382
REMARK INTER + INTRA:          -8.356
REMARK INTER:                  -8.062
REMARK INTRA:                  -0.294
REMARK UNBOUND:                -0.369
REMARK SMILES O=C([O-])CCCCCCCC(=O)[O-]
REMARK SMILES IDX 7 1 6 2 5 3 4 4 2 5 1 6 3 7 8 8 9 9 10 10 11 11 12 12 13 13
REMARK H PARENT
REMARK Flexibility Score: inf
ROOT
ATOM      1  C   UNL     1      18.455  71.529  72.096  1.00  0.00     0.000 C 
ENDROOT
BRANCH   1   2
ATOM      2  C   UNL     1      19.328  71.824  73.321  1.00  0.00     0.000 C 
BRANCH   2   3
ATOM      3  C   UNL     1      20.011  70.546  73.830  1.00  0.00     0.006 C 
BRANCH   3   4
ATOM      4  C   UNL     1      21.325  70.257  73.094  1.00  0.00     0.053 C 
BRANCH   4   5
ATOM      5  C   UNL     1      22.511  70.390  73.999  1.00  0.00     0.041 C 
ATOM      6  O   UNL     1      23.600  70.840  73.554  1.00  0.00    -0.550 OA
ATOM      7  O   UNL     1      22.405  70.051  75.342  1.00  0.00    -0.550 OA
ENDBRANCH   4   5
ENDBRANCH   3   4
ENDBRANCH   2   3
ENDBRANCH   1   2
BRANCH   1   8
ATOM      8  C   UNL     1      17.171  72.366  72.121  1.00  0.00     0.000 C 
BRANCH   8   9
ATOM      9  C   UNL     1      15.927  71.466  72.160  1.00  0.00     0.006 C 
BRANCH   9  10
ATOM     10  C   UNL     1      15.492  71.138  73.594  1.00  0.00     0.053 C 
BRANCH  10  11
ATOM     11  C   UNL     1      14.476  70.036  73.629  1.00  0.00     0.041 C 
ATOM     12  O   UNL     1      14.019  69.563  72.556  1.00  0.00    -0.550 OA
ATOM     13  O   UNL     1      14.011  69.556  74.847  1.00  0.00    -0.550 OA
ENDBRANCH  10  11
ENDBRANCH   9  10
ENDBRANCH   8   9
ENDBRANCH   1   8
TORSDOF 8
ENDMDL
MODEL 7
REMARK VINA RESULT:    -5.369     11.035     12.963
REMARK INTER + INTRA:          -8.249
REMARK INTER:                  -8.002
REMARK INTRA:                  -0.247
REMARK UNBOUND:                -0.369
REMARK SMILES O=C([O-])CCCCCCCC(=O)[O-]
REMARK SMILES IDX 7 1 6 2 5 3 4 4 2 5 1 6 3 7 8 8 9 9 10 10 11 11 12 12 13 13
REMARK H PARENT
REMARK Flexibility Score: inf
ROOT
ATOM      1  C   UNL     1      13.262  60.622  73.982  1.00  0.00     0.000 C 
ENDROOT
BRANCH   1   2
ATOM      2  C   UNL     1      13.216  61.881  73.107  1.00  0.00     0.000 C 
BRANCH   2   3
ATOM      3  C   UNL     1      13.963  61.659  71.784  1.00  0.00     0.006 C 
BRANCH   3   4
ATOM      4  C   UNL     1      13.810  62.845  70.824  1.00  0.00     0.053 C 
BRANCH   4   5
ATOM      5  C   UNL     1      13.924  62.420  69.392  1.00  0.00     0.041 C 
ATOM      6  O   UNL     1      13.044  62.760  68.558  1.00  0.00    -0.550 OA
ATOM      7  O   UNL     1      15.021  61.679  68.971  1.00  0.00    -0.550 OA
ENDBRANCH   4   5
ENDBRANCH   3   4
ENDBRANCH   2   3
ENDBRANCH   1   2
BRANCH   1   8
ATOM      8  C   UNL     1      13.559  59.376  73.138  1.00  0.00     0.000 C 
BRANCH   8   9
ATOM      9  C   UNL     1      13.193  58.095  73.901  1.00  0.00     0.006 C 
BRANCH   9  10
ATOM     10  C   UNL     1      13.184  56.859  72.992  1.00  0.00     0.053 C 
BRANCH  10  11
ATOM     11  C   UNL     1      13.003  55.594  73.776  1.00  0.00     0.041 C 
ATOM     12  O   UNL     1      13.809  54.638  73.630  1.00  0.00    -0.550 OA
ATOM     13  O   UNL     1      11.925  55.460  74.642  1.00  0.00    -0.550 OA
ENDBRANCH  10  11
ENDBRANCH   9  10
ENDBRANCH   8   9
ENDBRANCH   1   8
TORSDOF 8
ENDMDL
MODEL 8
REMARK VINA RESULT:    -5.248      2.156      2.942
REMARK INTER + INTRA:          -8.072
REMARK INTER:                  -7.445
REMARK INTRA:                  -0.626
REMARK UNBOUND:                -0.369
REMARK SMILES O=C([O-])CCCCCCCC(=O)[O-]
REMARK SMILES IDX 7 1 6 2 5 3 4 4 2 5 1 6 3 7 8 8 9 9 10 10 11 11 12 12 13 13
REMARK H PARENT
REMARK Flexibility Score: inf
ROOT
ATOM      1  C   UNL     1      15.875  72.639  73.645  1.00  0.00     0.000 C 
ENDROOT
BRANCH   1   2
ATOM      2  C   UNL     1      16.036  71.192  74.127  1.00  0.00     0.000 C 
BRANCH   2   3
ATOM      3  C   UNL     1      14.676  70.482  74.197  1.00  0.00     0.006 C 
BRANCH   3   4
ATOM      4  C   UNL     1      14.160  70.076  72.811  1.00  0.00     0.053 C 
BRANCH   4   5
ATOM      5  C   UNL     1      12.881  70.775  72.466  1.00  0.00     0.041 C 
ATOM      6  O   UNL     1      12.515  71.786  73.121  1.00  0.00    -0.550 OA
ATOM      7  O   UNL     1      12.112  70.333  71.398  1.00  0.00    -0.550 OA
ENDBRANCH   4   5
ENDBRANCH   3   4
ENDBRANCH   2   3
ENDBRANCH   1   2
BRANCH   1   8
ATOM      8  C   UNL     1      16.677  72.884  72.361  1.00  0.00     0.000 C 
BRANCH   8   9
ATOM      9  C   UNL     1      17.455  71.626  71.949  1.00  0.00     0.006 C 
BRANCH   9  10
ATOM     10  C   UNL     1      18.959  71.894  71.802  1.00  0.00     0.053 C 
BRANCH  10  11
ATOM     11  C   UNL     1      19.767  71.066  72.754  1.00  0.00     0.041 C 
ATOM     12  O   UNL     1      20.613  70.243  72.316  1.00  0.00    -0.550 OA
ATOM     13  O   UNL     1      19.562  71.180  74.123  1.00  0.00    -0.550 OA
ENDBRANCH  10  11
ENDBRANCH   9  10
ENDBRANCH   8   9
ENDBRANCH   1   8
TORSDOF 8
ENDMDL
MODEL 9
REMARK VINA RESULT:    -5.171      2.860      3.327
REMARK INTER + INTRA:          -7.958
REMARK INTER:                  -7.593
REMARK INTRA:                  -0.365
REMARK UNBOUND:                -0.369
REMARK SMILES O=C([O-])CCCCCCCC(=O)[O-]
REMARK SMILES IDX 7 1 6 2 5 3 4 4 2 5 1 6 3 7 8 8 9 9 10 10 11 11 12 12 13 13
REMARK H PARENT
REMARK Flexibility Score: inf
ROOT
ATOM      1  C   UNL     1      18.801  71.646  71.644  1.00  0.00     0.000 C 
ENDROOT
BRANCH   1   2
ATOM      2  C   UNL     1      17.987  72.914  71.930  1.00  0.00     0.000 C 
BRANCH   2   3
ATOM      3  C   UNL     1      16.574  72.563  72.417  1.00  0.00     0.006 C 
BRANCH   3   4
ATOM      4  C   UNL     1      16.183  71.120  72.072  1.00  0.00     0.053 C 
BRANCH   4   5
ATOM      5  C   UNL     1      14.805  70.787  72.553  1.00  0.00     0.041 C 
ATOM      6  O   UNL     1      14.346  69.624  72.404  1.00  0.00    -0.550 OA
ATOM      7  O   UNL     1      14.039  71.751  73.197  1.00  0.00    -0.550 OA
ENDBRANCH   4   5
ENDBRANCH   3   4
ENDBRANCH   2   3
ENDBRANCH   1   2
BRANCH   1   8
ATOM      8  C   UNL     1      20.171  71.705  72.330  1.00  0.00     0.000 C 
BRANCH   8   9
ATOM      9  C   UNL     1      20.347  70.536  73.310  1.00  0.00     0.006 C 
BRANCH   9  10
ATOM     10  C   UNL     1      20.966  70.982  74.641  1.00  0.00     0.053 C 
BRANCH  10  11
ATOM     11  C   UNL     1      22.331  70.397  74.843  1.00  0.00     0.041 C 
ATOM     12  O   UNL     1      22.556  69.636  75.820  1.00  0.00    -0.550 OA
ATOM     13  O   UNL     1      23.363  70.720  73.970  1.00  0.00    -0.550 OA
ENDBRANCH  10  11
ENDBRANCH   9  10
ENDBRANCH   8   9
ENDBRANCH   1   8
TORSDOF 8
ENDMDL
