MODEL 1
REMARK VINA RESULT:    -3.666      0.000      0.000
REMARK INTER + INTRA:          -4.852
REMARK INTER:                  -4.524
REMARK INTRA:                  -0.328
REMARK UNBOUND:                -0.328
REMARK SMILES C=CC[C@@H](C)C(=O)CC
REMARK SMILES IDX 4 1 5 2 6 3 7 4 8 5 9 6 3 7 2 8 1 9
REMARK H PARENT
REMARK Flexibility Score: inf
ROOT
ATOM      1  C   UNL     1      -0.360   7.362 -10.400  1.00  0.00     0.057 C 
ATOM      2  C   UNL     1       0.763   7.347 -11.445  1.00  0.00     0.016 C 
ENDROOT
BRANCH   1   3
ATOM      3  C   UNL     1      -1.654   6.830 -10.986  1.00  0.00     0.135 C 
ATOM      4  O   UNL     1      -1.630   5.873 -11.747  1.00  0.00    -0.299 OA
BRANCH   3   5
ATOM      5  C   UNL     1      -2.977   7.463 -10.647  1.00  0.00     0.072 C 
ATOM      6  C   UNL     1      -2.780   8.878 -10.116  1.00  0.00     0.012 C 
ENDBRANCH   3   5
ENDBRANCH   1   3
BRANCH   1   7
ATOM      7  C   UNL     1       0.030   6.620  -9.105  1.00  0.00     0.038 C 
BRANCH   7   8
ATOM      8  C   UNL     1       1.074   7.342  -8.289  1.00  0.00    -0.034 C 
ATOM      9  C   UNL     1       0.808   8.493  -7.663  1.00  0.00     0.004 C 
ENDBRANCH   7   8
ENDBRANCH   1   7
TORSDOF 4
ENDMDL
MODEL 2
REMARK VINA RESULT:    -3.629      1.239      3.593
REMARK INTER + INTRA:          -4.805
REMARK INTER:                  -4.455
REMARK INTRA:                  -0.351
REMARK UNBOUND:                -0.328
REMARK SMILES C=CC[C@@H](C)C(=O)CC
REMARK SMILES IDX 4 1 5 2 6 3 7 4 8 5 9 6 3 7 2 8 1 9
REMARK H PARENT
REMARK Flexibility Score: inf
ROOT
ATOM      1  C   UNL     1      -0.153   7.286 -10.759  1.00  0.00     0.057 C 
ATOM      2  C   UNL     1       1.168   7.506 -11.509  1.00  0.00     0.016 C 
ENDROOT
BRANCH   1   3
ATOM      3  C   UNL     1       0.099   6.799  -9.345  1.00  0.00     0.135 C 
ATOM      4  O   UNL     1      -0.660   5.988  -8.834  1.00  0.00    -0.299 OA
BRANCH   3   5
ATOM      5  C   UNL     1       1.276   7.301  -8.551  1.00  0.00     0.072 C 
ATOM      6  C   UNL     1       0.850   8.411  -7.597  1.00  0.00     0.012 C 
ENDBRANCH   3   5
ENDBRANCH   1   3
BRANCH   1   7
ATOM      7  C   UNL     1      -1.059   8.535 -10.783  1.00  0.00     0.038 C 
BRANCH   7   8
ATOM      8  C   UNL     1      -2.531   8.209 -10.848  1.00  0.00    -0.034 C 
ATOM      9  C   UNL     1      -2.980   7.084 -11.413  1.00  0.00     0.004 C 
ENDBRANCH   7   8
ENDBRANCH   1   7
TORSDOF 4
ENDMDL
MODEL 3
REMARK VINA RESULT:    -3.595      1.372      3.538
REMARK INTER + INTRA:          -4.764
REMARK INTER:                  -4.310
REMARK INTRA:                  -0.454
REMARK UNBOUND:                -0.328
REMARK SMILES C=CC[C@@H](C)C(=O)CC
REMARK SMILES IDX 4 1 5 2 6 3 7 4 8 5 9 6 3 7 2 8 1 9
REMARK H PARENT
REMARK Flexibility Score: inf
ROOT
ATOM      1  C   UNL     1      -1.010   8.083 -10.152  1.00  0.00     0.057 C 
ATOM      2  C   UNL     1      -2.144   7.305 -10.834  1.00  0.00     0.016 C 
ENDROOT
BRANCH   1   3
ATOM      3  C   UNL     1      -0.425   7.291  -8.999  1.00  0.00     0.135 C 
ATOM      4  O   UNL     1      -0.710   6.110  -8.864  1.00  0.00    -0.299 OA
BRANCH   3   5
ATOM      5  C   UNL     1       0.507   7.937  -8.008  1.00  0.00     0.072 C 
ATOM      6  C   UNL     1       1.890   7.301  -8.075  1.00  0.00     0.012 C 
ENDBRANCH   3   5
ENDBRANCH   1   3
BRANCH   1   7
ATOM      7  C   UNL     1       0.077   8.533 -11.150  1.00  0.00     0.038 C 
BRANCH   7   8
ATOM      8  C   UNL     1       0.890   7.391 -11.709  1.00  0.00    -0.034 C 
ATOM      9  C   UNL     1       2.217   7.473 -11.851  1.00  0.00     0.004 C 
ENDBRANCH   7   8
ENDBRANCH   1   7
TORSDOF 4
ENDMDL
MODEL 4
REMARK VINA RESULT:    -3.539      1.939      2.685
REMARK INTER + INTRA:          -4.695
REMARK INTER:                  -4.222
REMARK INTRA:                  -0.473
REMARK UNBOUND:                -0.328
REMARK SMILES C=CC[C@@H](C)C(=O)CC
REMARK SMILES IDX 4 1 5 2 6 3 7 4 8 5 9 6 3 7 2 8 1 9
REMARK H PARENT
REMARK Flexibility Score: inf
ROOT
ATOM      1  C   UNL     1       0.259   7.000  -9.124  1.00  0.00     0.057 C 
ATOM      2  C   UNL     1       1.107   7.521  -7.956  1.00  0.00     0.016 C 
ENDROOT
BRANCH   1   3
ATOM      3  C   UNL     1      -1.199   7.374  -8.945  1.00  0.00     0.135 C 
ATOM      4  O   UNL     1      -1.550   8.011  -7.961  1.00  0.00    -0.299 OA
BRANCH   3   5
ATOM      5  C   UNL     1      -2.235   6.972  -9.962  1.00  0.00     0.072 C 
ATOM      6  C   UNL     1      -2.931   8.199 -10.538  1.00  0.00     0.012 C 
ENDBRANCH   3   5
ENDBRANCH   1   3
BRANCH   1   7
ATOM      7  C   UNL     1       0.803   7.454 -10.495  1.00  0.00     0.038 C 
BRANCH   7   8
ATOM      8  C   UNL     1       1.184   8.913 -10.538  1.00  0.00    -0.034 C 
ATOM      9  C   UNL     1       0.430   9.821 -11.165  1.00  0.00     0.004 C 
ENDBRANCH   7   8
ENDBRANCH   1   7
TORSDOF 4
ENDMDL
MODEL 5
REMARK VINA RESULT:    -3.524      2.280      3.851
REMARK INTER + INTRA:          -4.676
REMARK INTER:                  -4.178
REMARK INTRA:                  -0.498
REMARK UNBOUND:                -0.328
REMARK SMILES C=CC[C@@H](C)C(=O)CC
REMARK SMILES IDX 4 1 5 2 6 3 7 4 8 5 9 6 3 7 2 8 1 9
REMARK H PARENT
REMARK Flexibility Score: inf
ROOT
ATOM      1  C   UNL     1       1.006   8.207 -10.974  1.00  0.00     0.057 C 
ATOM      2  C   UNL     1       0.315   9.577 -11.028  1.00  0.00     0.016 C 
ENDROOT
BRANCH   1   3
ATOM      3  C   UNL     1       1.956   8.125  -9.794  1.00  0.00     0.135 C 
ATOM      4  O   UNL     1       3.038   8.693  -9.841  1.00  0.00    -0.299 OA
BRANCH   3   5
ATOM      5  C   UNL     1       1.590   7.350  -8.556  1.00  0.00     0.072 C 
ATOM      6  C   UNL     1       0.821   8.228  -7.577  1.00  0.00     0.012 C 
ENDBRANCH   3   5
ENDBRANCH   1   3
BRANCH   1   7
ATOM      7  C   UNL     1      -0.001   7.038 -10.981  1.00  0.00     0.038 C 
BRANCH   7   8
ATOM      8  C   UNL     1      -1.424   7.469 -10.728  1.00  0.00    -0.034 C 
ATOM      9  C   UNL     1      -2.118   7.029  -9.673  1.00  0.00     0.004 C 
ENDBRANCH   7   8
ENDBRANCH   1   7
TORSDOF 4
ENDMDL
MODEL 6
REMARK VINA RESULT:    -3.436      2.009      3.520
REMARK INTER + INTRA:          -4.568
REMARK INTER:                  -4.158
REMARK INTRA:                  -0.410
REMARK UNBOUND:                -0.328
REMARK SMILES C=CC[C@@H](C)C(=O)CC
REMARK SMILES IDX 4 1 5 2 6 3 7 4 8 5 9 6 3 7 2 8 1 9
REMARK H PARENT
REMARK Flexibility Score: inf
ROOT
ATOM      1  C   UNL     1       0.420   7.787  -8.793  1.00  0.00     0.057 C 
ATOM      2  C   UNL     1       1.343   7.458  -7.611  1.00  0.00     0.016 C 
ENDROOT
BRANCH   1   3
ATOM      3  C   UNL     1       1.226   8.159 -10.022  1.00  0.00     0.135 C 
ATOM      4  O   UNL     1       1.811   7.291 -10.654  1.00  0.00    -0.299 OA
BRANCH   3   5
ATOM      5  C   UNL     1       1.322   9.590 -10.483  1.00  0.00     0.072 C 
ATOM      6  C   UNL     1       0.049  10.010 -11.209  1.00  0.00     0.012 C 
ENDBRANCH   3   5
ENDBRANCH   1   3
BRANCH   1   7
ATOM      7  C   UNL     1      -0.586   6.655  -9.088  1.00  0.00     0.038 C 
BRANCH   7   8
ATOM      8  C   UNL     1      -1.921   7.151  -9.584  1.00  0.00    -0.034 C 
ATOM      9  C   UNL     1      -2.347   6.907 -10.828  1.00  0.00     0.004 C 
ENDBRANCH   7   8
ENDBRANCH   1   7
TORSDOF 4
ENDMDL
MODEL 7
REMARK VINA RESULT:    -3.374      1.597      3.835
REMARK INTER + INTRA:          -4.491
REMARK INTER:                  -4.254
REMARK INTRA:                  -0.237
REMARK UNBOUND:                -0.328
REMARK SMILES C=CC[C@@H](C)C(=O)CC
REMARK SMILES IDX 4 1 5 2 6 3 7 4 8 5 9 6 3 7 2 8 1 9
REMARK H PARENT
REMARK Flexibility Score: inf
ROOT
ATOM      1  C   UNL     1      -1.986   7.607 -10.221  1.00  0.00     0.057 C 
ATOM      2  C   UNL     1      -2.133   6.614 -11.382  1.00  0.00     0.016 C 
ENDROOT
BRANCH   1   3
ATOM      3  C   UNL     1      -0.934   7.138  -9.236  1.00  0.00     0.135 C 
ATOM      4  O   UNL     1      -0.691   5.944  -9.125  1.00  0.00    -0.299 OA
BRANCH   3   5
ATOM      5  C   UNL     1      -0.176   8.120  -8.382  1.00  0.00     0.072 C 
ATOM      6  C   UNL     1       1.148   7.525  -7.919  1.00  0.00     0.012 C 
ENDBRANCH   3   5
ENDBRANCH   1   3
BRANCH   1   7
ATOM      7  C   UNL     1      -1.714   9.046 -10.708  1.00  0.00     0.038 C 
BRANCH   7   8
ATOM      8  C   UNL     1      -2.966   9.872 -10.871  1.00  0.00    -0.034 C 
ATOM      9  C   UNL     1      -4.143   9.474 -10.378  1.00  0.00     0.004 C 
ENDBRANCH   7   8
ENDBRANCH   1   7
TORSDOF 4
ENDMDL
MODEL 8
REMARK VINA RESULT:    -3.234      2.495      3.733
REMARK INTER + INTRA:          -4.318
REMARK INTER:                  -4.084
REMARK INTRA:                  -0.234
REMARK UNBOUND:                -0.328
REMARK SMILES C=CC[C@@H](C)C(=O)CC
REMARK SMILES IDX 4 1 5 2 6 3 7 4 8 5 9 6 3 7 2 8 1 9
REMARK H PARENT
REMARK Flexibility Score: inf
ROOT
ATOM      1  C   UNL     1       1.869   8.088  -9.554  1.00  0.00     0.057 C 
ATOM      2  C   UNL     1       1.814   9.612  -9.372  1.00  0.00     0.016 C 
ENDROOT
BRANCH   1   3
ATOM      3  C   UNL     1       0.913   7.393  -8.606  1.00  0.00     0.135 C 
ATOM      4  O   UNL     1       1.129   7.408  -7.402  1.00  0.00    -0.299 OA
BRANCH   3   5
ATOM      5  C   UNL     1      -0.308   6.678  -9.121  1.00  0.00     0.072 C 
ATOM      6  C   UNL     1      -1.525   7.596  -9.091  1.00  0.00     0.012 C 
ENDBRANCH   3   5
ENDBRANCH   1   3
BRANCH   1   7
ATOM      7  C   UNL     1       1.636   7.662 -11.019  1.00  0.00     0.038 C 
BRANCH   7   8
ATOM      8  C   UNL     1       2.426   8.474 -12.015  1.00  0.00    -0.034 C 
ATOM      9  C   UNL     1       3.753   8.360 -12.124  1.00  0.00     0.004 C 
ENDBRANCH   7   8
ENDBRANCH   1   7
TORSDOF 4
ENDMDL
MODEL 9
REMARK VINA RESULT:    -3.145      2.919      3.984
REMARK INTER + INTRA:          -4.209
REMARK INTER:                  -3.869
REMARK INTRA:                  -0.339
REMARK UNBOUND:                -0.328
REMARK SMILES C=CC[C@@H](C)C(=O)CC
REMARK SMILES IDX 4 1 5 2 6 3 7 4 8 5 9 6 3 7 2 8 1 9
REMARK H PARENT
REMARK Flexibility Score: inf
ROOT
ATOM      1  C   UNL     1       1.912   7.734 -10.247  1.00  0.00     0.057 C 
ATOM      2  C   UNL     1       1.020   7.485 -11.471  1.00  0.00     0.016 C 
ENDROOT
BRANCH   1   3
ATOM      3  C   UNL     1       2.507   9.128 -10.284  1.00  0.00     0.135 C 
ATOM      4  O   UNL     1       3.690   9.280 -10.552  1.00  0.00    -0.299 OA
BRANCH   3   5
ATOM      5  C   UNL     1       1.662  10.340  -9.992  1.00  0.00     0.072 C 
ATOM      6  C   UNL     1       2.306  11.200  -8.910  1.00  0.00     0.012 C 
ENDBRANCH   3   5
ENDBRANCH   1   3
BRANCH   1   7
ATOM      7  C   UNL     1       1.179   7.458  -8.918  1.00  0.00     0.038 C 
BRANCH   7   8
ATOM      8  C   UNL     1      -0.272   7.088  -9.097  1.00  0.00    -0.034 C 
ATOM      9  C   UNL     1      -1.256   7.802  -8.541  1.00  0.00     0.004 C 
ENDBRANCH   7   8
ENDBRANCH   1   7
TORSDOF 4
ENDMDL
