MODEL 1
REMARK VINA RESULT:    -3.573      0.000      0.000
REMARK INTER + INTRA:          -9.459
REMARK INTER:                  -6.705
REMARK INTRA:                  -2.753
REMARK UNBOUND:                -2.753
REMARK SMILES CCCCCCCCC=CCCCCCCCC(=O)[O-]
REMARK SMILES IDX 10 1 9 2 11 3 12 4 13 5 14 6 15 7 16 8 17 9 18 10 19 11
REMARK SMILES IDX 20 12 8 13 7 14 6 15 5 16 4 17 3 18 2 19 1 20
REMARK H PARENT
REMARK Flexibility Score: inf
ROOT
ATOM      1  C   UNL     1      40.217  24.835 224.832  1.00  0.00    -0.031 C 
ATOM      2  C   UNL     1      39.933  23.784 225.624  1.00  0.00    -0.031 C 
ENDROOT
BRANCH   1   3
ATOM      3  C   UNL     1      39.212  25.856 224.365  1.00  0.00     0.027 C 
BRANCH   3   4
ATOM      4  C   UNL     1      38.604  25.456 223.012  1.00  0.00     0.004 C 
BRANCH   4   5
ATOM      5  C   UNL     1      39.436  24.387 222.288  1.00  0.00     0.000 C 
BRANCH   5   6
ATOM      6  C   UNL     1      38.579  23.213 221.787  1.00  0.00     0.000 C 
BRANCH   6   7
ATOM      7  C   UNL     1      37.457  22.833 222.768  1.00  0.00     0.000 C 
BRANCH   7   8
ATOM      8  C   UNL     1      36.073  22.687 222.098  1.00  0.00     0.006 C 
BRANCH   8   9
ATOM      9  C   UNL     1      35.408  24.034 221.774  1.00  0.00     0.053 C 
BRANCH   9  10
ATOM     10  C   UNL     1      34.680  23.992 220.464  1.00  0.00     0.041 C 
ATOM     11  O   UNL     1      35.303  24.187 219.387  1.00  0.00    -0.550 OA
ATOM     12  O   UNL     1      33.319  23.716 220.431  1.00  0.00    -0.550 OA
ENDBRANCH   9  10
ENDBRANCH   8   9
ENDBRANCH   7   8
ENDBRANCH   6   7
ENDBRANCH   5   6
ENDBRANCH   4   5
ENDBRANCH   3   4
ENDBRANCH   1   3
BRANCH   2  13
ATOM     13  C   UNL     1      38.574  23.479 226.211  1.00  0.00     0.027 C 
BRANCH  13  14
ATOM     14  C   UNL     1      38.349  21.968 226.345  1.00  0.00     0.004 C 
BRANCH  14  15
ATOM     15  C   UNL     1      39.558  21.158 225.848  1.00  0.00     0.000 C 
BRANCH  15  16
ATOM     16  C   UNL     1      39.206  20.219 224.684  1.00  0.00     0.000 C 
BRANCH  16  17
ATOM     17  C   UNL     1      40.213  20.313 223.525  1.00  0.00    -0.000 C 
BRANCH  17  18
ATOM     18  C   UNL     1      41.529  20.992 223.940  1.00  0.00    -0.000 C 
BRANCH  18  19
ATOM     19  C   UNL     1      42.394  21.395 222.737  1.00  0.00    -0.003 C 
ATOM     20  C   UNL     1      41.649  21.169 221.425  1.00  0.00     0.004 C 
ENDBRANCH  18  19
ENDBRANCH  17  18
ENDBRANCH  16  17
ENDBRANCH  15  16
ENDBRANCH  14  15
ENDBRANCH  13  14
ENDBRANCH   2  13
TORSDOF 15
ENDMDL
MODEL 2
REMARK VINA RESULT:    -3.560      3.492      6.349
REMARK INTER + INTRA:          -9.436
REMARK INTER:                  -7.026
REMARK INTRA:                  -2.409
REMARK UNBOUND:                -2.753
REMARK SMILES CCCCCCCCC=CCCCCCCCC(=O)[O-]
REMARK SMILES IDX 10 1 9 2 11 3 12 4 13 5 14 6 15 7 16 8 17 9 18 10 19 11
REMARK SMILES IDX 20 12 8 13 7 14 6 15 5 16 4 17 3 18 2 19 1 20
REMARK H PARENT
REMARK Flexibility Score: inf
ROOT
ATOM      1  C   UNL     1      39.375  24.431 222.242  1.00  0.00    -0.031 C 
ATOM      2  C   UNL     1      38.915  23.175 222.097  1.00  0.00    -0.031 C 
ENDROOT
BRANCH   1   3
ATOM      3  C   UNL     1      39.022  25.350 223.384  1.00  0.00     0.027 C 
BRANCH   3   4
ATOM      4  C   UNL     1      40.143  25.384 224.433  1.00  0.00     0.004 C 
BRANCH   4   5
ATOM      5  C   UNL     1      39.896  24.402 225.588  1.00  0.00     0.000 C 
BRANCH   5   6
ATOM      6  C   UNL     1      40.794  23.157 225.505  1.00  0.00     0.000 C 
BRANCH   6   7
ATOM      7  C   UNL     1      42.084  23.406 224.704  1.00  0.00     0.000 C 
BRANCH   7   8
ATOM      8  C   UNL     1      42.252  22.459 223.494  1.00  0.00     0.006 C 
BRANCH   8   9
ATOM      9  C   UNL     1      43.317  21.373 223.714  1.00  0.00     0.053 C 
BRANCH   9  10
ATOM     10  C   UNL     1      42.700  20.015 223.871  1.00  0.00     0.041 C 
ATOM     11  O   UNL     1      43.062  19.066 223.128  1.00  0.00    -0.550 OA
ATOM     12  O   UNL     1      41.742  19.794 224.852  1.00  0.00    -0.550 OA
ENDBRANCH   9  10
ENDBRANCH   8   9
ENDBRANCH   7   8
ENDBRANCH   6   7
ENDBRANCH   5   6
ENDBRANCH   4   5
ENDBRANCH   3   4
ENDBRANCH   1   3
BRANCH   2  13
ATOM     13  C   UNL     1      38.009  22.461 223.074  1.00  0.00     0.027 C 
BRANCH  13  14
ATOM     14  C   UNL     1      36.589  22.311 222.511  1.00  0.00     0.004 C 
BRANCH  14  15
ATOM     15  C   UNL     1      35.771  23.604 222.657  1.00  0.00     0.000 C 
BRANCH  15  16
ATOM     16  C   UNL     1      35.022  23.980 221.369  1.00  0.00     0.000 C 
BRANCH  16  17
ATOM     17  C   UNL     1      35.956  24.559 220.291  1.00  0.00    -0.000 C 
BRANCH  17  18
ATOM     18  C   UNL     1      35.437  24.311 218.866  1.00  0.00    -0.000 C 
BRANCH  18  19
ATOM     19  C   UNL     1      36.238  23.231 218.123  1.00  0.00    -0.003 C 
ATOM     20  C   UNL     1      37.607  23.025 218.764  1.00  0.00     0.004 C 
ENDBRANCH  18  19
ENDBRANCH  17  18
ENDBRANCH  16  17
ENDBRANCH  15  16
ENDBRANCH  14  15
ENDBRANCH  13  14
ENDBRANCH   2  13
TORSDOF 15
ENDMDL
MODEL 3
REMARK VINA RESULT:    -3.558      3.761      6.304
REMARK INTER + INTRA:          -9.432
REMARK INTER:                  -7.568
REMARK INTRA:                  -1.864
REMARK UNBOUND:                -2.753
REMARK SMILES CCCCCCCCC=CCCCCCCCC(=O)[O-]
REMARK SMILES IDX 10 1 9 2 11 3 12 4 13 5 14 6 15 7 16 8 17 9 18 10 19 11
REMARK SMILES IDX 20 12 8 13 7 14 6 15 5 16 4 17 3 18 2 19 1 20
REMARK H PARENT
REMARK Flexibility Score: inf
ROOT
ATOM      1  C   UNL     1      39.694  26.813 224.771  1.00  0.00    -0.031 C 
ATOM      2  C   UNL     1      38.776  26.204 223.997  1.00  0.00    -0.031 C 
ENDROOT
BRANCH   1   3
ATOM      3  C   UNL     1      40.781  26.104 225.538  1.00  0.00     0.027 C 
BRANCH   3   4
ATOM      4  C   UNL     1      42.095  26.082 224.743  1.00  0.00     0.004 C 
BRANCH   4   5
ATOM      5  C   UNL     1      42.905  24.799 224.983  1.00  0.00     0.000 C 
BRANCH   5   6
ATOM      6  C   UNL     1      42.054  23.527 224.832  1.00  0.00     0.000 C 
BRANCH   6   7
ATOM      7  C   UNL     1      42.771  22.423 224.036  1.00  0.00     0.000 C 
BRANCH   7   8
ATOM      8  C   UNL     1      41.966  21.916 222.819  1.00  0.00     0.006 C 
BRANCH   8   9
ATOM      9  C   UNL     1      42.784  21.020 221.877  1.00  0.00     0.053 C 
BRANCH   9  10
ATOM     10  C   UNL     1      43.367  19.842 222.599  1.00  0.00     0.041 C 
ATOM     11  O   UNL     1      44.607  19.631 222.567  1.00  0.00    -0.550 OA
ATOM     12  O   UNL     1      42.542  18.991 223.323  1.00  0.00    -0.550 OA
ENDBRANCH   9  10
ENDBRANCH   8   9
ENDBRANCH   7   8
ENDBRANCH   6   7
ENDBRANCH   5   6
ENDBRANCH   4   5
ENDBRANCH   3   4
ENDBRANCH   1   3
BRANCH   2  13
ATOM     13  C   UNL     1      38.711  24.717 223.732  1.00  0.00     0.027 C 
BRANCH  13  14
ATOM     14  C   UNL     1      39.256  24.374 222.340  1.00  0.00     0.004 C 
BRANCH  14  15
ATOM     15  C   UNL     1      38.411  23.299 221.637  1.00  0.00     0.000 C 
BRANCH  15  16
ATOM     16  C   UNL     1      37.162  22.907 222.443  1.00  0.00     0.000 C 
BRANCH  16  17
ATOM     17  C   UNL     1      35.855  23.200 221.684  1.00  0.00    -0.000 C 
BRANCH  17  18
ATOM     18  C   UNL     1      35.999  24.362 220.689  1.00  0.00    -0.000 C 
BRANCH  18  19
ATOM     19  C   UNL     1      35.489  24.006 219.284  1.00  0.00    -0.003 C 
ATOM     20  C   UNL     1      36.643  23.634 218.359  1.00  0.00     0.004 C 
ENDBRANCH  18  19
ENDBRANCH  17  18
ENDBRANCH  16  17
ENDBRANCH  15  16
ENDBRANCH  14  15
ENDBRANCH  13  14
ENDBRANCH   2  13
TORSDOF 15
ENDMDL
MODEL 4
REMARK VINA RESULT:    -3.530      3.124      6.168
REMARK INTER + INTRA:          -9.379
REMARK INTER:                  -6.440
REMARK INTRA:                  -2.938
REMARK UNBOUND:                -2.753
REMARK SMILES CCCCCCCCC=CCCCCCCCC(=O)[O-]
REMARK SMILES IDX 10 1 9 2 11 3 12 4 13 5 14 6 15 7 16 8 17 9 18 10 19 11
REMARK SMILES IDX 20 12 8 13 7 14 6 15 5 16 4 17 3 18 2 19 1 20
REMARK H PARENT
REMARK Flexibility Score: inf
ROOT
ATOM      1  C   UNL     1      39.280  22.861 221.798  1.00  0.00    -0.031 C 
ATOM      2  C   UNL     1      38.315  23.344 220.994  1.00  0.00    -0.031 C 
ENDROOT
BRANCH   1   3
ATOM      3  C   UNL     1      39.041  22.224 223.144  1.00  0.00     0.027 C 
BRANCH   3   4
ATOM      4  C   UNL     1      40.066  22.715 224.178  1.00  0.00     0.004 C 
BRANCH   4   5
ATOM      5  C   UNL     1      41.233  23.476 223.532  1.00  0.00     0.000 C 
BRANCH   5   6
ATOM      6  C   UNL     1      42.552  23.294 224.301  1.00  0.00     0.000 C 
BRANCH   6   7
ATOM      7  C   UNL     1      42.987  21.821 224.398  1.00  0.00     0.000 C 
BRANCH   7   8
ATOM      8  C   UNL     1      43.330  21.187 223.032  1.00  0.00     0.006 C 
BRANCH   8   9
ATOM      9  C   UNL     1      42.976  19.693 222.947  1.00  0.00     0.053 C 
BRANCH   9  10
ATOM     10  C   UNL     1      41.506  19.482 222.743  1.00  0.00     0.041 C 
ATOM     11  O   UNL     1      40.998  19.628 221.600  1.00  0.00    -0.550 OA
ATOM     12  O   UNL     1      40.702  19.102 223.810  1.00  0.00    -0.550 OA
ENDBRANCH   9  10
ENDBRANCH   8   9
ENDBRANCH   7   8
ENDBRANCH   6   7
ENDBRANCH   5   6
ENDBRANCH   4   5
ENDBRANCH   3   4
ENDBRANCH   1   3
BRANCH   2  13
ATOM     13  C   UNL     1      36.832  23.287 221.284  1.00  0.00     0.027 C 
BRANCH  13  14
ATOM     14  C   UNL     1      36.305  24.645 221.765  1.00  0.00     0.004 C 
BRANCH  14  15
ATOM     15  C   UNL     1      35.917  24.619 223.252  1.00  0.00     0.000 C 
BRANCH  15  16
ATOM     16  C   UNL     1      37.055  25.095 224.170  1.00  0.00     0.000 C 
BRANCH  16  17
ATOM     17  C   UNL     1      38.052  26.016 223.444  1.00  0.00    -0.000 C 
BRANCH  17  18
ATOM     18  C   UNL     1      39.199  26.478 224.356  1.00  0.00    -0.000 C 
BRANCH  18  19
ATOM     19  C   UNL     1      38.969  26.110 225.830  1.00  0.00    -0.003 C 
ATOM     20  C   UNL     1      40.261  25.632 226.485  1.00  0.00     0.004 C 
ENDBRANCH  18  19
ENDBRANCH  17  18
ENDBRANCH  16  17
ENDBRANCH  15  16
ENDBRANCH  14  15
ENDBRANCH  13  14
ENDBRANCH   2  13
TORSDOF 15
ENDMDL
MODEL 5
REMARK VINA RESULT:    -3.528      1.321      3.321
REMARK INTER + INTRA:          -9.374
REMARK INTER:                  -6.735
REMARK INTRA:                  -2.639
REMARK UNBOUND:                -2.753
REMARK SMILES CCCCCCCCC=CCCCCCCCC(=O)[O-]
REMARK SMILES IDX 10 1 9 2 11 3 12 4 13 5 14 6 15 7 16 8 17 9 18 10 19 11
REMARK SMILES IDX 20 12 8 13 7 14 6 15 5 16 4 17 3 18 2 19 1 20
REMARK H PARENT
REMARK Flexibility Score: inf
ROOT
ATOM      1  C   UNL     1      39.854  22.628 221.768  1.00  0.00    -0.031 C 
ATOM      2  C   UNL     1      40.648  21.541 221.774  1.00  0.00    -0.031 C 
ENDROOT
BRANCH   1   3
ATOM      3  C   UNL     1      40.307  24.025 222.108  1.00  0.00     0.027 C 
BRANCH   3   4
ATOM      4  C   UNL     1      40.016  24.358 223.579  1.00  0.00     0.004 C 
BRANCH   4   5
ATOM      5  C   UNL     1      39.275  25.693 223.743  1.00  0.00     0.000 C 
BRANCH   5   6
ATOM      6  C   UNL     1      37.783  25.503 224.063  1.00  0.00     0.000 C 
BRANCH   6   7
ATOM      7  C   UNL     1      36.926  25.290 222.803  1.00  0.00     0.000 C 
BRANCH   7   8
ATOM      8  C   UNL     1      35.925  24.120 222.928  1.00  0.00     0.006 C 
BRANCH   8   9
ATOM      9  C   UNL     1      36.185  22.986 221.922  1.00  0.00     0.053 C 
BRANCH   9  10
ATOM     10  C   UNL     1      36.162  23.483 220.508  1.00  0.00     0.041 C 
ATOM     11  O   UNL     1      37.178  23.355 219.776  1.00  0.00    -0.550 OA
ATOM     12  O   UNL     1      35.013  24.068 219.993  1.00  0.00    -0.550 OA
ENDBRANCH   9  10
ENDBRANCH   8   9
ENDBRANCH   7   8
ENDBRANCH   6   7
ENDBRANCH   5   6
ENDBRANCH   4   5
ENDBRANCH   3   4
ENDBRANCH   1   3
BRANCH   2  13
ATOM     13  C   UNL     1      42.129  21.545 222.076  1.00  0.00     0.027 C 
BRANCH  13  14
ATOM     14  C   UNL     1      42.411  21.028 223.493  1.00  0.00     0.004 C 
BRANCH  14  15
ATOM     15  C   UNL     1      42.370  19.493 223.565  1.00  0.00     0.000 C 
BRANCH  15  16
ATOM     16  C   UNL     1      41.361  18.976 224.602  1.00  0.00     0.000 C 
BRANCH  16  17
ATOM     17  C   UNL     1      39.976  18.697 223.991  1.00  0.00    -0.000 C 
BRANCH  17  18
ATOM     18  C   UNL     1      38.839  19.371 224.775  1.00  0.00    -0.000 C 
BRANCH  18  19
ATOM     19  C   UNL     1      39.229  20.756 225.312  1.00  0.00    -0.003 C 
ATOM     20  C   UNL     1      38.155  21.791 224.992  1.00  0.00     0.004 C 
ENDBRANCH  18  19
ENDBRANCH  17  18
ENDBRANCH  16  17
ENDBRANCH  15  16
ENDBRANCH  14  15
ENDBRANCH  13  14
ENDBRANCH   2  13
TORSDOF 15
ENDMDL
MODEL 6
REMARK VINA RESULT:    -3.507      3.439      6.127
REMARK INTER + INTRA:          -9.335
REMARK INTER:                  -7.215
REMARK INTRA:                  -2.120
REMARK UNBOUND:                -2.753
REMARK SMILES CCCCCCCCC=CCCCCCCCC(=O)[O-]
REMARK SMILES IDX 10 1 9 2 11 3 12 4 13 5 14 6 15 7 16 8 17 9 18 10 19 11
REMARK SMILES IDX 20 12 8 13 7 14 6 15 5 16 4 17 3 18 2 19 1 20
REMARK H PARENT
REMARK Flexibility Score: inf
ROOT
ATOM      1  C   UNL     1      40.727  23.486 222.361  1.00  0.00    -0.031 C 
ATOM      2  C   UNL     1      39.493  24.025 222.368  1.00  0.00    -0.031 C 
ENDROOT
BRANCH   1   3
ATOM      3  C   UNL     1      41.605  23.330 223.575  1.00  0.00     0.027 C 
BRANCH   3   4
ATOM      4  C   UNL     1      42.162  21.902 223.676  1.00  0.00     0.004 C 
BRANCH   4   5
ATOM      5  C   UNL     1      41.389  21.040 224.685  1.00  0.00     0.000 C 
BRANCH   5   6
ATOM      6  C   UNL     1      40.247  20.246 224.030  1.00  0.00     0.000 C 
BRANCH   6   7
ATOM      7  C   UNL     1      38.855  20.760 224.436  1.00  0.00     0.000 C 
BRANCH   7   8
ATOM      8  C   UNL     1      38.850  21.546 225.766  1.00  0.00     0.006 C 
BRANCH   8   9
ATOM      9  C   UNL     1      37.965  20.907 226.848  1.00  0.00     0.053 C 
BRANCH   9  10
ATOM     10  C   UNL     1      38.383  19.499 227.146  1.00  0.00     0.041 C 
ATOM     11  O   UNL     1      37.556  18.556 227.038  1.00  0.00    -0.550 OA
ATOM     12  O   UNL     1      39.692  19.226 227.524  1.00  0.00    -0.550 OA
ENDBRANCH   9  10
ENDBRANCH   8   9
ENDBRANCH   7   8
ENDBRANCH   6   7
ENDBRANCH   5   6
ENDBRANCH   4   5
ENDBRANCH   3   4
ENDBRANCH   1   3
BRANCH   2  13
ATOM     13  C   UNL     1      38.766  24.518 223.599  1.00  0.00     0.027 C 
BRANCH  13  14
ATOM     14  C   UNL     1      38.159  25.907 223.369  1.00  0.00     0.004 C 
BRANCH  14  15
ATOM     15  C   UNL     1      36.888  25.846 222.507  1.00  0.00     0.000 C 
BRANCH  15  16
ATOM     16  C   UNL     1      35.840  24.869 223.062  1.00  0.00     0.000 C 
BRANCH  16  17
ATOM     17  C   UNL     1      35.145  24.057 221.955  1.00  0.00    -0.000 C 
BRANCH  17  18
ATOM     18  C   UNL     1      36.122  23.586 220.867  1.00  0.00    -0.000 C 
BRANCH  18  19
ATOM     19  C   UNL     1      35.720  24.061 219.462  1.00  0.00    -0.003 C 
ATOM     20  C   UNL     1      36.729  23.599 218.416  1.00  0.00     0.004 C 
ENDBRANCH  18  19
ENDBRANCH  17  18
ENDBRANCH  16  17
ENDBRANCH  15  16
ENDBRANCH  14  15
ENDBRANCH  13  14
ENDBRANCH   2  13
TORSDOF 15
ENDMDL
MODEL 7
REMARK VINA RESULT:    -3.427      3.756      6.388
REMARK INTER + INTRA:          -9.186
REMARK INTER:                  -6.482
REMARK INTRA:                  -2.704
REMARK UNBOUND:                -2.753
REMARK SMILES CCCCCCCCC=CCCCCCCCC(=O)[O-]
REMARK SMILES IDX 10 1 9 2 11 3 12 4 13 5 14 6 15 7 16 8 17 9 18 10 19 11
REMARK SMILES IDX 20 12 8 13 7 14 6 15 5 16 4 17 3 18 2 19 1 20
REMARK H PARENT
REMARK Flexibility Score: inf
ROOT
ATOM      1  C   UNL     1      43.014  21.306 225.052  1.00  0.00    -0.031 C 
ATOM      2  C   UNL     1      42.171  22.353 225.117  1.00  0.00    -0.031 C 
ENDROOT
BRANCH   1   3
ATOM      3  C   UNL     1      44.012  21.071 223.947  1.00  0.00     0.027 C 
BRANCH   3   4
ATOM      4  C   UNL     1      43.497  20.021 222.951  1.00  0.00     0.004 C 
BRANCH   4   5
ATOM      5  C   UNL     1      42.743  20.652 221.771  1.00  0.00     0.000 C 
BRANCH   5   6
ATOM      6  C   UNL     1      41.259  20.249 221.737  1.00  0.00     0.000 C 
BRANCH   6   7
ATOM      7  C   UNL     1      40.897  19.220 222.823  1.00  0.00     0.000 C 
BRANCH   7   8
ATOM      8  C   UNL     1      39.799  19.709 223.794  1.00  0.00     0.006 C 
BRANCH   8   9
ATOM      9  C   UNL     1      40.064  19.320 225.257  1.00  0.00     0.053 C 
BRANCH   9  10
ATOM     10  C   UNL     1      40.720  17.977 225.365  1.00  0.00     0.041 C 
ATOM     11  O   UNL     1      41.937  17.889 225.675  1.00  0.00    -0.550 OA
ATOM     12  O   UNL     1      39.982  16.821 225.142  1.00  0.00    -0.550 OA
ENDBRANCH   9  10
ENDBRANCH   8   9
ENDBRANCH   7   8
ENDBRANCH   6   7
ENDBRANCH   5   6
ENDBRANCH   4   5
ENDBRANCH   3   4
ENDBRANCH   1   3
BRANCH   2  13
ATOM     13  C   UNL     1      42.116  23.489 224.121  1.00  0.00     0.027 C 
BRANCH  13  14
ATOM     14  C   UNL     1      40.674  23.780 223.685  1.00  0.00     0.004 C 
BRANCH  14  15
ATOM     15  C   UNL     1      40.509  23.720 222.158  1.00  0.00     0.000 C 
BRANCH  15  16
ATOM     16  C   UNL     1      39.047  23.527 221.727  1.00  0.00     0.000 C 
BRANCH  16  17
ATOM     17  C   UNL     1      38.215  22.773 222.780  1.00  0.00    -0.000 C 
BRANCH  17  18
ATOM     18  C   UNL     1      36.798  23.348 222.933  1.00  0.00    -0.000 C 
BRANCH  18  19
ATOM     19  C   UNL     1      36.443  24.353 221.827  1.00  0.00    -0.003 C 
ATOM     20  C   UNL     1      35.206  23.905 221.055  1.00  0.00     0.004 C 
ENDBRANCH  18  19
ENDBRANCH  17  18
ENDBRANCH  16  17
ENDBRANCH  15  16
ENDBRANCH  14  15
ENDBRANCH  13  14
ENDBRANCH   2  13
TORSDOF 15
ENDMDL
MODEL 8
REMARK VINA RESULT:    -3.416      1.850      3.447
REMARK INTER + INTRA:          -9.165
REMARK INTER:                  -6.577
REMARK INTRA:                  -2.588
REMARK UNBOUND:                -2.753
REMARK SMILES CCCCCCCCC=CCCCCCCCC(=O)[O-]
REMARK SMILES IDX 10 1 9 2 11 3 12 4 13 5 14 6 15 7 16 8 17 9 18 10 19 11
REMARK SMILES IDX 20 12 8 13 7 14 6 15 5 16 4 17 3 18 2 19 1 20
REMARK H PARENT
REMARK Flexibility Score: inf
ROOT
ATOM      1  C   UNL     1      38.946  21.968 225.070  1.00  0.00    -0.031 C 
ATOM      2  C   UNL     1      38.781  20.796 224.428  1.00  0.00    -0.031 C 
ENDROOT
BRANCH   1   3
ATOM      3  C   UNL     1      40.243  22.443 225.672  1.00  0.00     0.027 C 
BRANCH   3   4
ATOM      4  C   UNL     1      41.065  23.247 224.653  1.00  0.00     0.004 C 
BRANCH   4   5
ATOM      5  C   UNL     1      40.181  24.074 223.708  1.00  0.00     0.000 C 
BRANCH   5   6
ATOM      6  C   UNL     1      40.411  23.725 222.229  1.00  0.00     0.000 C 
BRANCH   6   7
ATOM      7  C   UNL     1      39.115  23.315 221.506  1.00  0.00     0.000 C 
BRANCH   7   8
ATOM      8  C   UNL     1      37.850  23.995 222.074  1.00  0.00     0.006 C 
BRANCH   8   9
ATOM      9  C   UNL     1      36.569  23.173 221.862  1.00  0.00     0.053 C 
BRANCH   9  10
ATOM     10  C   UNL     1      35.338  23.984 222.135  1.00  0.00     0.041 C 
ATOM     11  O   UNL     1      35.270  24.704 223.165  1.00  0.00    -0.550 OA
ATOM     12  O   UNL     1      34.274  23.959 221.242  1.00  0.00    -0.550 OA
ENDBRANCH   9  10
ENDBRANCH   8   9
ENDBRANCH   7   8
ENDBRANCH   6   7
ENDBRANCH   5   6
ENDBRANCH   4   5
ENDBRANCH   3   4
ENDBRANCH   1   3
BRANCH   2  13
ATOM     13  C   UNL     1      39.875  19.787 224.164  1.00  0.00     0.027 C 
BRANCH  13  14
ATOM     14  C   UNL     1      40.628  20.106 222.866  1.00  0.00     0.004 C 
BRANCH  14  15
ATOM     15  C   UNL     1      42.048  19.518 222.864  1.00  0.00     0.000 C 
BRANCH  15  16
ATOM     16  C   UNL     1      43.110  20.533 222.412  1.00  0.00     0.000 C 
BRANCH  16  17
ATOM     17  C   UNL     1      44.307  20.604 223.377  1.00  0.00    -0.000 C 
BRANCH  17  18
ATOM     18  C   UNL     1      43.906  20.326 224.834  1.00  0.00    -0.000 C 
BRANCH  18  19
ATOM     19  C   UNL     1      44.017  21.571 225.727  1.00  0.00    -0.003 C 
ATOM     20  C   UNL     1      43.597  21.257 227.160  1.00  0.00     0.004 C 
ENDBRANCH  18  19
ENDBRANCH  17  18
ENDBRANCH  16  17
ENDBRANCH  15  16
ENDBRANCH  14  15
ENDBRANCH  13  14
ENDBRANCH   2  13
TORSDOF 15
ENDMDL
MODEL 9
REMARK VINA RESULT:    -3.406      1.727      3.026
REMARK INTER + INTRA:          -9.146
REMARK INTER:                  -6.548
REMARK INTRA:                  -2.599
REMARK UNBOUND:                -2.753
REMARK SMILES CCCCCCCCC=CCCCCCCCC(=O)[O-]
REMARK SMILES IDX 10 1 9 2 11 3 12 4 13 5 14 6 15 7 16 8 17 9 18 10 19 11
REMARK SMILES IDX 20 12 8 13 7 14 6 15 5 16 4 17 3 18 2 19 1 20
REMARK H PARENT
REMARK Flexibility Score: inf
ROOT
ATOM      1  C   UNL     1      40.258  21.012 222.775  1.00  0.00    -0.031 C 
ATOM      2  C   UNL     1      39.945  20.881 224.078  1.00  0.00    -0.031 C 
ENDROOT
BRANCH   1   3
ATOM      3  C   UNL     1      40.858  22.248 222.154  1.00  0.00     0.027 C 
BRANCH   3   4
ATOM      4  C   UNL     1      39.766  23.245 221.740  1.00  0.00     0.004 C 
BRANCH   4   5
ATOM      5  C   UNL     1      39.882  24.585 222.481  1.00  0.00     0.000 C 
BRANCH   5   6
ATOM      6  C   UNL     1      38.563  25.006 223.148  1.00  0.00     0.000 C 
BRANCH   6   7
ATOM      7  C   UNL     1      37.391  24.076 222.790  1.00  0.00     0.000 C 
BRANCH   7   8
ATOM      8  C   UNL     1      36.381  24.707 221.805  1.00  0.00     0.006 C 
BRANCH   8   9
ATOM      9  C   UNL     1      35.632  23.669 220.954  1.00  0.00     0.053 C 
BRANCH   9  10
ATOM     10  C   UNL     1      35.878  23.871 219.489  1.00  0.00     0.041 C 
ATOM     11  O   UNL     1      34.988  24.383 218.762  1.00  0.00    -0.550 OA
ATOM     12  O   UNL     1      37.099  23.513 218.932  1.00  0.00    -0.550 OA
ENDBRANCH   9  10
ENDBRANCH   8   9
ENDBRANCH   7   8
ENDBRANCH   6   7
ENDBRANCH   5   6
ENDBRANCH   4   5
ENDBRANCH   3   4
ENDBRANCH   1   3
BRANCH   2  13
ATOM     13  C   UNL     1      40.185  21.929 225.140  1.00  0.00     0.027 C 
BRANCH  13  14
ATOM     14  C   UNL     1      41.256  21.475 226.140  1.00  0.00     0.004 C 
BRANCH  14  15
ATOM     15  C   UNL     1      42.427  22.468 226.223  1.00  0.00     0.000 C 
BRANCH  15  16
ATOM     16  C   UNL     1      43.281  22.485 224.946  1.00  0.00     0.000 C 
BRANCH  16  17
ATOM     17  C   UNL     1      44.036  21.162 224.724  1.00  0.00    -0.000 C 
BRANCH  17  18
ATOM     18  C   UNL     1      43.963  20.680 223.266  1.00  0.00    -0.000 C 
BRANCH  18  19
ATOM     19  C   UNL     1      43.589  19.195 223.151  1.00  0.00    -0.003 C 
ATOM     20  C   UNL     1      42.958  18.686 224.443  1.00  0.00     0.004 C 
ENDBRANCH  18  19
ENDBRANCH  17  18
ENDBRANCH  16  17
ENDBRANCH  15  16
ENDBRANCH  14  15
ENDBRANCH  13  14
ENDBRANCH   2  13
TORSDOF 15
ENDMDL
