MODEL 1
REMARK VINA RESULT:    -4.426      0.000      0.000
REMARK INTER + INTRA:          -4.556
REMARK INTER:                  -4.556
REMARK INTRA:                   0.000
REMARK UNBOUND:                 0.000
REMARK SMILES CC1(C)[C@H]2CC[C@]1(C)[C@@H](O)C2
REMARK SMILES IDX 1 1 2 2 4 3 5 4 6 5 7 6 9 7 11 8 8 9 3 10 10 11
REMARK H PARENT 10 12
REMARK Flexibility Score: inf
ROOT
ATOM      1  C   UNL     1     181.532 181.898 183.725  1.00  0.00     0.012 C 
ATOM      2  C   UNL     1     181.577 180.444 184.287  1.00  0.00    -0.025 C 
ATOM      3  C   UNL     1     181.616 179.360 183.198  1.00  0.00    -0.002 C 
ATOM      4  C   UNL     1     181.533 178.042 184.006  1.00  0.00     0.005 C 
ATOM      5  C   UNL     1     180.593 178.413 185.170  1.00  0.00     0.010 C 
ATOM      6  C   UNL     1     180.250 179.898 184.870  1.00  0.00    -0.001 C 
ATOM      7  C   UNL     1     179.286 179.863 183.645  1.00  0.00     0.121 C 
ATOM      8  C   UNL     1     180.249 179.516 182.483  1.00  0.00     0.036 C 
ATOM      9  C   UNL     1     179.693 180.641 186.094  1.00  0.00     0.015 C 
ATOM     10  C   UNL     1     182.797 180.407 185.260  1.00  0.00     0.012 C 
ENDROOT
BRANCH   7  11
ATOM     11  O   UNL     1     178.650 181.099 183.442  1.00  0.00    -0.393 OA
ATOM     12  H   UNL     1     178.138 181.290 184.270  1.00  0.00     0.210 HD
ENDBRANCH   7  11
TORSDOF 1
ENDMDL
MODEL 2
REMARK VINA RESULT:    -4.421      1.255      2.694
REMARK INTER + INTRA:          -4.550
REMARK INTER:                  -4.550
REMARK INTRA:                   0.000
REMARK UNBOUND:                 0.000
REMARK SMILES CC1(C)[C@H]2CC[C@]1(C)[C@@H](O)C2
REMARK SMILES IDX 1 1 2 2 4 3 5 4 6 5 7 6 9 7 11 8 8 9 3 10 10 11
REMARK H PARENT 10 12
REMARK Flexibility Score: inf
ROOT
ATOM      1  C   UNL     1     179.023 181.260 183.098  1.00  0.00     0.012 C 
ATOM      2  C   UNL     1     180.102 180.202 183.482  1.00  0.00    -0.025 C 
ATOM      3  C   UNL     1     179.647 179.223 184.576  1.00  0.00    -0.002 C 
ATOM      4  C   UNL     1     180.917 178.380 184.848  1.00  0.00     0.005 C 
ATOM      5  C   UNL     1     182.053 179.409 184.680  1.00  0.00     0.010 C 
ATOM      6  C   UNL     1     181.282 180.715 184.343  1.00  0.00    -0.001 C 
ATOM      7  C   UNL     1     180.610 181.157 185.679  1.00  0.00     0.121 C 
ATOM      8  C   UNL     1     179.458 180.132 185.818  1.00  0.00     0.036 C 
ATOM      9  C   UNL     1     182.175 181.785 183.698  1.00  0.00     0.015 C 
ATOM     10  C   UNL     1     180.506 179.509 182.143  1.00  0.00     0.012 C 
ENDROOT
BRANCH   7  11
ATOM     11  O   UNL     1     180.129 182.475 185.612  1.00  0.00    -0.393 OA
ATOM     12  H   UNL     1     180.797 183.042 186.079  1.00  0.00     0.210 HD
ENDBRANCH   7  11
TORSDOF 1
ENDMDL
MODEL 3
REMARK VINA RESULT:    -4.409      1.176      1.491
REMARK INTER + INTRA:          -4.538
REMARK INTER:                  -4.538
REMARK INTRA:                   0.000
REMARK UNBOUND:                 0.000
REMARK SMILES CC1(C)[C@H]2CC[C@]1(C)[C@@H](O)C2
REMARK SMILES IDX 1 1 2 2 4 3 5 4 6 5 7 6 9 7 11 8 8 9 3 10 10 11
REMARK H PARENT 10 12
REMARK Flexibility Score: inf
ROOT
ATOM      1  C   UNL     1     181.389 181.710 183.876  1.00  0.00     0.012 C 
ATOM      2  C   UNL     1     181.472 180.154 183.902  1.00  0.00    -0.025 C 
ATOM      3  C   UNL     1     180.408 179.462 183.033  1.00  0.00    -0.002 C 
ATOM      4  C   UNL     1     180.631 177.959 183.329  1.00  0.00     0.005 C 
ATOM      5  C   UNL     1     181.019 177.957 184.821  1.00  0.00     0.010 C 
ATOM      6  C   UNL     1     180.956 179.466 185.190  1.00  0.00    -0.001 C 
ATOM      7  C   UNL     1     179.439 179.822 185.227  1.00  0.00     0.121 C 
ATOM      8  C   UNL     1     179.073 179.845 183.723  1.00  0.00     0.036 C 
ATOM      9  C   UNL     1     181.718 179.795 186.483  1.00  0.00     0.015 C 
ATOM     10  C   UNL     1     182.940 179.804 183.501  1.00  0.00     0.012 C 
ENDROOT
BRANCH   7  11
ATOM     11  O   UNL     1     179.208 181.065 185.838  1.00  0.00    -0.393 OA
ATOM     12  H   UNL     1     178.796 180.873 186.720  1.00  0.00     0.210 HD
ENDBRANCH   7  11
TORSDOF 1
ENDMDL
MODEL 4
REMARK VINA RESULT:    -4.398      1.062      2.799
REMARK INTER + INTRA:          -4.527
REMARK INTER:                  -4.527
REMARK INTRA:                   0.000
REMARK UNBOUND:                 0.000
REMARK SMILES CC1(C)[C@H]2CC[C@]1(C)[C@@H](O)C2
REMARK SMILES IDX 1 1 2 2 4 3 5 4 6 5 7 6 9 7 11 8 8 9 3 10 10 11
REMARK H PARENT 10 12
REMARK Flexibility Score: inf
ROOT
ATOM      1  C   UNL     1     180.491 177.654 183.808  1.00  0.00     0.012 C 
ATOM      2  C   UNL     1     181.411 178.817 184.288  1.00  0.00    -0.025 C 
ATOM      3  C   UNL     1     181.198 179.208 185.759  1.00  0.00    -0.002 C 
ATOM      4  C   UNL     1     182.125 180.435 185.938  1.00  0.00     0.005 C 
ATOM      5  C   UNL     1     182.019 181.146 184.574  1.00  0.00     0.010 C 
ATOM      6  C   UNL     1     181.032 180.234 183.792  1.00  0.00    -0.001 C 
ATOM      7  C   UNL     1     179.632 180.495 184.427  1.00  0.00     0.121 C 
ATOM      8  C   UNL     1     179.747 179.754 185.782  1.00  0.00     0.036 C 
ATOM      9  C   UNL     1     181.091 180.457 182.273  1.00  0.00     0.015 C 
ATOM     10  C   UNL     1     182.868 178.363 183.959  1.00  0.00     0.012 C 
ENDROOT
BRANCH   7  11
ATOM     11  O   UNL     1     178.593 179.976 183.637  1.00  0.00    -0.393 OA
ATOM     12  H   UNL     1     178.245 180.734 183.099  1.00  0.00     0.210 HD
ENDBRANCH   7  11
TORSDOF 1
ENDMDL
MODEL 5
REMARK VINA RESULT:    -4.326      1.587      2.904
REMARK INTER + INTRA:          -4.452
REMARK INTER:                  -4.452
REMARK INTRA:                   0.000
REMARK UNBOUND:                 0.000
REMARK SMILES CC1(C)[C@H]2CC[C@]1(C)[C@@H](O)C2
REMARK SMILES IDX 1 1 2 2 4 3 5 4 6 5 7 6 9 7 11 8 8 9 3 10 10 11
REMARK H PARENT 10 12
REMARK Flexibility Score: inf
ROOT
ATOM      1  C   UNL     1     181.261 178.777 182.060  1.00  0.00     0.012 C 
ATOM      2  C   UNL     1     180.984 178.685 183.591  1.00  0.00    -0.025 C 
ATOM      3  C   UNL     1     179.747 179.477 184.046  1.00  0.00    -0.002 C 
ATOM      4  C   UNL     1     179.772 179.321 185.586  1.00  0.00     0.005 C 
ATOM      5  C   UNL     1     181.280 179.336 185.908  1.00  0.00     0.010 C 
ATOM      6  C   UNL     1     181.924 179.510 184.504  1.00  0.00    -0.001 C 
ATOM      7  C   UNL     1     181.643 180.989 184.098  1.00  0.00     0.121 C 
ATOM      8  C   UNL     1     180.134 180.950 183.755  1.00  0.00     0.036 C 
ATOM      9  C   UNL     1     183.409 179.116 184.477  1.00  0.00     0.015 C 
ATOM     10  C   UNL     1     180.911 177.160 183.915  1.00  0.00     0.012 C 
ENDROOT
BRANCH   7  11
ATOM     11  O   UNL     1     182.418 181.386 182.996  1.00  0.00    -0.393 OA
ATOM     12  H   UNL     1     182.607 182.353 183.120  1.00  0.00     0.210 HD
ENDBRANCH   7  11
TORSDOF 1
ENDMDL
MODEL 6
REMARK VINA RESULT:    -4.215      1.391      2.530
REMARK INTER + INTRA:          -4.338
REMARK INTER:                  -4.338
REMARK INTRA:                   0.000
REMARK UNBOUND:                 0.000
REMARK SMILES CC1(C)[C@H]2CC[C@]1(C)[C@@H](O)C2
REMARK SMILES IDX 1 1 2 2 4 3 5 4 6 5 7 6 9 7 11 8 8 9 3 10 10 11
REMARK H PARENT 10 12
REMARK Flexibility Score: inf
ROOT
ATOM      1  C   UNL     1     182.446 179.293 185.193  1.00  0.00     0.012 C 
ATOM      2  C   UNL     1     181.208 179.348 184.248  1.00  0.00    -0.025 C 
ATOM      3  C   UNL     1     181.462 180.109 182.937  1.00  0.00    -0.002 C 
ATOM      4  C   UNL     1     180.072 180.119 182.256  1.00  0.00     0.005 C 
ATOM      5  C   UNL     1     179.107 180.258 183.450  1.00  0.00     0.010 C 
ATOM      6  C   UNL     1     180.076 180.320 184.664  1.00  0.00    -0.001 C 
ATOM      7  C   UNL     1     180.742 181.728 184.593  1.00  0.00     0.121 C 
ATOM      8  C   UNL     1     181.724 181.563 183.407  1.00  0.00     0.036 C 
ATOM      9  C   UNL     1     179.380 180.015 185.999  1.00  0.00     0.015 C 
ATOM     10  C   UNL     1     180.769 177.864 184.043  1.00  0.00     0.012 C 
ENDROOT
BRANCH   7  11
ATOM     11  O   UNL     1     181.413 182.051 185.783  1.00  0.00    -0.393 OA
ATOM     12  H   UNL     1     180.738 182.465 186.382  1.00  0.00     0.210 HD
ENDBRANCH   7  11
TORSDOF 1
ENDMDL
MODEL 7
REMARK VINA RESULT:    -4.207      1.274      2.945
REMARK INTER + INTRA:          -4.330
REMARK INTER:                  -4.330
REMARK INTRA:                   0.000
REMARK UNBOUND:                 0.000
REMARK SMILES CC1(C)[C@H]2CC[C@]1(C)[C@@H](O)C2
REMARK SMILES IDX 1 1 2 2 4 3 5 4 6 5 7 6 9 7 11 8 8 9 3 10 10 11
REMARK H PARENT 10 12
REMARK Flexibility Score: inf
ROOT
ATOM      1  C   UNL     1     179.504 179.429 185.401  1.00  0.00     0.012 C 
ATOM      2  C   UNL     1     180.748 180.214 184.882  1.00  0.00    -0.025 C 
ATOM      3  C   UNL     1     180.782 181.684 185.329  1.00  0.00    -0.002 C 
ATOM      4  C   UNL     1     182.022 182.250 184.594  1.00  0.00     0.005 C 
ATOM      5  C   UNL     1     181.994 181.499 183.248  1.00  0.00     0.010 C 
ATOM      6  C   UNL     1     180.730 180.605 183.384  1.00  0.00    -0.001 C 
ATOM      7  C   UNL     1     179.517 181.578 183.262  1.00  0.00     0.121 C 
ATOM      8  C   UNL     1     179.545 182.304 184.629  1.00  0.00     0.036 C 
ATOM      9  C   UNL     1     180.712 179.441 182.382  1.00  0.00     0.015 C 
ATOM     10  C   UNL     1     181.989 179.385 185.340  1.00  0.00     0.012 C 
ENDROOT
BRANCH   7  11
ATOM     11  O   UNL     1     178.310 180.889 183.063  1.00  0.00    -0.393 OA
ATOM     12  H   UNL     1     177.777 181.011 183.891  1.00  0.00     0.210 HD
ENDBRANCH   7  11
TORSDOF 1
ENDMDL
MODEL 8
REMARK VINA RESULT:    -4.197      1.778      3.034
REMARK INTER + INTRA:          -4.319
REMARK INTER:                  -4.319
REMARK INTRA:                   0.000
REMARK UNBOUND:                 0.000
REMARK SMILES CC1(C)[C@H]2CC[C@]1(C)[C@@H](O)C2
REMARK SMILES IDX 1 1 2 2 4 3 5 4 6 5 7 6 9 7 11 8 8 9 3 10 10 11
REMARK H PARENT 10 12
REMARK Flexibility Score: inf
ROOT
ATOM      1  C   UNL     1     182.943 179.892 183.690  1.00  0.00     0.012 C 
ATOM      2  C   UNL     1     181.413 179.935 183.396  1.00  0.00    -0.025 C 
ATOM      3  C   UNL     1     180.729 181.230 183.863  1.00  0.00    -0.002 C 
ATOM      4  C   UNL     1     179.231 180.967 183.569  1.00  0.00     0.005 C 
ATOM      5  C   UNL     1     179.083 179.462 183.870  1.00  0.00     0.010 C 
ATOM      6  C   UNL     1     180.519 179.060 184.309  1.00  0.00    -0.001 C 
ATOM      7  C   UNL     1     180.708 179.679 185.728  1.00  0.00     0.121 C 
ATOM      8  C   UNL     1     180.881 181.183 185.406  1.00  0.00     0.036 C 
ATOM      9  C   UNL     1     180.761 177.545 184.240  1.00  0.00     0.015 C 
ATOM     10  C   UNL     1     181.271 179.663 181.865  1.00  0.00     0.012 C 
ENDROOT
BRANCH   7  11
ATOM     11  O   UNL     1     181.834 179.153 186.382  1.00  0.00    -0.393 OA
ATOM     12  H   UNL     1     181.734 179.384 187.342  1.00  0.00     0.210 HD
ENDBRANCH   7  11
TORSDOF 1
ENDMDL
MODEL 9
REMARK VINA RESULT:    -4.138      1.761      2.818
REMARK INTER + INTRA:          -4.258
REMARK INTER:                  -4.258
REMARK INTRA:                   0.000
REMARK UNBOUND:                 0.000
REMARK SMILES CC1(C)[C@H]2CC[C@]1(C)[C@@H](O)C2
REMARK SMILES IDX 1 1 2 2 4 3 5 4 6 5 7 6 9 7 11 8 8 9 3 10 10 11
REMARK H PARENT 10 12
REMARK Flexibility Score: inf
ROOT
ATOM      1  C   UNL     1     183.375 179.111 184.537  1.00  0.00     0.012 C 
ATOM      2  C   UNL     1     181.936 179.681 184.727  1.00  0.00    -0.025 C 
ATOM      3  C   UNL     1     180.942 178.668 185.316  1.00  0.00    -0.002 C 
ATOM      4  C   UNL     1     179.596 179.433 185.287  1.00  0.00     0.005 C 
ATOM      5  C   UNL     1     179.701 180.261 183.990  1.00  0.00     0.010 C 
ATOM      6  C   UNL     1     181.095 179.851 183.438  1.00  0.00    -0.001 C 
ATOM      7  C   UNL     1     180.921 178.396 182.906  1.00  0.00     0.121 C 
ATOM      8  C   UNL     1     180.843 177.578 184.218  1.00  0.00     0.036 C 
ATOM      9  C   UNL     1     181.641 180.844 182.401  1.00  0.00     0.015 C 
ATOM     10  C   UNL     1     182.106 180.973 185.587  1.00  0.00     0.012 C 
ENDROOT
BRANCH   7  11
ATOM     11  O   UNL     1     182.005 177.997 182.107  1.00  0.00    -0.393 OA
ATOM     12  H   UNL     1     181.907 178.474 181.242  1.00  0.00     0.210 HD
ENDBRANCH   7  11
TORSDOF 1
ENDMDL
