MODEL 1
REMARK VINA RESULT:    -3.177      0.000      0.000
REMARK INTER + INTRA:          -4.032
REMARK INTER:                  -3.920
REMARK INTRA:                  -0.112
REMARK UNBOUND:                -0.112
REMARK SMILES CCCCCC(=O)[O-]
REMARK SMILES IDX 4 1 5 2 6 3 7 4 8 5 3 6 2 7 1 8
REMARK H PARENT
REMARK Flexibility Score: inf
ROOT
ATOM      1  C   UNL     1     -11.269   9.226 -18.977  1.00  0.00     0.006 C 
ENDROOT
BRANCH   1   2
ATOM      2  C   UNL     1     -10.283   8.055 -18.868  1.00  0.00     0.053 C 
BRANCH   2   3
ATOM      3  C   UNL     1      -9.146   8.371 -17.946  1.00  0.00     0.041 C 
ATOM      4  O   UNL     1      -9.316   9.145 -16.968  1.00  0.00    -0.550 OA
ATOM      5  O   UNL     1      -7.887   7.834 -18.186  1.00  0.00    -0.550 OA
ENDBRANCH   2   3
ENDBRANCH   1   2
BRANCH   1   6
ATOM      6  C   UNL     1     -12.612   8.802 -19.587  1.00  0.00     0.000 C 
BRANCH   6   7
ATOM      7  C   UNL     1     -12.473   7.485 -20.359  1.00  0.00    -0.003 C 
ATOM      8  C   UNL     1     -13.188   7.556 -21.705  1.00  0.00     0.004 C 
ENDBRANCH   6   7
ENDBRANCH   1   6
TORSDOF 4
ENDMDL
MODEL 2
REMARK VINA RESULT:    -3.121      3.138      4.524
REMARK INTER + INTRA:          -3.963
REMARK INTER:                  -3.829
REMARK INTRA:                  -0.134
REMARK UNBOUND:                -0.112
REMARK SMILES CCCCCC(=O)[O-]
REMARK SMILES IDX 4 1 5 2 6 3 7 4 8 5 3 6 2 7 1 8
REMARK H PARENT
REMARK Flexibility Score: inf
ROOT
ATOM      1  C   UNL     1     -12.355   8.516 -19.325  1.00  0.00     0.006 C 
ENDROOT
BRANCH   1   2
ATOM      2  C   UNL     1     -12.079   7.038 -19.629  1.00  0.00     0.053 C 
BRANCH   2   3
ATOM      3  C   UNL     1     -12.486   6.674 -21.024  1.00  0.00     0.041 C 
ATOM      4  O   UNL     1     -12.078   5.604 -21.547  1.00  0.00    -0.550 OA
ATOM      5  O   UNL     1     -13.293   7.533 -21.759  1.00  0.00    -0.550 OA
ENDBRANCH   2   3
ENDBRANCH   1   2
BRANCH   1   6
ATOM      6  C   UNL     1     -11.079   9.280 -18.943  1.00  0.00     0.000 C 
BRANCH   6   7
ATOM      7  C   UNL     1      -9.973   8.315 -18.501  1.00  0.00    -0.003 C 
ATOM      8  C   UNL     1      -9.176   8.888 -17.332  1.00  0.00     0.004 C 
ENDBRANCH   6   7
ENDBRANCH   1   6
TORSDOF 4
ENDMDL
MODEL 3
REMARK VINA RESULT:    -3.104      1.436      1.902
REMARK INTER + INTRA:          -3.942
REMARK INTER:                  -3.717
REMARK INTRA:                  -0.225
REMARK UNBOUND:                -0.112
REMARK SMILES CCCCCC(=O)[O-]
REMARK SMILES IDX 4 1 5 2 6 3 7 4 8 5 3 6 2 7 1 8
REMARK H PARENT
REMARK Flexibility Score: inf
ROOT
ATOM      1  C   UNL     1     -10.318   7.423 -19.502  1.00  0.00     0.006 C 
ENDROOT
BRANCH   1   2
ATOM      2  C   UNL     1      -9.697   7.678 -18.122  1.00  0.00     0.053 C 
BRANCH   2   3
ATOM      3  C   UNL     1      -9.580   9.142 -17.829  1.00  0.00     0.041 C 
ATOM      4  O   UNL     1     -10.065   9.991 -18.623  1.00  0.00    -0.550 OA
ATOM      5  O   UNL     1      -8.907   9.572 -16.692  1.00  0.00    -0.550 OA
ENDBRANCH   2   3
ENDBRANCH   1   2
BRANCH   1   6
ATOM      6  C   UNL     1     -11.801   7.038 -19.411  1.00  0.00     0.000 C 
BRANCH   6   7
ATOM      7  C   UNL     1     -12.675   8.035 -20.181  1.00  0.00    -0.003 C 
ATOM      8  C   UNL     1     -13.414   8.970 -19.229  1.00  0.00     0.004 C 
ENDBRANCH   6   7
ENDBRANCH   1   6
TORSDOF 4
ENDMDL
MODEL 4
REMARK VINA RESULT:    -3.081     10.926     12.053
REMARK INTER + INTRA:          -3.913
REMARK INTER:                  -3.688
REMARK INTRA:                  -0.225
REMARK UNBOUND:                -0.112
REMARK SMILES CCCCCC(=O)[O-]
REMARK SMILES IDX 4 1 5 2 6 3 7 4 8 5 3 6 2 7 1 8
REMARK H PARENT
REMARK Flexibility Score: inf
ROOT
ATOM      1  C   UNL     1      -2.554   1.487 -21.795  1.00  0.00     0.006 C 
ENDROOT
BRANCH   1   2
ATOM      2  C   UNL     1      -2.592   0.631 -23.068  1.00  0.00     0.053 C 
BRANCH   2   3
ATOM      3  C   UNL     1      -1.214   0.277 -23.539  1.00  0.00     0.041 C 
ATOM      4  O   UNL     1      -0.768  -0.890 -23.380  1.00  0.00    -0.550 OA
ATOM      5  O   UNL     1      -0.410   1.247 -24.125  1.00  0.00    -0.550 OA
ENDBRANCH   2   3
ENDBRANCH   1   2
BRANCH   1   6
ATOM      6  C   UNL     1      -3.440   2.736 -21.908  1.00  0.00     0.000 C 
BRANCH   6   7
ATOM      7  C   UNL     1      -3.121   3.522 -23.185  1.00  0.00    -0.003 C 
ATOM      8  C   UNL     1      -1.868   4.375 -23.008  1.00  0.00     0.004 C 
ENDBRANCH   6   7
ENDBRANCH   1   6
TORSDOF 4
ENDMDL
MODEL 5
REMARK VINA RESULT:    -3.077      1.139      1.347
REMARK INTER + INTRA:          -3.908
REMARK INTER:                  -3.756
REMARK INTRA:                  -0.152
REMARK UNBOUND:                -0.112
REMARK SMILES CCCCCC(=O)[O-]
REMARK SMILES IDX 4 1 5 2 6 3 7 4 8 5 3 6 2 7 1 8
REMARK H PARENT
REMARK Flexibility Score: inf
ROOT
ATOM      1  C   UNL     1     -12.070   7.986 -19.288  1.00  0.00     0.006 C 
ENDROOT
BRANCH   1   2
ATOM      2  C   UNL     1     -10.850   8.837 -18.911  1.00  0.00     0.053 C 
BRANCH   2   3
ATOM      3  C   UNL     1      -9.751   8.003 -18.326  1.00  0.00     0.041 C 
ATOM      4  O   UNL     1      -9.051   8.448 -17.379  1.00  0.00    -0.550 OA
ATOM      5  O   UNL     1      -9.481   6.745 -18.849  1.00  0.00    -0.550 OA
ENDBRANCH   2   3
ENDBRANCH   1   2
BRANCH   1   6
ATOM      6  C   UNL     1     -12.802   8.532 -20.521  1.00  0.00     0.000 C 
BRANCH   6   7
ATOM      7  C   UNL     1     -13.085   7.414 -21.531  1.00  0.00    -0.003 C 
ATOM      8  C   UNL     1     -12.312   6.146 -21.181  1.00  0.00     0.004 C 
ENDBRANCH   6   7
ENDBRANCH   1   6
TORSDOF 4
ENDMDL
MODEL 6
REMARK VINA RESULT:    -2.949      1.799      2.863
REMARK INTER + INTRA:          -3.750
REMARK INTER:                  -3.657
REMARK INTRA:                  -0.094
REMARK UNBOUND:                -0.112
REMARK SMILES CCCCCC(=O)[O-]
REMARK SMILES IDX 4 1 5 2 6 3 7 4 8 5 3 6 2 7 1 8
REMARK H PARENT
REMARK Flexibility Score: inf
ROOT
ATOM      1  C   UNL     1      -9.354   8.487 -17.573  1.00  0.00     0.006 C 
ENDROOT
BRANCH   1   2
ATOM      2  C   UNL     1      -9.116   9.995 -17.416  1.00  0.00     0.053 C 
BRANCH   2   3
ATOM      3  C   UNL     1      -8.135  10.291 -16.323  1.00  0.00     0.041 C 
ATOM      4  O   UNL     1      -6.911  10.424 -16.587  1.00  0.00    -0.550 OA
ATOM      5  O   UNL     1      -8.569  10.388 -15.007  1.00  0.00    -0.550 OA
ENDBRANCH   2   3
ENDBRANCH   1   2
BRANCH   1   6
ATOM      6  C   UNL     1     -10.210   8.158 -18.803  1.00  0.00     0.000 C 
BRANCH   6   7
ATOM      7  C   UNL     1     -11.245   9.259 -19.063  1.00  0.00    -0.003 C 
ATOM      8  C   UNL     1     -12.619   8.665 -19.363  1.00  0.00     0.004 C 
ENDBRANCH   6   7
ENDBRANCH   1   6
TORSDOF 4
ENDMDL
MODEL 7
REMARK VINA RESULT:    -2.945      1.786      2.263
REMARK INTER + INTRA:          -3.745
REMARK INTER:                  -3.664
REMARK INTRA:                  -0.081
REMARK UNBOUND:                -0.112
REMARK SMILES CCCCCC(=O)[O-]
REMARK SMILES IDX 4 1 5 2 6 3 7 4 8 5 3 6 2 7 1 8
REMARK H PARENT
REMARK Flexibility Score: inf
ROOT
ATOM      1  C   UNL     1     -11.086   6.800 -19.724  1.00  0.00     0.006 C 
ENDROOT
BRANCH   1   2
ATOM      2  C   UNL     1      -9.807   7.261 -19.013  1.00  0.00     0.053 C 
BRANCH   2   3
ATOM      3  C   UNL     1      -8.697   6.268 -19.169  1.00  0.00     0.041 C 
ATOM      4  O   UNL     1      -7.504   6.609 -18.956  1.00  0.00    -0.550 OA
ATOM      5  O   UNL     1      -8.977   4.971 -19.581  1.00  0.00    -0.550 OA
ENDBRANCH   2   3
ENDBRANCH   1   2
BRANCH   1   6
ATOM      6  C   UNL     1     -12.302   7.659 -19.350  1.00  0.00     0.000 C 
BRANCH   6   7
ATOM      7  C   UNL     1     -12.859   8.387 -20.579  1.00  0.00    -0.003 C 
ATOM      8  C   UNL     1     -13.129   7.412 -21.722  1.00  0.00     0.004 C 
ENDBRANCH   6   7
ENDBRANCH   1   6
TORSDOF 4
ENDMDL
MODEL 8
REMARK VINA RESULT:    -2.902     11.008     11.890
REMARK INTER + INTRA:          -3.692
REMARK INTER:                  -3.597
REMARK INTRA:                  -0.095
REMARK UNBOUND:                -0.112
REMARK SMILES CCCCCC(=O)[O-]
REMARK SMILES IDX 4 1 5 2 6 3 7 4 8 5 3 6 2 7 1 8
REMARK H PARENT
REMARK Flexibility Score: inf
ROOT
ATOM      1  C   UNL     1      -1.861   3.868 -23.002  1.00  0.00     0.006 C 
ENDROOT
BRANCH   1   2
ATOM      2  C   UNL     1      -0.665   3.662 -23.941  1.00  0.00     0.053 C 
BRANCH   2   3
ATOM      3  C   UNL     1       0.256   4.844 -23.933  1.00  0.00     0.041 C 
ATOM      4  O   UNL     1      -0.208   6.012 -23.997  1.00  0.00    -0.550 OA
ATOM      5  O   UNL     1       1.631   4.652 -23.886  1.00  0.00    -0.550 OA
ENDBRANCH   2   3
ENDBRANCH   1   2
BRANCH   1   6
ATOM      6  C   UNL     1      -2.832   2.679 -23.027  1.00  0.00     0.000 C 
BRANCH   6   7
ATOM      7  C   UNL     1      -2.633   1.783 -21.799  1.00  0.00    -0.003 C 
ATOM      8  C   UNL     1      -2.255   0.362 -22.210  1.00  0.00     0.004 C 
ENDBRANCH   6   7
ENDBRANCH   1   6
TORSDOF 4
ENDMDL
MODEL 9
REMARK VINA RESULT:    -2.857      2.612      4.638
REMARK INTER + INTRA:          -3.636
REMARK INTER:                  -3.536
REMARK INTRA:                  -0.100
REMARK UNBOUND:                -0.112
REMARK SMILES CCCCCC(=O)[O-]
REMARK SMILES IDX 4 1 5 2 6 3 7 4 8 5 3 6 2 7 1 8
REMARK H PARENT
REMARK Flexibility Score: inf
ROOT
ATOM      1  C   UNL     1     -10.462   9.818 -18.598  1.00  0.00     0.006 C 
ENDROOT
BRANCH   1   2
ATOM      2  C   UNL     1     -11.088   9.093 -19.796  1.00  0.00     0.053 C 
BRANCH   2   3
ATOM      3  C   UNL     1     -12.293   8.298 -19.396  1.00  0.00     0.041 C 
ATOM      4  O   UNL     1     -12.213   7.049 -19.254  1.00  0.00    -0.550 OA
ATOM      5  O   UNL     1     -13.514   8.934 -19.210  1.00  0.00    -0.550 OA
ENDBRANCH   2   3
ENDBRANCH   1   2
BRANCH   1   6
ATOM      6  C   UNL     1      -9.495   8.920 -17.814  1.00  0.00     0.000 C 
BRANCH   6   7
ATOM      7  C   UNL     1      -8.880   9.676 -16.630  1.00  0.00    -0.003 C 
ATOM      8  C   UNL     1      -7.776  10.622 -17.094  1.00  0.00     0.004 C 
ENDBRANCH   6   7
ENDBRANCH   1   6
TORSDOF 4
ENDMDL
