MODEL 1
REMARK VINA RESULT:    -3.503      0.000      0.000
REMARK INTER + INTRA:          -8.947
REMARK INTER:                  -6.370
REMARK INTRA:                  -2.577
REMARK UNBOUND:                -2.577
REMARK SMILES CCCCCCCCCCCCCCCC(=O)[O-]
REMARK SMILES IDX 9 1 10 2 11 3 12 4 13 5 14 6 15 7 16 8 17 9 18 10 8 11 7 12
REMARK SMILES IDX 6 13 5 14 4 15 3 16 2 17 1 18
REMARK H PARENT
REMARK Flexibility Score: inf
ROOT
ATOM      1  C   UNL     1      26.465  -3.134  51.599  1.00  0.00     0.000 C 
ENDROOT
BRANCH   1   2
ATOM      2  C   UNL     1      26.182  -4.644  51.498  1.00  0.00     0.000 C 
BRANCH   2   3
ATOM      3  C   UNL     1      27.330  -5.562  51.959  1.00  0.00     0.000 C 
BRANCH   3   4
ATOM      4  C   UNL     1      28.714  -5.062  51.514  1.00  0.00     0.000 C 
BRANCH   4   5
ATOM      5  C   UNL     1      29.799  -5.309  52.575  1.00  0.00     0.000 C 
BRANCH   5   6
ATOM      6  C   UNL     1      30.620  -4.045  52.889  1.00  0.00     0.006 C 
BRANCH   6   7
ATOM      7  C   UNL     1      29.730  -2.871  53.321  1.00  0.00     0.053 C 
BRANCH   7   8
ATOM      8  C   UNL     1      29.816  -1.727  52.359  1.00  0.00     0.041 C 
ATOM      9  O   UNL     1      29.153  -0.675  52.563  1.00  0.00    -0.550 OA
ATOM     10  O   UNL     1      30.603  -1.833  51.218  1.00  0.00    -0.550 OA
ENDBRANCH   7   8
ENDBRANCH   6   7
ENDBRANCH   5   6
ENDBRANCH   4   5
ENDBRANCH   3   4
ENDBRANCH   2   3
ENDBRANCH   1   2
BRANCH   1  11
ATOM     11  C   UNL     1      25.850  -2.491  52.853  1.00  0.00     0.000 C 
BRANCH  11  12
ATOM     12  C   UNL     1      24.656  -3.288  53.400  1.00  0.00    -0.000 C 
BRANCH  12  13
ATOM     13  C   UNL     1      24.791  -3.611  54.896  1.00  0.00    -0.000 C 
BRANCH  13  14
ATOM     14  C   UNL     1      26.217  -4.076  55.229  1.00  0.00    -0.000 C 
BRANCH  14  15
ATOM     15  C   UNL     1      26.319  -5.596  55.445  1.00  0.00    -0.000 C 
BRANCH  15  16
ATOM     16  C   UNL     1      27.753  -6.132  55.622  1.00  0.00    -0.000 C 
BRANCH  16  17
ATOM     17  C   UNL     1      28.720  -5.079  56.181  1.00  0.00    -0.003 C 
ATOM     18  C   UNL     1      30.135  -5.638  56.295  1.00  0.00     0.004 C 
ENDBRANCH  16  17
ENDBRANCH  15  16
ENDBRANCH  14  15
ENDBRANCH  13  14
ENDBRANCH  12  13
ENDBRANCH  11  12
ENDBRANCH   1  11
TORSDOF 14
ENDMDL
MODEL 2
REMARK VINA RESULT:    -3.481      3.362      6.051
REMARK INTER + INTRA:          -8.908
REMARK INTER:                  -6.480
REMARK INTRA:                  -2.428
REMARK UNBOUND:                -2.577
REMARK SMILES CCCCCCCCCCCCCCCC(=O)[O-]
REMARK SMILES IDX 9 1 10 2 11 3 12 4 13 5 14 6 15 7 16 8 17 9 18 10 8 11 7 12
REMARK SMILES IDX 6 13 5 14 4 15 3 16 2 17 1 18
REMARK H PARENT
REMARK Flexibility Score: inf
ROOT
ATOM      1  C   UNL     1      28.603  -4.507  54.413  1.00  0.00     0.000 C 
ENDROOT
BRANCH   1   2
ATOM      2  C   UNL     1      27.346  -3.882  55.046  1.00  0.00     0.000 C 
BRANCH   2   3
ATOM      3  C   UNL     1      26.236  -4.879  55.430  1.00  0.00     0.000 C 
BRANCH   3   4
ATOM      4  C   UNL     1      24.831  -4.258  55.389  1.00  0.00     0.000 C 
BRANCH   4   5
ATOM      5  C   UNL     1      24.841  -2.812  54.864  1.00  0.00     0.000 C 
BRANCH   5   6
ATOM      6  C   UNL     1      24.754  -1.770  55.994  1.00  0.00     0.006 C 
BRANCH   6   7
ATOM      7  C   UNL     1      24.166  -2.363  57.282  1.00  0.00     0.053 C 
BRANCH   7   8
ATOM      8  C   UNL     1      22.912  -1.657  57.696  1.00  0.00     0.041 C 
ATOM      9  O   UNL     1      22.347  -0.854  56.908  1.00  0.00    -0.550 OA
ATOM     10  O   UNL     1      22.384  -1.861  58.965  1.00  0.00    -0.550 OA
ENDBRANCH   7   8
ENDBRANCH   6   7
ENDBRANCH   5   6
ENDBRANCH   4   5
ENDBRANCH   3   4
ENDBRANCH   2   3
ENDBRANCH   1   2
BRANCH   1  11
ATOM     11  C   UNL     1      28.282  -5.691  53.485  1.00  0.00     0.000 C 
BRANCH  11  12
ATOM     12  C   UNL     1      27.985  -5.247  52.044  1.00  0.00    -0.000 C 
BRANCH  12  13
ATOM     13  C   UNL     1      26.487  -5.295  51.704  1.00  0.00    -0.000 C 
BRANCH  13  14
ATOM     14  C   UNL     1      25.900  -3.879  51.616  1.00  0.00    -0.000 C 
BRANCH  14  15
ATOM     15  C   UNL     1      26.960  -2.805  51.315  1.00  0.00    -0.000 C 
BRANCH  15  16
ATOM     16  C   UNL     1      26.814  -1.503  52.124  1.00  0.00    -0.000 C 
BRANCH  16  17
ATOM     17  C   UNL     1      28.150  -0.995  52.686  1.00  0.00    -0.003 C 
ATOM     18  C   UNL     1      29.324  -1.775  52.101  1.00  0.00     0.004 C 
ENDBRANCH  16  17
ENDBRANCH  15  16
ENDBRANCH  14  15
ENDBRANCH  13  14
ENDBRANCH  12  13
ENDBRANCH  11  12
ENDBRANCH   1  11
TORSDOF 14
ENDMDL
MODEL 3
REMARK VINA RESULT:    -3.478      2.447      4.033
REMARK INTER + INTRA:          -8.901
REMARK INTER:                  -6.754
REMARK INTRA:                  -2.147
REMARK UNBOUND:                -2.577
REMARK SMILES CCCCCCCCCCCCCCCC(=O)[O-]
REMARK SMILES IDX 9 1 10 2 11 3 12 4 13 5 14 6 15 7 16 8 17 9 18 10 8 11 7 12
REMARK SMILES IDX 6 13 5 14 4 15 3 16 2 17 1 18
REMARK H PARENT
REMARK Flexibility Score: inf
ROOT
ATOM      1  C   UNL     1      26.594  -2.302  54.841  1.00  0.00     0.000 C 
ENDROOT
BRANCH   1   2
ATOM      2  C   UNL     1      27.056  -1.435  53.656  1.00  0.00     0.000 C 
BRANCH   2   3
ATOM      3  C   UNL     1      26.259  -1.625  52.351  1.00  0.00     0.000 C 
BRANCH   3   4
ATOM      4  C   UNL     1      26.821  -2.746  51.463  1.00  0.00     0.000 C 
BRANCH   4   5
ATOM      5  C   UNL     1      26.024  -4.055  51.590  1.00  0.00     0.000 C 
BRANCH   5   6
ATOM      6  C   UNL     1      26.930  -5.292  51.726  1.00  0.00     0.006 C 
BRANCH   6   7
ATOM      7  C   UNL     1      28.106  -5.043  52.681  1.00  0.00     0.053 C 
BRANCH   7   8
ATOM      8  C   UNL     1      29.422  -5.346  52.032  1.00  0.00     0.041 C 
ATOM      9  O   UNL     1      29.460  -5.796  50.857  1.00  0.00    -0.550 OA
ATOM     10  O   UNL     1      30.605  -5.162  52.738  1.00  0.00    -0.550 OA
ENDBRANCH   7   8
ENDBRANCH   6   7
ENDBRANCH   5   6
ENDBRANCH   4   5
ENDBRANCH   3   4
ENDBRANCH   2   3
ENDBRANCH   1   2
BRANCH   1  11
ATOM     11  C   UNL     1      25.065  -2.443  54.922  1.00  0.00     0.000 C 
BRANCH  11  12
ATOM     12  C   UNL     1      24.604  -3.908  54.860  1.00  0.00    -0.000 C 
BRANCH  12  13
ATOM     13  C   UNL     1      25.628  -4.880  55.467  1.00  0.00    -0.000 C 
BRANCH  13  14
ATOM     14  C   UNL     1      25.300  -5.173  56.939  1.00  0.00    -0.000 C 
BRANCH  14  15
ATOM     15  C   UNL     1      26.203  -4.407  57.921  1.00  0.00    -0.000 C 
BRANCH  15  16
ATOM     16  C   UNL     1      25.496  -3.297  58.722  1.00  0.00    -0.000 C 
BRANCH  16  17
ATOM     17  C   UNL     1      23.985  -3.241  58.460  1.00  0.00    -0.003 C 
ATOM     18  C   UNL     1      23.210  -3.025  59.757  1.00  0.00     0.004 C 
ENDBRANCH  16  17
ENDBRANCH  15  16
ENDBRANCH  14  15
ENDBRANCH  13  14
ENDBRANCH  12  13
ENDBRANCH  11  12
ENDBRANCH   1  11
TORSDOF 14
ENDMDL
MODEL 4
REMARK VINA RESULT:    -3.474     11.810     14.023
REMARK INTER + INTRA:          -8.895
REMARK INTER:                  -6.399
REMARK INTRA:                  -2.496
REMARK UNBOUND:                -2.577
REMARK SMILES CCCCCCCCCCCCCCCC(=O)[O-]
REMARK SMILES IDX 9 1 10 2 11 3 12 4 13 5 14 6 15 7 16 8 17 9 18 10 8 11 7 12
REMARK SMILES IDX 6 13 5 14 4 15 3 16 2 17 1 18
REMARK H PARENT
REMARK Flexibility Score: inf
ROOT
ATOM      1  C   UNL     1      15.226   0.243  58.760  1.00  0.00     0.000 C 
ENDROOT
BRANCH   1   2
ATOM      2  C   UNL     1      15.140  -0.905  59.782  1.00  0.00     0.000 C 
BRANCH   2   3
ATOM      3  C   UNL     1      16.467  -1.633  60.068  1.00  0.00     0.000 C 
BRANCH   3   4
ATOM      4  C   UNL     1      17.307  -0.945  61.156  1.00  0.00     0.000 C 
BRANCH   4   5
ATOM      5  C   UNL     1      18.542  -0.231  60.583  1.00  0.00     0.000 C 
BRANCH   5   6
ATOM      6  C   UNL     1      18.489   1.295  60.778  1.00  0.00     0.006 C 
BRANCH   6   7
ATOM      7  C   UNL     1      17.516   1.701  61.893  1.00  0.00     0.053 C 
BRANCH   7   8
ATOM      8  C   UNL     1      17.715   3.125  62.312  1.00  0.00     0.041 C 
ATOM      9  O   UNL     1      17.689   3.437  63.532  1.00  0.00    -0.550 OA
ATOM     10  O   UNL     1      17.897   4.115  61.354  1.00  0.00    -0.550 OA
ENDBRANCH   7   8
ENDBRANCH   6   7
ENDBRANCH   5   6
ENDBRANCH   4   5
ENDBRANCH   3   4
ENDBRANCH   2   3
ENDBRANCH   1   2
BRANCH   1  11
ATOM     11  C   UNL     1      14.752   1.591  59.329  1.00  0.00     0.000 C 
BRANCH  11  12
ATOM     12  C   UNL     1      15.647   2.762  58.894  1.00  0.00    -0.000 C 
BRANCH  12  13
ATOM     13  C   UNL     1      16.024   2.701  57.405  1.00  0.00    -0.000 C 
BRANCH  13  14
ATOM     14  C   UNL     1      17.548   2.631  57.229  1.00  0.00    -0.000 C 
BRANCH  14  15
ATOM     15  C   UNL     1      17.989   1.554  56.222  1.00  0.00    -0.000 C 
BRANCH  15  16
ATOM     16  C   UNL     1      18.468   0.233  56.852  1.00  0.00    -0.000 C 
BRANCH  16  17
ATOM     17  C   UNL     1      17.561  -0.957  56.509  1.00  0.00    -0.003 C 
ATOM     18  C   UNL     1      16.783  -0.701  55.221  1.00  0.00     0.004 C 
ENDBRANCH  16  17
ENDBRANCH  15  16
ENDBRANCH  14  15
ENDBRANCH  13  14
ENDBRANCH  12  13
ENDBRANCH  11  12
ENDBRANCH   1  11
TORSDOF 14
ENDMDL
MODEL 5
REMARK VINA RESULT:    -3.444     11.848     14.177
REMARK INTER + INTRA:          -8.840
REMARK INTER:                  -6.362
REMARK INTRA:                  -2.478
REMARK UNBOUND:                -2.577
REMARK SMILES CCCCCCCCCCCCCCCC(=O)[O-]
REMARK SMILES IDX 9 1 10 2 11 3 12 4 13 5 14 6 15 7 16 8 17 9 18 10 8 11 7 12
REMARK SMILES IDX 6 13 5 14 4 15 3 16 2 17 1 18
REMARK H PARENT
REMARK Flexibility Score: inf
ROOT
ATOM      1  C   UNL     1      15.234   2.042  58.118  1.00  0.00     0.000 C 
ENDROOT
BRANCH   1   2
ATOM      2  C   UNL     1      16.208   2.728  59.094  1.00  0.00     0.000 C 
BRANCH   2   3
ATOM      3  C   UNL     1      17.240   1.797  59.757  1.00  0.00     0.000 C 
BRANCH   3   4
ATOM      4  C   UNL     1      17.054   1.682  61.279  1.00  0.00     0.000 C 
BRANCH   4   5
ATOM      5  C   UNL     1      17.182   0.234  61.780  1.00  0.00     0.000 C 
BRANCH   5   6
ATOM      6  C   UNL     1      17.763  -0.714  60.715  1.00  0.00     0.006 C 
BRANCH   6   7
ATOM      7  C   UNL     1      16.997  -2.042  60.645  1.00  0.00     0.053 C 
BRANCH   7   8
ATOM      8  C   UNL     1      16.936  -2.719  61.980  1.00  0.00     0.041 C 
ATOM      9  O   UNL     1      15.825  -2.931  62.533  1.00  0.00    -0.550 OA
ATOM     10  O   UNL     1      18.109  -3.087  62.628  1.00  0.00    -0.550 OA
ENDBRANCH   7   8
ENDBRANCH   6   7
ENDBRANCH   5   6
ENDBRANCH   4   5
ENDBRANCH   3   4
ENDBRANCH   2   3
ENDBRANCH   1   2
BRANCH   1  11
ATOM     11  C   UNL     1      15.238   0.509  58.245  1.00  0.00     0.000 C 
BRANCH  11  12
ATOM     12  C   UNL     1      15.658  -0.190  56.943  1.00  0.00    -0.000 C 
BRANCH  12  13
ATOM     13  C   UNL     1      16.961  -0.991  57.092  1.00  0.00    -0.000 C 
BRANCH  13  14
ATOM     14  C   UNL     1      18.181  -0.124  56.745  1.00  0.00    -0.000 C 
BRANCH  14  15
ATOM     15  C   UNL     1      17.902   0.878  55.611  1.00  0.00    -0.000 C 
BRANCH  15  16
ATOM     16  C   UNL     1      18.264   2.340  55.934  1.00  0.00    -0.000 C 
BRANCH  16  17
ATOM     17  C   UNL     1      17.481   3.352  55.085  1.00  0.00    -0.003 C 
ATOM     18  C   UNL     1      16.964   4.504  55.941  1.00  0.00     0.004 C 
ENDBRANCH  16  17
ENDBRANCH  15  16
ENDBRANCH  14  15
ENDBRANCH  13  14
ENDBRANCH  12  13
ENDBRANCH  11  12
ENDBRANCH   1  11
TORSDOF 14
ENDMDL
MODEL 6
REMARK VINA RESULT:    -3.433      3.314      6.033
REMARK INTER + INTRA:          -8.820
REMARK INTER:                  -6.261
REMARK INTRA:                  -2.559
REMARK UNBOUND:                -2.577
REMARK SMILES CCCCCCCCCCCCCCCC(=O)[O-]
REMARK SMILES IDX 9 1 10 2 11 3 12 4 13 5 14 6 15 7 16 8 17 9 18 10 8 11 7 12
REMARK SMILES IDX 6 13 5 14 4 15 3 16 2 17 1 18
REMARK H PARENT
REMARK Flexibility Score: inf
ROOT
ATOM      1  C   UNL     1      27.242  -4.093  55.523  1.00  0.00     0.000 C 
ENDROOT
BRANCH   1   2
ATOM      2  C   UNL     1      25.955  -4.889  55.240  1.00  0.00     0.000 C 
BRANCH   2   3
ATOM      3  C   UNL     1      24.671  -4.045  55.129  1.00  0.00     0.000 C 
BRANCH   3   4
ATOM      4  C   UNL     1      24.950  -2.534  55.061  1.00  0.00     0.000 C 
BRANCH   4   5
ATOM      5  C   UNL     1      24.210  -1.749  56.156  1.00  0.00     0.000 C 
BRANCH   5   6
ATOM      6  C   UNL     1      24.121  -2.522  57.485  1.00  0.00     0.006 C 
BRANCH   6   7
ATOM      7  C   UNL     1      25.388  -2.353  58.336  1.00  0.00     0.053 C 
BRANCH   7   8
ATOM      8  C   UNL     1      25.848  -3.657  58.910  1.00  0.00     0.041 C 
ATOM      9  O   UNL     1      26.913  -3.714  59.581  1.00  0.00    -0.550 OA
ATOM     10  O   UNL     1      25.120  -4.817  58.677  1.00  0.00    -0.550 OA
ENDBRANCH   7   8
ENDBRANCH   6   7
ENDBRANCH   5   6
ENDBRANCH   4   5
ENDBRANCH   3   4
ENDBRANCH   2   3
ENDBRANCH   1   2
BRANCH   1  11
ATOM     11  C   UNL     1      28.336  -4.325  54.466  1.00  0.00     0.000 C 
BRANCH  11  12
ATOM     12  C   UNL     1      28.103  -5.604  53.647  1.00  0.00    -0.000 C 
BRANCH  12  13
ATOM     13  C   UNL     1      27.970  -5.328  52.140  1.00  0.00    -0.000 C 
BRANCH  13  14
ATOM     14  C   UNL     1      26.494  -5.315  51.714  1.00  0.00    -0.000 C 
BRANCH  14  15
ATOM     15  C   UNL     1      25.905  -3.896  51.631  1.00  0.00    -0.000 C 
BRANCH  15  16
ATOM     16  C   UNL     1      26.926  -2.786  51.320  1.00  0.00    -0.000 C 
BRANCH  16  17
ATOM     17  C   UNL     1      26.655  -1.489  52.096  1.00  0.00    -0.003 C 
ATOM     18  C   UNL     1      27.908  -1.011  52.823  1.00  0.00     0.004 C 
ENDBRANCH  16  17
ENDBRANCH  15  16
ENDBRANCH  14  15
ENDBRANCH  13  14
ENDBRANCH  12  13
ENDBRANCH  11  12
ENDBRANCH   1  11
TORSDOF 14
ENDMDL
MODEL 7
REMARK VINA RESULT:    -3.420     12.388     15.052
REMARK INTER + INTRA:          -8.797
REMARK INTER:                  -6.291
REMARK INTRA:                  -2.506
REMARK UNBOUND:                -2.577
REMARK SMILES CCCCCCCCCCCCCCCC(=O)[O-]
REMARK SMILES IDX 9 1 10 2 11 3 12 4 13 5 14 6 15 7 16 8 17 9 18 10 8 11 7 12
REMARK SMILES IDX 6 13 5 14 4 15 3 16 2 17 1 18
REMARK H PARENT
REMARK Flexibility Score: inf
ROOT
ATOM      1  C   UNL     1      14.984  -0.746  60.003  1.00  0.00     0.000 C 
ENDROOT
BRANCH   1   2
ATOM      2  C   UNL     1      14.436   0.604  60.501  1.00  0.00     0.000 C 
BRANCH   2   3
ATOM      3  C   UNL     1      15.022   1.848  59.808  1.00  0.00     0.000 C 
BRANCH   3   4
ATOM      4  C   UNL     1      15.799   2.762  60.770  1.00  0.00     0.000 C 
BRANCH   4   5
ATOM      5  C   UNL     1      15.650   2.332  62.239  1.00  0.00     0.000 C 
BRANCH   5   6
ATOM      6  C   UNL     1      16.977   2.404  63.016  1.00  0.00     0.006 C 
BRANCH   6   7
ATOM      7  C   UNL     1      17.763   3.684  62.699  1.00  0.00     0.053 C 
BRANCH   7   8
ATOM      8  C   UNL     1      17.911   4.558  63.905  1.00  0.00     0.041 C 
ATOM      9  O   UNL     1      17.097   4.463  64.861  1.00  0.00    -0.550 OA
ATOM     10  O   UNL     1      18.930   5.502  63.962  1.00  0.00    -0.550 OA
ENDBRANCH   7   8
ENDBRANCH   6   7
ENDBRANCH   5   6
ENDBRANCH   4   5
ENDBRANCH   3   4
ENDBRANCH   2   3
ENDBRANCH   1   2
BRANCH   1  11
ATOM     11  C   UNL     1      15.915  -1.428  61.020  1.00  0.00     0.000 C 
BRANCH  11  12
ATOM     12  C   UNL     1      17.363  -1.533  60.516  1.00  0.00    -0.000 C 
BRANCH  12  13
ATOM     13  C   UNL     1      18.248  -0.375  61.004  1.00  0.00    -0.000 C 
BRANCH  13  14
ATOM     14  C   UNL     1      18.613   0.563  59.843  1.00  0.00    -0.000 C 
BRANCH  14  15
ATOM     15  C   UNL     1      18.323  -0.049  58.462  1.00  0.00    -0.000 C 
BRANCH  15  16
ATOM     16  C   UNL     1      17.606   0.890  57.473  1.00  0.00    -0.000 C 
BRANCH  16  17
ATOM     17  C   UNL     1      16.485   0.191  56.691  1.00  0.00    -0.003 C 
ATOM     18  C   UNL     1      17.032  -0.974  55.870  1.00  0.00     0.004 C 
ENDBRANCH  16  17
ENDBRANCH  15  16
ENDBRANCH  14  15
ENDBRANCH  13  14
ENDBRANCH  12  13
ENDBRANCH  11  12
ENDBRANCH   1  11
TORSDOF 14
ENDMDL
MODEL 8
REMARK VINA RESULT:    -3.406      3.761      5.719
REMARK INTER + INTRA:          -8.770
REMARK INTER:                  -6.398
REMARK INTRA:                  -2.372
REMARK UNBOUND:                -2.577
REMARK SMILES CCCCCCCCCCCCCCCC(=O)[O-]
REMARK SMILES IDX 9 1 10 2 11 3 12 4 13 5 14 6 15 7 16 8 17 9 18 10 8 11 7 12
REMARK SMILES IDX 6 13 5 14 4 15 3 16 2 17 1 18
REMARK H PARENT
REMARK Flexibility Score: inf
ROOT
ATOM      1  C   UNL     1      25.703  -2.309  52.937  1.00  0.00     0.000 C 
ENDROOT
BRANCH   1   2
ATOM      2  C   UNL     1      24.629  -3.250  53.514  1.00  0.00     0.000 C 
BRANCH   2   3
ATOM      3  C   UNL     1      24.850  -3.684  54.975  1.00  0.00     0.000 C 
BRANCH   3   4
ATOM      4  C   UNL     1      25.612  -5.014  55.097  1.00  0.00     0.000 C 
BRANCH   4   5
ATOM      5  C   UNL     1      25.799  -5.454  56.559  1.00  0.00     0.000 C 
BRANCH   5   6
ATOM      6  C   UNL     1      25.412  -4.355  57.564  1.00  0.00     0.006 C 
BRANCH   6   7
ATOM      7  C   UNL     1      24.345  -4.831  58.559  1.00  0.00     0.053 C 
BRANCH   7   8
ATOM      8  C   UNL     1      24.514  -4.192  59.903  1.00  0.00     0.041 C 
ATOM      9  O   UNL     1      25.659  -3.860  60.308  1.00  0.00    -0.550 OA
ATOM     10  O   UNL     1      23.410  -3.993  60.723  1.00  0.00    -0.550 OA
ENDBRANCH   7   8
ENDBRANCH   6   7
ENDBRANCH   5   6
ENDBRANCH   4   5
ENDBRANCH   3   4
ENDBRANCH   2   3
ENDBRANCH   1   2
BRANCH   1  11
ATOM     11  C   UNL     1      26.493  -2.939  51.778  1.00  0.00     0.000 C 
BRANCH  11  12
ATOM     12  C   UNL     1      25.947  -4.317  51.372  1.00  0.00    -0.000 C 
BRANCH  12  13
ATOM     13  C   UNL     1      26.884  -5.468  51.769  1.00  0.00    -0.000 C 
BRANCH  13  14
ATOM     14  C   UNL     1      28.249  -4.931  52.227  1.00  0.00    -0.000 C 
BRANCH  14  15
ATOM     15  C   UNL     1      28.834  -5.710  53.418  1.00  0.00    -0.000 C 
BRANCH  15  16
ATOM     16  C   UNL     1      29.238  -4.843  54.626  1.00  0.00    -0.000 C 
BRANCH  16  17
ATOM     17  C   UNL     1      29.099  -3.339  54.355  1.00  0.00    -0.003 C 
ATOM     18  C   UNL     1      28.409  -2.632  55.518  1.00  0.00     0.004 C 
ENDBRANCH  16  17
ENDBRANCH  15  16
ENDBRANCH  14  15
ENDBRANCH  13  14
ENDBRANCH  12  13
ENDBRANCH  11  12
ENDBRANCH   1  11
TORSDOF 14
ENDMDL
MODEL 9
REMARK VINA RESULT:    -3.399     12.020     14.575
REMARK INTER + INTRA:          -8.757
REMARK INTER:                  -6.202
REMARK INTRA:                  -2.555
REMARK UNBOUND:                -2.577
REMARK SMILES CCCCCCCCCCCCCCCC(=O)[O-]
REMARK SMILES IDX 9 1 10 2 11 3 12 4 13 5 14 6 15 7 16 8 17 9 18 10 8 11 7 12
REMARK SMILES IDX 6 13 5 14 4 15 3 16 2 17 1 18
REMARK H PARENT
REMARK Flexibility Score: inf
ROOT
ATOM      1  C   UNL     1      17.860  -1.138  59.746  1.00  0.00     0.000 C 
ENDROOT
BRANCH   1   2
ATOM      2  C   UNL     1      17.305  -0.368  60.958  1.00  0.00     0.000 C 
BRANCH   2   3
ATOM      3  C   UNL     1      15.783  -0.483  61.170  1.00  0.00     0.000 C 
BRANCH   3   4
ATOM      4  C   UNL     1      15.159  -1.665  60.409  1.00  0.00     0.000 C 
BRANCH   4   5
ATOM      5  C   UNL     1      14.913  -2.883  61.314  1.00  0.00     0.000 C 
BRANCH   5   6
ATOM      6  C   UNL     1      15.790  -4.091  60.935  1.00  0.00     0.006 C 
BRANCH   6   7
ATOM      7  C   UNL     1      17.132  -4.086  61.679  1.00  0.00     0.053 C 
BRANCH   7   8
ATOM      8  C   UNL     1      16.960  -3.778  63.134  1.00  0.00     0.041 C 
ATOM      9  O   UNL     1      17.396  -2.696  63.609  1.00  0.00    -0.550 OA
ATOM     10  O   UNL     1      16.346  -4.700  63.973  1.00  0.00    -0.550 OA
ENDBRANCH   7   8
ENDBRANCH   6   7
ENDBRANCH   5   6
ENDBRANCH   4   5
ENDBRANCH   3   4
ENDBRANCH   2   3
ENDBRANCH   1   2
BRANCH   1  11
ATOM     11  C   UNL     1      18.825  -0.298  58.892  1.00  0.00     0.000 C 
BRANCH  11  12
ATOM     12  C   UNL     1      18.371  -0.183  57.429  1.00  0.00    -0.000 C 
BRANCH  12  13
ATOM     13  C   UNL     1      17.112  -1.013  57.131  1.00  0.00    -0.000 C 
BRANCH  13  14
ATOM     14  C   UNL     1      15.979  -0.120  56.602  1.00  0.00    -0.000 C 
BRANCH  14  15
ATOM     15  C   UNL     1      15.247   0.647  57.718  1.00  0.00    -0.000 C 
BRANCH  15  16
ATOM     16  C   UNL     1      15.498   2.166  57.733  1.00  0.00    -0.000 C 
BRANCH  16  17
ATOM     17  C   UNL     1      15.680   2.728  59.150  1.00  0.00    -0.003 C 
ATOM     18  C   UNL     1      17.153   2.988  59.453  1.00  0.00     0.004 C 
ENDBRANCH  16  17
ENDBRANCH  15  16
ENDBRANCH  14  15
ENDBRANCH  13  14
ENDBRANCH  12  13
ENDBRANCH  11  12
ENDBRANCH   1  11
TORSDOF 14
ENDMDL
