MODEL 1
REMARK VINA RESULT:     2.157      0.000      0.000
REMARK INTER + INTRA:           3.438
REMARK INTER:                   3.292
REMARK INTRA:                   0.146
REMARK UNBOUND:                 0.146
REMARK SMILES CC1=CCC[C@@H](C)C(=O)C[C@H](C(C)C)C(=O)C1
REMARK SMILES IDX 8 1 9 2 6 3 7 4 5 5 4 6 3 7 2 8 1 9 10 11 11 12 15 13 16 14
REMARK SMILES IDX 17 15 12 17 13 18 14 19
REMARK H PARENT
REMARK Flexibility Score: 70.00
ROOT
ATOM      1  C   UNL     1      74.830  76.110  72.433  1.00  0.00     0.136 C 
ATOM      2  O   UNL     1      74.709  76.771  71.414  1.00  0.00    -0.299 OA
ENDROOT
BRANCH   1   3
ATOM      3  C   UNL     1      76.225  75.747  72.909  1.00  0.00     0.053 C 
ATOM      4  C   UNL     1      76.504  74.253  72.699  1.00  0.00     0.016 C 
BRANCH   3   5
ATOM      5  C   UNL     1      76.440  76.155  74.379  1.00  0.00     0.015 C 
BRANCH   5   6
ATOM      6  C   UNL     1      76.826  74.952  75.261  1.00  0.00     0.028 C 
BRANCH   6   7
ATOM      7  C   UNL     1      76.130  74.998  76.596  1.00  0.00    -0.028 C 
ATOM      8  C   UNL     1      75.045  74.259  76.925  1.00  0.00    -0.070 CG0
ATOM      9  C   UNL     1      74.481  74.406  78.316  1.00  0.00     0.039 C 
ATOM     10  G   UNL     1      74.375  73.286  75.968  1.00  0.00     0.000 G0
ENDBRANCH   6   7
ENDBRANCH   5   6
ENDBRANCH   3   5
ENDBRANCH   1   3
BRANCH   1  11
ATOM     11  C   UNL     1      73.590  75.611  73.149  1.00  0.00     0.087 C 
BRANCH  11  12
ATOM     12  C   UNL     1      73.607  74.113  73.550  1.00  0.00     0.066 C 
BRANCH  12  13
ATOM     13  C   UNL     1      73.363  73.954  75.046  1.00  0.00     0.140 C 
ATOM     14  O   UNL     1      72.335  74.415  75.520  1.00  0.00    -0.299 OA
BRANCH  13  15
ATOM     15  C   UNL     1      74.366  73.290  75.966  1.00  0.00     0.106 CG0
ATOM     16  G   UNL     1      75.031  74.276  76.912  1.00  0.00     0.000 G0
ENDBRANCH  13  15
ENDBRANCH  12  13
BRANCH  12  17
ATOM     17  C   UNL     1      72.725  73.166  72.671  1.00  0.00    -0.006 C 
ATOM     18  C   UNL     1      73.606  72.252  71.798  1.00  0.00     0.008 C 
ATOM     19  C   UNL     1      71.769  73.944  71.750  1.00  0.00     0.008 C 
ENDBRANCH  12  17
ENDBRANCH  11  12
ENDBRANCH   1  11
TORSDOF 1
ENDMDL
MODEL 2
REMARK VINA RESULT:     2.655      1.932      4.455
REMARK INTER + INTRA:           4.197
REMARK INTER:                   2.674
REMARK INTRA:                   1.523
REMARK UNBOUND:                 0.146
REMARK SMILES CC1=CCC[C@@H](C)C(=O)C[C@H](C(C)C)C(=O)C1
REMARK SMILES IDX 8 1 9 2 6 3 7 4 5 5 4 6 3 7 2 8 1 9 10 11 11 12 15 13 16 14
REMARK SMILES IDX 17 15 12 17 13 18 14 19
REMARK H PARENT
REMARK Flexibility Score: 70.00
ROOT
ATOM      1  C   UNL     1      75.969  75.288  76.048  1.00  0.00     0.136 C 
ATOM      2  O   UNL     1      77.108  74.928  76.303  1.00  0.00    -0.299 OA
ENDROOT
BRANCH   1   3
ATOM      3  C   UNL     1      74.824  74.737  76.880  1.00  0.00     0.053 C 
ATOM      4  C   UNL     1      75.279  74.451  78.317  1.00  0.00     0.016 C 
BRANCH   3   5
ATOM      5  C   UNL     1      74.210  73.483  76.227  1.00  0.00     0.015 C 
BRANCH   5   6
ATOM      6  C   UNL     1      73.105  73.842  75.215  1.00  0.00     0.028 C 
BRANCH   6   7
ATOM      7  C   UNL     1      73.240  73.046  73.943  1.00  0.00    -0.028 C 
ATOM      8  C   UNL     1      73.170  73.568  72.697  1.00  0.00    -0.070 CG0
ATOM      9  C   UNL     1      73.349  72.635  71.525  1.00  0.00     0.039 C 
ATOM     10  G   UNL     1      72.927  75.042  72.421  1.00  0.00     0.000 G0
ENDBRANCH   6   7
ENDBRANCH   5   6
ENDBRANCH   3   5
ENDBRANCH   1   3
BRANCH   1  11
ATOM     11  C   UNL     1      75.725  76.211  74.870  1.00  0.00     0.087 C 
BRANCH  11  12
ATOM     12  C   UNL     1      75.278  75.516  73.558  1.00  0.00     0.066 C 
BRANCH  12  13
ATOM     13  C   UNL     1      73.863  75.937  73.182  1.00  0.00     0.140 C 
ATOM     14  O   UNL     1      73.464  77.032  73.551  1.00  0.00    -0.299 OA
BRANCH  13  15
ATOM     15  C   UNL     1      72.925  75.032  72.410  1.00  0.00     0.106 CG0
ATOM     16  G   UNL     1      73.176  73.559  72.690  1.00  0.00     0.000 G0
ENDBRANCH  13  15
ENDBRANCH  12  13
BRANCH  12  17
ATOM     17  C   UNL     1      76.291  75.600  72.368  1.00  0.00    -0.006 C 
ATOM     18  C   UNL     1      75.787  76.578  71.289  1.00  0.00     0.008 C 
ATOM     19  C   UNL     1      76.534  74.232  71.708  1.00  0.00     0.008 C 
ENDBRANCH  12  17
ENDBRANCH  11  12
ENDBRANCH   1  11
TORSDOF 1
ENDMDL
MODEL 3
REMARK VINA RESULT:     2.698      2.038      3.912
REMARK INTER + INTRA:           4.264
REMARK INTER:                   3.606
REMARK INTRA:                   0.658
REMARK UNBOUND:                 0.146
REMARK SMILES CC1=CCC[C@@H](C)C(=O)C[C@H](C(C)C)C(=O)C1
REMARK SMILES IDX 8 1 9 2 6 3 7 4 5 5 4 6 3 7 2 8 1 9 10 11 11 12 15 13 16 14
REMARK SMILES IDX 17 15 12 17 13 18 14 19
REMARK H PARENT
REMARK Flexibility Score: 70.00
ROOT
ATOM      1  C   UNL     1      73.715  73.971  76.023  1.00  0.00     0.136 C 
ATOM      2  O   UNL     1      72.728  74.559  76.436  1.00  0.00    -0.299 OA
ENDROOT
BRANCH   1   3
ATOM      3  C   UNL     1      75.067  74.290  76.636  1.00  0.00     0.053 C 
ATOM      4  C   UNL     1      74.997  74.251  78.168  1.00  0.00     0.016 C 
BRANCH   3   5
ATOM      5  C   UNL     1      75.604  75.646  76.135  1.00  0.00     0.015 C 
BRANCH   5   6
ATOM      6  C   UNL     1      76.570  75.480  74.947  1.00  0.00     0.028 C 
BRANCH   6   7
ATOM      7  C   UNL     1      76.095  76.240  73.736  1.00  0.00    -0.028 C 
ATOM      8  C   UNL     1      75.890  75.693  72.515  1.00  0.00    -0.070 CG0
ATOM      9  C   UNL     1      75.388  76.590  71.411  1.00  0.00     0.039 C 
ATOM     10  G   UNL     1      76.131  74.225  72.205  1.00  0.00     0.000 G0
ENDBRANCH   6   7
ENDBRANCH   5   6
ENDBRANCH   3   5
ENDBRANCH   1   3
BRANCH   1  11
ATOM     11  C   UNL     1      73.574  73.000  74.867  1.00  0.00     0.087 C 
BRANCH  11  12
ATOM     12  C   UNL     1      73.889  73.581  73.464  1.00  0.00     0.066 C 
BRANCH  12  13
ATOM     13  C   UNL     1      75.338  73.303  73.081  1.00  0.00     0.140 C 
ATOM     14  O   UNL     1      75.883  72.312  73.545  1.00  0.00    -0.299 OA
BRANCH  13  15
ATOM     15  C   UNL     1      76.133  74.231  72.186  1.00  0.00     0.106 CG0
ATOM     16  G   UNL     1      75.902  75.697  72.515  1.00  0.00     0.000 G0
ENDBRANCH  13  15
ENDBRANCH  12  13
BRANCH  12  17
ATOM     17  C   UNL     1      72.866  73.221  72.336  1.00  0.00    -0.006 C 
ATOM     18  C   UNL     1      73.492  72.247  71.320  1.00  0.00     0.008 C 
ATOM     19  C   UNL     1      72.371  74.464  71.576  1.00  0.00     0.008 C 
ENDBRANCH  12  17
ENDBRANCH  11  12
ENDBRANCH   1  11
TORSDOF 1
ENDMDL
MODEL 4
REMARK VINA RESULT:     2.805      1.779      3.878
REMARK INTER + INTRA:           4.426
REMARK INTER:                   2.198
REMARK INTRA:                   2.228
REMARK UNBOUND:                 0.146
REMARK SMILES CC1=CCC[C@@H](C)C(=O)C[C@H](C(C)C)C(=O)C1
REMARK SMILES IDX 8 1 9 2 6 3 7 4 5 5 4 6 3 7 2 8 1 9 10 11 11 12 15 13 16 14
REMARK SMILES IDX 17 15 12 17 13 18 14 19
REMARK H PARENT
REMARK Flexibility Score: 70.00
ROOT
ATOM      1  C   UNL     1      74.045  74.040  75.564  1.00  0.00     0.136 C 
ATOM      2  O   UNL     1      72.978  74.496  75.944  1.00  0.00    -0.299 OA
ENDROOT
BRANCH   1   3
ATOM      3  C   UNL     1      75.243  74.106  76.495  1.00  0.00     0.053 C 
ATOM      4  C   UNL     1      74.809  73.947  77.958  1.00  0.00     0.016 C 
BRANCH   3   5
ATOM      5  C   UNL     1      76.042  75.408  76.287  1.00  0.00     0.015 C 
BRANCH   5   6
ATOM      6  C   UNL     1      75.766  76.041  74.910  1.00  0.00     0.028 C 
BRANCH   6   7
ATOM      7  C   UNL     1      76.574  75.378  73.824  1.00  0.00    -0.028 C 
ATOM      8  C   UNL     1      76.221  75.337  72.518  1.00  0.00    -0.070 CG0
ATOM      9  C   UNL     1      77.156  74.653  71.552  1.00  0.00     0.039 C 
ATOM     10  G   UNL     1      74.940  75.951  71.978  1.00  0.00     0.000 G0
ENDBRANCH   6   7
ENDBRANCH   5   6
ENDBRANCH   3   5
ENDBRANCH   1   3
BRANCH   1  11
ATOM     11  C   UNL     1      74.161  73.491  74.155  1.00  0.00     0.087 C 
BRANCH  11  12
ATOM     12  C   UNL     1      73.276  74.190  73.091  1.00  0.00     0.066 C 
BRANCH  12  13
ATOM     13  C   UNL     1      73.749  75.620  72.856  1.00  0.00     0.140 C 
ATOM     14  O   UNL     1      73.117  76.533  73.367  1.00  0.00    -0.299 OA
BRANCH  13  15
ATOM     15  C   UNL     1      74.940  75.948  71.979  1.00  0.00     0.106 CG0
ATOM     16  G   UNL     1      76.234  75.355  72.511  1.00  0.00     0.000 G0
ENDBRANCH  13  15
ENDBRANCH  12  13
BRANCH  12  17
ATOM     17  C   UNL     1      73.043  73.386  71.769  1.00  0.00    -0.006 C 
ATOM     18  C   UNL     1      71.651  72.724  71.770  1.00  0.00     0.008 C 
ATOM     19  C   UNL     1      74.102  72.290  71.555  1.00  0.00     0.008 C 
ENDBRANCH  12  17
ENDBRANCH  11  12
ENDBRANCH   1  11
TORSDOF 1
ENDMDL
MODEL 5
REMARK VINA RESULT:     3.689      2.158      4.215
REMARK INTER + INTRA:           5.775
REMARK INTER:                   2.886
REMARK INTRA:                   2.889
REMARK UNBOUND:                 0.146
REMARK SMILES CC1=CCC[C@@H](C)C(=O)C[C@H](C(C)C)C(=O)C1
REMARK SMILES IDX 8 1 9 2 6 3 7 4 5 5 4 6 3 7 2 8 1 9 10 11 11 12 15 13 16 14
REMARK SMILES IDX 17 15 12 17 13 18 14 19
REMARK H PARENT
REMARK Flexibility Score: 70.00
ROOT
ATOM      1  C   UNL     1      75.988  74.833  75.237  1.00  0.00     0.136 C 
ATOM      2  O   UNL     1      76.602  75.889  75.260  1.00  0.00    -0.299 OA
ENDROOT
BRANCH   1   3
ATOM      3  C   UNL     1      75.000  74.537  76.350  1.00  0.00     0.053 C 
ATOM      4  C   UNL     1      75.725  74.340  77.688  1.00  0.00     0.016 C 
BRANCH   3   5
ATOM      5  C   UNL     1      74.117  73.320  76.008  1.00  0.00     0.015 C 
BRANCH   5   6
ATOM      6  C   UNL     1      72.873  73.721  75.193  1.00  0.00     0.028 C 
BRANCH   6   7
ATOM      7  C   UNL     1      72.935  75.162  74.760  1.00  0.00    -0.028 C 
ATOM      8  C   UNL     1      73.092  75.576  73.481  1.00  0.00    -0.070 CG0
ATOM      9  C   UNL     1      73.111  77.060  73.212  1.00  0.00     0.039 C 
ATOM     10  G   UNL     1      73.242  74.624  72.306  1.00  0.00     0.000 G0
ENDBRANCH   6   7
ENDBRANCH   5   6
ENDBRANCH   3   5
ENDBRANCH   1   3
BRANCH   1  11
ATOM     11  C   UNL     1      76.282  73.824  74.144  1.00  0.00     0.087 C 
BRANCH  11  12
ATOM     12  C   UNL     1      75.845  74.240  72.715  1.00  0.00     0.066 C 
BRANCH  12  13
ATOM     13  C   UNL     1      74.445  73.721  72.410  1.00  0.00     0.140 C 
ATOM     14  O   UNL     1      74.297  72.522  72.219  1.00  0.00    -0.299 OA
BRANCH  13  15
ATOM     15  C   UNL     1      73.247  74.639  72.292  1.00  0.00     0.106 CG0
ATOM     16  G   UNL     1      73.104  75.567  73.487  1.00  0.00     0.000 G0
ENDBRANCH  13  15
ENDBRANCH  12  13
BRANCH  12  17
ATOM     17  C   UNL     1      76.041  75.751  72.359  1.00  0.00    -0.006 C 
ATOM     18  C   UNL     1      75.303  76.105  71.054  1.00  0.00     0.008 C 
ATOM     19  C   UNL     1      77.525  76.126  72.196  1.00  0.00     0.008 C 
ENDBRANCH  12  17
ENDBRANCH  11  12
ENDBRANCH   1  11
TORSDOF 1
ENDMDL
MODEL 6
REMARK VINA RESULT:     3.829      1.602      3.922
REMARK INTER + INTRA:           5.990
REMARK INTER:                   3.216
REMARK INTRA:                   2.774
REMARK UNBOUND:                 0.146
REMARK SMILES CC1=CCC[C@@H](C)C(=O)C[C@H](C(C)C)C(=O)C1
REMARK SMILES IDX 8 1 9 2 6 3 7 4 5 5 4 6 3 7 2 8 1 9 10 11 11 12 15 13 16 14
REMARK SMILES IDX 17 15 12 17 13 18 14 19
REMARK H PARENT
REMARK Flexibility Score: 70.00
ROOT
ATOM      1  C   UNL     1      75.095  76.111  72.969  1.00  0.00     0.136 C 
ATOM      2  O   UNL     1      74.322  76.210  72.028  1.00  0.00    -0.299 OA
ENDROOT
BRANCH   1   3
ATOM      3  C   UNL     1      76.476  75.529  72.723  1.00  0.00     0.053 C 
ATOM      4  C   UNL     1      77.342  76.499  71.910  1.00  0.00     0.016 C 
BRANCH   3   5
ATOM      5  C   UNL     1      76.389  74.150  72.041  1.00  0.00     0.015 C 
BRANCH   5   6
ATOM      6  C   UNL     1      75.756  73.089  72.962  1.00  0.00     0.028 C 
BRANCH   6   7
ATOM      7  C   UNL     1      74.500  72.512  72.361  1.00  0.00    -0.028 C 
ATOM      8  C   UNL     1      73.282  73.097  72.414  1.00  0.00    -0.070 CG0
ATOM      9  C   UNL     1      72.128  72.398  71.740  1.00  0.00     0.039 C 
ATOM     10  G   UNL     1      73.020  74.423  73.110  1.00  0.00     0.000 G0
ENDBRANCH   6   7
ENDBRANCH   5   6
ENDBRANCH   3   5
ENDBRANCH   1   3
BRANCH   1  11
ATOM     11  C   UNL     1      74.630  76.500  74.359  1.00  0.00     0.087 C 
BRANCH  11  12
ATOM     12  C   UNL     1      74.274  75.319  75.299  1.00  0.00     0.066 C 
BRANCH  12  13
ATOM     13  C   UNL     1      73.311  74.358  74.613  1.00  0.00     0.140 C 
ATOM     14  O   UNL     1      72.790  73.478  75.284  1.00  0.00    -0.299 OA
BRANCH  13  15
ATOM     15  C   UNL     1      73.015  74.427  73.129  1.00  0.00     0.106 CG0
ATOM     16  G   UNL     1      73.277  73.108  72.422  1.00  0.00     0.000 G0
ENDBRANCH  13  15
ENDBRANCH  12  13
BRANCH  12  17
ATOM     17  C   UNL     1      75.489  74.605  75.980  1.00  0.00    -0.006 C 
ATOM     18  C   UNL     1      75.172  74.269  77.450  1.00  0.00     0.008 C 
ATOM     19  C   UNL     1      76.768  75.459  75.940  1.00  0.00     0.008 C 
ENDBRANCH  12  17
ENDBRANCH  11  12
ENDBRANCH   1  11
TORSDOF 1
ENDMDL
MODEL 7
REMARK VINA RESULT:     4.066      1.901      4.425
REMARK INTER + INTRA:           6.351
REMARK INTER:                   5.146
REMARK INTRA:                   1.205
REMARK UNBOUND:                 0.146
REMARK SMILES CC1=CCC[C@@H](C)C(=O)C[C@H](C(C)C)C(=O)C1
REMARK SMILES IDX 8 1 9 2 6 3 7 4 5 5 4 6 3 7 2 8 1 9 10 11 11 12 15 13 16 14
REMARK SMILES IDX 17 15 12 17 13 18 14 19
REMARK H PARENT
REMARK Flexibility Score: 70.00
ROOT
ATOM      1  C   UNL     1      73.172  74.991  73.387  1.00  0.00     0.136 C 
ATOM      2  O   UNL     1      73.152  76.202  73.234  1.00  0.00    -0.299 OA
ENDROOT
BRANCH   1   3
ATOM      3  C   UNL     1      73.103  74.097  72.162  1.00  0.00     0.053 C 
ATOM      4  C   UNL     1      71.648  73.864  71.735  1.00  0.00     0.016 C 
BRANCH   3   5
ATOM      5  C   UNL     1      73.838  72.762  72.399  1.00  0.00     0.015 C 
BRANCH   5   6
ATOM      6  C   UNL     1      75.359  72.897  72.197  1.00  0.00     0.028 C 
BRANCH   6   7
ATOM      7  C   UNL     1      75.736  74.282  71.738  1.00  0.00    -0.028 C 
ATOM      8  C   UNL     1      76.343  75.211  72.513  1.00  0.00    -0.070 CG0
ATOM      9  C   UNL     1      76.675  76.545  71.892  1.00  0.00     0.039 C 
ATOM     10  G   UNL     1      76.711  74.975  73.968  1.00  0.00     0.000 G0
ENDBRANCH   6   7
ENDBRANCH   5   6
ENDBRANCH   3   5
ENDBRANCH   1   3
BRANCH   1  11
ATOM     11  C   UNL     1      73.190  74.417  74.791  1.00  0.00     0.087 C 
BRANCH  11  12
ATOM     12  C   UNL     1      74.597  74.179  75.398  1.00  0.00     0.066 C 
BRANCH  12  13
ATOM     13  C   UNL     1      75.571  75.254  74.932  1.00  0.00     0.140 C 
ATOM     14  O   UNL     1      75.401  76.402  75.319  1.00  0.00    -0.299 OA
BRANCH  13  15
ATOM     15  C   UNL     1      76.709  74.960  73.977  1.00  0.00     0.106 CG0
ATOM     16  G   UNL     1      76.328  75.202  72.526  1.00  0.00     0.000 G0
ENDBRANCH  13  15
ENDBRANCH  12  13
BRANCH  12  17
ATOM     17  C   UNL     1      74.635  73.929  76.942  1.00  0.00    -0.006 C 
ATOM     18  C   UNL     1      73.406  74.555  77.628  1.00  0.00     0.008 C 
ATOM     19  C   UNL     1      75.903  74.505  77.597  1.00  0.00     0.008 C 
ENDBRANCH  12  17
ENDBRANCH  11  12
ENDBRANCH   1  11
TORSDOF 1
ENDMDL
MODEL 8
REMARK VINA RESULT:     4.156      2.067      4.405
REMARK INTER + INTRA:           6.489
REMARK INTER:                   5.239
REMARK INTRA:                   1.249
REMARK UNBOUND:                 0.146
REMARK SMILES CC1=CCC[C@@H](C)C(=O)C[C@H](C(C)C)C(=O)C1
REMARK SMILES IDX 8 1 9 2 6 3 7 4 5 5 4 6 3 7 2 8 1 9 10 11 11 12 15 13 16 14
REMARK SMILES IDX 17 15 12 17 13 18 14 19
REMARK H PARENT
REMARK Flexibility Score: 70.00
ROOT
ATOM      1  C   UNL     1      76.113  75.004  75.492  1.00  0.00     0.136 C 
ATOM      2  O   UNL     1      77.073  75.750  75.614  1.00  0.00    -0.299 OA
ENDROOT
BRANCH   1   3
ATOM      3  C   UNL     1      75.023  75.037  76.548  1.00  0.00     0.053 C 
ATOM      4  C   UNL     1      75.288  73.993  77.641  1.00  0.00     0.016 C 
BRANCH   3   5
ATOM      5  C   UNL     1      73.628  74.847  75.920  1.00  0.00     0.015 C 
BRANCH   5   6
ATOM      6  C   UNL     1      73.467  73.452  75.284  1.00  0.00     0.028 C 
BRANCH   6   7
ATOM      7  C   UNL     1      72.564  73.494  74.079  1.00  0.00    -0.028 C 
ATOM      8  C   UNL     1      72.931  73.128  72.829  1.00  0.00    -0.070 CG0
ATOM      9  C   UNL     1      71.897  73.207  71.734  1.00  0.00     0.039 C 
ATOM     10  G   UNL     1      74.325  72.636  72.477  1.00  0.00     0.000 G0
ENDBRANCH   6   7
ENDBRANCH   5   6
ENDBRANCH   3   5
ENDBRANCH   1   3
BRANCH   1  11
ATOM     11  C   UNL     1      76.075  74.022  74.337  1.00  0.00     0.087 C 
BRANCH  11  12
ATOM     12  C   UNL     1      75.996  74.656  72.924  1.00  0.00     0.066 C 
BRANCH  12  13
ATOM     13  C   UNL     1      75.218  73.754  71.974  1.00  0.00     0.140 C 
ATOM     14  O   UNL     1      75.293  73.971  70.772  1.00  0.00    -0.299 OA
BRANCH  13  15
ATOM     15  C   UNL     1      74.325  72.634  72.465  1.00  0.00     0.106 CG0
ATOM     16  G   UNL     1      72.931  73.118  72.828  1.00  0.00     0.000 G0
ENDBRANCH  13  15
ENDBRANCH  12  13
BRANCH  12  17
ATOM     17  C   UNL     1      75.540  76.152  72.877  1.00  0.00    -0.006 C 
ATOM     18  C   UNL     1      74.003  76.256  72.869  1.00  0.00     0.008 C 
ATOM     19  C   UNL     1      76.083  76.891  71.641  1.00  0.00     0.008 C 
ENDBRANCH  12  17
ENDBRANCH  11  12
ENDBRANCH   1  11
TORSDOF 1
ENDMDL
MODEL 9
REMARK VINA RESULT:     4.257      1.534      3.145
REMARK INTER + INTRA:           6.643
REMARK INTER:                   2.090
REMARK INTRA:                   4.553
REMARK UNBOUND:                 0.146
REMARK SMILES CC1=CCC[C@@H](C)C(=O)C[C@H](C(C)C)C(=O)C1
REMARK SMILES IDX 8 1 9 2 6 3 7 4 5 5 4 6 3 7 2 8 1 9 10 11 11 12 15 13 16 14
REMARK SMILES IDX 17 15 12 17 13 18 14 19
REMARK H PARENT
REMARK Flexibility Score: 70.00
ROOT
ATOM      1  C   UNL     1      73.307  74.683  72.549  1.00  0.00     0.136 C 
ATOM      2  O   UNL     1      72.364  74.817  71.784  1.00  0.00    -0.299 OA
ENDROOT
BRANCH   1   3
ATOM      3  C   UNL     1      73.930  73.308  72.709  1.00  0.00     0.053 C 
ATOM      4  C   UNL     1      73.392  72.336  71.650  1.00  0.00     0.016 C 
BRANCH   3   5
ATOM      5  C   UNL     1      73.718  72.759  74.133  1.00  0.00     0.015 C 
BRANCH   5   6
ATOM      6  C   UNL     1      73.214  73.846  75.102  1.00  0.00     0.028 C 
BRANCH   6   7
ATOM      7  C   UNL     1      73.852  73.716  76.460  1.00  0.00    -0.028 C 
ATOM      8  C   UNL     1      74.843  74.512  76.925  1.00  0.00    -0.070 CG0
ATOM      9  C   UNL     1      75.357  74.264  78.320  1.00  0.00     0.039 C 
ATOM     10  G   UNL     1      75.455  75.644  76.115  1.00  0.00     0.000 G0
ENDBRANCH   6   7
ENDBRANCH   5   6
ENDBRANCH   3   5
ENDBRANCH   1   3
BRANCH   1  11
ATOM     11  C   UNL     1      73.776  75.871  73.367  1.00  0.00     0.087 C 
BRANCH  11  12
ATOM     12  C   UNL     1      75.313  76.027  73.497  1.00  0.00     0.066 C 
BRANCH  12  13
ATOM     13  C   UNL     1      75.829  75.267  74.713  1.00  0.00     0.140 C 
ATOM     14  O   UNL     1      76.535  74.285  74.529  1.00  0.00    -0.299 OA
BRANCH  13  15
ATOM     15  C   UNL     1      75.464  75.657  76.130  1.00  0.00     0.106 CG0
ATOM     16  G   UNL     1      74.848  74.507  76.910  1.00  0.00     0.000 G0
ENDBRANCH  13  15
ENDBRANCH  12  13
BRANCH  12  17
ATOM     17  C   UNL     1      76.135  75.751  72.194  1.00  0.00    -0.006 C 
ATOM     18  C   UNL     1      75.347  76.195  70.946  1.00  0.00     0.008 C 
ATOM     19  C   UNL     1      76.499  74.265  72.036  1.00  0.00     0.008 C 
ENDBRANCH  12  17
ENDBRANCH  11  12
ENDBRANCH   1  11
TORSDOF 1
ENDMDL
