MODEL 1
REMARK VINA RESULT:    -4.520      0.000      0.000
REMARK INTER + INTRA:          -4.653
REMARK INTER:                  -4.653
REMARK INTRA:                   0.000
REMARK UNBOUND:                 0.000
REMARK SMILES Nc1ncnc2nc[nH]c12
REMARK SMILES IDX 8 1 7 2 6 3 5 4 4 5 3 6 2 7 10 8 9 9 1 11
REMARK H PARENT 9 10 1 12 1 13
REMARK Flexibility Score: inf
ROOT
ATOM      1  C   UNL     1       0.302  19.183  11.227  1.00  0.00     0.199 A 
ATOM      2  N   UNL     1       0.806  20.276  11.865  1.00  0.00    -0.217 NA
ATOM      3  C   UNL     1       0.176  20.229  13.050  1.00  0.00     0.182 A 
ATOM      4  N   UNL     1       0.320  21.102  14.076  1.00  0.00    -0.215 NA
ATOM      5  C   UNL     1      -0.412  20.890  15.212  1.00  0.00     0.226 A 
ATOM      6  N   UNL     1      -1.265  19.819  15.299  1.00  0.00    -0.217 NA
ATOM      7  C   UNL     1      -1.412  18.937  14.266  1.00  0.00     0.152 A 
ATOM      8  C   UNL     1      -0.660  19.168  13.116  1.00  0.00     0.127 A 
ATOM      9  N   UNL     1      -0.597  18.486  11.967  1.00  0.00    -0.340 N 
ATOM     10  H   UNL     1      -1.112  17.621  11.690  1.00  0.00     0.168 HD
ENDROOT
BRANCH   7  11
ATOM     11  N   UNL     1      -2.306  17.830  14.380  1.00  0.00    -0.382 N 
ATOM     12  H   UNL     1      -3.338  17.988  14.353  1.00  0.00     0.158 HD
ATOM     13  H   UNL     1      -1.953  16.855  14.490  1.00  0.00     0.158 HD
ENDBRANCH   7  11
TORSDOF 1
ENDMDL
MODEL 2
REMARK VINA RESULT:    -3.505      1.095      2.952
REMARK INTER + INTRA:          -3.607
REMARK INTER:                  -3.607
REMARK INTRA:                   0.000
REMARK UNBOUND:                 0.000
REMARK SMILES Nc1ncnc2nc[nH]c12
REMARK SMILES IDX 8 1 7 2 6 3 5 4 4 5 3 6 2 7 10 8 9 9 1 11
REMARK H PARENT 9 10 1 12 1 13
REMARK Flexibility Score: inf
ROOT
ATOM      1  C   UNL     1      -2.310  18.169  14.117  1.00  0.00     0.199 A 
ATOM      2  N   UNL     1      -1.773  19.134  14.913  1.00  0.00    -0.217 NA
ATOM      3  C   UNL     1      -0.845  19.681  14.110  1.00  0.00     0.182 A 
ATOM      4  N   UNL     1      -0.010  20.703  14.418  1.00  0.00    -0.215 NA
ATOM      5  C   UNL     1       0.873  21.125  13.464  1.00  0.00     0.226 A 
ATOM      6  N   UNL     1       0.907  20.523  12.231  1.00  0.00    -0.217 NA
ATOM      7  C   UNL     1       0.065  19.492  11.918  1.00  0.00     0.152 A 
ATOM      8  C   UNL     1      -0.828  19.074  12.901  1.00  0.00     0.127 A 
ATOM      9  N   UNL     1      -1.754  18.108  12.881  1.00  0.00    -0.340 N 
ATOM     10  H   UNL     1      -1.999  17.453  12.105  1.00  0.00     0.168 HD
ENDROOT
BRANCH   7  11
ATOM     11  N   UNL     1       0.118  18.882  10.628  1.00  0.00    -0.382 N 
ATOM     12  H   UNL     1       0.858  19.162   9.947  1.00  0.00     0.158 HD
ATOM     13  H   UNL     1      -0.572  18.153  10.344  1.00  0.00     0.158 HD
ENDBRANCH   7  11
TORSDOF 1
ENDMDL
MODEL 3
REMARK VINA RESULT:    -3.401      1.161      2.933
REMARK INTER + INTRA:          -3.501
REMARK INTER:                  -3.501
REMARK INTRA:                   0.000
REMARK UNBOUND:                 0.000
REMARK SMILES Nc1ncnc2nc[nH]c12
REMARK SMILES IDX 8 1 7 2 6 3 5 4 4 5 3 6 2 7 10 8 9 9 1 11
REMARK H PARENT 9 10 1 12 1 13
REMARK Flexibility Score: inf
ROOT
ATOM      1  C   UNL     1      -0.720  20.291  15.957  1.00  0.00     0.199 A 
ATOM      2  N   UNL     1       0.134  21.125  15.301  1.00  0.00    -0.217 NA
ATOM      3  C   UNL     1       0.107  20.633  14.051  1.00  0.00     0.182 A 
ATOM      4  N   UNL     1       0.793  21.104  12.983  1.00  0.00    -0.215 NA
ATOM      5  C   UNL     1       0.637  20.467  11.783  1.00  0.00     0.226 A 
ATOM      6  N   UNL     1      -0.193  19.381  11.675  1.00  0.00    -0.217 NA
ATOM      7  C   UNL     1      -0.887  18.904  12.751  1.00  0.00     0.152 A 
ATOM      8  C   UNL     1      -0.717  19.564  13.966  1.00  0.00     0.127 A 
ATOM      9  N   UNL     1      -1.256  19.327  15.167  1.00  0.00    -0.340 N 
ATOM     10  H   UNL     1      -1.930  18.580  15.446  1.00  0.00     0.168 HD
ENDROOT
BRANCH   7  11
ATOM     11  N   UNL     1      -1.747  17.772  12.614  1.00  0.00    -0.382 N 
ATOM     12  H   UNL     1      -2.594  17.684  13.220  1.00  0.00     0.158 HD
ATOM     13  H   UNL     1      -1.551  17.021  11.918  1.00  0.00     0.158 HD
ENDBRANCH   7  11
TORSDOF 1
ENDMDL
MODEL 4
REMARK VINA RESULT:    -3.363      1.110      2.448
REMARK INTER + INTRA:          -3.462
REMARK INTER:                  -3.462
REMARK INTRA:                   0.000
REMARK UNBOUND:                 0.000
REMARK SMILES Nc1ncnc2nc[nH]c12
REMARK SMILES IDX 8 1 7 2 6 3 5 4 4 5 3 6 2 7 10 8 9 9 1 11
REMARK H PARENT 9 10 1 12 1 13
REMARK Flexibility Score: inf
ROOT
ATOM      1  C   UNL     1       1.055  20.717  11.471  1.00  0.00     0.199 A 
ATOM      2  N   UNL     1       0.175  19.716  11.191  1.00  0.00    -0.217 NA
ATOM      3  C   UNL     1      -0.401  19.502  12.385  1.00  0.00     0.182 A 
ATOM      4  N   UNL     1      -1.366  18.593  12.665  1.00  0.00    -0.215 NA
ATOM      5  C   UNL     1      -1.832  18.521  13.948  1.00  0.00     0.226 A 
ATOM      6  N   UNL     1      -1.331  19.352  14.919  1.00  0.00    -0.217 NA
ATOM      7  C   UNL     1      -0.359  20.270  14.638  1.00  0.00     0.152 A 
ATOM      8  C   UNL     1       0.106  20.330  13.326  1.00  0.00     0.127 A 
ATOM      9  N   UNL     1       1.035  21.115  12.768  1.00  0.00    -0.340 N 
ATOM     10  H   UNL     1       1.616  21.859  13.213  1.00  0.00     0.168 HD
ENDROOT
BRANCH   7  11
ATOM     11  N   UNL     1       0.148  21.125  15.664  1.00  0.00    -0.382 N 
ATOM     12  H   UNL     1      -0.075  20.927  16.665  1.00  0.00     0.158 HD
ATOM     13  H   UNL     1       0.742  21.951  15.439  1.00  0.00     0.158 HD
ENDBRANCH   7  11
TORSDOF 1
ENDMDL
MODEL 5
REMARK VINA RESULT:    -3.129      0.958      3.658
REMARK INTER + INTRA:          -3.221
REMARK INTER:                  -3.221
REMARK INTRA:                   0.000
REMARK UNBOUND:                 0.000
REMARK SMILES Nc1ncnc2nc[nH]c12
REMARK SMILES IDX 8 1 7 2 6 3 5 4 4 5 3 6 2 7 10 8 9 9 1 11
REMARK H PARENT 9 10 1 12 1 13
REMARK Flexibility Score: inf
ROOT
ATOM      1  C   UNL     1       0.096  21.125  15.956  1.00  0.00     0.199 A 
ATOM      2  N   UNL     1      -0.969  20.279  16.028  1.00  0.00    -0.217 NA
ATOM      3  C   UNL     1      -0.989  19.742  14.797  1.00  0.00     0.182 A 
ATOM      4  N   UNL     1      -1.867  18.822  14.331  1.00  0.00    -0.215 NA
ATOM      5  C   UNL     1      -1.728  18.392  13.041  1.00  0.00     0.226 A 
ATOM      6  N   UNL     1      -0.724  18.885  12.248  1.00  0.00    -0.217 NA
ATOM      7  C   UNL     1       0.164  19.813  12.715  1.00  0.00     0.152 A 
ATOM      8  C   UNL     1       0.008  20.241  14.032  1.00  0.00     0.127 A 
ATOM      9  N   UNL     1       0.714  21.124  14.749  1.00  0.00    -0.340 N 
ATOM     10  H   UNL     1       1.544  21.686  14.459  1.00  0.00     0.168 HD
ENDROOT
BRANCH   7  11
ATOM     11  N   UNL     1       1.202  20.312  11.871  1.00  0.00    -0.382 N 
ATOM     12  H   UNL     1       1.965  20.901  12.275  1.00  0.00     0.158 HD
ATOM     13  H   UNL     1       1.221  20.101  10.851  1.00  0.00     0.158 HD
ENDBRANCH   7  11
TORSDOF 1
ENDMDL
MODEL 6
REMARK VINA RESULT:    -2.184      2.054      3.551
REMARK INTER + INTRA:          -2.248
REMARK INTER:                  -2.248
REMARK INTRA:                   0.000
REMARK UNBOUND:                 0.000
REMARK SMILES Nc1ncnc2nc[nH]c12
REMARK SMILES IDX 8 1 7 2 6 3 5 4 4 5 3 6 2 7 10 8 9 9 1 11
REMARK H PARENT 9 10 1 12 1 13
REMARK Flexibility Score: inf
ROOT
ATOM      1  C   UNL     1      -0.380  21.103  16.885  1.00  0.00     0.199 A 
ATOM      2  N   UNL     1       0.617  21.020  15.960  1.00  0.00    -0.217 NA
ATOM      3  C   UNL     1      -0.068  20.990  14.805  1.00  0.00     0.182 A 
ATOM      4  N   UNL     1       0.454  20.909  13.558  1.00  0.00    -0.215 NA
ATOM      5  C   UNL     1      -0.409  20.890  12.497  1.00  0.00     0.226 A 
ATOM      6  N   UNL     1      -1.764  20.950  12.701  1.00  0.00    -0.217 NA
ATOM      7  C   UNL     1      -2.293  21.033  13.958  1.00  0.00     0.152 A 
ATOM      8  C   UNL     1      -1.401  21.051  15.028  1.00  0.00     0.127 A 
ATOM      9  N   UNL     1      -1.624  21.125  16.345  1.00  0.00    -0.340 N 
ATOM     10  H   UNL     1      -2.535  21.184  16.852  1.00  0.00     0.168 HD
ENDROOT
BRANCH   7  11
ATOM     11  N   UNL     1      -3.707  21.096  14.146  1.00  0.00    -0.382 N 
ATOM     12  H   UNL     1      -4.318  21.475  13.388  1.00  0.00     0.158 HD
ATOM     13  H   UNL     1      -4.153  20.769  15.030  1.00  0.00     0.158 HD
ENDBRANCH   7  11
TORSDOF 1
ENDMDL
MODEL 7
REMARK VINA RESULT:    -2.053      2.039      4.146
REMARK INTER + INTRA:          -2.113
REMARK INTER:                  -2.113
REMARK INTRA:                   0.000
REMARK UNBOUND:                 0.000
REMARK SMILES Nc1ncnc2nc[nH]c12
REMARK SMILES IDX 8 1 7 2 6 3 5 4 4 5 3 6 2 7 10 8 9 9 1 11
REMARK H PARENT 9 10 1 12 1 13
REMARK Flexibility Score: inf
ROOT
ATOM      1  C   UNL     1      -0.279  21.038  14.756  1.00  0.00     0.199 A 
ATOM      2  N   UNL     1      -1.335  21.041  13.896  1.00  0.00    -0.217 NA
ATOM      3  C   UNL     1      -0.727  21.069  12.699  1.00  0.00     0.182 A 
ATOM      4  N   UNL     1      -1.330  21.083  11.486  1.00  0.00    -0.215 NA
ATOM      5  C   UNL     1      -0.539  21.111  10.371  1.00  0.00     0.226 A 
ATOM      6  N   UNL     1       0.828  21.125  10.488  1.00  0.00    -0.217 NA
ATOM      7  C   UNL     1       1.439  21.110  11.711  1.00  0.00     0.152 A 
ATOM      8  C   UNL     1       0.619  21.081  12.836  1.00  0.00     0.127 A 
ATOM      9  N   UNL     1       0.929  21.061  14.138  1.00  0.00    -0.340 N 
ATOM     10  H   UNL     1       1.872  21.064  14.586  1.00  0.00     0.168 HD
ENDROOT
BRANCH   7  11
ATOM     11  N   UNL     1       2.864  21.124  11.808  1.00  0.00    -0.382 N 
ATOM     12  H   UNL     1       3.447  20.973  10.955  1.00  0.00     0.158 HD
ATOM     13  H   UNL     1       3.345  21.283  12.720  1.00  0.00     0.158 HD
ENDBRANCH   7  11
TORSDOF 1
ENDMDL
