MODEL 1
REMARK VINA RESULT:    -4.212      0.000      0.000
REMARK INTER + INTRA:         -10.348
REMARK INTER:                  -7.905
REMARK INTRA:                  -2.443
REMARK UNBOUND:                -2.443
REMARK SMILES O=C([O-])CCCCCCCCCCCCCCC(=O)[O-]
REMARK SMILES IDX 10 1 9 2 8 3 7 4 6 5 5 6 4 7 2 8 1 9 3 10 11 11 12 12 13 13
REMARK SMILES IDX 14 14 15 15 16 16 17 17 18 18 19 19 20 20
REMARK H PARENT
REMARK Flexibility Score: inf
ROOT
ATOM      1  C   UNL     1     -19.288  46.645  -7.053  1.00  0.00     0.000 C 
ENDROOT
BRANCH   1   2
ATOM      2  C   UNL     1     -18.073  47.520  -7.411  1.00  0.00     0.000 C 
BRANCH   2   3
ATOM      3  C   UNL     1     -17.420  47.214  -8.775  1.00  0.00     0.000 C 
BRANCH   3   4
ATOM      4  C   UNL     1     -15.963  47.688  -8.928  1.00  0.00     0.000 C 
BRANCH   4   5
ATOM      5  C   UNL     1     -14.942  46.651  -8.432  1.00  0.00     0.000 C 
BRANCH   5   6
ATOM      6  C   UNL     1     -14.250  47.076  -7.123  1.00  0.00     0.006 C 
BRANCH   6   7
ATOM      7  C   UNL     1     -14.603  46.205  -5.907  1.00  0.00     0.053 C 
BRANCH   7   8
ATOM      8  C   UNL     1     -14.928  47.029  -4.699  1.00  0.00     0.041 C 
ATOM      9  O   UNL     1     -16.122  47.342  -4.447  1.00  0.00    -0.550 OA
ATOM     10  O   UNL     1     -13.909  47.481  -3.870  1.00  0.00    -0.550 OA
ENDBRANCH   7   8
ENDBRANCH   6   7
ENDBRANCH   5   6
ENDBRANCH   4   5
ENDBRANCH   3   4
ENDBRANCH   2   3
ENDBRANCH   1   2
BRANCH   1  11
ATOM     11  C   UNL     1     -19.101  45.875  -5.735  1.00  0.00     0.000 C 
BRANCH  11  12
ATOM     12  C   UNL     1     -18.826  44.379  -5.958  1.00  0.00     0.000 C 
BRANCH  12  13
ATOM     13  C   UNL     1     -17.341  44.085  -6.235  1.00  0.00     0.000 C 
BRANCH  13  14
ATOM     14  C   UNL     1     -17.147  42.926  -7.229  1.00  0.00     0.000 C 
BRANCH  14  15
ATOM     15  C   UNL     1     -16.380  43.356  -8.491  1.00  0.00     0.000 C 
BRANCH  15  16
ATOM     16  C   UNL     1     -17.308  43.728  -9.661  1.00  0.00     0.006 C 
BRANCH  16  17
ATOM     17  C   UNL     1     -18.662  42.994  -9.646  1.00  0.00     0.053 C 
BRANCH  17  18
ATOM     18  C   UNL     1     -19.828  43.929  -9.535  1.00  0.00     0.041 C 
ATOM     19  O   UNL     1     -20.811  43.635  -8.805  1.00  0.00    -0.550 OA
ATOM     20  O   UNL     1     -19.844  45.110 -10.265  1.00  0.00    -0.550 OA
ENDBRANCH  17  18
ENDBRANCH  16  17
ENDBRANCH  15  16
ENDBRANCH  14  15
ENDBRANCH  13  14
ENDBRANCH  12  13
ENDBRANCH  11  12
ENDBRANCH   1  11
TORSDOF 15
ENDMDL
MODEL 2
REMARK VINA RESULT:    -4.050      1.722      5.360
REMARK INTER + INTRA:         -10.045
REMARK INTER:                  -7.839
REMARK INTRA:                  -2.206
REMARK UNBOUND:                -2.443
REMARK SMILES O=C([O-])CCCCCCCCCCCCCCC(=O)[O-]
REMARK SMILES IDX 10 1 9 2 8 3 7 4 6 5 5 6 4 7 2 8 1 9 3 10 11 11 12 12 13 13
REMARK SMILES IDX 14 14 15 15 16 16 17 17 18 18 19 19 20 20
REMARK H PARENT
REMARK Flexibility Score: inf
ROOT
ATOM      1  C   UNL     1     -18.789  45.317  -6.029  1.00  0.00     0.000 C 
ENDROOT
BRANCH   1   2
ATOM      2  C   UNL     1     -20.138  44.609  -6.248  1.00  0.00     0.000 C 
BRANCH   2   3
ATOM      3  C   UNL     1     -20.850  44.943  -7.575  1.00  0.00     0.000 C 
BRANCH   3   4
ATOM      4  C   UNL     1     -20.643  43.921  -8.708  1.00  0.00     0.000 C 
BRANCH   4   5
ATOM      5  C   UNL     1     -19.876  44.505  -9.906  1.00  0.00     0.000 C 
BRANCH   5   6
ATOM      6  C   UNL     1     -18.590  43.721 -10.229  1.00  0.00     0.006 C 
BRANCH   6   7
ATOM      7  C   UNL     1     -18.222  42.650  -9.189  1.00  0.00     0.053 C 
BRANCH   7   8
ATOM      8  C   UNL     1     -17.017  43.032  -8.388  1.00  0.00     0.041 C 
ATOM      9  O   UNL     1     -16.063  43.649  -8.933  1.00  0.00    -0.550 OA
ATOM     10  O   UNL     1     -16.930  42.679  -7.047  1.00  0.00    -0.550 OA
ENDBRANCH   7   8
ENDBRANCH   6   7
ENDBRANCH   5   6
ENDBRANCH   4   5
ENDBRANCH   3   4
ENDBRANCH   2   3
ENDBRANCH   1   2
BRANCH   1  11
ATOM     11  C   UNL     1     -18.937  46.836  -5.835  1.00  0.00     0.000 C 
BRANCH  11  12
ATOM     12  C   UNL     1     -18.396  47.640  -7.029  1.00  0.00     0.000 C 
BRANCH  12  13
ATOM     13  C   UNL     1     -17.668  46.757  -8.057  1.00  0.00     0.000 C 
BRANCH  13  14
ATOM     14  C   UNL     1     -16.974  47.583  -9.154  1.00  0.00     0.000 C 
BRANCH  14  15
ATOM     15  C   UNL     1     -15.475  47.791  -8.875  1.00  0.00     0.000 C 
BRANCH  15  16
ATOM     16  C   UNL     1     -14.860  46.665  -8.024  1.00  0.00     0.006 C 
BRANCH  16  17
ATOM     17  C   UNL     1     -14.249  47.146  -6.695  1.00  0.00     0.053 C 
BRANCH  17  18
ATOM     18  C   UNL     1     -14.915  46.539  -5.498  1.00  0.00     0.041 C 
ATOM     19  O   UNL     1     -15.458  45.406  -5.578  1.00  0.00    -0.550 OA
ATOM     20  O   UNL     1     -14.966  47.242  -4.300  1.00  0.00    -0.550 OA
ENDBRANCH  17  18
ENDBRANCH  16  17
ENDBRANCH  15  16
ENDBRANCH  14  15
ENDBRANCH  13  14
ENDBRANCH  12  13
ENDBRANCH  11  12
ENDBRANCH   1  11
TORSDOF 15
ENDMDL
MODEL 3
REMARK VINA RESULT:    -3.989      0.798      5.820
REMARK INTER + INTRA:          -9.930
REMARK INTER:                  -7.602
REMARK INTRA:                  -2.328
REMARK UNBOUND:                -2.443
REMARK SMILES O=C([O-])CCCCCCCCCCCCCCC(=O)[O-]
REMARK SMILES IDX 10 1 9 2 8 3 7 4 6 5 5 6 4 7 2 8 1 9 3 10 11 11 12 12 13 13
REMARK SMILES IDX 14 14 15 15 16 16 17 17 18 18 19 19 20 20
REMARK H PARENT
REMARK Flexibility Score: inf
ROOT
ATOM      1  C   UNL     1     -19.309  45.342  -6.663  1.00  0.00     0.000 C 
ENDROOT
BRANCH   1   2
ATOM      2  C   UNL     1     -18.661  44.263  -5.777  1.00  0.00     0.000 C 
BRANCH   2   3
ATOM      3  C   UNL     1     -17.231  43.849  -6.181  1.00  0.00     0.000 C 
BRANCH   3   4
ATOM      4  C   UNL     1     -17.143  42.784  -7.290  1.00  0.00     0.000 C 
BRANCH   4   5
ATOM      5  C   UNL     1     -16.391  43.281  -8.536  1.00  0.00     0.000 C 
BRANCH   5   6
ATOM      6  C   UNL     1     -17.322  43.512  -9.741  1.00  0.00     0.006 C 
BRANCH   6   7
ATOM      7  C   UNL     1     -18.746  42.964  -9.556  1.00  0.00     0.053 C 
BRANCH   7   8
ATOM      8  C   UNL     1     -19.759  43.755 -10.324  1.00  0.00     0.041 C 
ATOM      9  O   UNL     1     -20.772  43.186 -10.812  1.00  0.00    -0.550 OA
ATOM     10  O   UNL     1     -19.569  45.116 -10.531  1.00  0.00    -0.550 OA
ENDBRANCH   7   8
ENDBRANCH   6   7
ENDBRANCH   5   6
ENDBRANCH   4   5
ENDBRANCH   3   4
ENDBRANCH   2   3
ENDBRANCH   1   2
BRANCH   1  11
ATOM     11  C   UNL     1     -19.142  46.761  -6.093  1.00  0.00     0.000 C 
BRANCH  11  12
ATOM     12  C   UNL     1     -18.377  47.695  -7.045  1.00  0.00     0.000 C 
BRANCH  12  13
ATOM     13  C   UNL     1     -17.784  46.951  -8.255  1.00  0.00     0.000 C 
BRANCH  13  14
ATOM     14  C   UNL     1     -16.543  47.658  -8.828  1.00  0.00     0.000 C 
BRANCH  14  15
ATOM     15  C   UNL     1     -15.303  46.746  -8.847  1.00  0.00     0.000 C 
BRANCH  15  16
ATOM     16  C   UNL     1     -14.948  46.187  -7.458  1.00  0.00     0.006 C 
BRANCH  16  17
ATOM     17  C   UNL     1     -14.508  47.258  -6.443  1.00  0.00     0.053 C 
BRANCH  17  18
ATOM     18  C   UNL     1     -14.828  46.884  -5.029  1.00  0.00     0.041 C 
ATOM     19  O   UNL     1     -14.048  46.141  -4.375  1.00  0.00    -0.550 OA
ATOM     20  O   UNL     1     -16.006  47.327  -4.441  1.00  0.00    -0.550 OA
ENDBRANCH  17  18
ENDBRANCH  16  17
ENDBRANCH  15  16
ENDBRANCH  14  15
ENDBRANCH  13  14
ENDBRANCH  12  13
ENDBRANCH  11  12
ENDBRANCH   1  11
TORSDOF 15
ENDMDL
MODEL 4
REMARK VINA RESULT:    -3.987      1.865      5.666
REMARK INTER + INTRA:          -9.925
REMARK INTER:                  -7.727
REMARK INTRA:                  -2.198
REMARK UNBOUND:                -2.443
REMARK SMILES O=C([O-])CCCCCCCCCCCCCCC(=O)[O-]
REMARK SMILES IDX 10 1 9 2 8 3 7 4 6 5 5 6 4 7 2 8 1 9 3 10 11 11 12 12 13 13
REMARK SMILES IDX 14 14 15 15 16 16 17 17 18 18 19 19 20 20
REMARK H PARENT
REMARK Flexibility Score: inf
ROOT
ATOM      1  C   UNL     1     -16.746  43.659  -8.881  1.00  0.00     0.000 C 
ENDROOT
BRANCH   1   2
ATOM      2  C   UNL     1     -17.852  42.617  -8.637  1.00  0.00     0.000 C 
BRANCH   2   3
ATOM      3  C   UNL     1     -18.976  42.589  -9.694  1.00  0.00     0.000 C 
BRANCH   3   4
ATOM      4  C   UNL     1     -20.336  43.137  -9.223  1.00  0.00     0.000 C 
BRANCH   4   5
ATOM      5  C   UNL     1     -20.358  44.671  -9.116  1.00  0.00     0.000 C 
BRANCH   5   6
ATOM      6  C   UNL     1     -20.733  45.163  -7.706  1.00  0.00     0.006 C 
BRANCH   6   7
ATOM      7  C   UNL     1     -19.529  45.478  -6.803  1.00  0.00     0.053 C 
BRANCH   7   8
ATOM      8  C   UNL     1     -19.344  44.448  -5.732  1.00  0.00     0.041 C 
ATOM      9  O   UNL     1     -20.334  44.033  -5.073  1.00  0.00    -0.550 OA
ATOM     10  O   UNL     1     -18.073  43.970  -5.437  1.00  0.00    -0.550 OA
ENDBRANCH   7   8
ENDBRANCH   6   7
ENDBRANCH   5   6
ENDBRANCH   4   5
ENDBRANCH   3   4
ENDBRANCH   2   3
ENDBRANCH   1   2
BRANCH   1  11
ATOM     11  C   UNL     1     -16.602  44.042 -10.363  1.00  0.00     0.000 C 
BRANCH  11  12
ATOM     12  C   UNL     1     -17.114  45.461 -10.661  1.00  0.00     0.000 C 
BRANCH  12  13
ATOM     13  C   UNL     1     -17.069  46.378  -9.425  1.00  0.00     0.000 C 
BRANCH  13  14
ATOM     14  C   UNL     1     -16.361  47.714  -9.710  1.00  0.00     0.000 C 
BRANCH  14  15
ATOM     15  C   UNL     1     -15.149  47.944  -8.792  1.00  0.00     0.000 C 
BRANCH  15  16
ATOM     16  C   UNL     1     -14.722  46.678  -8.029  1.00  0.00     0.006 C 
BRANCH  16  17
ATOM     17  C   UNL     1     -14.053  46.959  -6.671  1.00  0.00     0.053 C 
BRANCH  17  18
ATOM     18  C   UNL     1     -14.890  46.520  -5.509  1.00  0.00     0.041 C 
ATOM     19  O   UNL     1     -14.364  45.912  -4.540  1.00  0.00    -0.550 OA
ATOM     20  O   UNL     1     -16.260  46.751  -5.513  1.00  0.00    -0.550 OA
ENDBRANCH  17  18
ENDBRANCH  16  17
ENDBRANCH  15  16
ENDBRANCH  14  15
ENDBRANCH  13  14
ENDBRANCH  12  13
ENDBRANCH  11  12
ENDBRANCH   1  11
TORSDOF 15
ENDMDL
MODEL 5
REMARK VINA RESULT:    -3.925      1.119      6.118
REMARK INTER + INTRA:          -9.809
REMARK INTER:                  -7.608
REMARK INTRA:                  -2.201
REMARK UNBOUND:                -2.443
REMARK SMILES O=C([O-])CCCCCCCCCCCCCCC(=O)[O-]
REMARK SMILES IDX 10 1 9 2 8 3 7 4 6 5 5 6 4 7 2 8 1 9 3 10 11 11 12 12 13 13
REMARK SMILES IDX 14 14 15 15 16 16 17 17 18 18 19 19 20 20
REMARK H PARENT
REMARK Flexibility Score: inf
ROOT
ATOM      1  C   UNL     1     -17.300  43.388  -9.434  1.00  0.00     0.000 C 
ENDROOT
BRANCH   1   2
ATOM      2  C   UNL     1     -17.046  42.798  -8.036  1.00  0.00     0.000 C 
BRANCH   2   3
ATOM      3  C   UNL     1     -16.809  43.833  -6.916  1.00  0.00     0.000 C 
BRANCH   3   4
ATOM      4  C   UNL     1     -17.915  43.913  -5.848  1.00  0.00     0.000 C 
BRANCH   4   5
ATOM      5  C   UNL     1     -18.874  45.094  -6.070  1.00  0.00     0.000 C 
BRANCH   5   6
ATOM      6  C   UNL     1     -20.230  44.658  -6.657  1.00  0.00     0.006 C 
BRANCH   6   7
ATOM      7  C   UNL     1     -20.623  45.386  -7.953  1.00  0.00     0.053 C 
BRANCH   7   8
ATOM      8  C   UNL     1     -20.643  44.465  -9.133  1.00  0.00     0.041 C 
ATOM      9  O   UNL     1     -20.659  43.217  -8.964  1.00  0.00    -0.550 OA
ATOM     10  O   UNL     1     -20.610  44.983 -10.422  1.00  0.00    -0.550 OA
ENDBRANCH   7   8
ENDBRANCH   6   7
ENDBRANCH   5   6
ENDBRANCH   4   5
ENDBRANCH   3   4
ENDBRANCH   2   3
ENDBRANCH   1   2
BRANCH   1  11
ATOM     11  C   UNL     1     -16.067  44.100 -10.015  1.00  0.00     0.000 C 
BRANCH  11  12
ATOM     12  C   UNL     1     -16.350  45.563 -10.392  1.00  0.00     0.000 C 
BRANCH  12  13
ATOM     13  C   UNL     1     -17.410  46.214  -9.485  1.00  0.00     0.000 C 
BRANCH  13  14
ATOM     14  C   UNL     1     -16.821  47.321  -8.594  1.00  0.00     0.000 C 
BRANCH  14  15
ATOM     15  C   UNL     1     -15.289  47.413  -8.704  1.00  0.00     0.000 C 
BRANCH  15  16
ATOM     16  C   UNL     1     -14.558  46.536  -7.673  1.00  0.00     0.006 C 
BRANCH  16  17
ATOM     17  C   UNL     1     -14.171  47.278  -6.380  1.00  0.00     0.053 C 
BRANCH  17  18
ATOM     18  C   UNL     1     -14.893  46.759  -5.175  1.00  0.00     0.041 C 
ATOM     19  O   UNL     1     -14.314  45.981  -4.372  1.00  0.00    -0.550 OA
ATOM     20  O   UNL     1     -16.220  47.108  -4.956  1.00  0.00    -0.550 OA
ENDBRANCH  17  18
ENDBRANCH  16  17
ENDBRANCH  15  16
ENDBRANCH  14  15
ENDBRANCH  13  14
ENDBRANCH  12  13
ENDBRANCH  11  12
ENDBRANCH   1  11
TORSDOF 15
ENDMDL
MODEL 6
REMARK VINA RESULT:    -3.910      2.122      3.882
REMARK INTER + INTRA:          -9.782
REMARK INTER:                  -7.644
REMARK INTRA:                  -2.138
REMARK UNBOUND:                -2.443
REMARK SMILES O=C([O-])CCCCCCCCCCCCCCC(=O)[O-]
REMARK SMILES IDX 10 1 9 2 8 3 7 4 6 5 5 6 4 7 2 8 1 9 3 10 11 11 12 12 13 13
REMARK SMILES IDX 14 14 15 15 16 16 17 17 18 18 19 19 20 20
REMARK H PARENT
REMARK Flexibility Score: inf
ROOT
ATOM      1  C   UNL     1     -20.527  45.003  -9.266  1.00  0.00     0.000 C 
ENDROOT
BRANCH   1   2
ATOM      2  C   UNL     1     -20.754  44.623  -7.792  1.00  0.00     0.000 C 
BRANCH   2   3
ATOM      3  C   UNL     1     -19.775  45.263  -6.787  1.00  0.00     0.000 C 
BRANCH   3   4
ATOM      4  C   UNL     1     -19.124  44.287  -5.789  1.00  0.00     0.000 C 
BRANCH   4   5
ATOM      5  C   UNL     1     -17.588  44.288  -5.868  1.00  0.00     0.000 C 
BRANCH   5   6
ATOM      6  C   UNL     1     -17.005  45.695  -6.102  1.00  0.00     0.006 C 
BRANCH   6   7
ATOM      7  C   UNL     1     -15.527  45.707  -6.522  1.00  0.00     0.053 C 
BRANCH   7   8
ATOM      8  C   UNL     1     -14.653  46.350  -5.489  1.00  0.00     0.041 C 
ATOM      9  O   UNL     1     -14.414  45.758  -4.403  1.00  0.00    -0.550 OA
ATOM     10  O   UNL     1     -14.130  47.618  -5.710  1.00  0.00    -0.550 OA
ENDBRANCH   7   8
ENDBRANCH   6   7
ENDBRANCH   5   6
ENDBRANCH   4   5
ENDBRANCH   3   4
ENDBRANCH   2   3
ENDBRANCH   1   2
BRANCH   1  11
ATOM     11  C   UNL     1     -20.244  43.785 -10.161  1.00  0.00     0.000 C 
BRANCH  11  12
ATOM     12  C   UNL     1     -19.661  42.598  -9.378  1.00  0.00     0.000 C 
BRANCH  12  13
ATOM     13  C   UNL     1     -18.147  42.733  -9.136  1.00  0.00     0.000 C 
BRANCH  13  14
ATOM     14  C   UNL     1     -17.434  43.475 -10.279  1.00  0.00     0.000 C 
BRANCH  14  15
ATOM     15  C   UNL     1     -16.659  44.710  -9.787  1.00  0.00     0.000 C 
BRANCH  15  16
ATOM     16  C   UNL     1     -17.092  46.010 -10.487  1.00  0.00     0.006 C 
BRANCH  16  17
ATOM     17  C   UNL     1     -16.069  47.155 -10.371  1.00  0.00     0.053 C 
BRANCH  17  18
ATOM     18  C   UNL     1     -16.522  48.247  -9.451  1.00  0.00     0.041 C 
ATOM     19  O   UNL     1     -17.370  48.009  -8.550  1.00  0.00    -0.550 OA
ATOM     20  O   UNL     1     -16.035  49.538  -9.609  1.00  0.00    -0.550 OA
ENDBRANCH  17  18
ENDBRANCH  16  17
ENDBRANCH  15  16
ENDBRANCH  14  15
ENDBRANCH  13  14
ENDBRANCH  12  13
ENDBRANCH  11  12
ENDBRANCH   1  11
TORSDOF 15
ENDMDL
MODEL 7
REMARK VINA RESULT:    -3.869      2.586      5.431
REMARK INTER + INTRA:          -9.704
REMARK INTER:                  -7.531
REMARK INTRA:                  -2.173
REMARK UNBOUND:                -2.443
REMARK SMILES O=C([O-])CCCCCCCCCCCCCCC(=O)[O-]
REMARK SMILES IDX 10 1 9 2 8 3 7 4 6 5 5 6 4 7 2 8 1 9 3 10 11 11 12 12 13 13
REMARK SMILES IDX 14 14 15 15 16 16 17 17 18 18 19 19 20 20
REMARK H PARENT
REMARK Flexibility Score: inf
ROOT
ATOM      1  C   UNL     1     -18.633  46.583  -5.870  1.00  0.00     0.000 C 
ENDROOT
BRANCH   1   2
ATOM      2  C   UNL     1     -18.885  45.066  -5.926  1.00  0.00     0.000 C 
BRANCH   2   3
ATOM      3  C   UNL     1     -20.196  44.641  -6.620  1.00  0.00     0.000 C 
BRANCH   3   4
ATOM      4  C   UNL     1     -20.593  45.482  -7.848  1.00  0.00     0.000 C 
BRANCH   4   5
ATOM      5  C   UNL     1     -20.351  44.748  -9.178  1.00  0.00     0.000 C 
BRANCH   5   6
ATOM      6  C   UNL     1     -20.638  43.238  -9.085  1.00  0.00     0.006 C 
BRANCH   6   7
ATOM      7  C   UNL     1     -19.607  42.350  -9.800  1.00  0.00     0.053 C 
BRANCH   7   8
ATOM      8  C   UNL     1     -18.201  42.790  -9.529  1.00  0.00     0.041 C 
ATOM      9  O   UNL     1     -17.714  42.682  -8.373  1.00  0.00    -0.550 OA
ATOM     10  O   UNL     1     -17.439  43.352 -10.546  1.00  0.00    -0.550 OA
ENDBRANCH   7   8
ENDBRANCH   6   7
ENDBRANCH   5   6
ENDBRANCH   4   5
ENDBRANCH   3   4
ENDBRANCH   2   3
ENDBRANCH   1   2
BRANCH   1  11
ATOM     11  C   UNL     1     -17.225  46.936  -5.360  1.00  0.00     0.000 C 
BRANCH  11  12
ATOM     12  C   UNL     1     -16.196  45.832  -5.650  1.00  0.00     0.000 C 
BRANCH  12  13
ATOM     13  C   UNL     1     -14.859  46.390  -6.169  1.00  0.00     0.000 C 
BRANCH  13  14
ATOM     14  C   UNL     1     -14.818  46.485  -7.704  1.00  0.00     0.000 C 
BRANCH  14  15
ATOM     15  C   UNL     1     -15.933  45.664  -8.374  1.00  0.00     0.000 C 
BRANCH  15  16
ATOM     16  C   UNL     1     -16.830  46.508  -9.296  1.00  0.00     0.006 C 
BRANCH  16  17
ATOM     17  C   UNL     1     -16.862  48.006  -8.942  1.00  0.00     0.053 C 
BRANCH  17  18
ATOM     18  C   UNL     1     -16.132  48.854  -9.938  1.00  0.00     0.041 C 
ATOM     19  O   UNL     1     -15.547  48.322 -10.918  1.00  0.00    -0.550 OA
ATOM     20  O   UNL     1     -16.070  50.231  -9.767  1.00  0.00    -0.550 OA
ENDBRANCH  17  18
ENDBRANCH  16  17
ENDBRANCH  15  16
ENDBRANCH  14  15
ENDBRANCH  13  14
ENDBRANCH  12  13
ENDBRANCH  11  12
ENDBRANCH   1  11
TORSDOF 15
ENDMDL
MODEL 8
REMARK VINA RESULT:    -3.823      2.337      4.919
REMARK INTER + INTRA:          -9.618
REMARK INTER:                  -7.182
REMARK INTRA:                  -2.436
REMARK UNBOUND:                -2.443
REMARK SMILES O=C([O-])CCCCCCCCCCCCCCC(=O)[O-]
REMARK SMILES IDX 10 1 9 2 8 3 7 4 6 5 5 6 4 7 2 8 1 9 3 10 11 11 12 12 13 13
REMARK SMILES IDX 14 14 15 15 16 16 17 17 18 18 19 19 20 20
REMARK H PARENT
REMARK Flexibility Score: inf
ROOT
ATOM      1  C   UNL     1     -20.707  43.840  -8.318  1.00  0.00     0.000 C 
ENDROOT
BRANCH   1   2
ATOM      2  C   UNL     1     -20.249  43.475  -9.742  1.00  0.00     0.000 C 
BRANCH   2   3
ATOM      3  C   UNL     1     -18.790  42.989  -9.861  1.00  0.00     0.000 C 
BRANCH   3   4
ATOM      4  C   UNL     1     -17.822  43.974 -10.543  1.00  0.00     0.000 C 
BRANCH   4   5
ATOM      5  C   UNL     1     -18.475  45.330 -10.859  1.00  0.00     0.000 C 
BRANCH   5   6
ATOM      6  C   UNL     1     -17.659  46.521 -10.323  1.00  0.00     0.006 C 
BRANCH   6   7
ATOM      7  C   UNL     1     -16.178  46.209 -10.058  1.00  0.00     0.053 C 
BRANCH   7   8
ATOM      8  C   UNL     1     -15.472  47.349  -9.392  1.00  0.00     0.041 C 
ATOM      9  O   UNL     1     -14.322  47.185  -8.905  1.00  0.00    -0.550 OA
ATOM     10  O   UNL     1     -16.096  48.585  -9.279  1.00  0.00    -0.550 OA
ENDBRANCH   7   8
ENDBRANCH   6   7
ENDBRANCH   5   6
ENDBRANCH   4   5
ENDBRANCH   3   4
ENDBRANCH   2   3
ENDBRANCH   1   2
BRANCH   1  11
ATOM     11  C   UNL     1     -20.663  45.353  -8.046  1.00  0.00     0.000 C 
BRANCH  11  12
ATOM     12  C   UNL     1     -19.611  45.735  -6.992  1.00  0.00     0.000 C 
BRANCH  12  13
ATOM     13  C   UNL     1     -19.568  44.747  -5.813  1.00  0.00     0.000 C 
BRANCH  13  14
ATOM     14  C   UNL     1     -18.157  44.185  -5.570  1.00  0.00     0.000 C 
BRANCH  14  15
ATOM     15  C   UNL     1     -17.293  44.191  -6.842  1.00  0.00     0.000 C 
BRANCH  15  16
ATOM     16  C   UNL     1     -15.954  44.926  -6.657  1.00  0.00     0.006 C 
BRANCH  16  17
ATOM     17  C   UNL     1     -16.062  46.234  -5.851  1.00  0.00     0.053 C 
BRANCH  17  18
ATOM     18  C   UNL     1     -14.779  46.604  -5.171  1.00  0.00     0.041 C 
ATOM     19  O   UNL     1     -14.168  47.657  -5.494  1.00  0.00    -0.550 OA
ATOM     20  O   UNL     1     -14.239  45.767  -4.202  1.00  0.00    -0.550 OA
ENDBRANCH  17  18
ENDBRANCH  16  17
ENDBRANCH  15  16
ENDBRANCH  14  15
ENDBRANCH  13  14
ENDBRANCH  12  13
ENDBRANCH  11  12
ENDBRANCH   1  11
TORSDOF 15
ENDMDL
