MODEL 1
REMARK VINA RESULT:    -4.601      0.000      0.000
REMARK INTER + INTRA:         -10.271
REMARK INTER:                  -8.367
REMARK INTRA:                  -1.904
REMARK UNBOUND:                -1.904
REMARK SMILES CCCCCCCCCCCCCC[C@@H](C)C(=O)[O-]
REMARK SMILES IDX 9 1 10 2 11 3 12 4 13 5 14 6 15 7 16 8 17 9 18 10 19 11 8 12
REMARK SMILES IDX 7 13 6 14 5 15 4 16 3 17 2 18 1 19
REMARK H PARENT
REMARK Flexibility Score: inf
ROOT
ATOM      1  C   UNL     1      -3.698   6.421 -38.008  1.00  0.00     0.000 C 
ENDROOT
BRANCH   1   2
ATOM      2  C   UNL     1      -4.220   5.074 -38.546  1.00  0.00     0.000 C 
BRANCH   2   3
ATOM      3  C   UNL     1      -3.531   3.827 -37.962  1.00  0.00     0.000 C 
BRANCH   3   4
ATOM      4  C   UNL     1      -4.529   2.792 -37.420  1.00  0.00     0.000 C 
BRANCH   4   5
ATOM      5  C   UNL     1      -5.940   3.389 -37.322  1.00  0.00     0.001 C 
BRANCH   5   6
ATOM      6  C   UNL     1      -6.499   3.386 -35.887  1.00  0.00     0.009 C 
BRANCH   6   7
ATOM      7  C   UNL     1      -6.901   4.775 -35.337  1.00  0.00     0.032 C 
ATOM      8  C   UNL     1      -7.259   5.768 -36.452  1.00  0.00     0.014 C 
BRANCH   7   9
ATOM      9  C   UNL     1      -8.062   4.628 -34.392  1.00  0.00     0.044 C 
ATOM     10  O   UNL     1      -8.104   3.672 -33.572  1.00  0.00    -0.550 OA
ATOM     11  O   UNL     1      -9.094   5.558 -34.410  1.00  0.00    -0.550 OA
ENDBRANCH   7   9
ENDBRANCH   6   7
ENDBRANCH   5   6
ENDBRANCH   4   5
ENDBRANCH   3   4
ENDBRANCH   2   3
ENDBRANCH   1   2
BRANCH   1  12
ATOM     12  C   UNL     1      -2.355   6.346 -37.252  1.00  0.00     0.000 C 
BRANCH  12  13
ATOM     13  C   UNL     1      -1.753   7.711 -36.866  1.00  0.00    -0.000 C 
BRANCH  13  14
ATOM     14  C   UNL     1      -1.072   7.753 -35.483  1.00  0.00    -0.000 C 
BRANCH  14  15
ATOM     15  C   UNL     1      -2.022   7.999 -34.294  1.00  0.00    -0.000 C 
BRANCH  15  16
ATOM     16  C   UNL     1      -3.347   8.693 -34.655  1.00  0.00    -0.000 C 
BRANCH  16  17
ATOM     17  C   UNL     1      -4.559   7.751 -34.556  1.00  0.00    -0.000 C 
BRANCH  17  18
ATOM     18  C   UNL     1      -5.742   8.392 -33.815  1.00  0.00    -0.003 C 
ATOM     19  C   UNL     1      -6.392   7.443 -32.808  1.00  0.00     0.004 C 
ENDBRANCH  17  18
ENDBRANCH  16  17
ENDBRANCH  15  16
ENDBRANCH  14  15
ENDBRANCH  13  14
ENDBRANCH  12  13
ENDBRANCH   1  12
TORSDOF 14
ENDMDL
MODEL 2
REMARK VINA RESULT:    -4.453      0.948      4.284
REMARK INTER + INTRA:         -10.001
REMARK INTER:                  -7.861
REMARK INTRA:                  -2.139
REMARK UNBOUND:                -1.904
REMARK SMILES CCCCCCCCCCCCCC[C@@H](C)C(=O)[O-]
REMARK SMILES IDX 9 1 10 2 11 3 12 4 13 5 14 6 15 7 16 8 17 9 18 10 19 11 8 12
REMARK SMILES IDX 7 13 6 14 5 15 4 16 3 17 2 18 1 19
REMARK H PARENT
REMARK Flexibility Score: inf
ROOT
ATOM      1  C   UNL     1      -2.428   8.259 -34.258  1.00  0.00     0.000 C 
ENDROOT
BRANCH   1   2
ATOM      2  C   UNL     1      -3.391   9.359 -34.750  1.00  0.00     0.000 C 
BRANCH   2   3
ATOM      3  C   UNL     1      -4.886   8.999 -34.670  1.00  0.00     0.000 C 
BRANCH   3   4
ATOM      4  C   UNL     1      -5.128   7.505 -34.406  1.00  0.00     0.000 C 
BRANCH   4   5
ATOM      5  C   UNL     1      -6.217   6.953 -35.337  1.00  0.00     0.001 C 
BRANCH   5   6
ATOM      6  C   UNL     1      -6.157   5.422 -35.494  1.00  0.00     0.009 C 
BRANCH   6   7
ATOM      7  C   UNL     1      -7.475   4.678 -35.170  1.00  0.00     0.032 C 
ATOM      8  C   UNL     1      -7.258   3.180 -34.913  1.00  0.00     0.014 C 
BRANCH   7   9
ATOM      9  C   UNL     1      -8.133   5.311 -33.974  1.00  0.00     0.044 C 
ATOM     10  O   UNL     1      -7.548   5.332 -32.857  1.00  0.00    -0.550 OA
ATOM     11  O   UNL     1      -9.388   5.892 -34.099  1.00  0.00    -0.550 OA
ENDBRANCH   7   9
ENDBRANCH   6   7
ENDBRANCH   5   6
ENDBRANCH   4   5
ENDBRANCH   3   4
ENDBRANCH   2   3
ENDBRANCH   1   2
BRANCH   1  12
ATOM     12  C   UNL     1      -1.398   7.780 -35.301  1.00  0.00     0.000 C 
BRANCH  12  13
ATOM     13  C   UNL     1      -1.910   7.756 -36.754  1.00  0.00    -0.000 C 
BRANCH  13  14
ATOM     14  C   UNL     1      -2.458   6.395 -37.228  1.00  0.00    -0.000 C 
BRANCH  14  15
ATOM     15  C   UNL     1      -3.621   6.475 -38.238  1.00  0.00    -0.000 C 
BRANCH  15  16
ATOM     16  C   UNL     1      -4.191   5.116 -38.679  1.00  0.00    -0.000 C 
BRANCH  16  17
ATOM     17  C   UNL     1      -3.455   3.926 -38.041  1.00  0.00    -0.000 C 
BRANCH  17  18
ATOM     18  C   UNL     1      -4.418   2.845 -37.528  1.00  0.00    -0.003 C 
ATOM     19  C   UNL     1      -5.739   2.820 -38.296  1.00  0.00     0.004 C 
ENDBRANCH  17  18
ENDBRANCH  16  17
ENDBRANCH  15  16
ENDBRANCH  14  15
ENDBRANCH  13  14
ENDBRANCH  12  13
ENDBRANCH   1  12
TORSDOF 14
ENDMDL
MODEL 3
REMARK VINA RESULT:    -4.435      2.568      5.558
REMARK INTER + INTRA:          -9.969
REMARK INTER:                  -8.265
REMARK INTRA:                  -1.704
REMARK UNBOUND:                -1.904
REMARK SMILES CCCCCCCCCCCCCC[C@@H](C)C(=O)[O-]
REMARK SMILES IDX 9 1 10 2 11 3 12 4 13 5 14 6 15 7 16 8 17 9 18 10 19 11 8 12
REMARK SMILES IDX 7 13 6 14 5 15 4 16 3 17 2 18 1 19
REMARK H PARENT
REMARK Flexibility Score: inf
ROOT
ATOM      1  C   UNL     1      -6.806   5.195 -38.060  1.00  0.00     0.000 C 
ENDROOT
BRANCH   1   2
ATOM      2  C   UNL     1      -5.537   5.865 -37.494  1.00  0.00     0.000 C 
BRANCH   2   3
ATOM      3  C   UNL     1      -4.311   5.830 -38.424  1.00  0.00     0.000 C 
BRANCH   3   4
ATOM      4  C   UNL     1      -2.994   6.119 -37.689  1.00  0.00     0.000 C 
BRANCH   4   5
ATOM      5  C   UNL     1      -2.473   7.523 -38.029  1.00  0.00     0.001 C 
BRANCH   5   6
ATOM      6  C   UNL     1      -1.647   8.152 -36.892  1.00  0.00     0.009 C 
BRANCH   6   7
ATOM      7  C   UNL     1      -2.212   7.927 -35.469  1.00  0.00     0.032 C 
ATOM      8  C   UNL     1      -1.110   7.664 -34.433  1.00  0.00     0.014 C 
BRANCH   7   9
ATOM      9  C   UNL     1      -3.029   9.120 -35.054  1.00  0.00     0.044 C 
ATOM     10  O   UNL     1      -2.669   9.836 -34.081  1.00  0.00    -0.550 OA
ATOM     11  O   UNL     1      -4.182   9.449 -35.754  1.00  0.00    -0.550 OA
ENDBRANCH   7   9
ENDBRANCH   6   7
ENDBRANCH   5   6
ENDBRANCH   4   5
ENDBRANCH   3   4
ENDBRANCH   2   3
ENDBRANCH   1   2
BRANCH   1  12
ATOM     12  C   UNL     1      -7.226   3.891 -37.352  1.00  0.00     0.000 C 
BRANCH  12  13
ATOM     13  C   UNL     1      -6.407   3.544 -36.094  1.00  0.00    -0.000 C 
BRANCH  13  14
ATOM     14  C   UNL     1      -7.202   3.564 -34.773  1.00  0.00    -0.000 C 
BRANCH  14  15
ATOM     15  C   UNL     1      -8.552   4.306 -34.835  1.00  0.00    -0.000 C 
BRANCH  15  16
ATOM     16  C   UNL     1      -8.634   5.576 -33.970  1.00  0.00    -0.000 C 
BRANCH  16  17
ATOM     17  C   UNL     1      -7.715   5.518 -32.738  1.00  0.00    -0.000 C 
BRANCH  17  18
ATOM     18  C   UNL     1      -6.734   6.698 -32.680  1.00  0.00    -0.003 C 
ATOM     19  C   UNL     1      -6.076   6.986 -34.029  1.00  0.00     0.004 C 
ENDBRANCH  17  18
ENDBRANCH  16  17
ENDBRANCH  15  16
ENDBRANCH  14  15
ENDBRANCH  13  14
ENDBRANCH  12  13
ENDBRANCH   1  12
TORSDOF 14
ENDMDL
MODEL 4
REMARK VINA RESULT:    -4.426      1.171      1.946
REMARK INTER + INTRA:          -9.952
REMARK INTER:                  -8.410
REMARK INTRA:                  -1.543
REMARK UNBOUND:                -1.904
REMARK SMILES CCCCCCCCCCCCCC[C@@H](C)C(=O)[O-]
REMARK SMILES IDX 9 1 10 2 11 3 12 4 13 5 14 6 15 7 16 8 17 9 18 10 19 11 8 12
REMARK SMILES IDX 7 13 6 14 5 15 4 16 3 17 2 18 1 19
REMARK H PARENT
REMARK Flexibility Score: inf
ROOT
ATOM      1  C   UNL     1      -4.008   4.986 -38.827  1.00  0.00     0.000 C 
ENDROOT
BRANCH   1   2
ATOM      2  C   UNL     1      -3.616   3.790 -37.935  1.00  0.00     0.000 C 
BRANCH   2   3
ATOM      3  C   UNL     1      -4.796   2.939 -37.430  1.00  0.00     0.000 C 
BRANCH   3   4
ATOM      4  C   UNL     1      -6.118   3.273 -38.136  1.00  0.00     0.000 C 
BRANCH   4   5
ATOM      5  C   UNL     1      -7.184   3.714 -37.123  1.00  0.00     0.001 C 
BRANCH   5   6
ATOM      6  C   UNL     1      -6.663   3.751 -35.674  1.00  0.00     0.009 C 
BRANCH   6   7
ATOM      7  C   UNL     1      -6.686   5.145 -35.003  1.00  0.00     0.032 C 
ATOM      8  C   UNL     1      -6.799   6.287 -36.024  1.00  0.00     0.014 C 
BRANCH   7   9
ATOM      9  C   UNL     1      -7.828   5.217 -34.027  1.00  0.00     0.044 C 
ATOM     10  O   UNL     1      -7.609   5.358 -32.794  1.00  0.00    -0.550 OA
ATOM     11  O   UNL     1      -9.138   5.142 -34.484  1.00  0.00    -0.550 OA
ENDBRANCH   7   9
ENDBRANCH   6   7
ENDBRANCH   5   6
ENDBRANCH   4   5
ENDBRANCH   3   4
ENDBRANCH   2   3
ENDBRANCH   1   2
BRANCH   1  12
ATOM     12  C   UNL     1      -3.519   6.360 -38.327  1.00  0.00     0.000 C 
BRANCH  12  13
ATOM     13  C   UNL     1      -2.417   6.304 -37.252  1.00  0.00    -0.000 C 
BRANCH  13  14
ATOM     14  C   UNL     1      -1.812   7.669 -36.868  1.00  0.00    -0.000 C 
BRANCH  14  15
ATOM     15  C   UNL     1      -0.950   7.665 -35.589  1.00  0.00    -0.000 C 
BRANCH  15  16
ATOM     16  C   UNL     1      -1.714   7.979 -34.291  1.00  0.00    -0.000 C 
BRANCH  16  17
ATOM     17  C   UNL     1      -3.078   8.640 -34.548  1.00  0.00    -0.000 C 
BRANCH  17  18
ATOM     18  C   UNL     1      -2.993  10.173 -34.577  1.00  0.00    -0.003 C 
ATOM     19  C   UNL     1      -2.623  10.769 -33.219  1.00  0.00     0.004 C 
ENDBRANCH  17  18
ENDBRANCH  16  17
ENDBRANCH  15  16
ENDBRANCH  14  15
ENDBRANCH  13  14
ENDBRANCH  12  13
ENDBRANCH   1  12
TORSDOF 14
ENDMDL
MODEL 5
REMARK VINA RESULT:    -4.317      2.773      5.461
REMARK INTER + INTRA:          -9.755
REMARK INTER:                  -8.242
REMARK INTRA:                  -1.513
REMARK UNBOUND:                -1.904
REMARK SMILES CCCCCCCCCCCCCC[C@@H](C)C(=O)[O-]
REMARK SMILES IDX 9 1 10 2 11 3 12 4 13 5 14 6 15 7 16 8 17 9 18 10 19 11 8 12
REMARK SMILES IDX 7 13 6 14 5 15 4 16 3 17 2 18 1 19
REMARK H PARENT
REMARK Flexibility Score: inf
ROOT
ATOM      1  C   UNL     1      -4.733   5.716 -38.028  1.00  0.00     0.000 C 
ENDROOT
BRANCH   1   2
ATOM      2  C   UNL     1      -3.928   7.012 -37.803  1.00  0.00     0.000 C 
BRANCH   2   3
ATOM      3  C   UNL     1      -2.453   6.804 -37.414  1.00  0.00     0.000 C 
BRANCH   3   4
ATOM      4  C   UNL     1      -1.812   8.060 -36.805  1.00  0.00     0.000 C 
BRANCH   4   5
ATOM      5  C   UNL     1      -1.248   7.766 -35.408  1.00  0.00     0.001 C 
BRANCH   5   6
ATOM      6  C   UNL     1      -2.224   8.133 -34.274  1.00  0.00     0.009 C 
BRANCH   6   7
ATOM      7  C   UNL     1      -3.262   9.224 -34.629  1.00  0.00     0.032 C 
ATOM      8  C   UNL     1      -4.699   8.684 -34.652  1.00  0.00     0.014 C 
BRANCH   7   9
ATOM      9  C   UNL     1      -3.158  10.360 -33.649  1.00  0.00     0.044 C 
ATOM     10  O   UNL     1      -2.052  10.649 -33.118  1.00  0.00    -0.550 OA
ATOM     11  O   UNL     1      -4.284  11.110 -33.333  1.00  0.00    -0.550 OA
ENDBRANCH   7   9
ENDBRANCH   6   7
ENDBRANCH   5   6
ENDBRANCH   4   5
ENDBRANCH   3   4
ENDBRANCH   2   3
ENDBRANCH   1   2
BRANCH   1  12
ATOM     12  C   UNL     1      -3.886   4.432 -38.135  1.00  0.00     0.000 C 
BRANCH  12  13
ATOM     13  C   UNL     1      -4.538   3.174 -37.526  1.00  0.00    -0.000 C 
BRANCH  13  14
ATOM     14  C   UNL     1      -6.044   3.303 -37.225  1.00  0.00    -0.000 C 
BRANCH  14  15
ATOM     15  C   UNL     1      -6.394   3.588 -35.751  1.00  0.00    -0.000 C 
BRANCH  15  16
ATOM     16  C   UNL     1      -7.367   4.760 -35.530  1.00  0.00    -0.000 C 
BRANCH  16  17
ATOM     17  C   UNL     1      -6.817   5.814 -34.554  1.00  0.00    -0.000 C 
BRANCH  17  18
ATOM     18  C   UNL     1      -7.499   5.754 -33.179  1.00  0.00    -0.003 C 
ATOM     19  C   UNL     1      -6.862   6.701 -32.163  1.00  0.00     0.004 C 
ENDBRANCH  17  18
ENDBRANCH  16  17
ENDBRANCH  15  16
ENDBRANCH  14  15
ENDBRANCH  13  14
ENDBRANCH  12  13
ENDBRANCH   1  12
TORSDOF 14
ENDMDL
MODEL 6
REMARK VINA RESULT:    -4.313      1.443      3.157
REMARK INTER + INTRA:          -9.747
REMARK INTER:                  -7.714
REMARK INTRA:                  -2.033
REMARK UNBOUND:                -1.904
REMARK SMILES CCCCCCCCCCCCCC[C@@H](C)C(=O)[O-]
REMARK SMILES IDX 9 1 10 2 11 3 12 4 13 5 14 6 15 7 16 8 17 9 18 10 19 11 8 12
REMARK SMILES IDX 7 13 6 14 5 15 4 16 3 17 2 18 1 19
REMARK H PARENT
REMARK Flexibility Score: inf
ROOT
ATOM      1  C   UNL     1      -1.226   7.712 -35.690  1.00  0.00     0.000 C 
ENDROOT
BRANCH   1   2
ATOM      2  C   UNL     1      -2.039   6.929 -36.741  1.00  0.00     0.000 C 
BRANCH   2   3
ATOM      3  C   UNL     1      -2.759   7.798 -37.788  1.00  0.00     0.000 C 
BRANCH   3   4
ATOM      4  C   UNL     1      -4.019   7.127 -38.356  1.00  0.00     0.000 C 
BRANCH   4   5
ATOM      5  C   UNL     1      -4.160   5.691 -37.832  1.00  0.00     0.001 C 
BRANCH   5   6
ATOM      6  C   UNL     1      -5.613   5.180 -37.853  1.00  0.00     0.009 C 
BRANCH   6   7
ATOM      7  C   UNL     1      -5.777   3.660 -37.616  1.00  0.00     0.032 C 
ATOM      8  C   UNL     1      -4.441   2.963 -37.320  1.00  0.00     0.014 C 
BRANCH   7   9
ATOM      9  C   UNL     1      -6.738   3.425 -36.483  1.00  0.00     0.044 C 
ATOM     10  O   UNL     1      -6.315   3.098 -35.341  1.00  0.00    -0.550 OA
ATOM     11  O   UNL     1      -8.103   3.582 -36.687  1.00  0.00    -0.550 OA
ENDBRANCH   7   9
ENDBRANCH   6   7
ENDBRANCH   5   6
ENDBRANCH   4   5
ENDBRANCH   3   4
ENDBRANCH   2   3
ENDBRANCH   1   2
BRANCH   1  12
ATOM     12  C   UNL     1      -1.978   8.017 -34.378  1.00  0.00     0.000 C 
BRANCH  12  13
ATOM     13  C   UNL     1      -2.546   9.446 -34.273  1.00  0.00    -0.000 C 
BRANCH  13  14
ATOM     14  C   UNL     1      -3.944   9.637 -34.894  1.00  0.00    -0.000 C 
BRANCH  14  15
ATOM     15  C   UNL     1      -5.077   8.847 -34.209  1.00  0.00    -0.000 C 
BRANCH  15  16
ATOM     16  C   UNL     1      -5.749   7.780 -35.091  1.00  0.00    -0.000 C 
BRANCH  16  17
ATOM     17  C   UNL     1      -5.999   6.460 -34.342  1.00  0.00    -0.000 C 
BRANCH  17  18
ATOM     18  C   UNL     1      -6.560   6.682 -32.930  1.00  0.00    -0.003 C 
ATOM     19  C   UNL     1      -7.849   5.901 -32.678  1.00  0.00     0.004 C 
ENDBRANCH  17  18
ENDBRANCH  16  17
ENDBRANCH  15  16
ENDBRANCH  14  15
ENDBRANCH  13  14
ENDBRANCH  12  13
ENDBRANCH   1  12
TORSDOF 14
ENDMDL
MODEL 7
REMARK VINA RESULT:    -4.231      1.677      2.758
REMARK INTER + INTRA:          -9.598
REMARK INTER:                  -7.634
REMARK INTRA:                  -1.964
REMARK UNBOUND:                -1.904
REMARK SMILES CCCCCCCCCCCCCC[C@@H](C)C(=O)[O-]
REMARK SMILES IDX 9 1 10 2 11 3 12 4 13 5 14 6 15 7 16 8 17 9 18 10 19 11 8 12
REMARK SMILES IDX 7 13 6 14 5 15 4 16 3 17 2 18 1 19
REMARK H PARENT
REMARK Flexibility Score: inf
ROOT
ATOM      1  C   UNL     1      -2.457   7.053 -37.897  1.00  0.00     0.000 C 
ENDROOT
BRANCH   1   2
ATOM      2  C   UNL     1      -3.698   7.628 -38.607  1.00  0.00     0.000 C 
BRANCH   2   3
ATOM      3  C   UNL     1      -5.022   6.906 -38.293  1.00  0.00     0.000 C 
BRANCH   3   4
ATOM      4  C   UNL     1      -5.007   6.195 -36.932  1.00  0.00     0.000 C 
BRANCH   4   5
ATOM      5  C   UNL     1      -6.434   5.965 -36.418  1.00  0.00     0.001 C 
BRANCH   5   6
ATOM      6  C   UNL     1      -6.731   6.713 -35.104  1.00  0.00     0.009 C 
BRANCH   6   7
ATOM      7  C   UNL     1      -6.793   5.821 -33.841  1.00  0.00     0.032 C 
ATOM      8  C   UNL     1      -6.769   6.638 -32.542  1.00  0.00     0.014 C 
BRANCH   7   9
ATOM      9  C   UNL     1      -8.030   4.967 -33.885  1.00  0.00     0.044 C 
ATOM     10  O   UNL     1      -7.973   3.740 -33.603  1.00  0.00    -0.550 OA
ATOM     11  O   UNL     1      -9.252   5.533 -34.226  1.00  0.00    -0.550 OA
ENDBRANCH   7   9
ENDBRANCH   6   7
ENDBRANCH   5   6
ENDBRANCH   4   5
ENDBRANCH   3   4
ENDBRANCH   2   3
ENDBRANCH   1   2
BRANCH   1  12
ATOM     12  C   UNL     1      -1.643   8.074 -37.075  1.00  0.00     0.000 C 
BRANCH  12  13
ATOM     13  C   UNL     1      -1.234   7.595 -35.669  1.00  0.00    -0.000 C 
BRANCH  13  14
ATOM     14  C   UNL     1      -1.899   8.355 -34.504  1.00  0.00    -0.000 C 
BRANCH  14  15
ATOM     15  C   UNL     1      -3.426   8.171 -34.390  1.00  0.00    -0.000 C 
BRANCH  15  16
ATOM     16  C   UNL     1      -4.251   9.449 -34.618  1.00  0.00    -0.000 C 
BRANCH  16  17
ATOM     17  C   UNL     1      -3.397  10.631 -35.107  1.00  0.00    -0.000 C 
BRANCH  17  18
ATOM     18  C   UNL     1      -3.414  11.814 -34.127  1.00  0.00    -0.003 C 
ATOM     19  C   UNL     1      -2.340  11.700 -33.046  1.00  0.00     0.004 C 
ENDBRANCH  17  18
ENDBRANCH  16  17
ENDBRANCH  15  16
ENDBRANCH  14  15
ENDBRANCH  13  14
ENDBRANCH  12  13
ENDBRANCH   1  12
TORSDOF 14
ENDMDL
MODEL 8
REMARK VINA RESULT:    -4.218      3.105      5.813
REMARK INTER + INTRA:          -9.575
REMARK INTER:                  -8.138
REMARK INTRA:                  -1.437
REMARK UNBOUND:                -1.904
REMARK SMILES CCCCCCCCCCCCCC[C@@H](C)C(=O)[O-]
REMARK SMILES IDX 9 1 10 2 11 3 12 4 13 5 14 6 15 7 16 8 17 9 18 10 19 11 8 12
REMARK SMILES IDX 7 13 6 14 5 15 4 16 3 17 2 18 1 19
REMARK H PARENT
REMARK Flexibility Score: inf
ROOT
ATOM      1  C   UNL     1      -6.002   3.231 -36.352  1.00  0.00     0.000 C 
ENDROOT
BRANCH   1   2
ATOM      2  C   UNL     1      -4.982   3.386 -37.497  1.00  0.00     0.000 C 
BRANCH   2   3
ATOM      3  C   UNL     1      -5.471   4.216 -38.698  1.00  0.00     0.000 C 
BRANCH   3   4
ATOM      4  C   UNL     1      -4.611   5.463 -38.952  1.00  0.00     0.000 C 
BRANCH   4   5
ATOM      5  C   UNL     1      -4.200   6.125 -37.629  1.00  0.00     0.001 C 
BRANCH   5   6
ATOM      6  C   UNL     1      -2.691   6.422 -37.546  1.00  0.00     0.009 C 
BRANCH   6   7
ATOM      7  C   UNL     1      -2.315   7.680 -36.728  1.00  0.00     0.032 C 
ATOM      8  C   UNL     1      -1.137   7.432 -35.774  1.00  0.00     0.014 C 
BRANCH   7   9
ATOM      9  C   UNL     1      -1.985   8.811 -37.663  1.00  0.00     0.044 C 
ATOM     10  O   UNL     1      -1.095   8.675 -38.545  1.00  0.00    -0.550 OA
ATOM     11  O   UNL     1      -2.673  10.014 -37.567  1.00  0.00    -0.550 OA
ENDBRANCH   7   9
ENDBRANCH   6   7
ENDBRANCH   5   6
ENDBRANCH   4   5
ENDBRANCH   3   4
ENDBRANCH   2   3
ENDBRANCH   1   2
BRANCH   1  12
ATOM     12  C   UNL     1      -7.446   3.645 -36.703  1.00  0.00     0.000 C 
BRANCH  12  13
ATOM     13  C   UNL     1      -8.493   3.328 -35.617  1.00  0.00    -0.000 C 
BRANCH  13  14
ATOM     14  C   UNL     1      -8.118   3.796 -34.196  1.00  0.00    -0.000 C 
BRANCH  14  15
ATOM     15  C   UNL     1      -8.281   5.309 -33.942  1.00  0.00    -0.000 C 
BRANCH  15  16
ATOM     16  C   UNL     1      -7.771   5.794 -32.574  1.00  0.00    -0.000 C 
BRANCH  16  17
ATOM     17  C   UNL     1      -6.578   6.757 -32.691  1.00  0.00    -0.000 C 
BRANCH  17  18
ATOM     18  C   UNL     1      -6.008   6.817 -34.116  1.00  0.00    -0.003 C 
ATOM     19  C   UNL     1      -5.174   8.073 -34.365  1.00  0.00     0.004 C 
ENDBRANCH  17  18
ENDBRANCH  16  17
ENDBRANCH  15  16
ENDBRANCH  14  15
ENDBRANCH  13  14
ENDBRANCH  12  13
ENDBRANCH   1  12
TORSDOF 14
ENDMDL
MODEL 9
REMARK VINA RESULT:    -4.209      1.615      2.163
REMARK INTER + INTRA:          -9.558
REMARK INTER:                  -7.888
REMARK INTRA:                  -1.669
REMARK UNBOUND:                -1.904
REMARK SMILES CCCCCCCCCCCCCC[C@@H](C)C(=O)[O-]
REMARK SMILES IDX 9 1 10 2 11 3 12 4 13 5 14 6 15 7 16 8 17 9 18 10 19 11 8 12
REMARK SMILES IDX 7 13 6 14 5 15 4 16 3 17 2 18 1 19
REMARK H PARENT
REMARK Flexibility Score: inf
ROOT
ATOM      1  C   UNL     1      -3.840   7.027 -37.432  1.00  0.00     0.000 C 
ENDROOT
BRANCH   1   2
ATOM      2  C   UNL     1      -4.541   5.764 -37.970  1.00  0.00     0.000 C 
BRANCH   2   3
ATOM      3  C   UNL     1      -3.657   4.505 -38.034  1.00  0.00     0.000 C 
BRANCH   3   4
ATOM      4  C   UNL     1      -4.363   3.251 -37.496  1.00  0.00     0.000 C 
BRANCH   4   5
ATOM      5  C   UNL     1      -5.858   3.518 -37.270  1.00  0.00     0.001 C 
BRANCH   5   6
ATOM      6  C   UNL     1      -6.295   3.313 -35.807  1.00  0.00     0.009 C 
BRANCH   6   7
ATOM      7  C   UNL     1      -7.536   4.129 -35.373  1.00  0.00     0.032 C 
ATOM      8  C   UNL     1      -7.977   3.810 -33.938  1.00  0.00     0.014 C 
BRANCH   7   9
ATOM      9  C   UNL     1      -7.247   5.599 -35.505  1.00  0.00     0.044 C 
ATOM     10  O   UNL     1      -7.862   6.300 -36.353  1.00  0.00    -0.550 OA
ATOM     11  O   UNL     1      -6.304   6.197 -34.678  1.00  0.00    -0.550 OA
ENDBRANCH   7   9
ENDBRANCH   6   7
ENDBRANCH   5   6
ENDBRANCH   4   5
ENDBRANCH   3   4
ENDBRANCH   2   3
ENDBRANCH   1   2
BRANCH   1  12
ATOM     12  C   UNL     1      -2.404   7.247 -37.949  1.00  0.00     0.000 C 
BRANCH  12  13
ATOM     13  C   UNL     1      -1.454   7.935 -36.948  1.00  0.00    -0.000 C 
BRANCH  13  14
ATOM     14  C   UNL     1      -1.108   7.100 -35.700  1.00  0.00    -0.000 C 
BRANCH  14  15
ATOM     15  C   UNL     1      -1.366   7.802 -34.351  1.00  0.00    -0.000 C 
BRANCH  15  16
ATOM     16  C   UNL     1      -2.720   8.526 -34.246  1.00  0.00    -0.000 C 
BRANCH  16  17
ATOM     17  C   UNL     1      -2.580   9.985 -33.778  1.00  0.00    -0.000 C 
BRANCH  17  18
ATOM     18  C   UNL     1      -3.558  10.928 -34.493  1.00  0.00    -0.003 C 
ATOM     19  C   UNL     1      -3.895  10.465 -35.910  1.00  0.00     0.004 C 
ENDBRANCH  17  18
ENDBRANCH  16  17
ENDBRANCH  15  16
ENDBRANCH  14  15
ENDBRANCH  13  14
ENDBRANCH  12  13
ENDBRANCH   1  12
TORSDOF 14
ENDMDL
