MODEL 1
REMARK VINA RESULT:    -2.447      0.000      0.000
REMARK INTER + INTRA:          -2.447
REMARK INTER:                  -2.447
REMARK INTRA:                   0.000
REMARK UNBOUND:                 0.000
REMARK SMILES CC(=O)[O-]
REMARK SMILES IDX 1 1 2 2 3 3 4 4
REMARK H PARENT
REMARK Flexibility Score: inf
ROOT
ATOM      1  C   UNL     1      38.799  17.852  39.053  1.00  0.00     0.063 C 
ATOM      2  C   UNL     1      38.915  17.254  40.415  1.00  0.00     0.038 C 
ATOM      3  O   UNL     1      39.124  16.019  40.546  1.00  0.00    -0.550 OA
ATOM      4  O   UNL     1      38.848  18.065  41.540  1.00  0.00    -0.550 OA
ENDROOT
TORSDOF 0
ENDMDL
MODEL 2
REMARK VINA RESULT:    -2.223     16.695     17.063
REMARK INTER + INTRA:          -2.223
REMARK INTER:                  -2.223
REMARK INTRA:                   0.000
REMARK UNBOUND:                 0.000
REMARK SMILES CC(=O)[O-]
REMARK SMILES IDX 1 1 2 2 3 3 4 4
REMARK H PARENT
REMARK Flexibility Score: inf
ROOT
ATOM      1  C   UNL     1      30.478   6.471  47.899  1.00  0.00     0.063 C 
ATOM      2  C   UNL     1      29.302   5.917  48.631  1.00  0.00     0.038 C 
ATOM      3  O   UNL     1      29.314   5.857  49.889  1.00  0.00    -0.550 OA
ATOM      4  O   UNL     1      28.171   5.517  47.932  1.00  0.00    -0.550 OA
ENDROOT
TORSDOF 0
ENDMDL
MODEL 3
REMARK VINA RESULT:    -2.184     15.343     15.734
REMARK INTER + INTRA:          -2.184
REMARK INTER:                  -2.184
REMARK INTRA:                   0.000
REMARK UNBOUND:                 0.000
REMARK SMILES CC(=O)[O-]
REMARK SMILES IDX 1 1 2 2 3 3 4 4
REMARK H PARENT
REMARK Flexibility Score: inf
ROOT
ATOM      1  C   UNL     1      29.232   5.892  48.576  1.00  0.00     0.063 C 
ATOM      2  C   UNL     1      30.348   6.781  48.139  1.00  0.00     0.038 C 
ATOM      3  O   UNL     1      31.189   6.370  47.297  1.00  0.00    -0.550 OA
ATOM      4  O   UNL     1      30.430   8.082  48.618  1.00  0.00    -0.550 OA
ENDROOT
TORSDOF 0
ENDMDL
MODEL 4
REMARK VINA RESULT:    -2.130     15.504     15.986
REMARK INTER + INTRA:          -2.130
REMARK INTER:                  -2.130
REMARK INTRA:                   0.000
REMARK UNBOUND:                 0.000
REMARK SMILES CC(=O)[O-]
REMARK SMILES IDX 1 1 2 2 3 3 4 4
REMARK H PARENT
REMARK Flexibility Score: inf
ROOT
ATOM      1  C   UNL     1      30.151   7.896  49.002  1.00  0.00     0.063 C 
ATOM      2  C   UNL     1      30.048   6.672  48.155  1.00  0.00     0.038 C 
ATOM      3  O   UNL     1      31.014   6.328  47.424  1.00  0.00    -0.550 OA
ATOM      4  O   UNL     1      28.909   5.880  48.211  1.00  0.00    -0.550 OA
ENDROOT
TORSDOF 0
ENDMDL
MODEL 5
REMARK VINA RESULT:    -2.105      8.685      9.150
REMARK INTER + INTRA:          -2.105
REMARK INTER:                  -2.105
REMARK INTRA:                   0.000
REMARK UNBOUND:                 0.000
REMARK SMILES CC(=O)[O-]
REMARK SMILES IDX 1 1 2 2 3 3 4 4
REMARK H PARENT
REMARK Flexibility Score: inf
ROOT
ATOM      1  C   UNL     1      34.671   9.359  44.016  1.00  0.00     0.063 C 
ATOM      2  C   UNL     1      34.664  10.654  44.758  1.00  0.00     0.038 C 
ATOM      3  O   UNL     1      34.955  10.680  45.983  1.00  0.00    -0.550 OA
ATOM      4  O   UNL     1      34.390  11.839  44.088  1.00  0.00    -0.550 OA
ENDROOT
TORSDOF 0
ENDMDL
MODEL 6
REMARK VINA RESULT:    -2.061     17.939     18.199
REMARK INTER + INTRA:          -2.061
REMARK INTER:                  -2.061
REMARK INTRA:                   0.000
REMARK UNBOUND:                 0.000
REMARK SMILES CC(=O)[O-]
REMARK SMILES IDX 1 1 2 2 3 3 4 4
REMARK H PARENT
REMARK Flexibility Score: inf
ROOT
ATOM      1  C   UNL     1      24.087  10.874  35.696  1.00  0.00     0.063 C 
ATOM      2  C   UNL     1      22.602  11.016  35.710  1.00  0.00     0.038 C 
ATOM      3  O   UNL     1      22.079  12.159  35.774  1.00  0.00    -0.550 OA
ATOM      4  O   UNL     1      21.794   9.893  35.598  1.00  0.00    -0.550 OA
ENDROOT
TORSDOF 0
ENDMDL
MODEL 7
REMARK VINA RESULT:    -2.040      9.159      9.589
REMARK INTER + INTRA:          -2.040
REMARK INTER:                  -2.040
REMARK INTRA:                   0.000
REMARK UNBOUND:                 0.000
REMARK SMILES CC(=O)[O-]
REMARK SMILES IDX 1 1 2 2 3 3 4 4
REMARK H PARENT
REMARK Flexibility Score: inf
ROOT
ATOM      1  C   UNL     1      34.388  11.416  44.088  1.00  0.00     0.063 C 
ATOM      2  C   UNL     1      34.572  10.080  44.727  1.00  0.00     0.038 C 
ATOM      3  O   UNL     1      34.305   9.923  45.948  1.00  0.00    -0.550 OA
ATOM      4  O   UNL     1      34.985   8.995  43.966  1.00  0.00    -0.550 OA
ENDROOT
TORSDOF 0
ENDMDL
MODEL 8
REMARK VINA RESULT:    -2.002     17.985     18.226
REMARK INTER + INTRA:          -2.002
REMARK INTER:                  -2.002
REMARK INTRA:                   0.000
REMARK UNBOUND:                 0.000
REMARK SMILES CC(=O)[O-]
REMARK SMILES IDX 1 1 2 2 3 3 4 4
REMARK H PARENT
REMARK Flexibility Score: inf
ROOT
ATOM      1  C   UNL     1      21.640   9.978  35.619  1.00  0.00     0.063 C 
ATOM      2  C   UNL     1      22.583  11.134  35.646  1.00  0.00     0.038 C 
ATOM      3  O   UNL     1      22.145  12.301  35.821  1.00  0.00    -0.550 OA
ATOM      4  O   UNL     1      23.950  10.920  35.532  1.00  0.00    -0.550 OA
ENDROOT
TORSDOF 0
ENDMDL
MODEL 9
REMARK VINA RESULT:    -1.951     17.087     17.452
REMARK INTER + INTRA:          -1.951
REMARK INTER:                  -1.951
REMARK INTRA:                   0.000
REMARK UNBOUND:                 0.000
REMARK SMILES CC(=O)[O-]
REMARK SMILES IDX 1 1 2 2 3 3 4 4
REMARK H PARENT
REMARK Flexibility Score: inf
ROOT
ATOM      1  C   UNL     1      35.532   0.645  37.847  1.00  0.00     0.063 C 
ATOM      2  C   UNL     1      34.310   0.879  37.023  1.00  0.00     0.038 C 
ATOM      3  O   UNL     1      33.221   0.332  37.339  1.00  0.00    -0.550 OA
ATOM      4  O   UNL     1      34.358   1.743  35.937  1.00  0.00    -0.550 OA
ENDROOT
TORSDOF 0
ENDMDL
