MODEL 1
REMARK VINA RESULT:    33.385      0.000      0.000
REMARK INTER + INTRA:          37.981
REMARK INTER:                  38.264
REMARK INTRA:                  -0.282
REMARK UNBOUND:                -0.282
REMARK SMILES O=C1C[C@@H](c2ccc(O)cc2)Oc2cc(O)cc(O)c21
REMARK SMILES IDX 3 1 4 2 12 3 13 4 14 5 15 6 17 7 18 8 20 9 2 10 1 11 5 12
REMARK SMILES IDX 6 13 11 14 7 15 10 16 8 17 9 18 19 20 16 22
REMARK H PARENT 9 19 19 21 16 23
REMARK Flexibility Score: inf
ROOT
ATOM      1  C   UNL     1      15.457  48.440  60.610  1.00  0.00     0.131 C 
ATOM      2  C   UNL     1      16.463  48.759  59.497  1.00  0.00     0.211 C 
ATOM      3  O   UNL     1      16.146  50.008  58.874  1.00  0.00    -0.484 OA
ATOM      4  C   UNL     1      15.693  51.120  59.598  1.00  0.00     0.138 A 
ATOM      5  C   UNL     1      15.670  52.369  58.974  1.00  0.00     0.093 A 
ATOM      6  C   UNL     1      15.238  53.499  59.675  1.00  0.00     0.123 A 
ATOM      7  C   UNL     1      14.799  53.371  60.994  1.00  0.00     0.093 A 
ATOM      8  C   UNL     1      14.775  52.122  61.625  1.00  0.00     0.133 A 
ATOM      9  C   UNL     1      15.258  50.979  60.934  1.00  0.00     0.102 A 
ATOM     10  C   UNL     1      15.345  49.622  61.526  1.00  0.00     0.174 C 
ATOM     11  O   UNL     1      15.383  49.443  62.772  1.00  0.00    -0.294 OA
ENDROOT
BRANCH   2  12
ATOM     12  C   UNL     1      16.485  47.658  58.465  1.00  0.00    -0.007 A 
ATOM     13  C   UNL     1      17.657  47.399  57.731  1.00  0.00     0.011 A 
ATOM     14  C   UNL     1      15.359  46.843  58.264  1.00  0.00     0.011 A 
ATOM     15  C   UNL     1      17.690  46.361  56.797  1.00  0.00     0.046 A 
ATOM     16  C   UNL     1      15.395  45.804  57.329  1.00  0.00     0.046 A 
ATOM     17  C   UNL     1      16.561  45.562  56.591  1.00  0.00     0.115 A 
BRANCH  17  18
ATOM     18  O   UNL     1      16.609  44.530  55.657  1.00  0.00    -0.508 OA
ATOM     19  H   UNL     1      17.291  43.784  55.725  1.00  0.00     0.293 HD
ENDBRANCH  17  18
ENDBRANCH   2  12
BRANCH   8  20
ATOM     20  O   UNL     1      14.234  52.062  62.912  1.00  0.00    -0.507 OA
ATOM     21  H   UNL     1      14.257  51.240  63.497  1.00  0.00     0.293 HD
ENDBRANCH   8  20
BRANCH   6  22
ATOM     22  O   UNL     1      15.233  54.752  59.067  1.00  0.00    -0.508 OA
ATOM     23  H   UNL     1      15.007  55.592  59.586  1.00  0.00     0.293 HD
ENDBRANCH   6  22
TORSDOF 4
ENDMDL
MODEL 2
REMARK VINA RESULT:    33.524      1.706      2.716
REMARK INTER + INTRA:          38.142
REMARK INTER:                  38.436
REMARK INTRA:                  -0.294
REMARK UNBOUND:                -0.282
REMARK SMILES O=C1C[C@@H](c2ccc(O)cc2)Oc2cc(O)cc(O)c21
REMARK SMILES IDX 3 1 4 2 12 3 13 4 14 5 15 6 17 7 18 8 20 9 2 10 1 11 5 12
REMARK SMILES IDX 6 13 11 14 7 15 10 16 8 17 9 18 19 20 16 22
REMARK H PARENT 9 19 19 21 16 23
REMARK Flexibility Score: inf
ROOT
ATOM      1  C   UNL     1      15.053  50.143  57.968  1.00  0.00     0.131 C 
ATOM      2  C   UNL     1      15.596  49.098  58.952  1.00  0.00     0.211 C 
ATOM      3  O   UNL     1      16.638  49.657  59.757  1.00  0.00    -0.484 OA
ATOM      4  C   UNL     1      16.589  50.967  60.253  1.00  0.00     0.138 A 
ATOM      5  C   UNL     1      17.494  51.348  61.247  1.00  0.00     0.093 A 
ATOM      6  C   UNL     1      17.459  52.643  61.772  1.00  0.00     0.123 A 
ATOM      7  C   UNL     1      16.537  53.567  61.280  1.00  0.00     0.093 A 
ATOM      8  C   UNL     1      15.648  53.219  60.256  1.00  0.00     0.133 A 
ATOM      9  C   UNL     1      15.646  51.891  59.752  1.00  0.00     0.102 A 
ATOM     10  C   UNL     1      14.705  51.392  58.720  1.00  0.00     0.174 C 
ATOM     11  O   UNL     1      13.602  51.958  58.500  1.00  0.00    -0.294 OA
ENDROOT
BRANCH   2  12
ATOM     12  C   UNL     1      16.107  47.884  58.215  1.00  0.00    -0.007 A 
ATOM     13  C   UNL     1      15.400  46.670  58.275  1.00  0.00     0.011 A 
ATOM     14  C   UNL     1      17.260  47.965  57.416  1.00  0.00     0.011 A 
ATOM     15  C   UNL     1      15.854  45.553  57.569  1.00  0.00     0.046 A 
ATOM     16  C   UNL     1      17.711  46.846  56.710  1.00  0.00     0.046 A 
ATOM     17  C   UNL     1      17.010  45.636  56.787  1.00  0.00     0.115 A 
BRANCH  17  18
ATOM     18  O   UNL     1      17.451  44.514  56.088  1.00  0.00    -0.508 OA
ATOM     19  H   UNL     1      17.044  44.250  55.199  1.00  0.00     0.293 HD
ENDBRANCH  17  18
ENDBRANCH   2  12
BRANCH   8  20
ATOM     20  O   UNL     1      14.820  54.226  59.753  1.00  0.00    -0.507 OA
ATOM     21  H   UNL     1      13.960  54.522  60.190  1.00  0.00     0.293 HD
ENDBRANCH   8  20
BRANCH   6  22
ATOM     22  O   UNL     1      18.344  53.024  62.779  1.00  0.00    -0.508 OA
ATOM     23  H   UNL     1      18.218  52.721  63.737  1.00  0.00     0.293 HD
ENDBRANCH   6  22
TORSDOF 4
ENDMDL
MODEL 3
REMARK VINA RESULT:    34.078      1.686      2.707
REMARK INTER + INTRA:          38.776
REMARK INTER:                  39.091
REMARK INTRA:                  -0.315
REMARK UNBOUND:                -0.282
REMARK SMILES O=C1C[C@@H](c2ccc(O)cc2)Oc2cc(O)cc(O)c21
REMARK SMILES IDX 3 1 4 2 12 3 13 4 14 5 15 6 17 7 18 8 20 9 2 10 1 11 5 12
REMARK SMILES IDX 6 13 11 14 7 15 10 16 8 17 9 18 19 20 16 22
REMARK H PARENT 9 19 19 21 16 23
REMARK Flexibility Score: inf
ROOT
ATOM      1  C   UNL     1      17.989  49.714  59.174  1.00  0.00     0.131 C 
ATOM      2  C   UNL     1      16.611  49.360  58.599  1.00  0.00     0.211 C 
ATOM      3  O   UNL     1      15.594  49.521  59.592  1.00  0.00    -0.484 OA
ATOM      4  C   UNL     1      15.596  50.580  60.511  1.00  0.00     0.138 A 
ATOM      5  C   UNL     1      14.443  50.829  61.259  1.00  0.00     0.093 A 
ATOM      6  C   UNL     1      14.410  51.887  62.172  1.00  0.00     0.123 A 
ATOM      7  C   UNL     1      15.545  52.678  62.359  1.00  0.00     0.093 A 
ATOM      8  C   UNL     1      16.725  52.420  61.650  1.00  0.00     0.133 A 
ATOM      9  C   UNL     1      16.748  51.378  60.686  1.00  0.00     0.102 A 
ATOM     10  C   UNL     1      17.917  51.061  59.829  1.00  0.00     0.174 C 
ATOM     11  O   UNL     1      18.817  51.910  59.596  1.00  0.00    -0.294 OA
ENDROOT
BRANCH   2  12
ATOM     12  C   UNL     1      16.599  47.946  58.072  1.00  0.00    -0.007 A 
ATOM     13  C   UNL     1      15.458  47.141  58.233  1.00  0.00     0.011 A 
ATOM     14  C   UNL     1      17.702  47.437  57.365  1.00  0.00     0.011 A 
ATOM     15  C   UNL     1      15.433  45.841  57.719  1.00  0.00     0.046 A 
ATOM     16  C   UNL     1      17.673  46.137  56.851  1.00  0.00     0.046 A 
ATOM     17  C   UNL     1      16.538  45.335  57.029  1.00  0.00     0.115 A 
BRANCH  17  18
ATOM     18  O   UNL     1      16.499  44.038  56.522  1.00  0.00    -0.508 OA
ATOM     19  H   UNL     1      17.232  43.681  55.921  1.00  0.00     0.293 HD
ENDBRANCH  17  18
ENDBRANCH   2  12
BRANCH   8  20
ATOM     20  O   UNL     1      17.844  53.196  61.962  1.00  0.00    -0.507 OA
ATOM     21  H   UNL     1      18.476  53.579  61.274  1.00  0.00     0.293 HD
ENDBRANCH   8  20
BRANCH   6  22
ATOM     22  O   UNL     1      13.256  52.156  62.905  1.00  0.00    -0.508 OA
ATOM     23  H   UNL     1      13.225  52.904  63.588  1.00  0.00     0.293 HD
ENDBRANCH   6  22
TORSDOF 4
ENDMDL
MODEL 4
REMARK VINA RESULT:    36.195      1.818      7.156
REMARK INTER + INTRA:          41.203
REMARK INTER:                  41.496
REMARK INTRA:                  -0.293
REMARK UNBOUND:                -0.282
REMARK SMILES O=C1C[C@@H](c2ccc(O)cc2)Oc2cc(O)cc(O)c21
REMARK SMILES IDX 3 1 4 2 12 3 13 4 14 5 15 6 17 7 18 8 20 9 2 10 1 11 5 12
REMARK SMILES IDX 6 13 11 14 7 15 10 16 8 17 9 18 19 20 16 22
REMARK H PARENT 9 19 19 21 16 23
REMARK Flexibility Score: inf
ROOT
ATOM      1  C   UNL     1      14.936  47.301  58.829  1.00  0.00     0.131 C 
ATOM      2  C   UNL     1      15.602  48.434  58.038  1.00  0.00     0.211 C 
ATOM      3  O   UNL     1      16.904  48.041  57.593  1.00  0.00    -0.484 OA
ATOM      4  C   UNL     1      17.184  46.749  57.125  1.00  0.00     0.138 A 
ATOM      5  C   UNL     1      18.389  46.519  56.456  1.00  0.00     0.093 A 
ATOM      6  C   UNL     1      18.689  45.246  55.965  1.00  0.00     0.123 A 
ATOM      7  C   UNL     1      17.796  44.194  56.171  1.00  0.00     0.093 A 
ATOM      8  C   UNL     1      16.602  44.393  56.874  1.00  0.00     0.133 A 
ATOM      9  C   UNL     1      16.269  45.695  57.333  1.00  0.00     0.102 A 
ATOM     10  C   UNL     1      15.002  46.036  58.027  1.00  0.00     0.174 C 
ATOM     11  O   UNL     1      13.971  45.322  57.913  1.00  0.00    -0.294 OA
ENDROOT
BRANCH   2  12
ATOM     12  C   UNL     1      15.699  49.686  58.876  1.00  0.00    -0.007 A 
ATOM     13  C   UNL     1      14.911  50.808  58.565  1.00  0.00     0.011 A 
ATOM     14  C   UNL     1      16.531  49.727  60.007  1.00  0.00     0.011 A 
ATOM     15  C   UNL     1      14.975  51.957  59.357  1.00  0.00     0.046 A 
ATOM     16  C   UNL     1      16.593  50.878  60.798  1.00  0.00     0.046 A 
ATOM     17  C   UNL     1      15.816  51.997  60.473  1.00  0.00     0.115 A 
BRANCH  17  18
ATOM     18  O   UNL     1      15.870  53.150  61.254  1.00  0.00    -0.508 OA
ATOM     19  H   UNL     1      16.171  54.037  60.869  1.00  0.00     0.293 HD
ENDBRANCH  17  18
ENDBRANCH   2  12
BRANCH   8  20
ATOM     20  O   UNL     1      15.806  43.271  57.120  1.00  0.00    -0.507 OA
ATOM     21  H   UNL     1      16.128  42.443  57.599  1.00  0.00     0.293 HD
ENDBRANCH   8  20
BRANCH   6  22
ATOM     22  O   UNL     1      19.879  45.013  55.277  1.00  0.00    -0.508 OA
ATOM     23  H   UNL     1      20.780  45.144  55.718  1.00  0.00     0.293 HD
ENDBRANCH   6  22
TORSDOF 4
ENDMDL
