MODEL 1
REMARK VINA RESULT:     2.909      0.000      0.000
REMARK INTER + INTRA:           2.994
REMARK INTER:                   2.994
REMARK INTRA:                   0.000
REMARK UNBOUND:                 0.000
REMARK SMILES C[C@@H]1CC[C@]2(OC1)O[C@H]1C[C@H]3[C@H]4CC=C5C[C@H](O)CC[C@]5(C)[C@H]4CC[C@@]3(C)[C@@H]1[C@H]2C
REMARK SMILES IDX 1 1 2 2 3 3 4 4 5 5 29 6 28 7 9 8 8 9 10 10 11 11 26 12
REMARK SMILES IDX 25 13 24 14 23 15 12 16 13 17 14 18 15 19 21 20 20 21 19 22
REMARK SMILES IDX 17 23 16 24 22 25 27 26 30 27 6 28 7 29 18 30
REMARK H PARENT 18 31
REMARK Flexibility Score: inf
ROOT
ATOM      1  C   UNL     1       9.707   9.342  68.934  1.00  0.00     0.010 C 
ATOM      2  C   UNL     1       9.299  10.561  68.094  1.00  0.00     0.012 C 
ATOM      3  C   UNL     1      10.490  11.095  67.284  1.00  0.00     0.011 C 
ATOM      4  C   UNL     1      11.478  11.845  68.174  1.00  0.00     0.066 C 
ATOM      5  C   UNL     1      10.751  12.868  69.061  1.00  0.00     0.171 C 
ATOM      6  C   UNL     1      11.789  13.557  70.031  1.00  0.00     0.052 C 
ATOM      7  C   UNL     1      11.272  14.955  69.919  1.00  0.00     0.033 C 
ATOM      8  C   UNL     1      11.000  14.988  68.448  1.00  0.00     0.126 C 
ATOM      9  O   UNL     1      10.179  13.885  68.221  1.00  0.00    -0.346 OA
ATOM     10  C   UNL     1      10.497  16.397  68.145  1.00  0.00     0.037 C 
ATOM     11  C   UNL     1      10.818  17.200  69.447  1.00  0.00     0.002 C 
ATOM     12  C   UNL     1      11.902  16.324  70.183  1.00  0.00    -0.024 C 
ATOM     13  C   UNL     1      12.060  16.722  71.665  1.00  0.00     0.008 C 
ATOM     14  C   UNL     1      10.759  16.914  72.416  1.00  0.00     0.005 C 
ATOM     15  C   UNL     1       9.799  17.945  71.749  1.00  0.00     0.003 C 
ATOM     16  C   UNL     1       9.507  17.525  70.276  1.00  0.00     0.000 C 
ATOM     17  C   UNL     1       8.311  16.495  70.178  1.00  0.00     0.031 C 
ATOM     18  C   UNL     1       7.795  15.963  71.493  1.00  0.00    -0.027 C 
ATOM     19  C   UNL     1       7.757  16.735  72.600  1.00  0.00    -0.065 C 
ATOM     20  C   UNL     1       8.477  18.080  72.607  1.00  0.00    -0.008 C 
ATOM     21  C   UNL     1       7.430  19.123  72.062  1.00  0.00     0.014 C 
ATOM     22  C   UNL     1       6.043  19.038  72.788  1.00  0.00     0.033 C 
ATOM     23  C   UNL     1       5.489  17.596  73.005  1.00  0.00     0.118 C 
ATOM     24  C   UNL     1       6.578  16.610  73.513  1.00  0.00     0.063 C 
ATOM     25  C   UNL     1       8.856  18.535  74.035  1.00  0.00     0.016 C 
ATOM     26  C   UNL     1      13.320  16.457  69.527  1.00  0.00     0.012 C 
ATOM     27  C   UNL     1      11.801  13.020  71.480  1.00  0.00     0.014 C 
ATOM     28  O   UNL     1       9.715  12.225  69.820  1.00  0.00    -0.349 OA
ATOM     29  C   UNL     1       8.717  11.680  68.972  1.00  0.00     0.167 C 
ENDROOT
BRANCH  23  30
ATOM     30  O   UNL     1       4.878  17.154  71.805  1.00  0.00    -0.393 OA
ATOM     31  H   UNL     1       5.130  16.209  71.638  1.00  0.00     0.210 HD
ENDBRANCH  23  30
TORSDOF 1
ENDMDL
MODEL 2
REMARK VINA RESULT:     3.267      0.576      0.577
REMARK INTER + INTRA:           3.363
REMARK INTER:                   3.363
REMARK INTRA:                   0.000
REMARK UNBOUND:                 0.000
REMARK SMILES C[C@@H]1CC[C@]2(OC1)O[C@H]1C[C@H]3[C@H]4CC=C5C[C@H](O)CC[C@]5(C)[C@H]4CC[C@@]3(C)[C@@H]1[C@H]2C
REMARK SMILES IDX 1 1 2 2 3 3 4 4 5 5 29 6 28 7 9 8 8 9 10 10 11 11 26 12
REMARK SMILES IDX 25 13 24 14 23 15 12 16 13 17 14 18 15 19 21 20 20 21 19 22
REMARK SMILES IDX 17 23 16 24 22 25 27 26 30 27 6 28 7 29 18 30
REMARK H PARENT 18 31
REMARK Flexibility Score: inf
ROOT
ATOM      1  C   UNL     1       9.790   9.751  68.421  1.00  0.00     0.010 C 
ATOM      2  C   UNL     1       9.547  11.094  67.715  1.00  0.00     0.012 C 
ATOM      3  C   UNL     1      10.857  11.668  67.157  1.00  0.00     0.011 C 
ATOM      4  C   UNL     1      11.735  12.237  68.269  1.00  0.00     0.066 C 
ATOM      5  C   UNL     1      10.926  13.167  69.186  1.00  0.00     0.171 C 
ATOM      6  C   UNL     1      11.841  13.661  70.375  1.00  0.00     0.052 C 
ATOM      7  C   UNL     1      11.393  15.087  70.393  1.00  0.00     0.033 C 
ATOM      8  C   UNL     1      11.331  15.334  68.919  1.00  0.00     0.126 C 
ATOM      9  O   UNL     1      10.513  14.317  68.430  1.00  0.00    -0.346 OA
ATOM     10  C   UNL     1      10.924  16.796  68.755  1.00  0.00     0.037 C 
ATOM     11  C   UNL     1      11.086  17.397  70.188  1.00  0.00     0.002 C 
ATOM     12  C   UNL     1      12.025  16.372  70.932  1.00  0.00    -0.024 C 
ATOM     13  C   UNL     1      11.987  16.556  72.462  1.00  0.00     0.008 C 
ATOM     14  C   UNL     1      10.600  16.713  73.052  1.00  0.00     0.005 C 
ATOM     15  C   UNL     1       9.780  17.875  72.414  1.00  0.00     0.003 C 
ATOM     16  C   UNL     1       9.683  17.675  70.871  1.00  0.00     0.000 C 
ATOM     17  C   UNL     1       8.478  16.734  70.468  1.00  0.00     0.031 C 
ATOM     18  C   UNL     1       7.765  16.056  71.612  1.00  0.00    -0.027 C 
ATOM     19  C   UNL     1       7.598  16.672  72.802  1.00  0.00    -0.065 C 
ATOM     20  C   UNL     1       8.356  17.963  73.097  1.00  0.00    -0.008 C 
ATOM     21  C   UNL     1       7.432  19.125  72.570  1.00  0.00     0.014 C 
ATOM     22  C   UNL     1       5.955  19.016  73.083  1.00  0.00     0.033 C 
ATOM     23  C   UNL     1       5.326  17.590  73.017  1.00  0.00     0.118 C 
ATOM     24  C   UNL     1       6.299  16.488  73.522  1.00  0.00     0.063 C 
ATOM     25  C   UNL     1       8.545  18.199  74.613  1.00  0.00     0.016 C 
ATOM     26  C   UNL     1      13.525  16.517  70.497  1.00  0.00     0.012 C 
ATOM     27  C   UNL     1      11.630  12.933  71.721  1.00  0.00     0.014 C 
ATOM     28  O   UNL     1       9.772  12.483  69.700  1.00  0.00    -0.349 OA
ATOM     29  C   UNL     1       8.885  12.112  68.656  1.00  0.00     0.167 C 
ENDROOT
BRANCH  23  30
ATOM     30  O   UNL     1       4.875  17.348  71.695  1.00  0.00    -0.393 OA
ATOM     31  H   UNL     1       5.468  16.679  71.264  1.00  0.00     0.210 HD
ENDBRANCH  23  30
TORSDOF 1
ENDMDL
MODEL 3
REMARK VINA RESULT:     4.387      2.570      3.818
REMARK INTER + INTRA:           4.515
REMARK INTER:                   4.515
REMARK INTRA:                   0.000
REMARK UNBOUND:                 0.000
REMARK SMILES C[C@@H]1CC[C@]2(OC1)O[C@H]1C[C@H]3[C@H]4CC=C5C[C@H](O)CC[C@]5(C)[C@H]4CC[C@@]3(C)[C@@H]1[C@H]2C
REMARK SMILES IDX 1 1 2 2 3 3 4 4 5 5 29 6 28 7 9 8 8 9 10 10 11 11 26 12
REMARK SMILES IDX 25 13 24 14 23 15 12 16 13 17 14 18 15 19 21 20 20 21 19 22
REMARK SMILES IDX 17 23 16 24 22 25 27 26 30 27 6 28 7 29 18 30
REMARK H PARENT 18 31
REMARK Flexibility Score: inf
ROOT
ATOM      1  C   UNL     1      16.553  14.252  70.837  1.00  0.00     0.010 C 
ATOM      2  C   UNL     1      15.262  13.548  70.396  1.00  0.00     0.012 C 
ATOM      3  C   UNL     1      15.012  13.745  68.893  1.00  0.00     0.011 C 
ATOM      4  C   UNL     1      14.527  15.160  68.588  1.00  0.00     0.066 C 
ATOM      5  C   UNL     1      13.374  15.558  69.522  1.00  0.00     0.171 C 
ATOM      6  C   UNL     1      12.962  17.056  69.242  1.00  0.00     0.052 C 
ATOM      7  C   UNL     1      11.480  16.874  69.316  1.00  0.00     0.033 C 
ATOM      8  C   UNL     1      11.364  15.578  68.577  1.00  0.00     0.126 C 
ATOM      9  O   UNL     1      12.240  14.720  69.240  1.00  0.00    -0.346 OA
ATOM     10  C   UNL     1       9.873  15.259  68.517  1.00  0.00     0.037 C 
ATOM     11  C   UNL     1       9.184  16.588  68.967  1.00  0.00     0.002 C 
ATOM     12  C   UNL     1      10.300  17.685  68.774  1.00  0.00    -0.024 C 
ATOM     13  C   UNL     1       9.970  18.987  69.532  1.00  0.00     0.008 C 
ATOM     14  C   UNL     1       9.487  18.793  70.954  1.00  0.00     0.005 C 
ATOM     15  C   UNL     1       8.251  17.852  71.070  1.00  0.00     0.003 C 
ATOM     16  C   UNL     1       8.571  16.469  70.423  1.00  0.00     0.000 C 
ATOM     17  C   UNL     1       9.289  15.491  71.437  1.00  0.00     0.031 C 
ATOM     18  C   UNL     1       9.702  16.100  72.755  1.00  0.00    -0.027 C 
ATOM     19  C   UNL     1       8.956  17.053  73.355  1.00  0.00    -0.065 C 
ATOM     20  C   UNL     1       7.819  17.718  72.586  1.00  0.00    -0.008 C 
ATOM     21  C   UNL     1       6.552  16.818  72.844  1.00  0.00     0.014 C 
ATOM     22  C   UNL     1       6.318  16.508  74.362  1.00  0.00     0.033 C 
ATOM     23  C   UNL     1       7.591  16.102  75.168  1.00  0.00     0.118 C 
ATOM     24  C   UNL     1       8.812  17.009  74.844  1.00  0.00     0.063 C 
ATOM     25  C   UNL     1       7.485  19.125  73.133  1.00  0.00     0.016 C 
ATOM     26  C   UNL     1      10.497  18.076  67.269  1.00  0.00     0.012 C 
ATOM     27  C   UNL     1      13.504  18.094  70.250  1.00  0.00     0.014 C 
ATOM     28  O   UNL     1      13.765  15.400  70.895  1.00  0.00    -0.349 OA
ATOM     29  C   UNL     1      14.049  14.043  71.199  1.00  0.00     0.167 C 
ENDROOT
BRANCH  23  30
ATOM     30  O   UNL     1       7.862  14.730  74.937  1.00  0.00    -0.393 OA
ATOM     31  H   UNL     1       8.836  14.569  75.028  1.00  0.00     0.210 HD
ENDBRANCH  23  30
TORSDOF 1
ENDMDL
MODEL 4
REMARK VINA RESULT:     5.190      1.584      6.805
REMARK INTER + INTRA:           5.342
REMARK INTER:                   5.342
REMARK INTRA:                   0.000
REMARK UNBOUND:                 0.000
REMARK SMILES C[C@@H]1CC[C@]2(OC1)O[C@H]1C[C@H]3[C@H]4CC=C5C[C@H](O)CC[C@]5(C)[C@H]4CC[C@@]3(C)[C@@H]1[C@H]2C
REMARK SMILES IDX 1 1 2 2 3 3 4 4 5 5 29 6 28 7 9 8 8 9 10 10 11 11 26 12
REMARK SMILES IDX 25 13 24 14 23 15 12 16 13 17 14 18 15 19 21 20 20 21 19 22
REMARK SMILES IDX 17 23 16 24 22 25 27 26 30 27 6 28 7 29 18 30
REMARK H PARENT 18 31
REMARK Flexibility Score: inf
ROOT
ATOM      1  C   UNL     1       5.022  19.115  72.196  1.00  0.00     0.010 C 
ATOM      2  C   UNL     1       5.604  17.907  72.945  1.00  0.00     0.012 C 
ATOM      3  C   UNL     1       6.553  18.357  74.065  1.00  0.00     0.011 C 
ATOM      4  C   UNL     1       7.887  18.845  73.503  1.00  0.00     0.066 C 
ATOM      5  C   UNL     1       8.459  17.836  72.496  1.00  0.00     0.171 C 
ATOM      6  C   UNL     1       9.787  18.415  71.867  1.00  0.00     0.052 C 
ATOM      7  C   UNL     1      10.588  17.153  71.893  1.00  0.00     0.033 C 
ATOM      8  C   UNL     1      10.178  16.640  73.238  1.00  0.00     0.126 C 
ATOM      9  O   UNL     1       8.785  16.621  73.192  1.00  0.00    -0.346 OA
ATOM     10  C   UNL     1      10.959  15.347  73.451  1.00  0.00     0.037 C 
ATOM     11  C   UNL     1      12.033  15.362  72.317  1.00  0.00     0.002 C 
ATOM     12  C   UNL     1      12.092  16.871  71.862  1.00  0.00    -0.024 C 
ATOM     13  C   UNL     1      12.784  17.038  70.494  1.00  0.00     0.008 C 
ATOM     14  C   UNL     1      12.340  16.055  69.430  1.00  0.00     0.005 C 
ATOM     15  C   UNL     1      12.489  14.564  69.858  1.00  0.00     0.003 C 
ATOM     16  C   UNL     1      11.704  14.307  71.181  1.00  0.00     0.000 C 
ATOM     17  C   UNL     1      10.181  13.977  70.914  1.00  0.00     0.031 C 
ATOM     18  C   UNL     1       9.714  14.146  69.489  1.00  0.00    -0.027 C 
ATOM     19  C   UNL     1      10.522  13.865  68.444  1.00  0.00    -0.065 C 
ATOM     20  C   UNL     1      12.008  13.619  68.684  1.00  0.00    -0.008 C 
ATOM     21  C   UNL     1      12.141  12.076  68.970  1.00  0.00     0.014 C 
ATOM     22  C   UNL     1      11.421  11.188  67.897  1.00  0.00     0.033 C 
ATOM     23  C   UNL     1       9.995  11.663  67.481  1.00  0.00     0.118 C 
ATOM     24  C   UNL     1       9.925  13.198  67.245  1.00  0.00     0.063 C 
ATOM     25  C   UNL     1      12.861  13.913  67.428  1.00  0.00     0.016 C 
ATOM     26  C   UNL     1      12.880  17.767  72.879  1.00  0.00     0.012 C 
ATOM     27  C   UNL     1       9.643  19.022  70.453  1.00  0.00     0.014 C 
ATOM     28  O   UNL     1       7.500  17.561  71.462  1.00  0.00    -0.349 OA
ATOM     29  C   UNL     1       6.334  16.951  71.990  1.00  0.00     0.167 C 
ENDROOT
BRANCH  23  30
ATOM     30  O   UNL     1       9.063  11.224  68.456  1.00  0.00    -0.393 OA
ATOM     31  H   UNL     1       8.388  11.936  68.607  1.00  0.00     0.210 HD
ENDBRANCH  23  30
TORSDOF 1
ENDMDL
