MODEL 1
REMARK VINA RESULT:    -6.123      0.000      0.000
REMARK INTER + INTRA:          -6.660
REMARK INTER:                  -6.660
REMARK INTRA:                   0.000
REMARK UNBOUND:                 0.000
REMARK SMILES Cc1cc(O)c2c(c1)C(=O)c1cc(O)cc(O)c1C2=O
REMARK SMILES IDX 1 1 2 2 8 3 7 4 6 5 4 6 3 7 19 8 20 9 18 10 11 11 9 12 10 13
REMARK SMILES IDX 12 14 13 15 15 16 16 17 5 18 17 20 14 22
REMARK H PARENT 5 19 17 21 14 23
REMARK Flexibility Score: inf
ROOT
ATOM      1  C   UNL     1       5.953  -1.151  47.062  1.00  0.00     0.044 C 
ATOM      2  C   UNL     1       6.501   0.228  47.284  1.00  0.00    -0.047 A 
ATOM      3  C   UNL     1       6.177   1.265  46.401  1.00  0.00     0.016 A 
ATOM      4  C   UNL     1       6.708   2.553  46.584  1.00  0.00     0.038 A 
ATOM      5  C   UNL     1       7.576   2.807  47.669  1.00  0.00     0.076 A 
ATOM      6  C   UNL     1       7.966   1.734  48.510  1.00  0.00     0.127 A 
ATOM      7  C   UNL     1       7.410   0.465  48.320  1.00  0.00     0.050 A 
ATOM      8  C   UNL     1       7.999   4.211  47.917  1.00  0.00     0.201 C 
ATOM      9  O   UNL     1       8.254   4.590  49.091  1.00  0.00    -0.288 OA
ATOM     10  C   UNL     1       7.936   5.205  46.815  1.00  0.00     0.076 A 
ATOM     11  C   UNL     1       7.068   4.946  45.729  1.00  0.00     0.041 A 
ATOM     12  C   UNL     1       6.367   3.643  45.641  1.00  0.00     0.194 C 
ATOM     13  O   UNL     1       5.497   3.455  44.745  1.00  0.00    -0.289 OA
ATOM     14  C   UNL     1       6.878   5.923  44.738  1.00  0.00     0.059 A 
ATOM     15  C   UNL     1       7.551   7.145  44.808  1.00  0.00     0.120 A 
ATOM     16  C   UNL     1       8.439   7.389  45.856  1.00  0.00     0.093 A 
ATOM     17  C   UNL     1       8.662   6.424  46.844  1.00  0.00     0.131 A 
ENDROOT
BRANCH   6  18
ATOM     18  O   UNL     1       8.925   1.873  49.516  1.00  0.00    -0.507 OA
ATOM     19  H   UNL     1       8.910   1.346  50.379  1.00  0.00     0.293 HD
ENDBRANCH   6  18
BRANCH  17  20
ATOM     20  O   UNL     1       9.632   6.704  47.809  1.00  0.00    -0.507 OA
ATOM     21  H   UNL     1      10.340   7.417  47.698  1.00  0.00     0.293 HD
ENDBRANCH  17  20
BRANCH  15  22
ATOM     22  O   UNL     1       7.356   8.122  43.833  1.00  0.00    -0.508 OA
ATOM     23  H   UNL     1       7.653   7.980  42.875  1.00  0.00     0.293 HD
ENDBRANCH  15  22
TORSDOF 3
ENDMDL
MODEL 2
REMARK VINA RESULT:    -6.013      1.664      5.617
REMARK INTER + INTRA:          -6.541
REMARK INTER:                  -6.541
REMARK INTRA:                   0.000
REMARK UNBOUND:                 0.000
REMARK SMILES Cc1cc(O)c2c(c1)C(=O)c1cc(O)cc(O)c1C2=O
REMARK SMILES IDX 1 1 2 2 8 3 7 4 6 5 4 6 3 7 19 8 20 9 18 10 11 11 9 12 10 13
REMARK SMILES IDX 12 14 13 15 15 16 16 17 5 18 17 20 14 22
REMARK H PARENT 5 19 17 21 14 23
REMARK Flexibility Score: inf
ROOT
ATOM      1  C   UNL     1       6.758   7.627  45.014  1.00  0.00     0.044 C 
ATOM      2  C   UNL     1       7.176   6.336  45.656  1.00  0.00    -0.047 A 
ATOM      3  C   UNL     1       6.511   5.146  45.342  1.00  0.00     0.016 A 
ATOM      4  C   UNL     1       6.876   3.937  45.959  1.00  0.00     0.038 A 
ATOM      5  C   UNL     1       7.925   3.920  46.906  1.00  0.00     0.076 A 
ATOM      6  C   UNL     1       8.537   5.143  47.281  1.00  0.00     0.127 A 
ATOM      7  C   UNL     1       8.171   6.330  46.640  1.00  0.00     0.050 A 
ATOM      8  C   UNL     1       8.381   2.605  47.426  1.00  0.00     0.201 C 
ATOM      9  O   UNL     1       9.581   2.452  47.775  1.00  0.00    -0.288 OA
ATOM     10  C   UNL     1       7.475   1.429  47.355  1.00  0.00     0.076 A 
ATOM     11  C   UNL     1       6.425   1.451  46.408  1.00  0.00     0.041 A 
ATOM     12  C   UNL     1       6.162   2.682  45.627  1.00  0.00     0.194 C 
ATOM     13  O   UNL     1       5.312   2.667  44.693  1.00  0.00    -0.289 OA
ATOM     14  C   UNL     1       5.634   0.306  46.216  1.00  0.00     0.059 A 
ATOM     15  C   UNL     1       5.867  -0.851  46.965  1.00  0.00     0.120 A 
ATOM     16  C   UNL     1       6.874  -0.862  47.929  1.00  0.00     0.093 A 
ATOM     17  C   UNL     1       7.663   0.271  48.154  1.00  0.00     0.131 A 
ENDROOT
BRANCH   6  18
ATOM     18  O   UNL     1       9.482   5.231  48.307  1.00  0.00    -0.507 OA
ATOM     19  H   UNL     1      10.476   5.114  48.163  1.00  0.00     0.293 HD
ENDBRANCH   6  18
BRANCH  17  20
ATOM     20  O   UNL     1       8.590   0.213  49.196  1.00  0.00    -0.507 OA
ATOM     21  H   UNL     1       8.826   1.006  49.778  1.00  0.00     0.293 HD
ENDBRANCH  17  20
BRANCH  15  22
ATOM     22  O   UNL     1       5.092  -1.992  46.768  1.00  0.00    -0.508 OA
ATOM     23  H   UNL     1       4.978  -2.404  45.849  1.00  0.00     0.293 HD
ENDBRANCH  15  22
TORSDOF 3
ENDMDL
MODEL 3
REMARK VINA RESULT:    -5.910      8.988     13.660
REMARK INTER + INTRA:          -6.428
REMARK INTER:                  -6.428
REMARK INTRA:                   0.000
REMARK UNBOUND:                 0.000
REMARK SMILES Cc1cc(O)c2c(c1)C(=O)c1cc(O)cc(O)c1C2=O
REMARK SMILES IDX 1 1 2 2 8 3 7 4 6 5 4 6 3 7 19 8 20 9 18 10 11 11 9 12 10 13
REMARK SMILES IDX 12 14 13 15 15 16 16 17 5 18 17 20 14 22
REMARK H PARENT 5 19 17 21 14 23
REMARK Flexibility Score: inf
ROOT
ATOM      1  C   UNL     1       5.147  -2.982  49.804  1.00  0.00     0.044 C 
ATOM      2  C   UNL     1       4.143  -3.893  49.159  1.00  0.00    -0.047 A 
ATOM      3  C   UNL     1       3.710  -5.045  49.824  1.00  0.00     0.016 A 
ATOM      4  C   UNL     1       2.792  -5.920  49.217  1.00  0.00     0.038 A 
ATOM      5  C   UNL     1       2.299  -5.634  47.924  1.00  0.00     0.076 A 
ATOM      6  C   UNL     1       2.806  -4.510  47.223  1.00  0.00     0.127 A 
ATOM      7  C   UNL     1       3.704  -3.644  47.855  1.00  0.00     0.050 A 
ATOM      8  C   UNL     1       1.221  -6.498  47.377  1.00  0.00     0.201 C 
ATOM      9  O   UNL     1       0.380  -6.016  46.572  1.00  0.00    -0.288 OA
ATOM     10  C   UNL     1       1.025  -7.867  47.920  1.00  0.00     0.076 A 
ATOM     11  C   UNL     1       1.522  -8.149  49.214  1.00  0.00     0.041 A 
ATOM     12  C   UNL     1       2.343  -7.142  49.924  1.00  0.00     0.194 C 
ATOM     13  O   UNL     1       2.682  -7.337  51.125  1.00  0.00    -0.289 OA
ATOM     14  C   UNL     1       1.237  -9.386  49.816  1.00  0.00     0.059 A 
ATOM     15  C   UNL     1       0.478 -10.346  49.141  1.00  0.00     0.120 A 
ATOM     16  C   UNL     1       0.022 -10.087  47.850  1.00  0.00     0.093 A 
ATOM     17  C   UNL     1       0.309  -8.872  47.219  1.00  0.00     0.131 A 
ENDROOT
BRANCH   6  18
ATOM     18  O   UNL     1       2.476  -4.238  45.894  1.00  0.00    -0.507 OA
ATOM     19  H   UNL     1       3.155  -4.200  45.146  1.00  0.00     0.293 HD
ENDBRANCH   6  18
BRANCH  17  20
ATOM     20  O   UNL     1      -0.105  -8.721  45.894  1.00  0.00    -0.507 OA
ATOM     21  H   UNL     1       0.070  -9.409  45.173  1.00  0.00     0.293 HD
ENDBRANCH  17  20
BRANCH  15  22
ATOM     22  O   UNL     1       0.184 -11.569  49.741  1.00  0.00    -0.508 OA
ATOM     23  H   UNL     1       0.276 -12.443  49.236  1.00  0.00     0.293 HD
ENDBRANCH  15  22
TORSDOF 3
ENDMDL
MODEL 4
REMARK VINA RESULT:    -5.856      1.615      3.988
REMARK INTER + INTRA:          -6.370
REMARK INTER:                  -6.370
REMARK INTRA:                   0.000
REMARK UNBOUND:                 0.000
REMARK SMILES Cc1cc(O)c2c(c1)C(=O)c1cc(O)cc(O)c1C2=O
REMARK SMILES IDX 1 1 2 2 8 3 7 4 6 5 4 6 3 7 19 8 20 9 18 10 11 11 9 12 10 13
REMARK SMILES IDX 12 14 13 15 15 16 16 17 5 18 17 20 14 22
REMARK H PARENT 5 19 17 21 14 23
REMARK Flexibility Score: inf
ROOT
ATOM      1  C   UNL     1       6.436  -3.143  49.224  1.00  0.00     0.044 C 
ATOM      2  C   UNL     1       6.281  -1.929  48.355  1.00  0.00    -0.047 A 
ATOM      3  C   UNL     1       7.232  -0.904  48.404  1.00  0.00     0.016 A 
ATOM      4  C   UNL     1       7.082   0.250  47.616  1.00  0.00     0.038 A 
ATOM      5  C   UNL     1       5.961   0.379  46.765  1.00  0.00     0.076 A 
ATOM      6  C   UNL     1       4.959  -0.625  46.784  1.00  0.00     0.127 A 
ATOM      7  C   UNL     1       5.141  -1.773  47.561  1.00  0.00     0.050 A 
ATOM      8  C   UNL     1       5.912   1.541  45.839  1.00  0.00     0.201 C 
ATOM      9  O   UNL     1       5.318   1.435  44.733  1.00  0.00    -0.288 OA
ATOM     10  C   UNL     1       6.717   2.754  46.135  1.00  0.00     0.076 A 
ATOM     11  C   UNL     1       7.836   2.622  46.988  1.00  0.00     0.041 A 
ATOM     12  C   UNL     1       8.089   1.335  47.678  1.00  0.00     0.194 C 
ATOM     13  O   UNL     1       9.153   1.172  48.339  1.00  0.00    -0.289 OA
ATOM     14  C   UNL     1       8.700   3.713  47.182  1.00  0.00     0.059 A 
ATOM     15  C   UNL     1       8.453   4.934  46.548  1.00  0.00     0.120 A 
ATOM     16  C   UNL     1       7.328   5.080  45.738  1.00  0.00     0.093 A 
ATOM     17  C   UNL     1       6.441   4.015  45.545  1.00  0.00     0.131 A 
ENDROOT
BRANCH   6  18
ATOM     18  O   UNL     1       3.759  -0.507  46.080  1.00  0.00    -0.507 OA
ATOM     19  H   UNL     1       3.699  -0.159  45.132  1.00  0.00     0.293 HD
ENDBRANCH   6  18
BRANCH  17  20
ATOM     20  O   UNL     1       5.290   4.264  44.795  1.00  0.00    -0.507 OA
ATOM     21  H   UNL     1       4.774   5.133  44.835  1.00  0.00     0.293 HD
ENDBRANCH  17  20
BRANCH  15  22
ATOM     22  O   UNL     1       9.315   6.014  46.728  1.00  0.00    -0.508 OA
ATOM     23  H   UNL     1       9.566   6.343  47.653  1.00  0.00     0.293 HD
ENDBRANCH  15  22
TORSDOF 3
ENDMDL
MODEL 5
REMARK VINA RESULT:    -5.814      9.825     13.518
REMARK INTER + INTRA:          -6.324
REMARK INTER:                  -6.324
REMARK INTRA:                   0.000
REMARK UNBOUND:                 0.000
REMARK SMILES Cc1cc(O)c2c(c1)C(=O)c1cc(O)cc(O)c1C2=O
REMARK SMILES IDX 1 1 2 2 8 3 7 4 6 5 4 6 3 7 19 8 20 9 18 10 11 11 9 12 10 13
REMARK SMILES IDX 12 14 13 15 15 16 16 17 5 18 17 20 14 22
REMARK H PARENT 5 19 17 21 14 23
REMARK Flexibility Score: inf
ROOT
ATOM      1  C   UNL     1      -0.988 -12.125  46.474  1.00  0.00     0.044 C 
ATOM      2  C   UNL     1      -0.273 -11.141  47.353  1.00  0.00    -0.047 A 
ATOM      3  C   UNL     1      -0.118  -9.812  46.941  1.00  0.00     0.016 A 
ATOM      4  C   UNL     1       0.575  -8.890  47.744  1.00  0.00     0.038 A 
ATOM      5  C   UNL     1       1.120  -9.305  48.979  1.00  0.00     0.076 A 
ATOM      6  C   UNL     1       1.033 -10.671  49.351  1.00  0.00     0.127 A 
ATOM      7  C   UNL     1       0.322 -11.566  48.545  1.00  0.00     0.050 A 
ATOM      8  C   UNL     1       1.715  -8.271  49.867  1.00  0.00     0.201 C 
ATOM      9  O   UNL     1       1.686  -8.427  51.117  1.00  0.00    -0.288 OA
ATOM     10  C   UNL     1       2.170  -6.979  49.292  1.00  0.00     0.076 A 
ATOM     11  C   UNL     1       1.623  -6.569  48.055  1.00  0.00     0.041 A 
ATOM     12  C   UNL     1       0.741  -7.487  47.298  1.00  0.00     0.194 C 
ATOM     13  O   UNL     1       0.150  -7.081  46.258  1.00  0.00    -0.289 OA
ATOM     14  C   UNL     1       1.923  -5.293  47.547  1.00  0.00     0.059 A 
ATOM     15  C   UNL     1       2.770  -4.431  48.249  1.00  0.00     0.120 A 
ATOM     16  C   UNL     1       3.343  -4.849  49.450  1.00  0.00     0.093 A 
ATOM     17  C   UNL     1       3.078  -6.121  49.966  1.00  0.00     0.131 A 
ENDROOT
BRANCH   6  18
ATOM     18  O   UNL     1       1.665 -11.187  50.485  1.00  0.00    -0.507 OA
ATOM     19  H   UNL     1       2.652 -11.403  50.525  1.00  0.00     0.293 HD
ENDBRANCH   6  18
BRANCH  17  20
ATOM     20  O   UNL     1       3.759  -6.500  51.125  1.00  0.00    -0.507 OA
ATOM     21  H   UNL     1       4.748  -6.712  51.147  1.00  0.00     0.293 HD
ENDBRANCH  17  20
BRANCH  15  22
ATOM     22  O   UNL     1       3.059  -3.161  47.755  1.00  0.00    -0.508 OA
ATOM     23  H   UNL     1       3.610  -3.033  46.914  1.00  0.00     0.293 HD
ENDBRANCH  15  22
TORSDOF 3
ENDMDL
MODEL 6
REMARK VINA RESULT:    -5.706      4.288      8.800
REMARK INTER + INTRA:          -6.206
REMARK INTER:                  -6.206
REMARK INTRA:                   0.000
REMARK UNBOUND:                 0.000
REMARK SMILES Cc1cc(O)c2c(c1)C(=O)c1cc(O)cc(O)c1C2=O
REMARK SMILES IDX 1 1 2 2 8 3 7 4 6 5 4 6 3 7 19 8 20 9 18 10 11 11 9 12 10 13
REMARK SMILES IDX 12 14 13 15 15 16 16 17 5 18 17 20 14 22
REMARK H PARENT 5 19 17 21 14 23
REMARK Flexibility Score: inf
ROOT
ATOM      1  C   UNL     1       9.457   1.865  47.696  1.00  0.00     0.044 C 
ATOM      2  C   UNL     1       8.288   0.936  47.544  1.00  0.00    -0.047 A 
ATOM      3  C   UNL     1       8.243  -0.262  48.266  1.00  0.00     0.016 A 
ATOM      4  C   UNL     1       7.167  -1.152  48.109  1.00  0.00     0.038 A 
ATOM      5  C   UNL     1       6.119  -0.837  47.216  1.00  0.00     0.076 A 
ATOM      6  C   UNL     1       6.213   0.337  46.426  1.00  0.00     0.127 A 
ATOM      7  C   UNL     1       7.283   1.217  46.613  1.00  0.00     0.050 A 
ATOM      8  C   UNL     1       4.929  -1.728  47.186  1.00  0.00     0.201 C 
ATOM      9  O   UNL     1       3.799  -1.253  46.897  1.00  0.00    -0.288 OA
ATOM     10  C   UNL     1       5.041  -3.125  47.678  1.00  0.00     0.076 A 
ATOM     11  C   UNL     1       6.093  -3.437  48.570  1.00  0.00     0.041 A 
ATOM     12  C   UNL     1       7.129  -2.422  48.872  1.00  0.00     0.194 C 
ATOM     13  O   UNL     1       7.996  -2.651  49.761  1.00  0.00    -0.289 OA
ATOM     14  C   UNL     1       6.151  -4.709  49.163  1.00  0.00     0.059 A 
ATOM     15  C   UNL     1       5.186  -5.675  48.867  1.00  0.00     0.120 A 
ATOM     16  C   UNL     1       4.171  -5.384  47.956  1.00  0.00     0.093 A 
ATOM     17  C   UNL     1       4.102  -4.133  47.336  1.00  0.00     0.131 A 
ENDROOT
BRANCH   6  18
ATOM     18  O   UNL     1       5.292   0.648  45.423  1.00  0.00    -0.507 OA
ATOM     19  H   UNL     1       4.298   0.484  45.507  1.00  0.00     0.293 HD
ENDBRANCH   6  18
BRANCH  17  20
ATOM     20  O   UNL     1       3.112  -3.947  46.369  1.00  0.00    -0.507 OA
ATOM     21  H   UNL     1       3.281  -3.509  45.473  1.00  0.00     0.293 HD
ENDBRANCH  17  20
BRANCH  15  22
ATOM     22  O   UNL     1       5.234  -6.934  49.463  1.00  0.00    -0.508 OA
ATOM     23  H   UNL     1       5.812  -7.114  50.275  1.00  0.00     0.293 HD
ENDBRANCH  15  22
TORSDOF 3
ENDMDL
MODEL 7
REMARK VINA RESULT:    -5.498      2.163      6.274
REMARK INTER + INTRA:          -5.980
REMARK INTER:                  -5.980
REMARK INTRA:                   0.000
REMARK UNBOUND:                 0.000
REMARK SMILES Cc1cc(O)c2c(c1)C(=O)c1cc(O)cc(O)c1C2=O
REMARK SMILES IDX 1 1 2 2 8 3 7 4 6 5 4 6 3 7 19 8 20 9 18 10 11 11 9 12 10 13
REMARK SMILES IDX 12 14 13 15 15 16 16 17 5 18 17 20 14 22
REMARK H PARENT 5 19 17 21 14 23
REMARK Flexibility Score: inf
ROOT
ATOM      1  C   UNL     1       6.201   5.572  44.739  1.00  0.00     0.044 C 
ATOM      2  C   UNL     1       6.662   4.392  45.543  1.00  0.00    -0.047 A 
ATOM      3  C   UNL     1       6.014   3.159  45.419  1.00  0.00     0.016 A 
ATOM      4  C   UNL     1       6.419   2.055  46.188  1.00  0.00     0.038 A 
ATOM      5  C   UNL     1       7.493   2.189  47.097  1.00  0.00     0.076 A 
ATOM      6  C   UNL     1       8.090   3.463  47.279  1.00  0.00     0.127 A 
ATOM      7  C   UNL     1       7.682   4.541  46.488  1.00  0.00     0.050 A 
ATOM      8  C   UNL     1       7.989   0.968  47.783  1.00  0.00     0.201 C 
ATOM      9  O   UNL     1       9.202   0.885  48.116  1.00  0.00    -0.288 OA
ATOM     10  C   UNL     1       7.106  -0.221  47.904  1.00  0.00     0.076 A 
ATOM     11  C   UNL     1       6.032  -0.350  46.995  1.00  0.00     0.041 A 
ATOM     12  C   UNL     1       5.723   0.754  46.056  1.00  0.00     0.194 C 
ATOM     13  O   UNL     1       4.849   0.594  45.159  1.00  0.00    -0.289 OA
ATOM     14  C   UNL     1       5.259  -1.524  46.988  1.00  0.00     0.059 A 
ATOM     15  C   UNL     1       5.535  -2.559  47.885  1.00  0.00     0.120 A 
ATOM     16  C   UNL     1       6.568  -2.418  48.811  1.00  0.00     0.093 A 
ATOM     17  C   UNL     1       7.339  -1.252  48.852  1.00  0.00     0.131 A 
ENDROOT
BRANCH   6  18
ATOM     18  O   UNL     1       9.059   3.709  48.255  1.00  0.00    -0.507 OA
ATOM     19  H   UNL     1       8.840   3.976  49.205  1.00  0.00     0.293 HD
ENDBRANCH   6  18
BRANCH  17  20
ATOM     20  O   UNL     1       8.295  -1.147  49.865  1.00  0.00    -0.507 OA
ATOM     21  H   UNL     1       8.121  -1.409  50.826  1.00  0.00     0.293 HD
ENDBRANCH  17  20
BRANCH  15  22
ATOM     22  O   UNL     1       4.779  -3.730  47.873  1.00  0.00    -0.508 OA
ATOM     23  H   UNL     1       5.175  -4.613  47.573  1.00  0.00     0.293 HD
ENDBRANCH  15  22
TORSDOF 3
ENDMDL
MODEL 8
REMARK VINA RESULT:    -5.337      6.795     10.395
REMARK INTER + INTRA:          -5.804
REMARK INTER:                  -5.804
REMARK INTRA:                   0.000
REMARK UNBOUND:                 0.000
REMARK SMILES Cc1cc(O)c2c(c1)C(=O)c1cc(O)cc(O)c1C2=O
REMARK SMILES IDX 1 1 2 2 8 3 7 4 6 5 4 6 3 7 19 8 20 9 18 10 11 11 9 12 10 13
REMARK SMILES IDX 12 14 13 15 15 16 16 17 5 18 17 20 14 22
REMARK H PARENT 5 19 17 21 14 23
REMARK Flexibility Score: inf
ROOT
ATOM      1  C   UNL     1       2.420  -9.808  50.553  1.00  0.00     0.044 C 
ATOM      2  C   UNL     1       2.647  -8.518  49.821  1.00  0.00    -0.047 A 
ATOM      3  C   UNL     1       3.876  -7.855  49.927  1.00  0.00     0.016 A 
ATOM      4  C   UNL     1       4.088  -6.632  49.269  1.00  0.00     0.038 A 
ATOM      5  C   UNL     1       3.055  -6.064  48.491  1.00  0.00     0.076 A 
ATOM      6  C   UNL     1       1.786  -6.697  48.457  1.00  0.00     0.127 A 
ATOM      7  C   UNL     1       1.604  -7.923  49.104  1.00  0.00     0.050 A 
ATOM      8  C   UNL     1       3.364  -4.849  47.693  1.00  0.00     0.201 C 
ATOM      9  O   UNL     1       2.752  -4.638  46.612  1.00  0.00    -0.288 OA
ATOM     10  C   UNL     1       4.517  -3.991  48.070  1.00  0.00     0.076 A 
ATOM     11  C   UNL     1       5.548  -4.563  48.850  1.00  0.00     0.041 A 
ATOM     12  C   UNL     1       5.389  -5.933  49.392  1.00  0.00     0.194 C 
ATOM     13  O   UNL     1       6.355  -6.495  49.980  1.00  0.00    -0.289 OA
ATOM     14  C   UNL     1       6.716  -3.828  49.111  1.00  0.00     0.059 A 
ATOM     15  C   UNL     1       6.861  -2.528  48.618  1.00  0.00     0.120 A 
ATOM     16  C   UNL     1       5.829  -1.946  47.883  1.00  0.00     0.093 A 
ATOM     17  C   UNL     1       4.648  -2.649  47.627  1.00  0.00     0.131 A 
ENDROOT
BRANCH   6  18
ATOM     18  O   UNL     1       0.676  -6.129  47.828  1.00  0.00    -0.507 OA
ATOM     19  H   UNL     1      -0.280  -6.340  48.084  1.00  0.00     0.293 HD
ENDBRANCH   6  18
BRANCH  17  20
ATOM     20  O   UNL     1       3.625  -1.968  46.963  1.00  0.00    -0.507 OA
ATOM     21  H   UNL     1       2.949  -2.423  46.363  1.00  0.00     0.293 HD
ENDBRANCH  17  20
BRANCH  15  22
ATOM     22  O   UNL     1       8.024  -1.800  48.864  1.00  0.00    -0.508 OA
ATOM     23  H   UNL     1       8.105  -0.826  48.599  1.00  0.00     0.293 HD
ENDBRANCH  15  22
TORSDOF 3
ENDMDL
MODEL 9
REMARK VINA RESULT:    -5.172      3.865      6.566
REMARK INTER + INTRA:          -5.625
REMARK INTER:                  -5.625
REMARK INTRA:                   0.000
REMARK UNBOUND:                 0.000
REMARK SMILES Cc1cc(O)c2c(c1)C(=O)c1cc(O)cc(O)c1C2=O
REMARK SMILES IDX 1 1 2 2 8 3 7 4 6 5 4 6 3 7 19 8 20 9 18 10 11 11 9 12 10 13
REMARK SMILES IDX 12 14 13 15 15 16 16 17 5 18 17 20 14 22
REMARK H PARENT 5 19 17 21 14 23
REMARK Flexibility Score: inf
ROOT
ATOM      1  C   UNL     1       1.974  -5.411  47.754  1.00  0.00     0.044 C 
ATOM      2  C   UNL     1       3.263  -4.707  48.060  1.00  0.00    -0.047 A 
ATOM      3  C   UNL     1       3.451  -3.378  47.664  1.00  0.00     0.016 A 
ATOM      4  C   UNL     1       4.665  -2.719  47.921  1.00  0.00     0.038 A 
ATOM      5  C   UNL     1       5.708  -3.401  48.586  1.00  0.00     0.076 A 
ATOM      6  C   UNL     1       5.542  -4.772  48.910  1.00  0.00     0.127 A 
ATOM      7  C   UNL     1       4.318  -5.401  48.662  1.00  0.00     0.050 A 
ATOM      8  C   UNL     1       6.919  -2.630  48.971  1.00  0.00     0.201 C 
ATOM      9  O   UNL     1       7.575  -2.964  49.994  1.00  0.00    -0.288 OA
ATOM     10  C   UNL     1       7.241  -1.363  48.266  1.00  0.00     0.076 A 
ATOM     11  C   UNL     1       6.195  -0.684  47.600  1.00  0.00     0.041 A 
ATOM     12  C   UNL     1       4.859  -1.314  47.492  1.00  0.00     0.194 C 
ATOM     13  O   UNL     1       3.891  -0.662  47.010  1.00  0.00    -0.289 OA
ATOM     14  C   UNL     1       6.430   0.583  47.039  1.00  0.00     0.059 A 
ATOM     15  C   UNL     1       7.695   1.172  47.122  1.00  0.00     0.120 A 
ATOM     16  C   UNL     1       8.739   0.488  47.743  1.00  0.00     0.093 A 
ATOM     17  C   UNL     1       8.537  -0.783  48.291  1.00  0.00     0.131 A 
ENDROOT
BRANCH   6  18
ATOM     18  O   UNL     1       6.572  -5.553  49.440  1.00  0.00    -0.507 OA
ATOM     19  H   UNL     1       7.238  -6.060  48.873  1.00  0.00     0.293 HD
ENDBRANCH   6  18
BRANCH  17  20
ATOM     20  O   UNL     1       9.651  -1.443  48.815  1.00  0.00    -0.507 OA
ATOM     21  H   UNL     1       9.898  -1.429  49.795  1.00  0.00     0.293 HD
ENDBRANCH  17  20
BRANCH  15  22
ATOM     22  O   UNL     1       7.928   2.434  46.579  1.00  0.00    -0.508 OA
ATOM     23  H   UNL     1       7.177   3.102  46.450  1.00  0.00     0.293 HD
ENDBRANCH  15  22
TORSDOF 3
ENDMDL
