MODEL 1
REMARK VINA RESULT:    -4.283      0.000      0.000
REMARK INTER + INTRA:          -6.147
REMARK INTER:                  -5.785
REMARK INTRA:                  -0.362
REMARK UNBOUND:                -0.362
REMARK SMILES CCCCCCCC(=O)[O-]
REMARK SMILES IDX 5 1 6 2 7 3 8 4 9 5 10 6 4 7 3 8 2 9 1 10
REMARK H PARENT
REMARK Flexibility Score: inf
ROOT
ATOM      1  C   UNL     1      -2.011  37.891  18.253  1.00  0.00     0.000 C 
ENDROOT
BRANCH   1   2
ATOM      2  C   UNL     1      -3.537  37.904  18.456  1.00  0.00     0.006 C 
BRANCH   2   3
ATOM      3  C   UNL     1      -3.986  37.547  19.883  1.00  0.00     0.053 C 
BRANCH   3   4
ATOM      4  C   UNL     1      -4.888  36.351  19.907  1.00  0.00     0.041 C 
ATOM      5  O   UNL     1      -5.644  36.147  20.893  1.00  0.00    -0.550 OA
ATOM      6  O   UNL     1      -4.880  35.451  18.849  1.00  0.00    -0.550 OA
ENDBRANCH   3   4
ENDBRANCH   2   3
ENDBRANCH   1   2
BRANCH   1   7
ATOM      7  C   UNL     1      -1.599  37.358  16.869  1.00  0.00     0.000 C 
BRANCH   7   8
ATOM      8  C   UNL     1      -2.771  36.673  16.132  1.00  0.00    -0.000 C 
BRANCH   8   9
ATOM      9  C   UNL     1      -2.818  36.979  14.627  1.00  0.00    -0.003 C 
ATOM     10  C   UNL     1      -3.773  38.118  14.277  1.00  0.00     0.004 C 
ENDBRANCH   8   9
ENDBRANCH   7   8
ENDBRANCH   1   7
TORSDOF 6
ENDMDL
MODEL 2
REMARK VINA RESULT:    -4.067      2.688      5.785
REMARK INTER + INTRA:          -5.855
REMARK INTER:                  -5.756
REMARK INTRA:                  -0.099
REMARK UNBOUND:                -0.362
REMARK SMILES CCCCCCCC(=O)[O-]
REMARK SMILES IDX 5 1 6 2 7 3 8 4 9 5 10 6 4 7 3 8 2 9 1 10
REMARK H PARENT
REMARK Flexibility Score: inf
ROOT
ATOM      1  C   UNL     1      -3.900  36.897  19.881  1.00  0.00     0.000 C 
ENDROOT
BRANCH   1   2
ATOM      2  C   UNL     1      -3.704  37.872  18.706  1.00  0.00     0.006 C 
BRANCH   2   3
ATOM      3  C   UNL     1      -2.305  37.821  18.069  1.00  0.00     0.053 C 
BRANCH   3   4
ATOM      4  C   UNL     1      -2.361  37.472  16.613  1.00  0.00     0.041 C 
ATOM      5  O   UNL     1      -3.080  38.144  15.828  1.00  0.00    -0.550 OA
ATOM      6  O   UNL     1      -1.636  36.391  16.127  1.00  0.00    -0.550 OA
ENDBRANCH   3   4
ENDBRANCH   2   3
ENDBRANCH   1   2
BRANCH   1   7
ATOM      7  C   UNL     1      -5.094  37.274  20.775  1.00  0.00     0.000 C 
BRANCH   7   8
ATOM      8  C   UNL     1      -5.771  36.036  21.403  1.00  0.00    -0.000 C 
BRANCH   8   9
ATOM      9  C   UNL     1      -6.052  36.180  22.907  1.00  0.00    -0.003 C 
ATOM     10  C   UNL     1      -5.866  34.877  23.679  1.00  0.00     0.004 C 
ENDBRANCH   8   9
ENDBRANCH   7   8
ENDBRANCH   1   7
TORSDOF 6
ENDMDL
MODEL 3
REMARK VINA RESULT:    -4.036      2.691      5.779
REMARK INTER + INTRA:          -5.813
REMARK INTER:                  -5.714
REMARK INTRA:                  -0.099
REMARK UNBOUND:                -0.362
REMARK SMILES CCCCCCCC(=O)[O-]
REMARK SMILES IDX 5 1 6 2 7 3 8 4 9 5 10 6 4 7 3 8 2 9 1 10
REMARK H PARENT
REMARK Flexibility Score: inf
ROOT
ATOM      1  C   UNL     1      -3.775  37.124  19.952  1.00  0.00     0.000 C 
ENDROOT
BRANCH   1   2
ATOM      2  C   UNL     1      -3.593  37.926  18.650  1.00  0.00     0.006 C 
BRANCH   2   3
ATOM      3  C   UNL     1      -2.200  37.788  18.013  1.00  0.00     0.053 C 
BRANCH   3   4
ATOM      4  C   UNL     1      -2.278  37.439  16.558  1.00  0.00     0.041 C 
ATOM      5  O   UNL     1      -1.573  36.506  16.091  1.00  0.00    -0.550 OA
ATOM      6  O   UNL     1      -3.115  38.158  15.714  1.00  0.00    -0.550 OA
ENDBRANCH   3   4
ENDBRANCH   2   3
ENDBRANCH   1   2
BRANCH   1   7
ATOM      7  C   UNL     1      -5.172  37.304  20.572  1.00  0.00     0.000 C 
BRANCH   7   8
ATOM      8  C   UNL     1      -5.644  36.045  21.330  1.00  0.00    -0.000 C 
BRANCH   8   9
ATOM      9  C   UNL     1      -5.780  36.250  22.847  1.00  0.00    -0.003 C 
ATOM     10  C   UNL     1      -6.125  34.965  23.596  1.00  0.00     0.004 C 
ENDBRANCH   8   9
ENDBRANCH   7   8
ENDBRANCH   1   7
TORSDOF 6
ENDMDL
MODEL 4
REMARK VINA RESULT:    -3.971      3.125      6.047
REMARK INTER + INTRA:          -5.725
REMARK INTER:                  -5.560
REMARK INTRA:                  -0.165
REMARK UNBOUND:                -0.362
REMARK SMILES CCCCCCCC(=O)[O-]
REMARK SMILES IDX 5 1 6 2 7 3 8 4 9 5 10 6 4 7 3 8 2 9 1 10
REMARK H PARENT
REMARK Flexibility Score: inf
ROOT
ATOM      1  C   UNL     1      -4.674  36.116  19.843  1.00  0.00     0.000 C 
ENDROOT
BRANCH   1   2
ATOM      2  C   UNL     1      -4.158  37.431  19.229  1.00  0.00     0.006 C 
BRANCH   2   3
ATOM      3  C   UNL     1      -2.759  37.847  19.712  1.00  0.00     0.053 C 
BRANCH   3   4
ATOM      4  C   UNL     1      -1.810  38.061  18.573  1.00  0.00     0.041 C 
ATOM      5  O   UNL     1      -2.229  38.035  17.385  1.00  0.00    -0.550 OA
ATOM      6  O   UNL     1      -0.459  38.271  18.821  1.00  0.00    -0.550 OA
ENDBRANCH   3   4
ENDBRANCH   2   3
ENDBRANCH   1   2
BRANCH   1   7
ATOM      7  C   UNL     1      -4.413  36.023  21.357  1.00  0.00     0.000 C 
BRANCH   7   8
ATOM      8  C   UNL     1      -5.720  36.030  22.179  1.00  0.00    -0.000 C 
BRANCH   8   9
ATOM      9  C   UNL     1      -5.581  35.387  23.568  1.00  0.00    -0.003 C 
ATOM     10  C   UNL     1      -5.643  36.402  24.706  1.00  0.00     0.004 C 
ENDBRANCH   8   9
ENDBRANCH   7   8
ENDBRANCH   1   7
TORSDOF 6
ENDMDL
MODEL 5
REMARK VINA RESULT:    -3.944      2.715      4.527
REMARK INTER + INTRA:          -5.690
REMARK INTER:                  -5.265
REMARK INTRA:                  -0.425
REMARK UNBOUND:                -0.362
REMARK SMILES CCCCCCCC(=O)[O-]
REMARK SMILES IDX 5 1 6 2 7 3 8 4 9 5 10 6 4 7 3 8 2 9 1 10
REMARK H PARENT
REMARK Flexibility Score: inf
ROOT
ATOM      1  C   UNL     1      -2.619  37.933  19.554  1.00  0.00     0.000 C 
ENDROOT
BRANCH   1   2
ATOM      2  C   UNL     1      -2.008  38.041  18.144  1.00  0.00     0.006 C 
BRANCH   2   3
ATOM      3  C   UNL     1      -2.997  37.745  17.004  1.00  0.00     0.053 C 
BRANCH   3   4
ATOM      4  C   UNL     1      -2.356  36.979  15.888  1.00  0.00     0.041 C 
ATOM      5  O   UNL     1      -1.368  36.233  16.116  1.00  0.00    -0.550 OA
ATOM      6  O   UNL     1      -2.836  37.106  14.590  1.00  0.00    -0.550 OA
ENDBRANCH   3   4
ENDBRANCH   2   3
ENDBRANCH   1   2
BRANCH   1   7
ATOM      7  C   UNL     1      -4.158  37.929  19.537  1.00  0.00     0.000 C 
BRANCH   7   8
ATOM      8  C   UNL     1      -4.752  36.849  20.467  1.00  0.00    -0.000 C 
BRANCH   8   9
ATOM      9  C   UNL     1      -5.698  35.871  19.753  1.00  0.00    -0.003 C 
ATOM     10  C   UNL     1      -5.023  35.104  18.618  1.00  0.00     0.004 C 
ENDBRANCH   8   9
ENDBRANCH   7   8
ENDBRANCH   1   7
TORSDOF 6
ENDMDL
MODEL 6
REMARK VINA RESULT:    -3.929      2.476      3.932
REMARK INTER + INTRA:          -5.669
REMARK INTER:                  -5.424
REMARK INTRA:                  -0.246
REMARK UNBOUND:                -0.362
REMARK SMILES CCCCCCCC(=O)[O-]
REMARK SMILES IDX 5 1 6 2 7 3 8 4 9 5 10 6 4 7 3 8 2 9 1 10
REMARK H PARENT
REMARK Flexibility Score: inf
ROOT
ATOM      1  C   UNL     1      -4.619  36.210  19.874  1.00  0.00     0.000 C 
ENDROOT
BRANCH   1   2
ATOM      2  C   UNL     1      -4.363  35.957  21.371  1.00  0.00     0.006 C 
BRANCH   2   3
ATOM      3  C   UNL     1      -5.535  36.348  22.286  1.00  0.00     0.053 C 
BRANCH   3   4
ATOM      4  C   UNL     1      -5.462  35.664  23.618  1.00  0.00     0.041 C 
ATOM      5  O   UNL     1      -5.639  34.420  23.702  1.00  0.00    -0.550 OA
ATOM      6  O   UNL     1      -5.220  36.403  24.768  1.00  0.00    -0.550 OA
ENDBRANCH   3   4
ENDBRANCH   2   3
ENDBRANCH   1   2
BRANCH   1   7
ATOM      7  C   UNL     1      -4.088  37.575  19.402  1.00  0.00     0.000 C 
BRANCH   7   8
ATOM      8  C   UNL     1      -2.613  37.799  19.797  1.00  0.00    -0.000 C 
BRANCH   8   9
ATOM      9  C   UNL     1      -1.716  38.226  18.623  1.00  0.00    -0.003 C 
ATOM     10  C   UNL     1      -2.116  37.581  17.299  1.00  0.00     0.004 C 
ENDBRANCH   8   9
ENDBRANCH   7   8
ENDBRANCH   1   7
TORSDOF 6
ENDMDL
MODEL 7
REMARK VINA RESULT:    -3.521      3.548      6.852
REMARK INTER + INTRA:          -5.118
REMARK INTER:                  -4.884
REMARK INTRA:                  -0.234
REMARK UNBOUND:                -0.362
REMARK SMILES CCCCCCCC(=O)[O-]
REMARK SMILES IDX 5 1 6 2 7 3 8 4 9 5 10 6 4 7 3 8 2 9 1 10
REMARK H PARENT
REMARK Flexibility Score: inf
ROOT
ATOM      1  C   UNL     1      -5.808  36.044  22.144  1.00  0.00     0.000 C 
ENDROOT
BRANCH   1   2
ATOM      2  C   UNL     1      -4.644  36.050  21.136  1.00  0.00     0.006 C 
BRANCH   2   3
ATOM      3  C   UNL     1      -4.830  37.028  19.963  1.00  0.00     0.053 C 
BRANCH   3   4
ATOM      4  C   UNL     1      -3.544  37.290  19.240  1.00  0.00     0.041 C 
ATOM      5  O   UNL     1      -3.420  36.965  18.030  1.00  0.00    -0.550 OA
ATOM      6  O   UNL     1      -2.477  37.876  19.909  1.00  0.00    -0.550 OA
ENDBRANCH   3   4
ENDBRANCH   2   3
ENDBRANCH   1   2
BRANCH   1   7
ATOM      7  C   UNL     1      -5.591  35.049  23.298  1.00  0.00     0.000 C 
BRANCH   7   8
ATOM      8  C   UNL     1      -6.055  35.617  24.657  1.00  0.00    -0.000 C 
BRANCH   8   9
ATOM      9  C   UNL     1      -5.900  37.142  24.775  1.00  0.00    -0.003 C 
ATOM     10  C   UNL     1      -4.847  37.560  25.799  1.00  0.00     0.004 C 
ENDBRANCH   8   9
ENDBRANCH   7   8
ENDBRANCH   1   7
TORSDOF 6
ENDMDL
MODEL 8
REMARK VINA RESULT:    -3.244      2.815      5.046
REMARK INTER + INTRA:          -4.744
REMARK INTER:                  -4.463
REMARK INTRA:                  -0.281
REMARK UNBOUND:                -0.362
REMARK SMILES CCCCCCCC(=O)[O-]
REMARK SMILES IDX 5 1 6 2 7 3 8 4 9 5 10 6 4 7 3 8 2 9 1 10
REMARK H PARENT
REMARK Flexibility Score: inf
ROOT
ATOM      1  C   UNL     1      -4.876  35.656  18.831  1.00  0.00     0.000 C 
ENDROOT
BRANCH   1   2
ATOM      2  C   UNL     1      -3.871  35.794  17.673  1.00  0.00     0.006 C 
BRANCH   2   3
ATOM      3  C   UNL     1      -3.227  37.186  17.558  1.00  0.00     0.053 C 
BRANCH   3   4
ATOM      4  C   UNL     1      -2.703  37.453  16.180  1.00  0.00     0.041 C 
ATOM      5  O   UNL     1      -3.283  38.281  15.430  1.00  0.00    -0.550 OA
ATOM      6  O   UNL     1      -1.586  36.770  15.716  1.00  0.00    -0.550 OA
ENDBRANCH   3   4
ENDBRANCH   2   3
ENDBRANCH   1   2
BRANCH   1   7
ATOM      7  C   UNL     1      -4.264  36.018  20.196  1.00  0.00     0.000 C 
BRANCH   7   8
ATOM      8  C   UNL     1      -5.147  37.002  20.993  1.00  0.00    -0.000 C 
BRANCH   8   9
ATOM      9  C   UNL     1      -5.123  38.438  20.446  1.00  0.00    -0.003 C 
ATOM     10  C   UNL     1      -5.532  39.481  21.483  1.00  0.00     0.004 C 
ENDBRANCH   8   9
ENDBRANCH   7   8
ENDBRANCH   1   7
TORSDOF 6
ENDMDL
MODEL 9
REMARK VINA RESULT:    -3.042      2.203      3.304
REMARK INTER + INTRA:          -4.470
REMARK INTER:                  -4.187
REMARK INTRA:                  -0.284
REMARK UNBOUND:                -0.362
REMARK SMILES CCCCCCCC(=O)[O-]
REMARK SMILES IDX 5 1 6 2 7 3 8 4 9 5 10 6 4 7 3 8 2 9 1 10
REMARK H PARENT
REMARK Flexibility Score: inf
ROOT
ATOM      1  C   UNL     1      -3.670  36.470  20.374  1.00  0.00     0.000 C 
ENDROOT
BRANCH   1   2
ATOM      2  C   UNL     1      -5.140  36.897  20.543  1.00  0.00     0.006 C 
BRANCH   2   3
ATOM      3  C   UNL     1      -5.393  37.830  21.738  1.00  0.00     0.053 C 
BRANCH   3   4
ATOM      4  C   UNL     1      -5.556  39.258  21.314  1.00  0.00     0.041 C 
ATOM      5  O   UNL     1      -5.785  39.538  20.108  1.00  0.00    -0.550 OA
ATOM      6  O   UNL     1      -5.433  40.280  22.246  1.00  0.00    -0.550 OA
ENDBRANCH   3   4
ENDBRANCH   2   3
ENDBRANCH   1   2
BRANCH   1   7
ATOM      7  C   UNL     1      -2.821  37.534  19.655  1.00  0.00     0.000 C 
BRANCH   7   8
ATOM      8  C   UNL     1      -3.200  37.678  18.165  1.00  0.00    -0.000 C 
BRANCH   8   9
ATOM      9  C   UNL     1      -2.006  37.534  17.207  1.00  0.00    -0.003 C 
ATOM     10  C   UNL     1      -2.381  36.883  15.878  1.00  0.00     0.004 C 
ENDBRANCH   8   9
ENDBRANCH   7   8
ENDBRANCH   1   7
TORSDOF 6
ENDMDL
