MODEL 1
REMARK VINA RESULT:    -4.230      0.000      0.000
REMARK INTER + INTRA:          -4.943
REMARK INTER:                  -4.725
REMARK INTRA:                  -0.219
REMARK UNBOUND:                -0.219
REMARK SMILES CC(C)c1ccc(C(=O)[O-])cc1
REMARK SMILES IDX 7 1 6 2 11 3 5 4 12 5 4 6 8 7 9 8 10 9 2 10 1 11 3 12
REMARK H PARENT
REMARK Flexibility Score: inf
ROOT
ATOM      1  C   UNL     1      28.562 169.303 155.334  1.00  0.00    -0.003 A 
ATOM      2  C   UNL     1      29.871 169.526 154.876  1.00  0.00     0.010 A 
ATOM      3  C   UNL     1      28.283 168.130 156.057  1.00  0.00     0.010 A 
ATOM      4  C   UNL     1      30.882 168.597 155.137  1.00  0.00     0.004 A 
ATOM      5  C   UNL     1      29.295 167.201 156.317  1.00  0.00     0.004 A 
ATOM      6  C   UNL     1      30.606 167.424 155.860  1.00  0.00    -0.045 A 
ENDROOT
BRANCH   1   7
ATOM      7  C   UNL     1      27.495 170.290 155.055  1.00  0.00     0.071 C 
ATOM      8  O   UNL     1      27.776 171.504 154.875  1.00  0.00    -0.545 OA
ATOM      9  O   UNL     1      26.166 169.890 154.990  1.00  0.00    -0.545 OA
ENDBRANCH   1   7
BRANCH   6  10
ATOM     10  C   UNL     1      31.714 166.424 156.136  1.00  0.00     0.013 C 
ATOM     11  C   UNL     1      32.984 167.128 156.625  1.00  0.00     0.012 C 
ATOM     12  C   UNL     1      31.256 165.354 157.134  1.00  0.00     0.012 C 
ENDBRANCH   6  10
TORSDOF 2
ENDMDL
MODEL 2
REMARK VINA RESULT:    -4.225      3.807      5.380
REMARK INTER + INTRA:          -4.937
REMARK INTER:                  -4.723
REMARK INTRA:                  -0.215
REMARK UNBOUND:                -0.219
REMARK SMILES CC(C)c1ccc(C(=O)[O-])cc1
REMARK SMILES IDX 7 1 6 2 11 3 5 4 12 5 4 6 8 7 9 8 10 9 2 10 1 11 3 12
REMARK H PARENT
REMARK Flexibility Score: inf
ROOT
ATOM      1  C   UNL     1      31.912 166.567 157.261  1.00  0.00    -0.003 A 
ATOM      2  C   UNL     1      32.374 167.166 156.078  1.00  0.00     0.010 A 
ATOM      3  C   UNL     1      30.584 166.794 157.665  1.00  0.00     0.010 A 
ATOM      4  C   UNL     1      31.528 167.974 155.313  1.00  0.00     0.004 A 
ATOM      5  C   UNL     1      29.739 167.602 156.900  1.00  0.00     0.004 A 
ATOM      6  C   UNL     1      30.201 168.202 155.715  1.00  0.00    -0.045 A 
ENDROOT
BRANCH   1   7
ATOM      7  C   UNL     1      32.811 165.713 158.067  1.00  0.00     0.071 C 
ATOM      8  O   UNL     1      34.044 165.664 157.816  1.00  0.00    -0.545 OA
ATOM      9  O   UNL     1      32.306 164.950 159.114  1.00  0.00    -0.545 OA
ENDBRANCH   1   7
BRANCH   6  10
ATOM     10  C   UNL     1      29.294 169.082 154.875  1.00  0.00     0.013 C 
ATOM     11  C   UNL     1      27.835 168.964 155.330  1.00  0.00     0.012 C 
ATOM     12  C   UNL     1      29.763 170.541 154.899  1.00  0.00     0.012 C 
ENDBRANCH   6  10
TORSDOF 2
ENDMDL
MODEL 3
REMARK VINA RESULT:    -3.953      2.862      5.097
REMARK INTER + INTRA:          -4.634
REMARK INTER:                  -4.420
REMARK INTRA:                  -0.213
REMARK UNBOUND:                -0.219
REMARK SMILES CC(C)c1ccc(C(=O)[O-])cc1
REMARK SMILES IDX 7 1 6 2 11 3 5 4 12 5 4 6 8 7 9 8 10 9 2 10 1 11 3 12
REMARK H PARENT
REMARK Flexibility Score: inf
ROOT
ATOM      1  C   UNL     1      30.197 168.302 155.987  1.00  0.00    -0.003 A 
ATOM      2  C   UNL     1      30.091 169.447 155.181  1.00  0.00     0.010 A 
ATOM      3  C   UNL     1      29.024 167.706 156.482  1.00  0.00     0.010 A 
ATOM      4  C   UNL     1      28.838 169.986 154.875  1.00  0.00     0.004 A 
ATOM      5  C   UNL     1      27.772 168.246 156.177  1.00  0.00     0.004 A 
ATOM      6  C   UNL     1      27.665 169.392 155.369  1.00  0.00    -0.045 A 
ENDROOT
BRANCH   1   7
ATOM      7  C   UNL     1      31.526 167.734 156.308  1.00  0.00     0.071 C 
ATOM      8  O   UNL     1      32.232 167.207 155.408  1.00  0.00    -0.545 OA
ATOM      9  O   UNL     1      32.013 167.774 157.609  1.00  0.00    -0.545 OA
ENDBRANCH   1   7
BRANCH   6  10
ATOM     10  C   UNL     1      26.311 169.988 155.029  1.00  0.00     0.013 C 
ATOM     11  C   UNL     1      25.251 169.573 156.056  1.00  0.00     0.012 C 
ATOM     12  C   UNL     1      26.395 171.514 154.908  1.00  0.00     0.012 C 
ENDBRANCH   6  10
TORSDOF 2
ENDMDL
MODEL 4
REMARK VINA RESULT:    -3.943     23.616     24.794
REMARK INTER + INTRA:          -4.622
REMARK INTER:                  -4.412
REMARK INTRA:                  -0.210
REMARK UNBOUND:                -0.219
REMARK SMILES CC(C)c1ccc(C(=O)[O-])cc1
REMARK SMILES IDX 7 1 6 2 11 3 5 4 12 5 4 6 8 7 9 8 10 9 2 10 1 11 3 12
REMARK H PARENT
REMARK Flexibility Score: inf
ROOT
ATOM      1  C   UNL     1      40.943 180.383 173.691  1.00  0.00    -0.003 A 
ATOM      2  C   UNL     1      40.932 181.604 174.385  1.00  0.00     0.010 A 
ATOM      3  C   UNL     1      39.855 180.063 172.859  1.00  0.00     0.010 A 
ATOM      4  C   UNL     1      39.857 182.488 174.251  1.00  0.00     0.004 A 
ATOM      5  C   UNL     1      38.781 180.947 172.725  1.00  0.00     0.004 A 
ATOM      6  C   UNL     1      38.770 182.170 173.420  1.00  0.00    -0.045 A 
ENDROOT
BRANCH   1   7
ATOM      7  C   UNL     1      42.082 179.451 173.836  1.00  0.00     0.071 C 
ATOM      8  O   UNL     1      43.129 179.608 173.154  1.00  0.00    -0.545 OA
ATOM      9  O   UNL     1      42.013 178.387 174.727  1.00  0.00    -0.545 OA
ENDBRANCH   1   7
BRANCH   6  10
ATOM     10  C   UNL     1      37.610 183.139 173.284  1.00  0.00     0.013 C 
ATOM     11  C   UNL     1      36.500 182.552 172.406  1.00  0.00     0.012 C 
ATOM     12  C   UNL     1      37.068 183.548 174.659  1.00  0.00     0.012 C 
ENDBRANCH   6  10
TORSDOF 2
ENDMDL
MODEL 5
REMARK VINA RESULT:    -3.929     23.565     24.738
REMARK INTER + INTRA:          -4.607
REMARK INTER:                  -4.400
REMARK INTRA:                  -0.207
REMARK UNBOUND:                -0.219
REMARK SMILES CC(C)c1ccc(C(=O)[O-])cc1
REMARK SMILES IDX 7 1 6 2 11 3 5 4 12 5 4 6 8 7 9 8 10 9 2 10 1 11 3 12
REMARK H PARENT
REMARK Flexibility Score: inf
ROOT
ATOM      1  C   UNL     1      40.817 180.704 173.718  1.00  0.00    -0.003 A 
ATOM      2  C   UNL     1      39.805 180.235 172.865  1.00  0.00     0.010 A 
ATOM      3  C   UNL     1      40.663 181.959 174.332  1.00  0.00     0.010 A 
ATOM      4  C   UNL     1      38.661 181.004 172.631  1.00  0.00     0.004 A 
ATOM      5  C   UNL     1      39.519 182.728 174.097  1.00  0.00     0.004 A 
ATOM      6  C   UNL     1      38.505 182.258 173.244  1.00  0.00    -0.045 A 
ENDROOT
BRANCH   1   7
ATOM      7  C   UNL     1      42.026 179.887 173.964  1.00  0.00     0.071 C 
ATOM      8  O   UNL     1      42.303 179.485 175.125  1.00  0.00    -0.545 OA
ATOM      9  O   UNL     1      42.875 179.553 172.916  1.00  0.00    -0.545 OA
ENDBRANCH   1   7
BRANCH   6  10
ATOM     10  C   UNL     1      37.258 183.082 172.980  1.00  0.00     0.013 C 
ATOM     11  C   UNL     1      36.514 182.575 171.739  1.00  0.00     0.012 C 
ATOM     12  C   UNL     1      36.338 183.100 174.206  1.00  0.00     0.012 C 
ENDBRANCH   6  10
TORSDOF 2
ENDMDL
MODEL 6
REMARK VINA RESULT:    -3.894     22.131     23.049
REMARK INTER + INTRA:          -4.568
REMARK INTER:                  -4.352
REMARK INTRA:                  -0.216
REMARK UNBOUND:                -0.219
REMARK SMILES CC(C)c1ccc(C(=O)[O-])cc1
REMARK SMILES IDX 7 1 6 2 11 3 5 4 12 5 4 6 8 7 9 8 10 9 2 10 1 11 3 12
REMARK H PARENT
REMARK Flexibility Score: inf
ROOT
ATOM      1  C   UNL     1      37.325 181.356 172.433  1.00  0.00    -0.003 A 
ATOM      2  C   UNL     1      38.581 181.366 171.803  1.00  0.00     0.010 A 
ATOM      3  C   UNL     1      37.203 180.759 173.700  1.00  0.00     0.010 A 
ATOM      4  C   UNL     1      39.692 180.792 172.427  1.00  0.00     0.004 A 
ATOM      5  C   UNL     1      38.315 180.184 174.322  1.00  0.00     0.004 A 
ATOM      6  C   UNL     1      39.572 180.195 173.693  1.00  0.00    -0.045 A 
ENDROOT
BRANCH   1   7
ATOM      7  C   UNL     1      36.152 181.965 171.770  1.00  0.00     0.071 C 
ATOM      8  O   UNL     1      34.984 181.611 172.082  1.00  0.00    -0.545 OA
ATOM      9  O   UNL     1      36.321 182.937 170.791  1.00  0.00    -0.545 OA
ENDBRANCH   1   7
BRANCH   6  10
ATOM     10  C   UNL     1      40.788 179.574 174.358  1.00  0.00     0.013 C 
ATOM     11  C   UNL     1      40.573 178.079 174.616  1.00  0.00     0.012 C 
ATOM     12  C   UNL     1      42.054 179.816 173.528  1.00  0.00     0.012 C 
ENDBRANCH   6  10
TORSDOF 2
ENDMDL
MODEL 7
REMARK VINA RESULT:    -3.866     22.425     23.460
REMARK INTER + INTRA:          -4.537
REMARK INTER:                  -4.325
REMARK INTRA:                  -0.212
REMARK UNBOUND:                -0.219
REMARK SMILES CC(C)c1ccc(C(=O)[O-])cc1
REMARK SMILES IDX 7 1 6 2 11 3 5 4 12 5 4 6 8 7 9 8 10 9 2 10 1 11 3 12
REMARK H PARENT
REMARK Flexibility Score: inf
ROOT
ATOM      1  C   UNL     1      39.308 180.157 173.768  1.00  0.00    -0.003 A 
ATOM      2  C   UNL     1      39.468 180.742 172.501  1.00  0.00     0.010 A 
ATOM      3  C   UNL     1      38.044 180.198 174.382  1.00  0.00     0.010 A 
ATOM      4  C   UNL     1      38.387 181.355 171.861  1.00  0.00     0.004 A 
ATOM      5  C   UNL     1      36.964 180.811 173.741  1.00  0.00     0.004 A 
ATOM      6  C   UNL     1      37.124 181.397 172.473  1.00  0.00    -0.045 A 
ENDROOT
BRANCH   1   7
ATOM      7  C   UNL     1      40.455 179.509 174.442  1.00  0.00     0.071 C 
ATOM      8  O   UNL     1      41.311 180.200 175.056  1.00  0.00    -0.545 OA
ATOM      9  O   UNL     1      40.603 178.128 174.408  1.00  0.00    -0.545 OA
ENDBRANCH   1   7
BRANCH   6  10
ATOM     10  C   UNL     1      35.959 182.066 171.765  1.00  0.00     0.013 C 
ATOM     11  C   UNL     1      36.306 182.378 170.305  1.00  0.00     0.012 C 
ATOM     12  C   UNL     1      34.690 181.212 171.861  1.00  0.00     0.012 C 
ENDBRANCH   6  10
TORSDOF 2
ENDMDL
MODEL 8
REMARK VINA RESULT:    -3.765      5.151      6.355
REMARK INTER + INTRA:          -4.424
REMARK INTER:                  -4.204
REMARK INTRA:                  -0.220
REMARK UNBOUND:                -0.219
REMARK SMILES CC(C)c1ccc(C(=O)[O-])cc1
REMARK SMILES IDX 7 1 6 2 11 3 5 4 12 5 4 6 8 7 9 8 10 9 2 10 1 11 3 12
REMARK H PARENT
REMARK Flexibility Score: inf
ROOT
ATOM      1  C   UNL     1      30.462 166.383 161.607  1.00  0.00    -0.003 A 
ATOM      2  C   UNL     1      30.154 167.316 160.603  1.00  0.00     0.010 A 
ATOM      3  C   UNL     1      31.408 165.378 161.337  1.00  0.00     0.010 A 
ATOM      4  C   UNL     1      30.778 167.246 159.354  1.00  0.00     0.004 A 
ATOM      5  C   UNL     1      32.030 165.309 160.087  1.00  0.00     0.004 A 
ATOM      6  C   UNL     1      31.723 166.242 159.082  1.00  0.00    -0.045 A 
ENDROOT
BRANCH   1   7
ATOM      7  C   UNL     1      29.800 166.461 162.928  1.00  0.00     0.071 C 
ATOM      8  O   UNL     1      29.340 167.554 163.351  1.00  0.00    -0.545 OA
ATOM      9  O   UNL     1      29.676 165.327 163.721  1.00  0.00    -0.545 OA
ENDBRANCH   1   7
BRANCH   6  10
ATOM     10  C   UNL     1      32.392 166.179 157.721  1.00  0.00     0.013 C 
ATOM     11  C   UNL     1      32.324 167.534 157.009  1.00  0.00     0.012 C 
ATOM     12  C   UNL     1      33.840 165.690 157.840  1.00  0.00     0.012 C 
ENDBRANCH   6  10
TORSDOF 2
ENDMDL
MODEL 9
REMARK VINA RESULT:    -3.700     21.857     22.649
REMARK INTER + INTRA:          -4.351
REMARK INTER:                  -4.146
REMARK INTRA:                  -0.205
REMARK UNBOUND:                -0.219
REMARK SMILES CC(C)c1ccc(C(=O)[O-])cc1
REMARK SMILES IDX 7 1 6 2 11 3 5 4 12 5 4 6 8 7 9 8 10 9 2 10 1 11 3 12
REMARK H PARENT
REMARK Flexibility Score: inf
ROOT
ATOM      1  C   UNL     1      35.481 181.238 172.585  1.00  0.00    -0.003 A 
ATOM      2  C   UNL     1      36.124 180.651 173.688  1.00  0.00     0.010 A 
ATOM      3  C   UNL     1      36.262 181.801 171.561  1.00  0.00     0.010 A 
ATOM      4  C   UNL     1      37.519 180.627 173.764  1.00  0.00     0.004 A 
ATOM      5  C   UNL     1      37.657 181.777 171.639  1.00  0.00     0.004 A 
ATOM      6  C   UNL     1      38.302 181.189 172.742  1.00  0.00    -0.045 A 
ENDROOT
BRANCH   1   7
ATOM      7  C   UNL     1      34.003 181.261 172.508  1.00  0.00     0.071 C 
ATOM      8  O   UNL     1      33.322 181.807 173.416  1.00  0.00    -0.545 OA
ATOM      9  O   UNL     1      33.345 180.681 171.430  1.00  0.00    -0.545 OA
ENDBRANCH   1   7
BRANCH   6  10
ATOM     10  C   UNL     1      39.816 181.155 172.840  1.00  0.00     0.013 C 
ATOM     11  C   UNL     1      40.330 182.215 173.821  1.00  0.00     0.012 C 
ATOM     12  C   UNL     1      40.314 179.758 173.226  1.00  0.00     0.012 C 
ENDBRANCH   6  10
TORSDOF 2
ENDMDL
