MODEL 1
REMARK VINA RESULT:    -5.851      0.000      0.000
REMARK INTER + INTRA:          -7.150
REMARK INTER:                  -6.877
REMARK INTRA:                  -0.273
REMARK UNBOUND:                -0.273
REMARK SMILES O=c1cc(-c2ccc(O)c(O)c2)oc2cc(O)cc(O)c12
REMARK SMILES IDX 4 1 3 2 2 3 1 4 21 5 19 6 18 7 16 8 15 9 14 10 13 11 5 12
REMARK SMILES IDX 6 13 7 14 8 15 12 16 10 17 9 18 11 20 20 22 17 24
REMARK H PARENT 9 19 11 21 20 23 17 25
REMARK Flexibility Score: inf
ROOT
ATOM      1  C   UNL     1      -0.562 -25.643 -45.717  1.00  0.00     0.138 A 
ATOM      2  C   UNL     1      -1.034 -26.246 -46.896  1.00  0.00     0.100 A 
ATOM      3  C   UNL     1      -2.402 -26.469 -47.052  1.00  0.00     0.197 A 
ATOM      4  O   UNL     1      -2.816 -27.009 -48.113  1.00  0.00    -0.289 OA
ATOM      5  C   UNL     1      -3.291 -26.085 -46.028  1.00  0.00     0.107 A 
ATOM      6  C   UNL     1      -4.692 -26.277 -46.106  1.00  0.00     0.134 A 
ATOM      7  C   UNL     1      -5.509 -25.860 -45.045  1.00  0.00     0.093 A 
ATOM      8  C   UNL     1      -4.956 -25.258 -43.912  1.00  0.00     0.123 A 
ATOM      9  C   UNL     1      -3.573 -25.067 -43.830  1.00  0.00     0.094 A 
ATOM     10  C   UNL     1      -2.741 -25.475 -44.876  1.00  0.00     0.146 A 
ATOM     11  O   UNL     1      -1.429 -25.283 -44.774  1.00  0.00    -0.456 OA
ENDROOT
BRANCH   1  12
ATOM     12  C   UNL     1       0.882 -25.380 -45.497  1.00  0.00     0.021 A 
ATOM     13  C   UNL     1       1.527 -25.742 -44.299  1.00  0.00     0.016 A 
ATOM     14  C   UNL     1       2.886 -25.473 -44.115  1.00  0.00     0.051 A 
ATOM     15  C   UNL     1       3.621 -24.831 -45.120  1.00  0.00     0.157 A 
ATOM     16  C   UNL     1       1.626 -24.725 -46.495  1.00  0.00     0.062 A 
ATOM     17  C   UNL     1       2.990 -24.456 -46.311  1.00  0.00     0.158 A 
BRANCH  15  18
ATOM     18  O   UNL     1       4.977 -24.562 -44.941  1.00  0.00    -0.504 OA
ATOM     19  H   UNL     1       5.407 -23.727 -45.322  1.00  0.00     0.293 HD
ENDBRANCH  15  18
BRANCH  17  20
ATOM     20  O   UNL     1       3.723 -23.814 -47.308  1.00  0.00    -0.504 OA
ATOM     21  H   UNL     1       3.269 -23.371 -48.099  1.00  0.00     0.293 HD
ENDBRANCH  17  20
ENDBRANCH   1  12
BRANCH   6  22
ATOM     22  O   UNL     1      -5.273 -26.875 -47.224  1.00  0.00    -0.507 OA
ATOM     23  H   UNL     1      -5.649 -26.324 -47.988  1.00  0.00     0.293 HD
ENDBRANCH   6  22
BRANCH   8  24
ATOM     24  O   UNL     1      -5.791 -24.854 -42.873  1.00  0.00    -0.508 OA
ATOM     25  H   UNL     1      -6.734 -24.527 -43.048  1.00  0.00     0.293 HD
ENDBRANCH   8  24
TORSDOF 5
ENDMDL
MODEL 2
REMARK VINA RESULT:    -5.846      3.798      5.963
REMARK INTER + INTRA:          -7.144
REMARK INTER:                  -6.871
REMARK INTRA:                  -0.272
REMARK UNBOUND:                -0.273
REMARK SMILES O=c1cc(-c2ccc(O)c(O)c2)oc2cc(O)cc(O)c12
REMARK SMILES IDX 4 1 3 2 2 3 1 4 21 5 19 6 18 7 16 8 15 9 14 10 13 11 5 12
REMARK SMILES IDX 6 13 7 14 8 15 12 16 10 17 9 18 11 20 20 22 17 24
REMARK H PARENT 9 19 11 21 20 23 17 25
REMARK Flexibility Score: inf
ROOT
ATOM      1  C   UNL     1       0.015 -22.910 -44.377  1.00  0.00     0.138 A 
ATOM      2  C   UNL     1       1.357 -23.257 -44.604  1.00  0.00     0.100 A 
ATOM      3  C   UNL     1       1.658 -24.292 -45.490  1.00  0.00     0.197 A 
ATOM      4  O   UNL     1       2.865 -24.596 -45.688  1.00  0.00    -0.289 OA
ATOM      5  C   UNL     1       0.613 -24.972 -46.147  1.00  0.00     0.107 A 
ATOM      6  C   UNL     1       0.830 -26.033 -47.058  1.00  0.00     0.134 A 
ATOM      7  C   UNL     1      -0.266 -26.654 -47.675  1.00  0.00     0.093 A 
ATOM      8  C   UNL     1      -1.570 -26.236 -47.399  1.00  0.00     0.123 A 
ATOM      9  C   UNL     1      -1.791 -25.189 -46.499  1.00  0.00     0.094 A 
ATOM     10  C   UNL     1      -0.713 -24.557 -45.873  1.00  0.00     0.146 A 
ATOM     11  O   UNL     1      -0.948 -23.564 -45.021  1.00  0.00    -0.456 OA
ENDROOT
BRANCH   1  12
ATOM     12  C   UNL     1      -0.364 -21.816 -43.447  1.00  0.00     0.021 A 
ATOM     13  C   UNL     1      -0.019 -20.475 -43.700  1.00  0.00     0.016 A 
ATOM     14  C   UNL     1      -0.381 -19.468 -42.802  1.00  0.00     0.051 A 
ATOM     15  C   UNL     1      -1.084 -19.783 -41.632  1.00  0.00     0.157 A 
ATOM     16  C   UNL     1      -1.060 -22.125 -42.263  1.00  0.00     0.062 A 
ATOM     17  C   UNL     1      -1.422 -21.114 -41.362  1.00  0.00     0.158 A 
BRANCH  15  18
ATOM     18  O   UNL     1      -1.446 -18.781 -40.734  1.00  0.00    -0.504 OA
ATOM     19  H   UNL     1      -2.414 -18.627 -40.474  1.00  0.00     0.293 HD
ENDBRANCH  15  18
BRANCH  17  20
ATOM     20  O   UNL     1      -2.119 -21.425 -40.195  1.00  0.00    -0.504 OA
ATOM     21  H   UNL     1      -2.934 -22.028 -40.209  1.00  0.00     0.293 HD
ENDBRANCH  17  20
ENDBRANCH   1  12
BRANCH   6  22
ATOM     22  O   UNL     1       2.122 -26.471 -47.354  1.00  0.00    -0.507 OA
ATOM     23  H   UNL     1       2.650 -27.046 -46.708  1.00  0.00     0.293 HD
ENDBRANCH   6  22
BRANCH   8  24
ATOM     24  O   UNL     1      -2.641 -26.871 -48.026  1.00  0.00    -0.508 OA
ATOM     25  H   UNL     1      -3.286 -27.456 -47.509  1.00  0.00     0.293 HD
ENDBRANCH   8  24
TORSDOF 5
ENDMDL
MODEL 3
REMARK VINA RESULT:    -5.811     14.878     15.712
REMARK INTER + INTRA:          -7.103
REMARK INTER:                  -6.793
REMARK INTRA:                  -0.310
REMARK UNBOUND:                -0.273
REMARK SMILES O=c1cc(-c2ccc(O)c(O)c2)oc2cc(O)cc(O)c12
REMARK SMILES IDX 4 1 3 2 2 3 1 4 21 5 19 6 18 7 16 8 15 9 14 10 13 11 5 12
REMARK SMILES IDX 6 13 7 14 8 15 12 16 10 17 9 18 11 20 20 22 17 24
REMARK H PARENT 9 19 11 21 20 23 17 25
REMARK Flexibility Score: inf
ROOT
ATOM      1  C   UNL     1      -1.900 -10.019 -42.402  1.00  0.00     0.138 A 
ATOM      2  C   UNL     1      -2.339  -8.693 -42.554  1.00  0.00     0.100 A 
ATOM      3  C   UNL     1      -3.690  -8.441 -42.795  1.00  0.00     0.197 A 
ATOM      4  O   UNL     1      -4.075  -7.248 -42.929  1.00  0.00    -0.289 OA
ATOM      5  C   UNL     1      -4.595  -9.518 -42.880  1.00  0.00     0.107 A 
ATOM      6  C   UNL     1      -5.980  -9.350 -43.123  1.00  0.00     0.134 A 
ATOM      7  C   UNL     1      -6.814 -10.476 -43.187  1.00  0.00     0.093 A 
ATOM      8  C   UNL     1      -6.294 -11.761 -43.013  1.00  0.00     0.123 A 
ATOM      9  C   UNL     1      -4.927 -11.932 -42.773  1.00  0.00     0.094 A 
ATOM     10  C   UNL     1      -4.078 -10.825 -42.706  1.00  0.00     0.146 A 
ATOM     11  O   UNL     1      -2.782 -11.013 -42.477  1.00  0.00    -0.456 OA
ENDROOT
BRANCH   1  12
ATOM     12  C   UNL     1      -0.476 -10.347 -42.142  1.00  0.00     0.021 A 
ATOM     13  C   UNL     1       0.566  -9.488 -42.540  1.00  0.00     0.016 A 
ATOM     14  C   UNL     1       1.899  -9.826 -42.291  1.00  0.00     0.051 A 
ATOM     15  C   UNL     1       2.214 -11.030 -41.649  1.00  0.00     0.157 A 
ATOM     16  C   UNL     1      -0.149 -11.560 -41.509  1.00  0.00     0.062 A 
ATOM     17  C   UNL     1       1.188 -11.899 -41.259  1.00  0.00     0.158 A 
BRANCH  15  18
ATOM     18  O   UNL     1       3.542 -11.371 -41.399  1.00  0.00    -0.504 OA
ATOM     19  H   UNL     1       3.899 -12.298 -41.601  1.00  0.00     0.293 HD
ENDBRANCH  15  18
BRANCH  17  20
ATOM     20  O   UNL     1       1.505 -13.099 -40.624  1.00  0.00    -0.504 OA
ATOM     21  H   UNL     1       2.437 -13.282 -40.271  1.00  0.00     0.293 HD
ENDBRANCH  17  20
ENDBRANCH   1  12
BRANCH   6  22
ATOM     22  O   UNL     1      -6.528  -8.080 -43.301  1.00  0.00    -0.507 OA
ATOM     23  H   UNL     1      -6.774  -7.730 -44.220  1.00  0.00     0.293 HD
ENDBRANCH   6  22
BRANCH   8  24
ATOM     24  O   UNL     1      -7.146 -12.861 -43.081  1.00  0.00    -0.508 OA
ATOM     25  H   UNL     1      -8.088 -12.780 -43.447  1.00  0.00     0.293 HD
ENDBRANCH   8  24
TORSDOF 5
ENDMDL
MODEL 4
REMARK VINA RESULT:    -5.719     16.254     16.990
REMARK INTER + INTRA:          -6.995
REMARK INTER:                  -6.730
REMARK INTRA:                  -0.265
REMARK UNBOUND:                -0.273
REMARK SMILES O=c1cc(-c2ccc(O)c(O)c2)oc2cc(O)cc(O)c12
REMARK SMILES IDX 4 1 3 2 2 3 1 4 21 5 19 6 18 7 16 8 15 9 14 10 13 11 5 12
REMARK SMILES IDX 6 13 7 14 8 15 12 16 10 17 9 18 11 20 20 22 17 24
REMARK H PARENT 9 19 11 21 20 23 17 25
REMARK Flexibility Score: inf
ROOT
ATOM      1  C   UNL     1      -3.595  -8.835 -43.548  1.00  0.00     0.138 A 
ATOM      2  C   UNL     1      -3.376  -8.004 -44.659  1.00  0.00     0.100 A 
ATOM      3  C   UNL     1      -4.203  -8.122 -45.777  1.00  0.00     0.197 A 
ATOM      4  O   UNL     1      -4.000  -7.372 -46.770  1.00  0.00    -0.289 OA
ATOM      5  C   UNL     1      -5.245  -9.071 -45.775  1.00  0.00     0.107 A 
ATOM      6  C   UNL     1      -6.126  -9.256 -46.867  1.00  0.00     0.134 A 
ATOM      7  C   UNL     1      -7.144 -10.219 -46.782  1.00  0.00     0.093 A 
ATOM      8  C   UNL     1      -7.296 -10.996 -45.632  1.00  0.00     0.123 A 
ATOM      9  C   UNL     1      -6.427 -10.817 -44.550  1.00  0.00     0.094 A 
ATOM     10  C   UNL     1      -5.407  -9.864 -44.614  1.00  0.00     0.146 A 
ATOM     11  O   UNL     1      -4.594  -9.713 -43.573  1.00  0.00    -0.456 OA
ENDROOT
BRANCH   1  12
ATOM     12  C   UNL     1      -2.748  -8.752 -42.331  1.00  0.00     0.021 A 
ATOM     13  C   UNL     1      -3.245  -8.243 -41.116  1.00  0.00     0.016 A 
ATOM     14  C   UNL     1      -2.423  -8.168 -39.989  1.00  0.00     0.051 A 
ATOM     15  C   UNL     1      -1.090  -8.591 -40.057  1.00  0.00     0.157 A 
ATOM     16  C   UNL     1      -1.404  -9.164 -42.393  1.00  0.00     0.062 A 
ATOM     17  C   UNL     1      -0.579  -9.089 -41.262  1.00  0.00     0.158 A 
BRANCH  15  18
ATOM     18  O   UNL     1      -0.267  -8.518 -38.935  1.00  0.00    -0.504 OA
ATOM     19  H   UNL     1      -0.051  -7.632 -38.492  1.00  0.00     0.293 HD
ENDBRANCH  15  18
BRANCH  17  20
ATOM     20  O   UNL     1       0.749  -9.506 -41.329  1.00  0.00    -0.504 OA
ATOM     21  H   UNL     1       1.030 -10.290 -41.906  1.00  0.00     0.293 HD
ENDBRANCH  17  20
ENDBRANCH   1  12
BRANCH   6  22
ATOM     22  O   UNL     1      -5.999  -8.494 -48.029  1.00  0.00    -0.507 OA
ATOM     23  H   UNL     1      -5.215  -8.612 -48.660  1.00  0.00     0.293 HD
ENDBRANCH   6  22
BRANCH   8  24
ATOM     24  O   UNL     1      -8.315 -11.945 -45.574  1.00  0.00    -0.508 OA
ATOM     25  H   UNL     1      -9.028 -12.000 -46.292  1.00  0.00     0.293 HD
ENDBRANCH   8  24
TORSDOF 5
ENDMDL
MODEL 5
REMARK VINA RESULT:    -5.677      4.520      6.780
REMARK INTER + INTRA:          -6.945
REMARK INTER:                  -6.662
REMARK INTRA:                  -0.283
REMARK UNBOUND:                -0.273
REMARK SMILES O=c1cc(-c2ccc(O)c(O)c2)oc2cc(O)cc(O)c12
REMARK SMILES IDX 4 1 3 2 2 3 1 4 21 5 19 6 18 7 16 8 15 9 14 10 13 11 5 12
REMARK SMILES IDX 6 13 7 14 8 15 12 16 10 17 9 18 11 20 20 22 17 24
REMARK H PARENT 9 19 11 21 20 23 17 25
REMARK Flexibility Score: inf
ROOT
ATOM      1  C   UNL     1       0.726 -23.082 -44.121  1.00  0.00     0.138 A 
ATOM      2  C   UNL     1       1.720 -23.425 -43.188  1.00  0.00     0.100 A 
ATOM      3  C   UNL     1       2.040 -22.530 -42.166  1.00  0.00     0.197 A 
ATOM      4  O   UNL     1       2.932 -22.846 -41.333  1.00  0.00    -0.289 OA
ATOM      5  C   UNL     1       1.360 -21.299 -42.081  1.00  0.00     0.107 A 
ATOM      6  C   UNL     1       1.624 -20.335 -41.078  1.00  0.00     0.134 A 
ATOM      7  C   UNL     1       0.897 -19.135 -41.060  1.00  0.00     0.093 A 
ATOM      8  C   UNL     1      -0.083 -18.881 -42.021  1.00  0.00     0.123 A 
ATOM      9  C   UNL     1      -0.348 -19.829 -43.015  1.00  0.00     0.094 A 
ATOM     10  C   UNL     1       0.365 -21.031 -43.051  1.00  0.00     0.146 A 
ATOM     11  O   UNL     1       0.096 -21.916 -44.006  1.00  0.00    -0.456 OA
ENDROOT
BRANCH   1  12
ATOM     12  C   UNL     1       0.344 -23.995 -45.228  1.00  0.00     0.021 A 
ATOM     13  C   UNL     1      -0.981 -24.077 -45.696  1.00  0.00     0.016 A 
ATOM     14  C   UNL     1      -1.314 -24.952 -46.733  1.00  0.00     0.051 A 
ATOM     15  C   UNL     1      -0.332 -25.765 -47.314  1.00  0.00     0.157 A 
ATOM     16  C   UNL     1       1.321 -24.824 -45.809  1.00  0.00     0.062 A 
ATOM     17  C   UNL     1       0.987 -25.702 -46.850  1.00  0.00     0.158 A 
BRANCH  15  18
ATOM     18  O   UNL     1      -0.660 -26.639 -48.349  1.00  0.00    -0.504 OA
ATOM     19  H   UNL     1      -0.720 -26.323 -49.310  1.00  0.00     0.293 HD
ENDBRANCH  15  18
BRANCH  17  20
ATOM     20  O   UNL     1       1.961 -26.515 -47.427  1.00  0.00    -0.504 OA
ATOM     21  H   UNL     1       2.200 -26.440 -48.409  1.00  0.00     0.293 HD
ENDBRANCH  17  20
ENDBRANCH   1  12
BRANCH   6  22
ATOM     22  O   UNL     1       2.597 -20.562 -40.104  1.00  0.00    -0.507 OA
ATOM     23  H   UNL     1       2.361 -20.937 -39.192  1.00  0.00     0.293 HD
ENDBRANCH   6  22
BRANCH   8  24
ATOM     24  O   UNL     1      -0.790 -17.681 -41.980  1.00  0.00    -0.508 OA
ATOM     25  H   UNL     1      -0.343 -16.795 -42.188  1.00  0.00     0.293 HD
ENDBRANCH   8  24
TORSDOF 5
ENDMDL
MODEL 6
REMARK VINA RESULT:    -5.626     16.444     17.230
REMARK INTER + INTRA:          -6.886
REMARK INTER:                  -6.618
REMARK INTRA:                  -0.268
REMARK UNBOUND:                -0.273
REMARK SMILES O=c1cc(-c2ccc(O)c(O)c2)oc2cc(O)cc(O)c12
REMARK SMILES IDX 4 1 3 2 2 3 1 4 21 5 19 6 18 7 16 8 15 9 14 10 13 11 5 12
REMARK SMILES IDX 6 13 7 14 8 15 12 16 10 17 9 18 11 20 20 22 17 24
REMARK H PARENT 9 19 11 21 20 23 17 25
REMARK Flexibility Score: inf
ROOT
ATOM      1  C   UNL     1      -3.621  -9.168 -43.153  1.00  0.00     0.138 A 
ATOM      2  C   UNL     1      -4.625 -10.152 -43.145  1.00  0.00     0.100 A 
ATOM      3  C   UNL     1      -5.436 -10.312 -44.269  1.00  0.00     0.197 A 
ATOM      4  O   UNL     1      -6.333 -11.198 -44.254  1.00  0.00    -0.289 OA
ATOM      5  C   UNL     1      -5.236  -9.489 -45.396  1.00  0.00     0.107 A 
ATOM      6  C   UNL     1      -6.015  -9.585 -46.574  1.00  0.00     0.134 A 
ATOM      7  C   UNL     1      -5.747  -8.732 -47.654  1.00  0.00     0.093 A 
ATOM      8  C   UNL     1      -4.720  -7.788 -47.580  1.00  0.00     0.123 A 
ATOM      9  C   UNL     1      -3.948  -7.688 -46.418  1.00  0.00     0.094 A 
ATOM     10  C   UNL     1      -4.198  -8.529 -45.330  1.00  0.00     0.146 A 
ATOM     11  O   UNL     1      -3.451  -8.414 -44.236  1.00  0.00    -0.456 OA
ENDROOT
BRANCH   1  12
ATOM     12  C   UNL     1      -2.727  -8.954 -41.987  1.00  0.00     0.021 A 
ATOM     13  C   UNL     1      -3.185  -8.337 -40.806  1.00  0.00     0.016 A 
ATOM     14  C   UNL     1      -2.319  -8.139 -39.727  1.00  0.00     0.051 A 
ATOM     15  C   UNL     1      -0.981  -8.545 -39.812  1.00  0.00     0.157 A 
ATOM     16  C   UNL     1      -1.379  -9.346 -42.066  1.00  0.00     0.062 A 
ATOM     17  C   UNL     1      -0.510  -9.148 -40.984  1.00  0.00     0.158 A 
BRANCH  15  18
ATOM     18  O   UNL     1      -0.115  -8.350 -38.738  1.00  0.00    -0.504 OA
ATOM     19  H   UNL     1      -0.302  -8.750 -37.826  1.00  0.00     0.293 HD
ENDBRANCH  15  18
BRANCH  17  20
ATOM     20  O   UNL     1       0.823  -9.547 -41.067  1.00  0.00    -0.504 OA
ATOM     21  H   UNL     1       1.165 -10.358 -40.565  1.00  0.00     0.293 HD
ENDBRANCH  17  20
ENDBRANCH   1  12
BRANCH   6  22
ATOM     22  O   UNL     1      -7.047 -10.519 -46.677  1.00  0.00    -0.507 OA
ATOM     23  H   UNL     1      -7.556 -10.841 -45.863  1.00  0.00     0.293 HD
ENDBRANCH   6  22
BRANCH   8  24
ATOM     24  O   UNL     1      -4.475  -6.953 -48.668  1.00  0.00    -0.508 OA
ATOM     25  H   UNL     1      -5.032  -7.007 -49.513  1.00  0.00     0.293 HD
ENDBRANCH   8  24
TORSDOF 5
ENDMDL
MODEL 7
REMARK VINA RESULT:    -5.618      4.346      7.009
REMARK INTER + INTRA:          -6.876
REMARK INTER:                  -6.579
REMARK INTRA:                  -0.297
REMARK UNBOUND:                -0.273
REMARK SMILES O=c1cc(-c2ccc(O)c(O)c2)oc2cc(O)cc(O)c12
REMARK SMILES IDX 4 1 3 2 2 3 1 4 21 5 19 6 18 7 16 8 15 9 14 10 13 11 5 12
REMARK SMILES IDX 6 13 7 14 8 15 12 16 10 17 9 18 11 20 20 22 17 24
REMARK H PARENT 9 19 11 21 20 23 17 25
REMARK Flexibility Score: inf
ROOT
ATOM      1  C   UNL     1       0.499 -22.750 -44.275  1.00  0.00     0.138 A 
ATOM      2  C   UNL     1      -0.094 -21.476 -44.285  1.00  0.00     0.100 A 
ATOM      3  C   UNL     1       0.230 -20.560 -43.284  1.00  0.00     0.197 A 
ATOM      4  O   UNL     1      -0.306 -19.419 -43.301  1.00  0.00    -0.289 OA
ATOM      5  C   UNL     1       1.149 -20.924 -42.279  1.00  0.00     0.107 A 
ATOM      6  C   UNL     1       1.531 -20.056 -41.227  1.00  0.00     0.134 A 
ATOM      7  C   UNL     1       2.458 -20.494 -40.269  1.00  0.00     0.093 A 
ATOM      8  C   UNL     1       3.008 -21.776 -40.342  1.00  0.00     0.123 A 
ATOM      9  C   UNL     1       2.633 -22.637 -41.378  1.00  0.00     0.094 A 
ATOM     10  C   UNL     1       1.711 -22.221 -42.343  1.00  0.00     0.146 A 
ATOM     11  O   UNL     1       1.370 -23.058 -43.318  1.00  0.00    -0.456 OA
ENDROOT
BRANCH   1  12
ATOM     12  C   UNL     1       0.192 -23.763 -45.316  1.00  0.00     0.021 A 
ATOM     13  C   UNL     1      -1.122 -23.987 -45.767  1.00  0.00     0.016 A 
ATOM     14  C   UNL     1      -1.383 -24.955 -46.741  1.00  0.00     0.051 A 
ATOM     15  C   UNL     1      -0.338 -25.720 -47.273  1.00  0.00     0.157 A 
ATOM     16  C   UNL     1       1.233 -24.545 -45.847  1.00  0.00     0.062 A 
ATOM     17  C   UNL     1       0.972 -25.516 -46.824  1.00  0.00     0.158 A 
BRANCH  15  18
ATOM     18  O   UNL     1      -0.594 -26.686 -48.245  1.00  0.00    -0.504 OA
ATOM     19  H   UNL     1       0.048 -27.452 -48.413  1.00  0.00     0.293 HD
ENDBRANCH  15  18
BRANCH  17  20
ATOM     20  O   UNL     1       2.010 -26.282 -47.354  1.00  0.00    -0.504 OA
ATOM     21  H   UNL     1       2.720 -25.873 -47.949  1.00  0.00     0.293 HD
ENDBRANCH  17  20
ENDBRANCH   1  12
BRANCH   6  22
ATOM     22  O   UNL     1       1.000 -18.770 -41.129  1.00  0.00    -0.507 OA
ATOM     23  H   UNL     1       1.127 -18.084 -41.864  1.00  0.00     0.293 HD
ENDBRANCH   6  22
BRANCH   8  24
ATOM     24  O   UNL     1       3.926 -22.185 -39.377  1.00  0.00    -0.508 OA
ATOM     25  H   UNL     1       4.822 -21.724 -39.270  1.00  0.00     0.293 HD
ENDBRANCH   8  24
TORSDOF 5
ENDMDL
MODEL 8
REMARK VINA RESULT:    -5.480     16.002     16.985
REMARK INTER + INTRA:          -6.714
REMARK INTER:                  -6.404
REMARK INTRA:                  -0.310
REMARK UNBOUND:                -0.273
REMARK SMILES O=c1cc(-c2ccc(O)c(O)c2)oc2cc(O)cc(O)c12
REMARK SMILES IDX 4 1 3 2 2 3 1 4 21 5 19 6 18 7 16 8 15 9 14 10 13 11 5 12
REMARK SMILES IDX 6 13 7 14 8 15 12 16 10 17 9 18 11 20 20 22 17 24
REMARK H PARENT 9 19 11 21 20 23 17 25
REMARK Flexibility Score: inf
ROOT
ATOM      1  C   UNL     1      -2.863  -9.223 -40.921  1.00  0.00     0.138 A 
ATOM      2  C   UNL     1      -2.684  -8.393 -42.041  1.00  0.00     0.100 A 
ATOM      3  C   UNL     1      -3.444  -8.617 -43.189  1.00  0.00     0.197 A 
ATOM      4  O   UNL     1      -3.277  -7.867 -44.189  1.00  0.00    -0.289 OA
ATOM      5  C   UNL     1      -4.381  -9.669 -43.210  1.00  0.00     0.107 A 
ATOM      6  C   UNL     1      -5.189  -9.966 -44.333  1.00  0.00     0.134 A 
ATOM      7  C   UNL     1      -6.103 -11.028 -44.270  1.00  0.00     0.093 A 
ATOM      8  C   UNL     1      -6.224 -11.797 -43.109  1.00  0.00     0.123 A 
ATOM      9  C   UNL     1      -5.427 -11.508 -41.996  1.00  0.00     0.094 A 
ATOM     10  C   UNL     1      -4.510 -10.455 -42.039  1.00  0.00     0.146 A 
ATOM     11  O   UNL     1      -3.764 -10.201 -40.969  1.00  0.00    -0.456 OA
ENDROOT
BRANCH   1  12
ATOM     12  C   UNL     1      -2.084  -9.030 -39.672  1.00  0.00     0.021 A 
ATOM     13  C   UNL     1      -1.521  -7.784 -39.335  1.00  0.00     0.016 A 
ATOM     14  C   UNL     1      -0.784  -7.634 -38.157  1.00  0.00     0.051 A 
ATOM     15  C   UNL     1      -0.590  -8.725 -37.301  1.00  0.00     0.157 A 
ATOM     16  C   UNL     1      -1.873 -10.123 -38.812  1.00  0.00     0.062 A 
ATOM     17  C   UNL     1      -1.134  -9.972 -37.631  1.00  0.00     0.158 A 
BRANCH  15  18
ATOM     18  O   UNL     1       0.144  -8.579 -36.126  1.00  0.00    -0.504 OA
ATOM     19  H   UNL     1       0.836  -9.265 -35.843  1.00  0.00     0.293 HD
ENDBRANCH  15  18
BRANCH  17  20
ATOM     20  O   UNL     1      -0.935 -11.058 -36.779  1.00  0.00    -0.504 OA
ATOM     21  H   UNL     1      -0.936 -12.011 -37.125  1.00  0.00     0.293 HD
ENDBRANCH  17  20
ENDBRANCH   1  12
BRANCH   6  22
ATOM     22  O   UNL     1      -5.091  -9.215 -45.505  1.00  0.00    -0.507 OA
ATOM     23  H   UNL     1      -4.459  -8.427 -45.581  1.00  0.00     0.293 HD
ENDBRANCH   6  22
BRANCH   8  24
ATOM     24  O   UNL     1      -7.140 -12.846 -43.074  1.00  0.00    -0.508 OA
ATOM     25  H   UNL     1      -7.539 -13.171 -42.201  1.00  0.00     0.293 HD
ENDBRANCH   8  24
TORSDOF 5
ENDMDL
MODEL 9
REMARK VINA RESULT:    -5.333     16.524     18.018
REMARK INTER + INTRA:          -6.541
REMARK INTER:                  -6.276
REMARK INTRA:                  -0.265
REMARK UNBOUND:                -0.273
REMARK SMILES O=c1cc(-c2ccc(O)c(O)c2)oc2cc(O)cc(O)c12
REMARK SMILES IDX 4 1 3 2 2 3 1 4 21 5 19 6 18 7 16 8 15 9 14 10 13 11 5 12
REMARK SMILES IDX 6 13 7 14 8 15 12 16 10 17 9 18 11 20 20 22 17 24
REMARK H PARENT 9 19 11 21 20 23 17 25
REMARK Flexibility Score: inf
ROOT
ATOM      1  C   UNL     1      -1.020 -11.114 -35.783  1.00  0.00     0.138 A 
ATOM      2  C   UNL     1      -0.581  -9.816 -35.474  1.00  0.00     0.100 A 
ATOM      3  C   UNL     1      -0.608  -8.829 -36.460  1.00  0.00     0.197 A 
ATOM      4  O   UNL     1      -0.213  -7.667 -36.174  1.00  0.00    -0.289 OA
ATOM      5  C   UNL     1      -1.078  -9.147 -37.750  1.00  0.00     0.107 A 
ATOM      6  C   UNL     1      -1.138  -8.207 -38.807  1.00  0.00     0.134 A 
ATOM      7  C   UNL     1      -1.626  -8.604 -40.061  1.00  0.00     0.093 A 
ATOM      8  C   UNL     1      -2.053  -9.915 -40.278  1.00  0.00     0.123 A 
ATOM      9  C   UNL     1      -1.996 -10.848 -39.237  1.00  0.00     0.094 A 
ATOM     10  C   UNL     1      -1.514 -10.475 -37.981  1.00  0.00     0.146 A 
ATOM     11  O   UNL     1      -1.468 -11.379 -37.007  1.00  0.00    -0.456 OA
ENDROOT
BRANCH   1  12
ATOM     12  C   UNL     1      -1.015 -12.203 -34.773  1.00  0.00     0.021 A 
ATOM     13  C   UNL     1      -2.201 -12.849 -34.375  1.00  0.00     0.016 A 
ATOM     14  C   UNL     1      -2.167 -13.864 -33.415  1.00  0.00     0.051 A 
ATOM     15  C   UNL     1      -0.952 -14.245 -32.832  1.00  0.00     0.157 A 
ATOM     16  C   UNL     1       0.198 -12.584 -34.173  1.00  0.00     0.062 A 
ATOM     17  C   UNL     1       0.232 -13.603 -33.211  1.00  0.00     0.158 A 
BRANCH  15  18
ATOM     18  O   UNL     1      -0.915 -15.257 -31.875  1.00  0.00    -0.504 OA
ATOM     19  H   UNL     1      -1.131 -16.219 -32.112  1.00  0.00     0.293 HD
ENDBRANCH  15  18
BRANCH  17  20
ATOM     20  O   UNL     1       1.439 -13.981 -32.626  1.00  0.00    -0.504 OA
ATOM     21  H   UNL     1       2.104 -14.570 -33.114  1.00  0.00     0.293 HD
ENDBRANCH  17  20
ENDBRANCH   1  12
BRANCH   6  22
ATOM     22  O   UNL     1      -0.718  -6.890 -38.620  1.00  0.00    -0.507 OA
ATOM     23  H   UNL     1      -1.004  -6.146 -39.246  1.00  0.00     0.293 HD
ENDBRANCH   6  22
BRANCH   8  24
ATOM     24  O   UNL     1      -2.534 -10.282 -41.534  1.00  0.00    -0.508 OA
ATOM     25  H   UNL     1      -1.967 -10.816 -42.183  1.00  0.00     0.293 HD
ENDBRANCH   8  24
TORSDOF 5
ENDMDL
