MODEL 1
REMARK VINA RESULT:    -7.681      0.000      0.000
REMARK INTER + INTRA:          -9.288
REMARK INTER:                  -9.477
REMARK INTRA:                   0.189
REMARK UNBOUND:                 0.189
REMARK SMILES Oc1cc(O)c2cc(O)c(-c3cc(O)c(O)c(O)c3)[o+]c2c1
REMARK SMILES IDX 10 1 20 2 21 3 22 4 2 5 3 6 4 7 6 8 7 9 8 10 11 11 12 12
REMARK SMILES IDX 13 13 19 14 15 15 17 16 14 17 16 19 18 21 9 23 1 25 5 27
REMARK H PARENT 14 18 16 20 18 22 9 24 1 26 5 28
REMARK Flexibility Score: inf
ROOT
ATOM      1  C   UNL     1     -57.719  27.072 -22.713  1.00  0.00     0.402 A 
ATOM      2  O   UNL     1     -56.496  27.453 -22.354  1.00  0.00    -0.202 OA
ATOM      3  C   UNL     1     -56.261  28.477 -21.540  1.00  0.00     0.368 A 
ATOM      4  C   UNL     1     -54.940  28.800 -21.217  1.00  0.00     0.162 A 
ATOM      5  C   UNL     1     -54.663  29.870 -20.362  1.00  0.00     0.128 A 
ATOM      6  C   UNL     1     -55.713  30.620 -19.827  1.00  0.00     0.093 A 
ATOM      7  C   UNL     1     -57.045  30.318 -20.134  1.00  0.00     0.136 A 
ATOM      8  C   UNL     1     -57.331  29.234 -21.004  1.00  0.00     0.125 A 
ATOM      9  C   UNL     1     -58.634  28.867 -21.378  1.00  0.00     0.078 A 
ATOM     10  C   UNL     1     -58.837  27.788 -22.245  1.00  0.00     0.223 A 
ENDROOT
BRANCH   1  11
ATOM     11  C   UNL     1     -57.852  25.908 -23.619  1.00  0.00     0.091 A 
ATOM     12  C   UNL     1     -58.999  25.095 -23.601  1.00  0.00     0.068 A 
ATOM     13  C   UNL     1     -59.095  23.984 -24.450  1.00  0.00     0.162 A 
ATOM     14  C   UNL     1     -56.790  25.573 -24.473  1.00  0.00     0.068 A 
ATOM     15  C   UNL     1     -58.040  23.669 -25.317  1.00  0.00     0.200 A 
ATOM     16  C   UNL     1     -56.882  24.464 -25.326  1.00  0.00     0.162 A 
BRANCH  13  17
ATOM     17  O   UNL     1     -60.236  23.183 -24.435  1.00  0.00    -0.504 OA
ATOM     18  H   UNL     1     -60.867  23.173 -23.641  1.00  0.00     0.293 HD
ENDBRANCH  13  17
BRANCH  15  19
ATOM     19  O   UNL     1     -58.156  22.561 -26.157  1.00  0.00    -0.502 OA
ATOM     20  H   UNL     1     -58.176  21.614 -25.800  1.00  0.00     0.293 HD
ENDBRANCH  15  19
BRANCH  16  21
ATOM     21  O   UNL     1     -55.827  24.150 -26.181  1.00  0.00    -0.504 OA
ATOM     22  H   UNL     1     -54.896  24.522 -26.034  1.00  0.00     0.293 HD
ENDBRANCH  16  21
ENDBRANCH   1  11
BRANCH  10  23
ATOM     23  O   UNL     1     -60.127  27.455 -22.657  1.00  0.00    -0.500 OA
ATOM     24  H   UNL     1     -60.576  26.597 -22.359  1.00  0.00     0.294 HD
ENDBRANCH  10  23
BRANCH   5  25
ATOM     25  O   UNL     1     -53.349  30.197 -20.036  1.00  0.00    -0.507 OA
ATOM     26  H   UNL     1     -53.132  30.802 -19.253  1.00  0.00     0.293 HD
ENDBRANCH   5  25
BRANCH   7  27
ATOM     27  O   UNL     1     -58.037  31.114 -19.554  1.00  0.00    -0.507 OA
ATOM     28  H   UNL     1     -58.180  31.214 -18.560  1.00  0.00     0.293 HD
ENDBRANCH   7  27
TORSDOF 7
ENDMDL
MODEL 2
REMARK VINA RESULT:    -7.566      2.701      3.818
REMARK INTER + INTRA:          -9.146
REMARK INTER:                  -8.794
REMARK INTRA:                  -0.352
REMARK UNBOUND:                 0.189
REMARK SMILES Oc1cc(O)c2cc(O)c(-c3cc(O)c(O)c(O)c3)[o+]c2c1
REMARK SMILES IDX 10 1 20 2 21 3 22 4 2 5 3 6 4 7 6 8 7 9 8 10 11 11 12 12
REMARK SMILES IDX 13 13 19 14 15 15 17 16 14 17 16 19 18 21 9 23 1 25 5 27
REMARK H PARENT 14 18 16 20 18 22 9 24 1 26 5 28
REMARK Flexibility Score: inf
ROOT
ATOM      1  C   UNL     1     -57.608  29.746 -22.374  1.00  0.00     0.402 A 
ATOM      2  O   UNL     1     -56.310  29.525 -22.186  1.00  0.00    -0.202 OA
ATOM      3  C   UNL     1     -55.683  29.787 -21.044  1.00  0.00     0.368 A 
ATOM      4  C   UNL     1     -54.315  29.518 -20.942  1.00  0.00     0.162 A 
ATOM      5  C   UNL     1     -53.631  29.782 -19.752  1.00  0.00     0.128 A 
ATOM      6  C   UNL     1     -54.318  30.315 -18.659  1.00  0.00     0.093 A 
ATOM      7  C   UNL     1     -55.688  30.594 -18.735  1.00  0.00     0.136 A 
ATOM      8  C   UNL     1     -56.386  30.331 -19.943  1.00  0.00     0.125 A 
ATOM      9  C   UNL     1     -57.756  30.591 -20.115  1.00  0.00     0.078 A 
ATOM     10  C   UNL     1     -58.375  30.310 -21.337  1.00  0.00     0.223 A 
ENDROOT
BRANCH   1  11
ATOM     11  C   UNL     1     -58.194  29.403 -23.691  1.00  0.00     0.091 A 
ATOM     12  C   UNL     1     -58.413  30.386 -24.672  1.00  0.00     0.068 A 
ATOM     13  C   UNL     1     -58.990  30.044 -25.902  1.00  0.00     0.162 A 
ATOM     14  C   UNL     1     -58.592  28.081 -23.945  1.00  0.00     0.068 A 
ATOM     15  C   UNL     1     -59.364  28.718 -26.158  1.00  0.00     0.200 A 
ATOM     16  C   UNL     1     -59.168  27.734 -25.176  1.00  0.00     0.162 A 
BRANCH  13  17
ATOM     17  O   UNL     1     -59.200  31.019 -26.876  1.00  0.00    -0.504 OA
ATOM     18  H   UNL     1     -58.602  31.092 -27.691  1.00  0.00     0.293 HD
ENDBRANCH  13  17
BRANCH  15  19
ATOM     19  O   UNL     1     -59.934  28.397 -27.391  1.00  0.00    -0.502 OA
ATOM     20  H   UNL     1     -59.518  27.717 -28.016  1.00  0.00     0.293 HD
ENDBRANCH  15  19
BRANCH  16  21
ATOM     21  O   UNL     1     -59.546  26.416 -25.423  1.00  0.00    -0.504 OA
ATOM     22  H   UNL     1     -60.515  26.122 -25.369  1.00  0.00     0.293 HD
ENDBRANCH  16  21
ENDBRANCH   1  11
BRANCH  10  23
ATOM     23  O   UNL     1     -59.723  30.614 -21.525  1.00  0.00    -0.500 OA
ATOM     24  H   UNL     1     -60.017  31.468 -21.983  1.00  0.00     0.294 HD
ENDBRANCH  10  23
BRANCH   5  25
ATOM     25  O   UNL     1     -52.268  29.516 -19.643  1.00  0.00    -0.507 OA
ATOM     26  H   UNL     1     -51.638  29.653 -20.424  1.00  0.00     0.293 HD
ENDBRANCH   5  25
BRANCH   7  27
ATOM     27  O   UNL     1     -56.303  31.123 -17.597  1.00  0.00    -0.507 OA
ATOM     28  H   UNL     1     -56.193  30.753 -16.664  1.00  0.00     0.293 HD
ENDBRANCH   7  27
TORSDOF 7
ENDMDL
MODEL 3
REMARK VINA RESULT:    -7.430      6.378      9.700
REMARK INTER + INTRA:          -8.978
REMARK INTER:                  -8.748
REMARK INTRA:                  -0.230
REMARK UNBOUND:                 0.189
REMARK SMILES Oc1cc(O)c2cc(O)c(-c3cc(O)c(O)c(O)c3)[o+]c2c1
REMARK SMILES IDX 10 1 20 2 21 3 22 4 2 5 3 6 4 7 6 8 7 9 8 10 11 11 12 12
REMARK SMILES IDX 13 13 19 14 15 15 17 16 14 17 16 19 18 21 9 23 1 25 5 27
REMARK H PARENT 14 18 16 20 18 22 9 24 1 26 5 28
REMARK Flexibility Score: inf
ROOT
ATOM      1  C   UNL     1     -60.107  20.606 -29.443  1.00  0.00     0.402 A 
ATOM      2  O   UNL     1     -59.224  21.011 -28.534  1.00  0.00    -0.202 OA
ATOM      3  C   UNL     1     -58.948  22.290 -28.305  1.00  0.00     0.368 A 
ATOM      4  C   UNL     1     -58.006  22.619 -27.326  1.00  0.00     0.162 A 
ATOM      5  C   UNL     1     -57.699  23.957 -27.062  1.00  0.00     0.128 A 
ATOM      6  C   UNL     1     -58.337  24.970 -27.780  1.00  0.00     0.093 A 
ATOM      7  C   UNL     1     -59.285  24.669 -28.766  1.00  0.00     0.136 A 
ATOM      8  C   UNL     1     -59.598  23.312 -29.039  1.00  0.00     0.125 A 
ATOM      9  C   UNL     1     -60.525  22.915 -30.018  1.00  0.00     0.078 A 
ATOM     10  C   UNL     1     -60.778  21.557 -30.234  1.00  0.00     0.223 A 
ENDROOT
BRANCH   1  11
ATOM     11  C   UNL     1     -60.334  19.150 -29.598  1.00  0.00     0.091 A 
ATOM     12  C   UNL     1     -60.901  18.384 -28.565  1.00  0.00     0.068 A 
ATOM     13  C   UNL     1     -61.086  17.004 -28.723  1.00  0.00     0.162 A 
ATOM     14  C   UNL     1     -59.925  18.510 -30.779  1.00  0.00     0.068 A 
ATOM     15  C   UNL     1     -60.695  16.375 -29.914  1.00  0.00     0.200 A 
ATOM     16  C   UNL     1     -60.109  17.130 -30.943  1.00  0.00     0.162 A 
BRANCH  13  17
ATOM     17  O   UNL     1     -61.655  16.247 -27.700  1.00  0.00    -0.504 OA
ATOM     18  H   UNL     1     -61.750  15.241 -27.775  1.00  0.00     0.293 HD
ENDBRANCH  13  17
BRANCH  15  19
ATOM     19  O   UNL     1     -60.892  15.001 -30.054  1.00  0.00    -0.502 OA
ATOM     20  H   UNL     1     -61.771  14.556 -29.822  1.00  0.00     0.293 HD
ENDBRANCH  15  19
BRANCH  16  21
ATOM     21  O   UNL     1     -59.712  16.508 -32.125  1.00  0.00    -0.504 OA
ATOM     22  H   UNL     1     -59.027  16.929 -32.743  1.00  0.00     0.293 HD
ENDBRANCH  16  21
ENDBRANCH   1  11
BRANCH  10  23
ATOM     23  O   UNL     1     -61.660  21.161 -31.239  1.00  0.00    -0.500 OA
ATOM     24  H   UNL     1     -62.402  21.768 -31.566  1.00  0.00     0.294 HD
ENDBRANCH  10  23
BRANCH   5  25
ATOM     25  O   UNL     1     -56.761  24.290 -26.088  1.00  0.00    -0.507 OA
ATOM     26  H   UNL     1     -55.966  23.694 -25.892  1.00  0.00     0.293 HD
ENDBRANCH   5  25
BRANCH   7  27
ATOM     27  O   UNL     1     -59.882  25.741 -29.436  1.00  0.00    -0.507 OA
ATOM     28  H   UNL     1     -60.818  26.075 -29.259  1.00  0.00     0.293 HD
ENDBRANCH   7  27
TORSDOF 7
ENDMDL
MODEL 4
REMARK VINA RESULT:    -7.387      4.877     10.841
REMARK INTER + INTRA:          -8.925
REMARK INTER:                  -9.031
REMARK INTRA:                   0.105
REMARK UNBOUND:                 0.189
REMARK SMILES Oc1cc(O)c2cc(O)c(-c3cc(O)c(O)c(O)c3)[o+]c2c1
REMARK SMILES IDX 10 1 20 2 21 3 22 4 2 5 3 6 4 7 6 8 7 9 8 10 11 11 12 12
REMARK SMILES IDX 13 13 19 14 15 15 17 16 14 17 16 19 18 21 9 23 1 25 5 27
REMARK H PARENT 14 18 16 20 18 22 9 24 1 26 5 28
REMARK Flexibility Score: inf
ROOT
ATOM      1  C   UNL     1     -58.762  21.481 -27.964  1.00  0.00     0.402 A 
ATOM      2  O   UNL     1     -59.481  20.409 -27.645  1.00  0.00    -0.202 OA
ATOM      3  C   UNL     1     -59.807  19.463 -28.519  1.00  0.00     0.368 A 
ATOM      4  C   UNL     1     -60.565  18.370 -28.088  1.00  0.00     0.162 A 
ATOM      5  C   UNL     1     -60.920  17.359 -28.986  1.00  0.00     0.128 A 
ATOM      6  C   UNL     1     -60.514  17.440 -30.319  1.00  0.00     0.093 A 
ATOM      7  C   UNL     1     -59.754  18.524 -30.777  1.00  0.00     0.136 A 
ATOM      8  C   UNL     1     -59.394  19.555 -29.870  1.00  0.00     0.125 A 
ATOM      9  C   UNL     1     -58.646  20.684 -30.242  1.00  0.00     0.078 A 
ATOM     10  C   UNL     1     -58.333  21.662 -29.293  1.00  0.00     0.223 A 
ENDROOT
BRANCH   1  11
ATOM     11  C   UNL     1     -58.455  22.462 -26.897  1.00  0.00     0.091 A 
ATOM     12  C   UNL     1     -57.235  23.160 -26.873  1.00  0.00     0.068 A 
ATOM     13  C   UNL     1     -56.954  24.066 -25.842  1.00  0.00     0.162 A 
ATOM     14  C   UNL     1     -59.376  22.660 -25.857  1.00  0.00     0.068 A 
ATOM     15  C   UNL     1     -57.888  24.275 -24.819  1.00  0.00     0.200 A 
ATOM     16  C   UNL     1     -59.102  23.567 -24.823  1.00  0.00     0.162 A 
BRANCH  13  17
ATOM     17  O   UNL     1     -55.747  24.761 -25.825  1.00  0.00    -0.504 OA
ATOM     18  H   UNL     1     -54.878  24.322 -26.107  1.00  0.00     0.293 HD
ENDBRANCH  13  17
BRANCH  15  19
ATOM     19  O   UNL     1     -57.593  25.185 -23.803  1.00  0.00    -0.502 OA
ATOM     20  H   UNL     1     -57.636  26.186 -23.947  1.00  0.00     0.293 HD
ENDBRANCH  15  19
BRANCH  16  21
ATOM     21  O   UNL     1     -60.029  23.766 -23.803  1.00  0.00    -0.504 OA
ATOM     22  H   UNL     1     -61.008  23.526 -23.920  1.00  0.00     0.293 HD
ENDBRANCH  16  21
ENDBRANCH   1  11
BRANCH  10  23
ATOM     23  O   UNL     1     -57.634  22.807 -29.672  1.00  0.00    -0.500 OA
ATOM     24  H   UNL     1     -58.055  23.728 -29.627  1.00  0.00     0.294 HD
ENDBRANCH  10  23
BRANCH   5  25
ATOM     25  O   UNL     1     -61.675  16.267 -28.562  1.00  0.00    -0.507 OA
ATOM     26  H   UNL     1     -62.495  15.961 -29.072  1.00  0.00     0.293 HD
ENDBRANCH   5  25
BRANCH   7  27
ATOM     27  O   UNL     1     -59.384  18.529 -32.125  1.00  0.00    -0.507 OA
ATOM     28  H   UNL     1     -59.340  17.705 -32.708  1.00  0.00     0.293 HD
ENDBRANCH   7  27
TORSDOF 7
ENDMDL
MODEL 5
REMARK VINA RESULT:    -7.370      7.104     12.147
REMARK INTER + INTRA:          -8.904
REMARK INTER:                  -8.761
REMARK INTRA:                  -0.143
REMARK UNBOUND:                 0.189
REMARK SMILES Oc1cc(O)c2cc(O)c(-c3cc(O)c(O)c(O)c3)[o+]c2c1
REMARK SMILES IDX 10 1 20 2 21 3 22 4 2 5 3 6 4 7 6 8 7 9 8 10 11 11 12 12
REMARK SMILES IDX 13 13 19 14 15 15 17 16 14 17 16 19 18 21 9 23 1 25 5 27
REMARK H PARENT 14 18 16 20 18 22 9 24 1 26 5 28
REMARK Flexibility Score: inf
ROOT
ATOM      1  C   UNL     1     -59.810  20.696 -29.900  1.00  0.00     0.402 A 
ATOM      2  O   UNL     1     -60.350  19.803 -29.076  1.00  0.00    -0.202 OA
ATOM      3  C   UNL     1     -60.478  18.515 -29.379  1.00  0.00     0.368 A 
ATOM      4  C   UNL     1     -61.057  17.651 -28.446  1.00  0.00     0.162 A 
ATOM      5  C   UNL     1     -61.201  16.291 -28.737  1.00  0.00     0.128 A 
ATOM      6  C   UNL     1     -60.763  15.794 -29.966  1.00  0.00     0.093 A 
ATOM      7  C   UNL     1     -60.179  16.638 -30.919  1.00  0.00     0.136 A 
ATOM      8  C   UNL     1     -60.034  18.020 -30.629  1.00  0.00     0.125 A 
ATOM      9  C   UNL     1     -59.473  18.942 -31.528  1.00  0.00     0.078 A 
ATOM     10  C   UNL     1     -59.367  20.291 -31.173  1.00  0.00     0.223 A 
ENDROOT
BRANCH   1  11
ATOM     11  C   UNL     1     -59.715  22.102 -29.443  1.00  0.00     0.091 A 
ATOM     12  C   UNL     1     -60.314  23.148 -30.166  1.00  0.00     0.068 A 
ATOM     13  C   UNL     1     -60.193  24.474 -29.730  1.00  0.00     0.162 A 
ATOM     14  C   UNL     1     -58.963  22.406 -28.297  1.00  0.00     0.068 A 
ATOM     15  C   UNL     1     -59.460  24.768 -28.572  1.00  0.00     0.200 A 
ATOM     16  C   UNL     1     -58.840  23.731 -27.855  1.00  0.00     0.162 A 
BRANCH  13  17
ATOM     17  O   UNL     1     -60.794  25.509 -30.445  1.00  0.00    -0.504 OA
ATOM     18  H   UNL     1     -60.686  25.592 -31.449  1.00  0.00     0.293 HD
ENDBRANCH  13  17
BRANCH  15  19
ATOM     19  O   UNL     1     -59.354  26.094 -28.151  1.00  0.00    -0.502 OA
ATOM     20  H   UNL     1     -59.920  26.467 -27.399  1.00  0.00     0.293 HD
ENDBRANCH  15  19
BRANCH  16  21
ATOM     21  O   UNL     1     -58.104  24.020 -26.708  1.00  0.00    -0.504 OA
ATOM     22  H   UNL     1     -57.767  24.956 -26.514  1.00  0.00     0.293 HD
ENDBRANCH  16  21
ENDBRANCH   1  11
BRANCH  10  23
ATOM     23  O   UNL     1     -58.857  21.216 -32.084  1.00  0.00    -0.500 OA
ATOM     24  H   UNL     1     -58.116  20.973 -32.730  1.00  0.00     0.294 HD
ENDBRANCH  10  23
BRANCH   5  25
ATOM     25  O   UNL     1     -61.777  15.424 -27.810  1.00  0.00    -0.507 OA
ATOM     26  H   UNL     1     -61.988  15.723 -26.866  1.00  0.00     0.293 HD
ENDBRANCH   5  25
BRANCH   7  27
ATOM     27  O   UNL     1     -59.764  16.062 -32.122  1.00  0.00    -0.507 OA
ATOM     28  H   UNL     1     -59.832  16.511 -33.024  1.00  0.00     0.293 HD
ENDBRANCH   7  27
TORSDOF 7
ENDMDL
MODEL 6
REMARK VINA RESULT:    -7.349      1.187      1.196
REMARK INTER + INTRA:          -8.878
REMARK INTER:                  -8.520
REMARK INTRA:                  -0.358
REMARK UNBOUND:                 0.189
REMARK SMILES Oc1cc(O)c2cc(O)c(-c3cc(O)c(O)c(O)c3)[o+]c2c1
REMARK SMILES IDX 10 1 20 2 21 3 22 4 2 5 3 6 4 7 6 8 7 9 8 10 11 11 12 12
REMARK SMILES IDX 13 13 19 14 15 15 17 16 14 17 16 19 18 21 9 23 1 25 5 27
REMARK H PARENT 14 18 16 20 18 22 9 24 1 26 5 28
REMARK Flexibility Score: inf
ROOT
ATOM      1  C   UNL     1     -58.224  27.473 -22.985  1.00  0.00     0.402 A 
ATOM      2  O   UNL     1     -56.949  27.649 -22.653  1.00  0.00    -0.202 OA
ATOM      3  C   UNL     1     -56.546  28.532 -21.745  1.00  0.00     0.368 A 
ATOM      4  C   UNL     1     -55.183  28.643 -21.460  1.00  0.00     0.162 A 
ATOM      5  C   UNL     1     -54.732  29.561 -20.508  1.00  0.00     0.128 A 
ATOM      6  C   UNL     1     -55.650  30.372 -19.837  1.00  0.00     0.093 A 
ATOM      7  C   UNL     1     -57.022  30.281 -20.103  1.00  0.00     0.136 A 
ATOM      8  C   UNL     1     -57.483  29.352 -21.071  1.00  0.00     0.125 A 
ATOM      9  C   UNL     1     -58.838  29.202 -21.412  1.00  0.00     0.078 A 
ATOM     10  C   UNL     1     -59.217  28.267 -22.381  1.00  0.00     0.223 A 
ENDROOT
BRANCH   1  11
ATOM     11  C   UNL     1     -58.547  26.450 -24.006  1.00  0.00     0.091 A 
ATOM     12  C   UNL     1     -59.057  25.191 -23.644  1.00  0.00     0.068 A 
ATOM     13  C   UNL     1     -59.334  24.227 -24.623  1.00  0.00     0.162 A 
ATOM     14  C   UNL     1     -58.287  26.718 -25.359  1.00  0.00     0.068 A 
ATOM     15  C   UNL     1     -59.093  24.511 -25.974  1.00  0.00     0.200 A 
ATOM     16  C   UNL     1     -58.565  25.759 -26.344  1.00  0.00     0.162 A 
BRANCH  13  17
ATOM     17  O   UNL     1     -59.846  22.983 -24.261  1.00  0.00    -0.504 OA
ATOM     18  H   UNL     1     -59.899  22.218 -24.925  1.00  0.00     0.293 HD
ENDBRANCH  13  17
BRANCH  15  19
ATOM     19  O   UNL     1     -59.380  23.540 -26.935  1.00  0.00    -0.502 OA
ATOM     20  H   UNL     1     -58.653  23.003 -27.391  1.00  0.00     0.293 HD
ENDBRANCH  15  19
BRANCH  16  21
ATOM     21  O   UNL     1     -58.316  26.041 -27.685  1.00  0.00    -0.504 OA
ATOM     22  H   UNL     1     -58.790  26.798 -28.166  1.00  0.00     0.293 HD
ENDBRANCH  16  21
ENDBRANCH   1  11
BRANCH  10  23
ATOM     23  O   UNL     1     -60.555  28.152 -22.756  1.00  0.00    -0.500 OA
ATOM     24  H   UNL     1     -61.098  28.957 -23.046  1.00  0.00     0.294 HD
ENDBRANCH  10  23
BRANCH   5  25
ATOM     25  O   UNL     1     -53.374  29.676 -20.220  1.00  0.00    -0.507 OA
ATOM     26  H   UNL     1     -52.736  30.145 -20.852  1.00  0.00     0.293 HD
ENDBRANCH   5  25
BRANCH   7  27
ATOM     27  O   UNL     1     -57.874  31.125 -19.385  1.00  0.00    -0.507 OA
ATOM     28  H   UNL     1     -58.434  30.835 -18.596  1.00  0.00     0.293 HD
ENDBRANCH   7  27
TORSDOF 7
ENDMDL
MODEL 7
REMARK VINA RESULT:    -7.295      6.140     11.615
REMARK INTER + INTRA:          -8.812
REMARK INTER:                  -8.790
REMARK INTRA:                  -0.022
REMARK UNBOUND:                 0.189
REMARK SMILES Oc1cc(O)c2cc(O)c(-c3cc(O)c(O)c(O)c3)[o+]c2c1
REMARK SMILES IDX 10 1 20 2 21 3 22 4 2 5 3 6 4 7 6 8 7 9 8 10 11 11 12 12
REMARK SMILES IDX 13 13 19 14 15 15 17 16 14 17 16 19 18 21 9 23 1 25 5 27
REMARK H PARENT 14 18 16 20 18 22 9 24 1 26 5 28
REMARK Flexibility Score: inf
ROOT
ATOM      1  C   UNL     1     -59.377  20.985 -29.156  1.00  0.00     0.402 A 
ATOM      2  O   UNL     1     -60.002  20.021 -28.486  1.00  0.00    -0.202 OA
ATOM      3  C   UNL     1     -60.252  18.820 -28.998  1.00  0.00     0.368 A 
ATOM      4  C   UNL     1     -60.913  17.871 -28.215  1.00  0.00     0.162 A 
ATOM      5  C   UNL     1     -61.186  16.599 -28.727  1.00  0.00     0.128 A 
ATOM      6  C   UNL     1     -60.795  16.276 -30.028  1.00  0.00     0.093 A 
ATOM      7  C   UNL     1     -60.131  17.209 -30.834  1.00  0.00     0.136 A 
ATOM      8  C   UNL     1     -59.854  18.502 -30.319  1.00  0.00     0.125 A 
ATOM      9  C   UNL     1     -59.205  19.505 -31.059  1.00  0.00     0.078 A 
ATOM     10  C   UNL     1     -58.972  20.759 -30.485  1.00  0.00     0.223 A 
ENDROOT
BRANCH   1  11
ATOM     11  C   UNL     1     -59.149  22.279 -28.472  1.00  0.00     0.091 A 
ATOM     12  C   UNL     1     -58.600  22.336 -27.179  1.00  0.00     0.068 A 
ATOM     13  C   UNL     1     -58.414  23.569 -26.540  1.00  0.00     0.162 A 
ATOM     14  C   UNL     1     -59.540  23.471 -29.102  1.00  0.00     0.068 A 
ATOM     15  C   UNL     1     -58.786  24.757 -27.184  1.00  0.00     0.200 A 
ATOM     16  C   UNL     1     -59.354  24.708 -28.468  1.00  0.00     0.162 A 
BRANCH  13  17
ATOM     17  O   UNL     1     -57.863  23.623 -25.261  1.00  0.00    -0.504 OA
ATOM     18  H   UNL     1     -57.043  23.081 -25.014  1.00  0.00     0.293 HD
ENDBRANCH  13  17
BRANCH  15  19
ATOM     19  O   UNL     1     -58.589  25.975 -26.534  1.00  0.00    -0.502 OA
ATOM     20  H   UNL     1     -58.597  26.054 -25.524  1.00  0.00     0.293 HD
ENDBRANCH  15  19
BRANCH  16  21
ATOM     21  O   UNL     1     -59.734  25.885 -29.109  1.00  0.00    -0.504 OA
ATOM     22  H   UNL     1     -59.076  26.641 -29.264  1.00  0.00     0.293 HD
ENDBRANCH  16  21
ENDBRANCH   1  11
BRANCH  10  23
ATOM     23  O   UNL     1     -58.373  21.771 -31.235  1.00  0.00    -0.500 OA
ATOM     24  H   UNL     1     -58.893  22.582 -31.546  1.00  0.00     0.294 HD
ENDBRANCH  10  23
BRANCH   5  25
ATOM     25  O   UNL     1     -61.845  15.648 -27.952  1.00  0.00    -0.507 OA
ATOM     26  H   UNL     1     -61.679  14.656 -28.076  1.00  0.00     0.293 HD
ENDBRANCH   5  25
BRANCH   7  27
ATOM     27  O   UNL     1     -59.769  16.806 -32.123  1.00  0.00    -0.507 OA
ATOM     28  H   UNL     1     -58.899  17.048 -32.574  1.00  0.00     0.293 HD
ENDBRANCH   7  27
TORSDOF 7
ENDMDL
MODEL 8
REMARK VINA RESULT:    -7.039      2.573      4.194
REMARK INTER + INTRA:          -8.496
REMARK INTER:                  -8.118
REMARK INTRA:                  -0.378
REMARK UNBOUND:                 0.189
REMARK SMILES Oc1cc(O)c2cc(O)c(-c3cc(O)c(O)c(O)c3)[o+]c2c1
REMARK SMILES IDX 10 1 20 2 21 3 22 4 2 5 3 6 4 7 6 8 7 9 8 10 11 11 12 12
REMARK SMILES IDX 13 13 19 14 15 15 17 16 14 17 16 19 18 21 9 23 1 25 5 27
REMARK H PARENT 14 18 16 20 18 22 9 24 1 26 5 28
REMARK Flexibility Score: inf
ROOT
ATOM      1  C   UNL     1     -58.907  25.019 -25.939  1.00  0.00     0.402 A 
ATOM      2  O   UNL     1     -57.954  25.250 -25.042  1.00  0.00    -0.202 OA
ATOM      3  C   UNL     1     -58.090  26.111 -24.038  1.00  0.00     0.368 A 
ATOM      4  C   UNL     1     -57.031  26.285 -23.143  1.00  0.00     0.162 A 
ATOM      5  C   UNL     1     -57.148  27.182 -22.077  1.00  0.00     0.128 A 
ATOM      6  C   UNL     1     -58.328  27.907 -21.906  1.00  0.00     0.093 A 
ATOM      7  C   UNL     1     -59.404  27.753 -22.789  1.00  0.00     0.136 A 
ATOM      8  C   UNL     1     -59.289  26.845 -23.874  1.00  0.00     0.125 A 
ATOM      9  C   UNL     1     -60.310  26.635 -24.816  1.00  0.00     0.078 A 
ATOM     10  C   UNL     1     -60.122  25.727 -25.863  1.00  0.00     0.223 A 
ENDROOT
BRANCH   1  11
ATOM     11  C   UNL     1     -58.639  24.028 -27.007  1.00  0.00     0.091 A 
ATOM     12  C   UNL     1     -58.885  22.658 -26.811  1.00  0.00     0.068 A 
ATOM     13  C   UNL     1     -58.602  21.733 -27.825  1.00  0.00     0.162 A 
ATOM     14  C   UNL     1     -58.075  24.455 -28.219  1.00  0.00     0.068 A 
ATOM     15  C   UNL     1     -58.060  22.169 -29.042  1.00  0.00     0.200 A 
ATOM     16  C   UNL     1     -57.792  23.534 -29.239  1.00  0.00     0.162 A 
BRANCH  13  17
ATOM     17  O   UNL     1     -58.853  20.376 -27.631  1.00  0.00    -0.504 OA
ATOM     18  H   UNL     1     -58.698  19.697 -28.368  1.00  0.00     0.293 HD
ENDBRANCH  13  17
BRANCH  15  19
ATOM     19  O   UNL     1     -57.789  21.234 -30.041  1.00  0.00    -0.502 OA
ATOM     20  H   UNL     1     -57.749  20.240 -29.852  1.00  0.00     0.293 HD
ENDBRANCH  15  19
BRANCH  16  21
ATOM     21  O   UNL     1     -57.246  23.972 -30.443  1.00  0.00    -0.504 OA
ATOM     22  H   UNL     1     -57.547  23.589 -31.333  1.00  0.00     0.293 HD
ENDBRANCH  16  21
ENDBRANCH   1  11
BRANCH  10  23
ATOM     23  O   UNL     1     -61.115  25.555 -26.827  1.00  0.00    -0.500 OA
ATOM     24  H   UNL     1     -61.997  26.050 -26.777  1.00  0.00     0.294 HD
ENDBRANCH  10  23
BRANCH   5  25
ATOM     25  O   UNL     1     -56.096  27.359 -21.180  1.00  0.00    -0.507 OA
ATOM     26  H   UNL     1     -56.259  27.660 -20.226  1.00  0.00     0.293 HD
ENDBRANCH   5  25
BRANCH   7  27
ATOM     27  O   UNL     1     -60.552  28.513 -22.547  1.00  0.00    -0.507 OA
ATOM     28  H   UNL     1     -61.016  29.082 -23.239  1.00  0.00     0.293 HD
ENDBRANCH   7  27
TORSDOF 7
ENDMDL
MODEL 9
REMARK VINA RESULT:    -7.025      3.025      8.368
REMARK INTER + INTRA:          -8.478
REMARK INTER:                  -8.106
REMARK INTRA:                  -0.372
REMARK UNBOUND:                 0.189
REMARK SMILES Oc1cc(O)c2cc(O)c(-c3cc(O)c(O)c(O)c3)[o+]c2c1
REMARK SMILES IDX 10 1 20 2 21 3 22 4 2 5 3 6 4 7 6 8 7 9 8 10 11 11 12 12
REMARK SMILES IDX 13 13 19 14 15 15 17 16 14 17 16 19 18 21 9 23 1 25 5 27
REMARK H PARENT 14 18 16 20 18 22 9 24 1 26 5 28
REMARK Flexibility Score: inf
ROOT
ATOM      1  C   UNL     1     -58.722  24.866 -26.293  1.00  0.00     0.402 A 
ATOM      2  O   UNL     1     -58.903  23.549 -26.244  1.00  0.00    -0.202 OA
ATOM      3  C   UNL     1     -58.761  22.753 -27.299  1.00  0.00     0.368 A 
ATOM      4  C   UNL     1     -58.970  21.380 -27.149  1.00  0.00     0.162 A 
ATOM      5  C   UNL     1     -58.825  20.520 -28.241  1.00  0.00     0.128 A 
ATOM      6  C   UNL     1     -58.469  21.036 -29.489  1.00  0.00     0.093 A 
ATOM      7  C   UNL     1     -58.254  22.408 -29.667  1.00  0.00     0.136 A 
ATOM      8  C   UNL     1     -58.402  23.286 -28.561  1.00  0.00     0.125 A 
ATOM      9  C   UNL     1     -58.220  24.675 -28.649  1.00  0.00     0.078 A 
ATOM     10  C   UNL     1     -58.389  25.478 -27.516  1.00  0.00     0.223 A 
ENDROOT
BRANCH   1  11
ATOM     11  C   UNL     1     -58.901  25.644 -25.045  1.00  0.00     0.091 A 
ATOM     12  C   UNL     1     -60.126  26.259 -24.736  1.00  0.00     0.068 A 
ATOM     13  C   UNL     1     -60.268  27.011 -23.562  1.00  0.00     0.162 A 
ATOM     14  C   UNL     1     -57.809  25.820 -24.180  1.00  0.00     0.068 A 
ATOM     15  C   UNL     1     -59.180  27.164 -22.691  1.00  0.00     0.200 A 
ATOM     16  C   UNL     1     -57.946  26.570 -23.003  1.00  0.00     0.162 A 
BRANCH  13  17
ATOM     17  O   UNL     1     -61.486  27.614 -23.254  1.00  0.00    -0.504 OA
ATOM     18  H   UNL     1     -61.625  28.612 -23.360  1.00  0.00     0.293 HD
ENDBRANCH  13  17
BRANCH  15  19
ATOM     19  O   UNL     1     -59.341  27.912 -21.525  1.00  0.00    -0.502 OA
ATOM     20  H   UNL     1     -59.170  27.522 -20.606  1.00  0.00     0.293 HD
ENDBRANCH  15  19
BRANCH  16  21
ATOM     21  O   UNL     1     -56.859  26.726 -22.144  1.00  0.00    -0.504 OA
ATOM     22  H   UNL     1     -56.214  27.502 -22.241  1.00  0.00     0.293 HD
ENDBRANCH  16  21
ENDBRANCH   1  11
BRANCH  10  23
ATOM     23  O   UNL     1     -58.258  26.863 -27.613  1.00  0.00    -0.500 OA
ATOM     24  H   UNL     1     -58.392  27.350 -28.491  1.00  0.00     0.294 HD
ENDBRANCH  10  23
BRANCH   5  25
ATOM     25  O   UNL     1     -59.032  19.149 -28.098  1.00  0.00    -0.507 OA
ATOM     26  H   UNL     1     -59.840  18.691 -28.502  1.00  0.00     0.293 HD
ENDBRANCH   5  25
BRANCH   7  27
ATOM     27  O   UNL     1     -57.896  22.844 -30.946  1.00  0.00    -0.507 OA
ATOM     28  H   UNL     1     -57.744  22.233 -31.735  1.00  0.00     0.293 HD
ENDBRANCH   7  27
TORSDOF 7
ENDMDL
