MODEL 1
REMARK VINA RESULT:    -3.044      0.000      0.000
REMARK INTER + INTRA:          -3.667
REMARK INTER:                  -3.578
REMARK INTRA:                  -0.089
REMARK UNBOUND:                -0.089
REMARK SMILES CCCCC(=O)[O-]
REMARK SMILES IDX 4 1 5 2 6 3 7 4 3 5 2 6 1 7
REMARK H PARENT
REMARK Flexibility Score: inf
ROOT
ATOM      1  C   UNL     1     120.137  72.495   4.011  1.00  0.00     0.053 C 
ENDROOT
BRANCH   1   2
ATOM      2  C   UNL     1     120.594  71.416   4.942  1.00  0.00     0.041 C 
ATOM      3  O   UNL     1     121.601  70.718   4.657  1.00  0.00    -0.550 OA
ATOM      4  O   UNL     1     119.876  71.150   6.102  1.00  0.00    -0.550 OA
ENDBRANCH   1   2
BRANCH   1   5
ATOM      5  C   UNL     1     121.155  72.690   2.879  1.00  0.00     0.006 C 
BRANCH   5   6
ATOM      6  C   UNL     1     120.526  72.520   1.486  1.00  0.00    -0.003 C 
ATOM      7  C   UNL     1     120.826  71.155   0.867  1.00  0.00     0.004 C 
ENDBRANCH   5   6
ENDBRANCH   1   5
TORSDOF 3
ENDMDL
MODEL 2
REMARK VINA RESULT:    -2.909      3.378      4.695
REMARK INTER + INTRA:          -3.508
REMARK INTER:                  -3.471
REMARK INTRA:                  -0.037
REMARK UNBOUND:                -0.089
REMARK SMILES CCCCC(=O)[O-]
REMARK SMILES IDX 4 1 5 2 6 3 7 4 3 5 2 6 1 7
REMARK H PARENT
REMARK Flexibility Score: inf
ROOT
ATOM      1  C   UNL     1     121.199  69.951  -0.141  1.00  0.00     0.053 C 
ENDROOT
BRANCH   1   2
ATOM      2  C   UNL     1     120.573  68.592  -0.176  1.00  0.00     0.041 C 
ATOM      3  O   UNL     1     120.311  68.043  -1.278  1.00  0.00    -0.550 OA
ATOM      4  O   UNL     1     120.234  67.952   1.010  1.00  0.00    -0.550 OA
ENDBRANCH   1   2
BRANCH   1   5
ATOM      5  C   UNL     1     120.270  70.949   0.563  1.00  0.00     0.006 C 
BRANCH   5   6
ATOM      6  C   UNL     1     120.986  71.742   1.667  1.00  0.00    -0.003 C 
ATOM      7  C   UNL     1     120.689  73.241   1.604  1.00  0.00     0.004 C 
ENDBRANCH   5   6
ENDBRANCH   1   5
TORSDOF 3
ENDMDL
MODEL 3
REMARK VINA RESULT:    -2.909      1.036      1.624
REMARK INTER + INTRA:          -3.508
REMARK INTER:                  -3.391
REMARK INTRA:                  -0.117
REMARK UNBOUND:                -0.089
REMARK SMILES CCCCC(=O)[O-]
REMARK SMILES IDX 4 1 5 2 6 3 7 4 3 5 2 6 1 7
REMARK H PARENT
REMARK Flexibility Score: inf
ROOT
ATOM      1  C   UNL     1     121.380  72.563   2.884  1.00  0.00     0.053 C 
ENDROOT
BRANCH   1   2
ATOM      2  C   UNL     1     120.601  71.964   4.013  1.00  0.00     0.041 C 
ATOM      3  O   UNL     1     119.889  72.695   4.749  1.00  0.00    -0.550 OA
ATOM      4  O   UNL     1     120.701  70.605   4.282  1.00  0.00    -0.550 OA
ENDBRANCH   1   2
BRANCH   1   5
ATOM      5  C   UNL     1     120.437  72.989   1.751  1.00  0.00     0.006 C 
BRANCH   5   6
ATOM      6  C   UNL     1     119.875  71.790   0.970  1.00  0.00    -0.003 C 
ATOM      7  C   UNL     1     120.961  70.798   0.552  1.00  0.00     0.004 C 
ENDBRANCH   5   6
ENDBRANCH   1   5
TORSDOF 3
ENDMDL
MODEL 4
REMARK VINA RESULT:    -2.881      1.737      2.529
REMARK INTER + INTRA:          -3.475
REMARK INTER:                  -3.434
REMARK INTRA:                  -0.041
REMARK UNBOUND:                -0.089
REMARK SMILES CCCCC(=O)[O-]
REMARK SMILES IDX 4 1 5 2 6 3 7 4 3 5 2 6 1 7
REMARK H PARENT
REMARK Flexibility Score: inf
ROOT
ATOM      1  C   UNL     1     120.969  71.898   1.690  1.00  0.00     0.053 C 
ENDROOT
BRANCH   1   2
ATOM      2  C   UNL     1     120.613  71.758   3.137  1.00  0.00     0.041 C 
ATOM      3  O   UNL     1     120.570  70.619   3.671  1.00  0.00    -0.550 OA
ATOM      4  O   UNL     1     120.281  72.882   3.883  1.00  0.00    -0.550 OA
ENDBRANCH   1   2
BRANCH   1   5
ATOM      5  C   UNL     1     120.253  70.827   0.857  1.00  0.00     0.006 C 
BRANCH   5   6
ATOM      6  C   UNL     1     121.204  70.088  -0.096  1.00  0.00    -0.003 C 
ATOM      7  C   UNL     1     120.493  69.545  -1.336  1.00  0.00     0.004 C 
ENDBRANCH   5   6
ENDBRANCH   1   5
TORSDOF 3
ENDMDL
MODEL 5
REMARK VINA RESULT:    -2.639      2.506      4.616
REMARK INTER + INTRA:          -3.191
REMARK INTER:                  -3.162
REMARK INTRA:                  -0.029
REMARK UNBOUND:                -0.089
REMARK SMILES CCCCC(=O)[O-]
REMARK SMILES IDX 4 1 5 2 6 3 7 4 3 5 2 6 1 7
REMARK H PARENT
REMARK Flexibility Score: inf
ROOT
ATOM      1  C   UNL     1     120.091  71.867   5.668  1.00  0.00     0.053 C 
ENDROOT
BRANCH   1   2
ATOM      2  C   UNL     1     120.791  70.975   4.691  1.00  0.00     0.041 C 
ATOM      3  O   UNL     1     122.035  70.803   4.769  1.00  0.00    -0.550 OA
ATOM      4  O   UNL     1     120.075  70.373   3.665  1.00  0.00    -0.550 OA
ENDBRANCH   1   2
BRANCH   1   5
ATOM      5  C   UNL     1     120.478  71.494   7.106  1.00  0.00     0.006 C 
BRANCH   5   6
ATOM      6  C   UNL     1     120.549  72.717   8.033  1.00  0.00    -0.003 C 
ATOM      7  C   UNL     1     120.312  72.359   9.500  1.00  0.00     0.004 C 
ENDBRANCH   5   6
ENDBRANCH   1   5
TORSDOF 3
ENDMDL
MODEL 6
REMARK VINA RESULT:    -2.609      3.091      4.458
REMARK INTER + INTRA:          -3.156
REMARK INTER:                  -3.111
REMARK INTRA:                  -0.045
REMARK UNBOUND:                -0.089
REMARK SMILES CCCCC(=O)[O-]
REMARK SMILES IDX 4 1 5 2 6 3 7 4 3 5 2 6 1 7
REMARK H PARENT
REMARK Flexibility Score: inf
ROOT
ATOM      1  C   UNL     1     121.162  70.266   0.064  1.00  0.00     0.053 C 
ENDROOT
BRANCH   1   2
ATOM      2  C   UNL     1     120.632  71.033   1.234  1.00  0.00     0.041 C 
ATOM      3  O   UNL     1     120.533  72.287   1.178  1.00  0.00    -0.550 OA
ATOM      4  O   UNL     1     120.293  70.368   2.406  1.00  0.00    -0.550 OA
ENDBRANCH   1   2
BRANCH   1   5
ATOM      5  C   UNL     1     120.137  69.223  -0.400  1.00  0.00     0.006 C 
BRANCH   5   6
ATOM      6  C   UNL     1     120.682  67.788  -0.330  1.00  0.00    -0.003 C 
ATOM      7  C   UNL     1     120.171  66.906  -1.469  1.00  0.00     0.004 C 
ENDBRANCH   5   6
ENDBRANCH   1   5
TORSDOF 3
ENDMDL
MODEL 7
REMARK VINA RESULT:    -2.460      2.867      3.969
REMARK INTER + INTRA:          -2.980
REMARK INTER:                  -2.965
REMARK INTRA:                  -0.016
REMARK UNBOUND:                -0.089
REMARK SMILES CCCCC(=O)[O-]
REMARK SMILES IDX 4 1 5 2 6 3 7 4 3 5 2 6 1 7
REMARK H PARENT
REMARK Flexibility Score: inf
ROOT
ATOM      1  C   UNL     1     121.036  71.419   7.515  1.00  0.00     0.053 C 
ENDROOT
BRANCH   1   2
ATOM      2  C   UNL     1     120.734  72.251   8.722  1.00  0.00     0.041 C 
ATOM      3  O   UNL     1     120.390  71.701   9.800  1.00  0.00    -0.550 OA
ATOM      4  O   UNL     1     120.784  73.637   8.640  1.00  0.00    -0.550 OA
ENDBRANCH   1   2
BRANCH   1   5
ATOM      5  C   UNL     1     120.136  71.831   6.342  1.00  0.00     0.006 C 
BRANCH   5   6
ATOM      6  C   UNL     1     120.359  70.962   5.095  1.00  0.00    -0.003 C 
ATOM      7  C   UNL     1     120.797  71.777   3.879  1.00  0.00     0.004 C 
ENDBRANCH   5   6
ENDBRANCH   1   5
TORSDOF 3
ENDMDL
MODEL 8
REMARK VINA RESULT:    -2.445      2.465      3.972
REMARK INTER + INTRA:          -2.963
REMARK INTER:                  -2.935
REMARK INTRA:                  -0.028
REMARK UNBOUND:                -0.089
REMARK SMILES CCCCC(=O)[O-]
REMARK SMILES IDX 4 1 5 2 6 3 7 4 3 5 2 6 1 7
REMARK H PARENT
REMARK Flexibility Score: inf
ROOT
ATOM      1  C   UNL     1     121.356  72.184   3.044  1.00  0.00     0.053 C 
ENDROOT
BRANCH   1   2
ATOM      2  C   UNL     1     120.847  71.838   1.680  1.00  0.00     0.041 C 
ATOM      3  O   UNL     1     120.011  72.585   1.107  1.00  0.00    -0.550 OA
ATOM      4  O   UNL     1     121.258  70.664   1.061  1.00  0.00    -0.550 OA
ENDBRANCH   1   2
BRANCH   1   5
ATOM      5  C   UNL     1     120.225  72.085   4.077  1.00  0.00     0.006 C 
BRANCH   5   6
ATOM      6  C   UNL     1     120.473  70.981   5.117  1.00  0.00    -0.003 C 
ATOM      7  C   UNL     1     120.372  71.492   6.554  1.00  0.00     0.004 C 
ENDBRANCH   5   6
ENDBRANCH   1   5
TORSDOF 3
ENDMDL
