MODEL 1
REMARK VINA RESULT:    -3.052      0.000      0.000
REMARK INTER + INTRA:          -3.424
REMARK INTER:                  -3.408
REMARK INTRA:                  -0.016
REMARK UNBOUND:                -0.016
REMARK SMILES CCCC(=O)[O-]
REMARK SMILES IDX 3 1 4 2 5 3 6 4 2 5 1 6
REMARK H PARENT
REMARK Flexibility Score: inf
ROOT
ATOM      1  C   UNL     1      18.750  -9.230  13.034  1.00  0.00     0.052 C 
ENDROOT
BRANCH   1   2
ATOM      2  C   UNL     1      18.642  -8.430  14.294  1.00  0.00     0.041 C 
ATOM      3  O   UNL     1      17.537  -7.933  14.636  1.00  0.00    -0.550 OA
ATOM      4  O   UNL     1      19.772  -8.192  15.066  1.00  0.00    -0.550 OA
ENDBRANCH   1   2
BRANCH   1   5
ATOM      5  C   UNL     1      19.905 -10.230  13.132  1.00  0.00     0.003 C 
ATOM      6  C   UNL     1      19.428 -11.651  12.850  1.00  0.00     0.004 C 
ENDBRANCH   1   5
TORSDOF 2
ENDMDL
MODEL 2
REMARK VINA RESULT:    -2.987      2.475      3.396
REMARK INTER + INTRA:          -3.352
REMARK INTER:                  -3.314
REMARK INTRA:                  -0.038
REMARK UNBOUND:                -0.016
REMARK SMILES CCCC(=O)[O-]
REMARK SMILES IDX 3 1 4 2 5 3 6 4 2 5 1 6
REMARK H PARENT
REMARK Flexibility Score: inf
ROOT
ATOM      1  C   UNL     1      18.370 -10.294  13.000  1.00  0.00     0.052 C 
ENDROOT
BRANCH   1   2
ATOM      2  C   UNL     1      19.628 -11.100  12.920  1.00  0.00     0.041 C 
ATOM      3  O   UNL     1      19.576 -12.358  12.938  1.00  0.00    -0.550 OA
ATOM      4  O   UNL     1      20.861 -10.463  12.874  1.00  0.00    -0.550 OA
ENDBRANCH   1   2
BRANCH   1   5
ATOM      5  C   UNL     1      18.177  -9.743  14.416  1.00  0.00     0.003 C 
ATOM      6  C   UNL     1      18.414  -8.236  14.457  1.00  0.00     0.004 C 
ENDBRANCH   1   5
TORSDOF 2
ENDMDL
MODEL 3
REMARK VINA RESULT:    -2.977      8.819      9.594
REMARK INTER + INTRA:          -3.341
REMARK INTER:                  -3.335
REMARK INTRA:                  -0.006
REMARK UNBOUND:                -0.016
REMARK SMILES CCCC(=O)[O-]
REMARK SMILES IDX 3 1 4 2 5 3 6 4 2 5 1 6
REMARK H PARENT
REMARK Flexibility Score: inf
ROOT
ATOM      1  C   UNL     1       9.850 -10.914  14.526  1.00  0.00     0.052 C 
ENDROOT
BRANCH   1   2
ATOM      2  C   UNL     1      11.058 -11.784  14.374  1.00  0.00     0.041 C 
ATOM      3  O   UNL     1      12.210 -11.278  14.398  1.00  0.00    -0.550 OA
ATOM      4  O   UNL     1      10.910 -13.147  14.155  1.00  0.00    -0.550 OA
ENDBRANCH   1   2
BRANCH   1   5
ATOM      5  C   UNL     1       9.370 -10.915  15.980  1.00  0.00     0.003 C 
ATOM      6  C   UNL     1       8.434  -9.741  16.252  1.00  0.00     0.004 C 
ENDBRANCH   1   5
TORSDOF 2
ENDMDL
MODEL 4
REMARK VINA RESULT:    -2.909      1.569      2.053
REMARK INTER + INTRA:          -3.265
REMARK INTER:                  -3.193
REMARK INTRA:                  -0.071
REMARK UNBOUND:                -0.016
REMARK SMILES CCCC(=O)[O-]
REMARK SMILES IDX 3 1 4 2 5 3 6 4 2 5 1 6
REMARK H PARENT
REMARK Flexibility Score: inf
ROOT
ATOM      1  C   UNL     1      19.944 -10.759  12.944  1.00  0.00     0.052 C 
ENDROOT
BRANCH   1   2
ATOM      2  C   UNL     1      18.970  -9.764  13.492  1.00  0.00     0.041 C 
ATOM      3  O   UNL     1      18.885  -8.615  12.984  1.00  0.00    -0.550 OA
ATOM      4  O   UNL     1      18.189 -10.088  14.594  1.00  0.00    -0.550 OA
ENDBRANCH   1   2
BRANCH   1   5
ATOM      5  C   UNL     1      19.221 -12.045  12.532  1.00  0.00     0.003 C 
ATOM      6  C   UNL     1      18.187 -11.771  11.444  1.00  0.00     0.004 C 
ENDBRANCH   1   5
TORSDOF 2
ENDMDL
MODEL 5
REMARK VINA RESULT:    -2.898      1.915      2.108
REMARK INTER + INTRA:          -3.253
REMARK INTER:                  -3.195
REMARK INTRA:                  -0.058
REMARK UNBOUND:                -0.016
REMARK SMILES CCCC(=O)[O-]
REMARK SMILES IDX 3 1 4 2 5 3 6 4 2 5 1 6
REMARK H PARENT
REMARK Flexibility Score: inf
ROOT
ATOM      1  C   UNL     1      17.076 -10.419  12.761  1.00  0.00     0.052 C 
ENDROOT
BRANCH   1   2
ATOM      2  C   UNL     1      18.079  -9.629  13.542  1.00  0.00     0.041 C 
ATOM      3  O   UNL     1      18.174  -9.781  14.788  1.00  0.00    -0.550 OA
ATOM      4  O   UNL     1      18.875  -8.689  12.901  1.00  0.00    -0.550 OA
ENDBRANCH   1   2
BRANCH   1   5
ATOM      5  C   UNL     1      17.714 -10.983  11.488  1.00  0.00     0.003 C 
ATOM      6  C   UNL     1      18.491 -12.263  11.783  1.00  0.00     0.004 C 
ENDBRANCH   1   5
TORSDOF 2
ENDMDL
MODEL 6
REMARK VINA RESULT:    -2.895      2.755      3.511
REMARK INTER + INTRA:          -3.250
REMARK INTER:                  -3.211
REMARK INTRA:                  -0.038
REMARK UNBOUND:                -0.016
REMARK SMILES CCCC(=O)[O-]
REMARK SMILES IDX 3 1 4 2 5 3 6 4 2 5 1 6
REMARK H PARENT
REMARK Flexibility Score: inf
ROOT
ATOM      1  C   UNL     1      18.882 -10.413  13.113  1.00  0.00     0.052 C 
ENDROOT
BRANCH   1   2
ATOM      2  C   UNL     1      17.756 -10.850  12.230  1.00  0.00     0.041 C 
ATOM      3  O   UNL     1      16.564 -10.612  12.559  1.00  0.00    -0.550 OA
ATOM      4  O   UNL     1      18.019 -11.565  11.069  1.00  0.00    -0.550 OA
ENDBRANCH   1   2
BRANCH   1   5
ATOM      5  C   UNL     1      18.340  -9.808  14.412  1.00  0.00     0.003 C 
ATOM      6  C   UNL     1      18.594  -8.304  14.466  1.00  0.00     0.004 C 
ENDBRANCH   1   5
TORSDOF 2
ENDMDL
MODEL 7
REMARK VINA RESULT:    -2.869     10.271     11.502
REMARK INTER + INTRA:          -3.221
REMARK INTER:                  -3.160
REMARK INTRA:                  -0.061
REMARK UNBOUND:                -0.016
REMARK SMILES CCCC(=O)[O-]
REMARK SMILES IDX 3 1 4 2 5 3 6 4 2 5 1 6
REMARK H PARENT
REMARK Flexibility Score: inf
ROOT
ATOM      1  C   UNL     1      21.219  -3.257  22.950  1.00  0.00     0.052 C 
ENDROOT
BRANCH   1   2
ATOM      2  C   UNL     1      22.054  -3.123  21.716  1.00  0.00     0.041 C 
ATOM      3  O   UNL     1      21.628  -3.554  20.613  1.00  0.00    -0.550 OA
ATOM      4  O   UNL     1      23.324  -2.566  21.792  1.00  0.00    -0.550 OA
ENDBRANCH   1   2
BRANCH   1   5
ATOM      5  C   UNL     1      21.094  -1.906  23.661  1.00  0.00     0.003 C 
ATOM      6  C   UNL     1      20.043  -1.027  22.990  1.00  0.00     0.004 C 
ENDBRANCH   1   5
TORSDOF 2
ENDMDL
MODEL 8
REMARK VINA RESULT:    -2.839      8.856      9.449
REMARK INTER + INTRA:          -3.187
REMARK INTER:                  -3.154
REMARK INTRA:                  -0.033
REMARK UNBOUND:                -0.016
REMARK SMILES CCCC(=O)[O-]
REMARK SMILES IDX 3 1 4 2 5 3 6 4 2 5 1 6
REMARK H PARENT
REMARK Flexibility Score: inf
ROOT
ATOM      1  C   UNL     1      10.117 -10.870  14.701  1.00  0.00     0.052 C 
ENDROOT
BRANCH   1   2
ATOM      2  C   UNL     1       9.258 -11.013  15.917  1.00  0.00     0.041 C 
ATOM      3  O   UNL     1       9.691 -11.620  16.931  1.00  0.00    -0.550 OA
ATOM      4  O   UNL     1       7.960 -10.518  15.914  1.00  0.00    -0.550 OA
ENDBRANCH   1   2
BRANCH   1   5
ATOM      5  C   UNL     1      11.126 -12.019  14.620  1.00  0.00     0.003 C 
ATOM      6  C   UNL     1      12.539 -11.496  14.383  1.00  0.00     0.004 C 
ENDBRANCH   1   5
TORSDOF 2
ENDMDL
MODEL 9
REMARK VINA RESULT:    -2.800      9.416     10.636
REMARK INTER + INTRA:          -3.143
REMARK INTER:                  -3.090
REMARK INTRA:                  -0.053
REMARK UNBOUND:                -0.016
REMARK SMILES CCCC(=O)[O-]
REMARK SMILES IDX 3 1 4 2 5 3 6 4 2 5 1 6
REMARK H PARENT
REMARK Flexibility Score: inf
ROOT
ATOM      1  C   UNL     1      20.141  -3.365  21.801  1.00  0.00     0.052 C 
ENDROOT
BRANCH   1   2
ATOM      2  C   UNL     1      20.884  -2.988  20.559  1.00  0.00     0.041 C 
ATOM      3  O   UNL     1      21.734  -3.774  20.066  1.00  0.00    -0.550 OA
ATOM      4  O   UNL     1      20.673  -1.747  19.972  1.00  0.00    -0.550 OA
ENDBRANCH   1   2
BRANCH   1   5
ATOM      5  C   UNL     1      21.066  -3.298  23.020  1.00  0.00     0.003 C 
ATOM      6  C   UNL     1      21.117  -1.885  23.594  1.00  0.00     0.004 C 
ENDBRANCH   1   5
TORSDOF 2
ENDMDL
