MODEL 1
REMARK VINA RESULT:     4.365      0.000      0.000
REMARK INTER + INTRA:           4.365
REMARK INTER:                   4.365
REMARK INTRA:                   0.000
REMARK UNBOUND:                 0.000
REMARK SMILES C[C@H]1CCC=C2CC[C@@H]3[C@@H](C3(C)C)[C@]21C
REMARK SMILES IDX 1 1 2 2 3 3 4 4 5 5 6 6 14 7 10 8 9 9 11 10 12 11 13 12 8 13
REMARK SMILES IDX 7 14 15 15
REMARK H PARENT
REMARK Flexibility Score: inf
ROOT
ATOM      1  C   UNL     1     153.619 139.567 160.628  1.00  0.00     0.008 C 
ATOM      2  C   UNL     1     153.935 138.770 161.907  1.00  0.00    -0.004 C 
ATOM      3  C   UNL     1     153.216 139.397 163.112  1.00  0.00     0.008 C 
ATOM      4  C   UNL     1     153.576 138.635 164.382  1.00  0.00     0.027 C 
ATOM      5  C   UNL     1     153.197 137.193 164.252  1.00  0.00    -0.027 C 
ATOM      6  C   UNL     1     153.267 136.529 163.078  1.00  0.00    -0.068 C 
ATOM      7  C   UNL     1     153.733 137.195 161.777  1.00  0.00    -0.005 C 
ATOM      8  C   UNL     1     152.815 136.802 160.562  1.00  0.00     0.009 C 
ATOM      9  C   UNL     1     151.906 135.557 160.697  1.00  0.00    -0.000 C 
ATOM     10  C   UNL     1     151.284 136.956 160.508  1.00  0.00    -0.028 C 
ATOM     11  C   UNL     1     150.506 137.618 161.657  1.00  0.00     0.012 C 
ATOM     12  C   UNL     1     150.711 137.209 159.108  1.00  0.00     0.012 C 
ATOM     13  C   UNL     1     151.706 134.876 162.069  1.00  0.00     0.009 C 
ATOM     14  C   UNL     1     152.873 135.075 163.028  1.00  0.00     0.031 C 
ATOM     15  C   UNL     1     155.125 136.593 161.451  1.00  0.00     0.017 C 
ENDROOT
TORSDOF 0
ENDMDL
MODEL 2
REMARK VINA RESULT:     4.672      1.114      3.459
REMARK INTER + INTRA:           4.672
REMARK INTER:                   4.672
REMARK INTRA:                   0.000
REMARK UNBOUND:                 0.000
REMARK SMILES C[C@H]1CCC=C2CC[C@@H]3[C@@H](C3(C)C)[C@]21C
REMARK SMILES IDX 1 1 2 2 3 3 4 4 5 5 6 6 14 7 10 8 9 9 11 10 12 11 13 12 8 13
REMARK SMILES IDX 7 14 15 15
REMARK H PARENT
REMARK Flexibility Score: inf
ROOT
ATOM      1  C   UNL     1     151.359 134.875 162.539  1.00  0.00     0.008 C 
ATOM      2  C   UNL     1     152.620 135.579 163.071  1.00  0.00    -0.004 C 
ATOM      3  C   UNL     1     153.880 134.929 162.476  1.00  0.00     0.008 C 
ATOM      4  C   UNL     1     155.125 135.596 163.048  1.00  0.00     0.027 C 
ATOM      5  C   UNL     1     155.116 137.063 162.750  1.00  0.00    -0.027 C 
ATOM      6  C   UNL     1     153.976 137.786 162.710  1.00  0.00    -0.068 C 
ATOM      7  C   UNL     1     152.593 137.168 162.957  1.00  0.00    -0.005 C 
ATOM      8  C   UNL     1     151.533 137.682 161.916  1.00  0.00     0.009 C 
ATOM      9  C   UNL     1     151.847 138.968 161.116  1.00  0.00    -0.000 C 
ATOM     10  C   UNL     1     151.677 137.621 160.385  1.00  0.00    -0.028 C 
ATOM     11  C   UNL     1     152.887 136.942 159.721  1.00  0.00     0.012 C 
ATOM     12  C   UNL     1     150.356 137.480 159.618  1.00  0.00     0.012 C 
ATOM     13  C   UNL     1     153.265 139.582 161.141  1.00  0.00     0.009 C 
ATOM     14  C   UNL     1     154.049 139.261 162.408  1.00  0.00     0.031 C 
ATOM     15  C   UNL     1     152.114 137.705 164.331  1.00  0.00     0.017 C 
ENDROOT
TORSDOF 0
ENDMDL
MODEL 3
REMARK VINA RESULT:     4.773     13.912     16.407
REMARK INTER + INTRA:           4.773
REMARK INTER:                   4.773
REMARK INTRA:                   0.000
REMARK UNBOUND:                 0.000
REMARK SMILES C[C@H]1CCC=C2CC[C@@H]3[C@@H](C3(C)C)[C@]21C
REMARK SMILES IDX 1 1 2 2 3 3 4 4 5 5 6 6 14 7 10 8 9 9 11 10 12 11 13 12 8 13
REMARK SMILES IDX 7 14 15 15
REMARK H PARENT
REMARK Flexibility Score: inf
ROOT
ATOM      1  C   UNL     1     134.896 138.211 163.703  1.00  0.00     0.008 C 
ATOM      2  C   UNL     1     134.960 137.218 162.528  1.00  0.00    -0.004 C 
ATOM      3  C   UNL     1     134.882 137.973 161.192  1.00  0.00     0.008 C 
ATOM      4  C   UNL     1     134.892 136.980 160.036  1.00  0.00     0.027 C 
ATOM      5  C   UNL     1     136.131 136.141 160.078  1.00  0.00    -0.027 C 
ATOM      6  C   UNL     1     136.709 135.762 161.239  1.00  0.00    -0.068 C 
ATOM      7  C   UNL     1     136.153 136.165 162.611  1.00  0.00    -0.005 C 
ATOM      8  C   UNL     1     137.296 136.624 163.589  1.00  0.00     0.009 C 
ATOM      9  C   UNL     1     138.755 136.230 163.255  1.00  0.00    -0.000 C 
ATOM     10  C   UNL     1     138.341 137.715 163.298  1.00  0.00    -0.028 C 
ATOM     11  C   UNL     1     138.294 138.544 162.004  1.00  0.00     0.012 C 
ATOM     12  C   UNL     1     138.841 138.475 164.534  1.00  0.00     0.012 C 
ATOM     13  C   UNL     1     139.111 135.638 161.873  1.00  0.00     0.009 C 
ATOM     14  C   UNL     1     137.953 134.912 161.200  1.00  0.00     0.031 C 
ATOM     15  C   UNL     1     135.566 134.875 163.241  1.00  0.00     0.017 C 
ENDROOT
TORSDOF 0
ENDMDL
MODEL 4
REMARK VINA RESULT:     5.494     13.385     15.706
REMARK INTER + INTRA:           5.494
REMARK INTER:                   5.494
REMARK INTRA:                   0.000
REMARK UNBOUND:                 0.000
REMARK SMILES C[C@H]1CCC=C2CC[C@@H]3[C@@H](C3(C)C)[C@]21C
REMARK SMILES IDX 1 1 2 2 3 3 4 4 5 5 6 6 14 7 10 8 9 9 11 10 12 11 13 12 8 13
REMARK SMILES IDX 7 14 15 15
REMARK H PARENT
REMARK Flexibility Score: inf
ROOT
ATOM      1  C   UNL     1     138.790 137.786 164.094  1.00  0.00     0.008 C 
ATOM      2  C   UNL     1     139.092 137.087 162.756  1.00  0.00    -0.004 C 
ATOM      3  C   UNL     1     139.753 135.723 163.009  1.00  0.00     0.008 C 
ATOM      4  C   UNL     1     140.098 135.061 161.680  1.00  0.00     0.027 C 
ATOM      5  C   UNL     1     138.865 134.887 160.848  1.00  0.00    -0.027 C 
ATOM      6  C   UNL     1     137.850 135.777 160.864  1.00  0.00    -0.068 C 
ATOM      7  C   UNL     1     137.865 137.037 161.740  1.00  0.00    -0.005 C 
ATOM      8  C   UNL     1     136.482 137.267 162.451  1.00  0.00     0.009 C 
ATOM      9  C   UNL     1     135.237 136.535 161.897  1.00  0.00    -0.000 C 
ATOM     10  C   UNL     1     135.740 136.240 163.324  1.00  0.00    -0.028 C 
ATOM     11  C   UNL     1     136.364 134.875 163.659  1.00  0.00     0.012 C 
ATOM     12  C   UNL     1     134.875 136.846 164.438  1.00  0.00     0.012 C 
ATOM     13  C   UNL     1     135.389 135.410 160.849  1.00  0.00     0.009 C 
ATOM     14  C   UNL     1     136.643 135.535 159.993  1.00  0.00     0.031 C 
ATOM     15  C   UNL     1     138.037 138.238 160.775  1.00  0.00     0.017 C 
ENDROOT
TORSDOF 0
ENDMDL
MODEL 5
REMARK VINA RESULT:     5.702      1.441      3.852
REMARK INTER + INTRA:           5.702
REMARK INTER:                   5.702
REMARK INTRA:                   0.000
REMARK UNBOUND:                 0.000
REMARK SMILES C[C@H]1CCC=C2CC[C@@H]3[C@@H](C3(C)C)[C@]21C
REMARK SMILES IDX 1 1 2 2 3 3 4 4 5 5 6 6 14 7 10 8 9 9 11 10 12 11 13 12 8 13
REMARK SMILES IDX 7 14 15 15
REMARK H PARENT
REMARK Flexibility Score: inf
ROOT
ATOM      1  C   UNL     1     151.379 139.084 161.380  1.00  0.00     0.008 C 
ATOM      2  C   UNL     1     151.901 137.736 160.848  1.00  0.00    -0.004 C 
ATOM      3  C   UNL     1     152.949 137.971 159.748  1.00  0.00     0.008 C 
ATOM      4  C   UNL     1     153.421 136.634 159.190  1.00  0.00     0.027 C 
ATOM      5  C   UNL     1     154.003 135.789 160.280  1.00  0.00    -0.027 C 
ATOM      6  C   UNL     1     153.529 135.812 161.544  1.00  0.00    -0.068 C 
ATOM      7  C   UNL     1     152.362 136.710 161.976  1.00  0.00    -0.005 C 
ATOM      8  C   UNL     1     152.649 137.413 163.353  1.00  0.00     0.009 C 
ATOM      9  C   UNL     1     153.762 136.836 164.258  1.00  0.00    -0.000 C 
ATOM     10  C   UNL     1     153.888 138.263 163.685  1.00  0.00    -0.028 C 
ATOM     11  C   UNL     1     154.950 138.579 162.620  1.00  0.00     0.012 C 
ATOM     12  C   UNL     1     153.648 139.379 164.710  1.00  0.00     0.012 C 
ATOM     13  C   UNL     1     154.742 135.771 163.716  1.00  0.00     0.009 C 
ATOM     14  C   UNL     1     154.165 134.927 162.586  1.00  0.00     0.031 C 
ATOM     15  C   UNL     1     151.159 135.767 162.238  1.00  0.00     0.017 C 
ENDROOT
TORSDOF 0
ENDMDL
MODEL 6
REMARK VINA RESULT:     6.788     20.317     22.145
REMARK INTER + INTRA:           6.788
REMARK INTER:                   6.788
REMARK INTRA:                   0.000
REMARK UNBOUND:                 0.000
REMARK SMILES C[C@H]1CCC=C2CC[C@@H]3[C@@H](C3(C)C)[C@]21C
REMARK SMILES IDX 1 1 2 2 3 3 4 4 5 5 6 6 14 7 10 8 9 9 11 10 12 11 13 12 8 13
REMARK SMILES IDX 7 14 15 15
REMARK H PARENT
REMARK Flexibility Score: inf
ROOT
ATOM      1  C   UNL     1     136.557 150.283 161.252  1.00  0.00     0.008 C 
ATOM      2  C   UNL     1     136.442 150.977 162.621  1.00  0.00    -0.004 C 
ATOM      3  C   UNL     1     137.484 150.403 163.595  1.00  0.00     0.008 C 
ATOM      4  C   UNL     1     137.329 151.057 164.963  1.00  0.00     0.027 C 
ATOM      5  C   UNL     1     137.490 152.541 164.854  1.00  0.00    -0.027 C 
ATOM      6  C   UNL     1     137.078 153.237 163.773  1.00  0.00    -0.068 C 
ATOM      7  C   UNL     1     136.416 152.569 162.560  1.00  0.00    -0.005 C 
ATOM      8  C   UNL     1     136.983 153.131 161.206  1.00  0.00     0.009 C 
ATOM      9  C   UNL     1     137.740 154.480 161.226  1.00  0.00    -0.000 C 
ATOM     10  C   UNL     1     138.469 153.186 160.810  1.00  0.00    -0.028 C 
ATOM     11  C   UNL     1     139.561 152.588 161.713  1.00  0.00     0.012 C 
ATOM     12  C   UNL     1     138.740 153.070 159.304  1.00  0.00     0.012 C 
ATOM     13  C   UNL     1     138.159 155.125 162.566  1.00  0.00     0.009 C 
ATOM     14  C   UNL     1     137.271 154.732 163.740  1.00  0.00     0.031 C 
ATOM     15  C   UNL     1     134.924 152.991 162.589  1.00  0.00     0.017 C 
ENDROOT
TORSDOF 0
ENDMDL
MODEL 7
REMARK VINA RESULT:     6.843     13.560     15.783
REMARK INTER + INTRA:           6.843
REMARK INTER:                   6.843
REMARK INTRA:                   0.000
REMARK UNBOUND:                 0.000
REMARK SMILES C[C@H]1CCC=C2CC[C@@H]3[C@@H](C3(C)C)[C@]21C
REMARK SMILES IDX 1 1 2 2 3 3 4 4 5 5 6 6 14 7 10 8 9 9 11 10 12 11 13 12 8 13
REMARK SMILES IDX 7 14 15 15
REMARK H PARENT
REMARK Flexibility Score: inf
ROOT
ATOM      1  C   UNL     1     139.121 134.896 160.854  1.00  0.00     0.008 C 
ATOM      2  C   UNL     1     139.074 135.974 161.952  1.00  0.00    -0.004 C 
ATOM      3  C   UNL     1     139.532 137.328 161.384  1.00  0.00     0.008 C 
ATOM      4  C   UNL     1     139.533 138.378 162.488  1.00  0.00     0.027 C 
ATOM      5  C   UNL     1     138.167 138.509 163.087  1.00  0.00    -0.027 C 
ATOM      6  C   UNL     1     137.331 137.456 163.220  1.00  0.00    -0.068 C 
ATOM      7  C   UNL     1     137.703 136.039 162.762  1.00  0.00    -0.005 C 
ATOM      8  C   UNL     1     136.517 135.345 161.999  1.00  0.00     0.009 C 
ATOM      9  C   UNL     1     135.092 135.923 162.168  1.00  0.00    -0.000 C 
ATOM     10  C   UNL     1     135.771 135.923 160.784  1.00  0.00    -0.028 C 
ATOM     11  C   UNL     1     136.206 137.247 160.134  1.00  0.00     0.012 C 
ATOM     12  C   UNL     1     135.218 134.876 159.808  1.00  0.00     0.012 C 
ATOM     13  C   UNL     1     134.877 137.295 162.847  1.00  0.00     0.009 C 
ATOM     14  C   UNL     1     135.973 137.666 163.838  1.00  0.00     0.031 C 
ATOM     15  C   UNL     1     137.909 135.203 164.052  1.00  0.00     0.017 C 
ENDROOT
TORSDOF 0
ENDMDL
MODEL 8
REMARK VINA RESULT:     7.188      1.130      4.246
REMARK INTER + INTRA:           7.188
REMARK INTER:                   7.188
REMARK INTRA:                   0.000
REMARK UNBOUND:                 0.000
REMARK SMILES C[C@H]1CCC=C2CC[C@@H]3[C@@H](C3(C)C)[C@]21C
REMARK SMILES IDX 1 1 2 2 3 3 4 4 5 5 6 6 14 7 10 8 9 9 11 10 12 11 13 12 8 13
REMARK SMILES IDX 7 14 15 15
REMARK H PARENT
REMARK Flexibility Score: inf
ROOT
ATOM      1  C   UNL     1     154.373 134.878 163.728  1.00  0.00     0.008 C 
ATOM      2  C   UNL     1     153.529 135.156 162.471  1.00  0.00    -0.004 C 
ATOM      3  C   UNL     1     152.045 134.875 162.758  1.00  0.00     0.008 C 
ATOM      4  C   UNL     1     151.223 135.101 161.494  1.00  0.00     0.027 C 
ATOM      5  C   UNL     1     151.393 136.504 161.003  1.00  0.00    -0.027 C 
ATOM      6  C   UNL     1     152.558 137.177 161.125  1.00  0.00    -0.068 C 
ATOM      7  C   UNL     1     153.803 136.567 161.784  1.00  0.00    -0.005 C 
ATOM      8  C   UNL     1     154.505 137.586 162.754  1.00  0.00     0.009 C 
ATOM      9  C   UNL     1     154.170 139.089 162.614  1.00  0.00    -0.000 C 
ATOM     10  C   UNL     1     153.825 138.334 163.914  1.00  0.00    -0.028 C 
ATOM     11  C   UNL     1     152.357 138.067 164.288  1.00  0.00     0.012 C 
ATOM     12  C   UNL     1     154.744 138.661 165.098  1.00  0.00     0.012 C 
ATOM     13  C   UNL     1     152.988 139.551 161.733  1.00  0.00     0.009 C 
ATOM     14  C   UNL     1     152.654 138.587 160.601  1.00  0.00     0.031 C 
ATOM     15  C   UNL     1     154.822 136.316 160.642  1.00  0.00     0.017 C 
ENDROOT
TORSDOF 0
ENDMDL
