MODEL 1
REMARK VINA RESULT:    -4.786      0.000      0.000
REMARK INTER + INTRA:          -5.148
REMARK INTER:                  -5.905
REMARK INTRA:                   0.757
REMARK UNBOUND:                 0.757
REMARK SMILES CC1=CC=CC(C)(C)CC1=O
REMARK SMILES IDX 1 1 2 2 3 3 10 4 11 5 9 6 4 8 5 9 6 10 7 11 8 12
REMARK H PARENT
REMARK Flexibility Score: 80.00
ROOT
ATOM      1  C   UNL     1      23.645  56.250 139.325  1.00  0.00     0.048 C 
ATOM      2  C   UNL     1      25.067  56.760 139.332  1.00  0.00    -0.008 C 
ATOM      3  C   UNL     1      25.252  58.098 139.339  1.00  0.00     0.007 C 
ENDROOT
BRANCH   2   4
ATOM      4  C   UNL     1      26.147  55.746 139.407  1.00  0.00     0.159 C 
ATOM      5  O   UNL     1      25.842  54.549 139.666  1.00  0.00    -0.295 OA
BRANCH   4   6
ATOM      6  C   UNL     1      27.594  56.062 139.177  1.00  0.00     0.091 CG0
ATOM      7  G   UNL     1      28.155  57.104 140.170  1.00  0.00     0.000 G0
ENDBRANCH   4   6
ENDBRANCH   2   4
BRANCH   3   8
ATOM      8  C   UNL     1      26.507  58.885 139.372  1.00  0.00    -0.003 C 
ATOM      9  C   UNL     1      27.738  58.496 139.729  1.00  0.00    -0.020 C 
BRANCH   9  10
ATOM     10  C   UNL     1      28.149  57.110 140.169  1.00  0.00    -0.010 CG0
ATOM     11  C   UNL     1      27.691  56.860 141.624  1.00  0.00     0.016 C 
ATOM     12  C   UNL     1      29.691  57.028 140.134  1.00  0.00     0.016 C 
ATOM     13  G   UNL     1      27.590  56.063 139.180  1.00  0.00     0.000 G0
ENDBRANCH   9  10
ENDBRANCH   3   8
TORSDOF 0
ENDMDL
MODEL 2
REMARK VINA RESULT:    -4.646      1.861      3.069
REMARK INTER + INTRA:          -4.975
REMARK INTER:                  -5.726
REMARK INTRA:                   0.751
REMARK UNBOUND:                 0.757
REMARK SMILES CC1=CC=CC(C)(C)CC1=O
REMARK SMILES IDX 1 1 2 2 3 3 10 4 11 5 9 6 4 8 5 9 6 10 7 11 8 12
REMARK H PARENT
REMARK Flexibility Score: 80.00
ROOT
ATOM      1  C   UNL     1      26.673  56.845 143.285  1.00  0.00     0.048 C 
ATOM      2  C   UNL     1      26.542  56.830 141.780  1.00  0.00    -0.008 C 
ATOM      3  C   UNL     1      25.319  56.591 141.261  1.00  0.00     0.007 C 
ENDROOT
BRANCH   2   4
ATOM      4  C   UNL     1      27.757  57.156 140.993  1.00  0.00     0.159 C 
ATOM      5  O   UNL     1      28.763  57.626 141.593  1.00  0.00    -0.295 OA
BRANCH   4   6
ATOM      6  C   UNL     1      27.865  56.945 139.514  1.00  0.00     0.091 CG0
ATOM      7  G   UNL     1      26.815  57.741 138.707  1.00  0.00     0.000 G0
ENDBRANCH   4   6
ENDBRANCH   2   4
BRANCH   3   8
ATOM      8  C   UNL     1      24.878  56.540 139.847  1.00  0.00    -0.003 C 
ATOM      9  C   UNL     1      25.482  57.031 138.756  1.00  0.00    -0.020 C 
BRANCH   9  10
ATOM     10  C   UNL     1      26.810  57.750 138.713  1.00  0.00    -0.010 CG0
ATOM     11  C   UNL     1      26.642  59.202 139.217  1.00  0.00     0.016 C 
ATOM     12  C   UNL     1      27.282  57.808 137.243  1.00  0.00     0.016 C 
ATOM     13  G   UNL     1      27.858  56.956 139.523  1.00  0.00     0.000 G0
ENDBRANCH   9  10
ENDBRANCH   3   8
TORSDOF 0
ENDMDL
MODEL 3
REMARK VINA RESULT:    -4.639      2.181      4.215
REMARK INTER + INTRA:          -4.966
REMARK INTER:                  -5.723
REMARK INTRA:                   0.758
REMARK UNBOUND:                 0.757
REMARK SMILES CC1=CC=CC(C)(C)CC1=O
REMARK SMILES IDX 1 1 2 2 3 3 10 4 11 5 9 6 4 8 5 9 6 10 7 11 8 12
REMARK H PARENT
REMARK Flexibility Score: 80.00
ROOT
ATOM      1  C   UNL     1      31.102  59.250 141.870  1.00  0.00     0.048 C 
ATOM      2  C   UNL     1      29.992  58.236 141.718  1.00  0.00    -0.008 C 
ATOM      3  C   UNL     1      29.070  58.165 142.702  1.00  0.00     0.007 C 
ENDROOT
BRANCH   2   4
ATOM      4  C   UNL     1      29.964  57.450 140.459  1.00  0.00     0.159 C 
ATOM      5  O   UNL     1      30.735  57.781 139.517  1.00  0.00    -0.295 OA
BRANCH   4   6
ATOM      6  C   UNL     1      29.072  56.265 140.246  1.00  0.00     0.091 CG0
ATOM      7  G   UNL     1      27.571  56.596 140.402  1.00  0.00     0.000 G0
ENDBRANCH   4   6
ENDBRANCH   2   4
BRANCH   3   8
ATOM      8  C   UNL     1      27.871  57.304 142.822  1.00  0.00    -0.003 C 
ATOM      9  C   UNL     1      27.214  56.633 141.866  1.00  0.00    -0.020 C 
BRANCH   9  10
ATOM     10  C   UNL     1      27.576  56.576 140.400  1.00  0.00    -0.010 CG0
ATOM     11  C   UNL     1      27.165  57.893 139.703  1.00  0.00     0.016 C 
ATOM     12  C   UNL     1      26.779  55.423 139.749  1.00  0.00     0.016 C 
ATOM     13  G   UNL     1      29.081  56.265 140.247  1.00  0.00     0.000 G0
ENDBRANCH   9  10
ENDBRANCH   3   8
TORSDOF 0
ENDMDL
MODEL 4
REMARK VINA RESULT:    -4.593      1.455      2.124
REMARK INTER + INTRA:          -4.910
REMARK INTER:                  -5.671
REMARK INTRA:                   0.760
REMARK UNBOUND:                 0.757
REMARK SMILES CC1=CC=CC(C)(C)CC1=O
REMARK SMILES IDX 1 1 2 2 3 3 10 4 11 5 9 6 4 8 5 9 6 10 7 11 8 12
REMARK H PARENT
REMARK Flexibility Score: 80.00
ROOT
ATOM      1  C   UNL     1      24.078  56.618 139.035  1.00  0.00     0.048 C 
ATOM      2  C   UNL     1      25.316  56.968 139.829  1.00  0.00    -0.008 C 
ATOM      3  C   UNL     1      25.342  56.620 141.133  1.00  0.00     0.007 C 
ENDROOT
BRANCH   2   4
ATOM      4  C   UNL     1      26.435  57.602 139.088  1.00  0.00     0.159 C 
ATOM      5  O   UNL     1      26.390  57.635 137.828  1.00  0.00    -0.295 OA
BRANCH   4   6
ATOM      6  C   UNL     1      27.623  58.222 139.760  1.00  0.00     0.091 CG0
ATOM      7  G   UNL     1      28.416  57.227 140.635  1.00  0.00     0.000 G0
ENDBRANCH   4   6
ENDBRANCH   2   4
BRANCH   3   8
ATOM      8  C   UNL     1      26.409  56.802 142.145  1.00  0.00    -0.003 C 
ATOM      9  C   UNL     1      27.713  57.047 141.963  1.00  0.00    -0.020 C 
BRANCH   9  10
ATOM     10  C   UNL     1      28.415  57.228 140.637  1.00  0.00    -0.010 CG0
ATOM     11  C   UNL     1      28.619  55.855 139.956  1.00  0.00     0.016 C 
ATOM     12  C   UNL     1      29.809  57.838 140.906  1.00  0.00     0.016 C 
ATOM     13  G   UNL     1      27.619  58.217 139.757  1.00  0.00     0.000 G0
ENDBRANCH   9  10
ENDBRANCH   3   8
TORSDOF 0
ENDMDL
MODEL 5
REMARK VINA RESULT:    -4.297      2.073      3.056
REMARK INTER + INTRA:          -4.545
REMARK INTER:                  -5.277
REMARK INTRA:                   0.732
REMARK UNBOUND:                 0.757
REMARK SMILES CC1=CC=CC(C)(C)CC1=O
REMARK SMILES IDX 1 1 2 2 3 3 10 4 11 5 9 6 4 8 5 9 6 10 7 11 8 12
REMARK H PARENT
REMARK Flexibility Score: 80.00
ROOT
ATOM      1  C   UNL     1      27.866  55.000 139.750  1.00  0.00     0.048 C 
ATOM      2  C   UNL     1      27.691  56.491 139.578  1.00  0.00    -0.008 C 
ATOM      3  C   UNL     1      26.470  56.940 139.216  1.00  0.00     0.007 C 
ENDROOT
BRANCH   2   4
ATOM      4  C   UNL     1      28.860  57.349 139.893  1.00  0.00     0.159 C 
ATOM      5  O   UNL     1      29.853  56.833 140.476  1.00  0.00    -0.295 OA
BRANCH   4   6
ATOM      6  C   UNL     1      28.935  58.804 139.544  1.00  0.00     0.091 CG0
ATOM      7  G   UNL     1      27.822  59.647 140.205  1.00  0.00     0.000 G0
ENDBRANCH   4   6
ENDBRANCH   2   4
BRANCH   3   8
ATOM      8  C   UNL     1      25.991  58.325 138.999  1.00  0.00    -0.003 C 
ATOM      9  C   UNL     1      26.532  59.480 139.410  1.00  0.00    -0.020 C 
BRANCH   9  10
ATOM     10  C   UNL     1      27.814  59.641 140.194  1.00  0.00    -0.010 CG0
ATOM     11  C   UNL     1      27.570  59.298 141.681  1.00  0.00     0.016 C 
ATOM     12  C   UNL     1      28.249  61.121 140.112  1.00  0.00     0.016 C 
ATOM     13  G   UNL     1      28.925  58.778 139.557  1.00  0.00     0.000 G0
ENDBRANCH   9  10
ENDBRANCH   3   8
TORSDOF 0
ENDMDL
MODEL 6
REMARK VINA RESULT:    -4.249      1.725      3.278
REMARK INTER + INTRA:          -4.485
REMARK INTER:                  -5.239
REMARK INTRA:                   0.754
REMARK UNBOUND:                 0.757
REMARK SMILES CC1=CC=CC(C)(C)CC1=O
REMARK SMILES IDX 1 1 2 2 3 3 10 4 11 5 9 6 4 8 5 9 6 10 7 11 8 12
REMARK H PARENT
REMARK Flexibility Score: 80.00
ROOT
ATOM      1  C   UNL     1      27.783  57.084 143.806  1.00  0.00     0.048 C 
ATOM      2  C   UNL     1      27.836  57.375 142.324  1.00  0.00    -0.008 C 
ATOM      3  C   UNL     1      29.039  57.672 141.788  1.00  0.00     0.007 C 
ENDROOT
BRANCH   2   4
ATOM      4  C   UNL     1      26.569  57.238 141.564  1.00  0.00     0.159 C 
ATOM      5  O   UNL     1      25.578  56.694 142.124  1.00  0.00    -0.295 OA
BRANCH   4   6
ATOM      6  C   UNL     1      26.393  57.725 140.158  1.00  0.00     0.091 CG0
ATOM      7  G   UNL     1      27.375  57.073 139.159  1.00  0.00     0.000 G0
ENDBRANCH   4   6
ENDBRANCH   2   4
BRANCH   3   8
ATOM      8  C   UNL     1      29.407  57.973 140.385  1.00  0.00    -0.003 C 
ATOM      9  C   UNL     1      28.728  57.713 139.259  1.00  0.00    -0.020 C 
BRANCH   9  10
ATOM     10  C   UNL     1      27.371  57.055 139.162  1.00  0.00    -0.010 CG0
ATOM     11  C   UNL     1      27.506  55.531 139.383  1.00  0.00     0.016 C 
ATOM     12  C   UNL     1      26.824  57.283 137.735  1.00  0.00     0.016 C 
ATOM     13  G   UNL     1      26.398  57.718 140.161  1.00  0.00     0.000 G0
ENDBRANCH   9  10
ENDBRANCH   3   8
TORSDOF 0
ENDMDL
MODEL 7
REMARK VINA RESULT:    -4.248      2.255      3.101
REMARK INTER + INTRA:          -4.484
REMARK INTER:                  -5.247
REMARK INTRA:                   0.764
REMARK UNBOUND:                 0.757
REMARK SMILES CC1=CC=CC(C)(C)CC1=O
REMARK SMILES IDX 1 1 2 2 3 3 10 4 11 5 9 6 4 8 5 9 6 10 7 11 8 12
REMARK H PARENT
REMARK Flexibility Score: 80.00
ROOT
ATOM      1  C   UNL     1      26.776  57.743 136.905  1.00  0.00     0.048 C 
ATOM      2  C   UNL     1      27.089  57.671 138.381  1.00  0.00    -0.008 C 
ATOM      3  C   UNL     1      26.575  56.636 139.079  1.00  0.00     0.007 C 
ENDROOT
BRANCH   2   4
ATOM      4  C   UNL     1      28.001  58.705 138.930  1.00  0.00     0.159 C 
ATOM      5  O   UNL     1      28.623  59.455 138.128  1.00  0.00    -0.295 OA
BRANCH   4   6
ATOM      6  C   UNL     1      28.218  58.921 140.397  1.00  0.00     0.091 CG0
ATOM      7  G   UNL     1      28.782  57.677 141.119  1.00  0.00     0.000 G0
ENDBRANCH   4   6
ENDBRANCH   2   4
BRANCH   3   8
ATOM      8  C   UNL     1      26.725  56.286 140.511  1.00  0.00    -0.003 C 
ATOM      9  C   UNL     1      27.649  56.699 141.390  1.00  0.00    -0.020 C 
BRANCH   9  10
ATOM     10  C   UNL     1      28.773  57.672 141.118  1.00  0.00    -0.010 CG0
ATOM     11  C   UNL     1      29.898  56.972 140.322  1.00  0.00     0.016 C 
ATOM     12  C   UNL     1      29.359  58.125 142.474  1.00  0.00     0.016 C 
ATOM     13  G   UNL     1      28.218  58.919 140.394  1.00  0.00     0.000 G0
ENDBRANCH   9  10
ENDBRANCH   3   8
TORSDOF 0
ENDMDL
MODEL 8
REMARK VINA RESULT:    -4.147      1.941      2.881
REMARK INTER + INTRA:          -4.359
REMARK INTER:                  -5.112
REMARK INTRA:                   0.753
REMARK UNBOUND:                 0.757
REMARK SMILES CC1=CC=CC(C)(C)CC1=O
REMARK SMILES IDX 1 1 2 2 3 3 10 4 11 5 9 6 4 8 5 9 6 10 7 11 8 12
REMARK H PARENT
REMARK Flexibility Score: 80.00
ROOT
ATOM      1  C   UNL     1      26.689  54.771 139.108  1.00  0.00     0.048 C 
ATOM      2  C   UNL     1      26.749  56.155 139.710  1.00  0.00    -0.008 C 
ATOM      3  C   UNL     1      27.082  56.256 141.015  1.00  0.00     0.007 C 
ENDROOT
BRANCH   2   4
ATOM      4  C   UNL     1      26.509  57.300 138.797  1.00  0.00     0.159 C 
ATOM      5  O   UNL     1      26.456  57.087 137.555  1.00  0.00    -0.295 OA
BRANCH   4   6
ATOM      6  C   UNL     1      26.310  58.707 139.271  1.00  0.00     0.091 CG0
ATOM      7  G   UNL     1      27.508  59.252 140.080  1.00  0.00     0.000 G0
ENDBRANCH   4   6
ENDBRANCH   2   4
BRANCH   3   8
ATOM      8  C   UNL     1      27.246  57.458 141.865  1.00  0.00    -0.003 C 
ATOM      9  C   UNL     1      27.436  58.732 141.498  1.00  0.00    -0.020 C 
BRANCH   9  10
ATOM     10  C   UNL     1      27.502  59.258 140.083  1.00  0.00    -0.010 CG0
ATOM     11  C   UNL     1      28.873  58.918 139.456  1.00  0.00     0.016 C 
ATOM     12  C   UNL     1      27.369  60.797 140.132  1.00  0.00     0.016 C 
ATOM     13  G   UNL     1      26.317  58.699 139.265  1.00  0.00     0.000 G0
ENDBRANCH   9  10
ENDBRANCH   3   8
TORSDOF 0
ENDMDL
MODEL 9
REMARK VINA RESULT:    -4.139      1.822      2.770
REMARK INTER + INTRA:          -4.350
REMARK INTER:                  -5.096
REMARK INTRA:                   0.746
REMARK UNBOUND:                 0.757
REMARK SMILES CC1=CC=CC(C)(C)CC1=O
REMARK SMILES IDX 1 1 2 2 3 3 10 4 11 5 9 6 4 8 5 9 6 10 7 11 8 12
REMARK H PARENT
REMARK Flexibility Score: 80.00
ROOT
ATOM      1  C   UNL     1      26.010  56.280 143.281  1.00  0.00     0.048 C 
ATOM      2  C   UNL     1      26.588  57.325 142.355  1.00  0.00    -0.008 C 
ATOM      3  C   UNL     1      27.191  58.394 142.916  1.00  0.00     0.007 C 
ENDROOT
BRANCH   2   4
ATOM      4  C   UNL     1      26.510  57.052 140.898  1.00  0.00     0.159 C 
ATOM      5  O   UNL     1      26.170  55.900 140.512  1.00  0.00    -0.295 OA
BRANCH   4   6
ATOM      6  C   UNL     1      26.804  58.080 139.849  1.00  0.00     0.091 CG0
ATOM      7  G   UNL     1      28.243  58.636 139.926  1.00  0.00     0.000 G0
ENDBRANCH   4   6
ENDBRANCH   2   4
BRANCH   3   8
ATOM      8  C   UNL     1      27.863  59.551 142.279  1.00  0.00    -0.003 C 
ATOM      9  C   UNL     1      28.325  59.675 141.028  1.00  0.00    -0.020 C 
BRANCH   9  10
ATOM     10  C   UNL     1      28.240  58.637 139.933  1.00  0.00    -0.010 CG0
ATOM     11  C   UNL     1      29.303  57.538 140.163  1.00  0.00     0.016 C 
ATOM     12  C   UNL     1      28.553  59.327 138.587  1.00  0.00     0.016 C 
ATOM     13  G   UNL     1      26.804  58.072 139.862  1.00  0.00     0.000 G0
ENDBRANCH   9  10
ENDBRANCH   3   8
TORSDOF 0
ENDMDL
