MODEL 1
REMARK VINA RESULT:    -3.723      0.000      0.000
REMARK INTER + INTRA:          -8.525
REMARK INTER:                  -6.553
REMARK INTRA:                  -1.972
REMARK UNBOUND:                -1.972
REMARK SMILES CCCCCCC=CCCCCCCCC(=O)[O-]
REMARK SMILES IDX 10 1 11 2 12 3 13 4 14 5 15 6 16 7 17 8 18 9 9 10 8 11 7 12
REMARK SMILES IDX 6 13 5 14 4 15 3 16 2 17 1 18
REMARK H PARENT
REMARK Flexibility Score: inf
ROOT
ATOM      1  C   UNL     1      61.282  31.962  59.485  1.00  0.00     0.004 C 
ENDROOT
BRANCH   1   2
ATOM      2  C   UNL     1      60.974  31.940  60.994  1.00  0.00     0.000 C 
BRANCH   2   3
ATOM      3  C   UNL     1      61.161  30.548  61.621  1.00  0.00     0.000 C 
BRANCH   3   4
ATOM      4  C   UNL     1      62.617  30.284  62.043  1.00  0.00     0.000 C 
BRANCH   4   5
ATOM      5  C   UNL     1      63.360  29.369  61.058  1.00  0.00     0.006 C 
BRANCH   5   6
ATOM      6  C   UNL     1      62.498  28.162  60.676  1.00  0.00     0.053 C 
BRANCH   6   7
ATOM      7  C   UNL     1      62.740  27.026  61.618  1.00  0.00     0.041 C 
ATOM      8  O   UNL     1      63.754  26.293  61.481  1.00  0.00    -0.550 OA
ATOM      9  O   UNL     1      61.817  26.744  62.617  1.00  0.00    -0.550 OA
ENDBRANCH   6   7
ENDBRANCH   5   6
ENDBRANCH   4   5
ENDBRANCH   3   4
ENDBRANCH   2   3
ENDBRANCH   1   2
BRANCH   1  10
ATOM     10  C   UNL     1      62.209  33.105  59.040  1.00  0.00     0.027 C 
BRANCH  10  11
ATOM     11  C   UNL     1      63.666  32.710  59.084  1.00  0.00    -0.031 C 
ATOM     12  C   UNL     1      64.484  32.909  60.135  1.00  0.00    -0.031 C 
BRANCH  12  13
ATOM     13  C   UNL     1      64.102  33.650  61.393  1.00  0.00     0.027 C 
BRANCH  13  14
ATOM     14  C   UNL     1      64.773  35.029  61.475  1.00  0.00     0.004 C 
BRANCH  14  15
ATOM     15  C   UNL     1      63.744  36.165  61.608  1.00  0.00     0.000 C 
BRANCH  15  16
ATOM     16  C   UNL     1      62.315  35.712  61.270  1.00  0.00    -0.000 C 
BRANCH  16  17
ATOM     17  C   UNL     1      61.398  36.882  60.884  1.00  0.00    -0.003 C 
ATOM     18  C   UNL     1      60.123  36.381  60.210  1.00  0.00     0.004 C 
ENDBRANCH  16  17
ENDBRANCH  15  16
ENDBRANCH  14  15
ENDBRANCH  13  14
ENDBRANCH  12  13
ENDBRANCH  10  11
ENDBRANCH   1  10
TORSDOF 13
ENDMDL
MODEL 2
REMARK VINA RESULT:    -3.450     12.120     13.801
REMARK INTER + INTRA:          -8.044
REMARK INTER:                  -6.540
REMARK INTRA:                  -1.504
REMARK UNBOUND:                -1.972
REMARK SMILES CCCCCCC=CCCCCCCCC(=O)[O-]
REMARK SMILES IDX 10 1 11 2 12 3 13 4 14 5 15 6 16 7 17 8 18 9 9 10 8 11 7 12
REMARK SMILES IDX 6 13 5 14 4 15 3 16 2 17 1 18
REMARK H PARENT
REMARK Flexibility Score: inf
ROOT
ATOM      1  C   UNL     1      60.200  26.330  49.519  1.00  0.00     0.004 C 
ENDROOT
BRANCH   1   2
ATOM      2  C   UNL     1      59.357  25.446  50.457  1.00  0.00     0.000 C 
BRANCH   2   3
ATOM      3  C   UNL     1      59.815  23.978  50.466  1.00  0.00     0.000 C 
BRANCH   3   4
ATOM      4  C   UNL     1      61.277  23.815  50.018  1.00  0.00     0.000 C 
BRANCH   4   5
ATOM      5  C   UNL     1      61.728  22.346  49.998  1.00  0.00     0.006 C 
BRANCH   5   6
ATOM      6  C   UNL     1      60.877  21.526  49.025  1.00  0.00     0.053 C 
BRANCH   6   7
ATOM      7  C   UNL     1      60.302  20.328  49.713  1.00  0.00     0.041 C 
ATOM      8  O   UNL     1      59.413  19.639  49.148  1.00  0.00    -0.550 OA
ATOM      9  O   UNL     1      60.713  20.001  50.999  1.00  0.00    -0.550 OA
ENDBRANCH   6   7
ENDBRANCH   5   6
ENDBRANCH   4   5
ENDBRANCH   3   4
ENDBRANCH   2   3
ENDBRANCH   1   2
BRANCH   1  10
ATOM     10  C   UNL     1      60.230  27.819  49.901  1.00  0.00     0.027 C 
BRANCH  10  11
ATOM     11  C   UNL     1      59.294  28.646  49.054  1.00  0.00    -0.031 C 
ATOM     12  C   UNL     1      58.186  29.260  49.510  1.00  0.00    -0.031 C 
BRANCH  12  13
ATOM     13  C   UNL     1      57.650  29.135  50.915  1.00  0.00     0.027 C 
BRANCH  13  14
ATOM     14  C   UNL     1      56.343  28.329  50.962  1.00  0.00     0.004 C 
BRANCH  14  15
ATOM     15  C   UNL     1      56.459  27.092  51.871  1.00  0.00     0.000 C 
BRANCH  15  16
ATOM     16  C   UNL     1      55.741  25.863  51.291  1.00  0.00    -0.000 C 
BRANCH  16  17
ATOM     17  C   UNL     1      55.592  25.930  49.764  1.00  0.00    -0.003 C 
ATOM     18  C   UNL     1      54.227  25.408  49.323  1.00  0.00     0.004 C 
ENDBRANCH  16  17
ENDBRANCH  15  16
ENDBRANCH  14  15
ENDBRANCH  13  14
ENDBRANCH  12  13
ENDBRANCH  10  11
ENDBRANCH   1  10
TORSDOF 13
ENDMDL
MODEL 3
REMARK VINA RESULT:    -3.426     11.692     13.403
REMARK INTER + INTRA:          -8.002
REMARK INTER:                  -6.173
REMARK INTRA:                  -1.829
REMARK UNBOUND:                -1.972
REMARK SMILES CCCCCCC=CCCCCCCCC(=O)[O-]
REMARK SMILES IDX 10 1 11 2 12 3 13 4 14 5 15 6 16 7 17 8 18 9 9 10 8 11 7 12
REMARK SMILES IDX 6 13 5 14 4 15 3 16 2 17 1 18
REMARK H PARENT
REMARK Flexibility Score: inf
ROOT
ATOM      1  C   UNL     1      57.452  28.671  50.031  1.00  0.00     0.004 C 
ENDROOT
BRANCH   1   2
ATOM      2  C   UNL     1      58.945  29.007  49.855  1.00  0.00     0.000 C 
BRANCH   2   3
ATOM      3  C   UNL     1      59.674  28.018  48.930  1.00  0.00     0.000 C 
BRANCH   3   4
ATOM      4  C   UNL     1      61.070  27.642  49.453  1.00  0.00     0.000 C 
BRANCH   4   5
ATOM      5  C   UNL     1      61.019  26.586  50.568  1.00  0.00     0.006 C 
BRANCH   5   6
ATOM      6  C   UNL     1      60.323  25.311  50.081  1.00  0.00     0.053 C 
BRANCH   6   7
ATOM      7  C   UNL     1      61.288  24.168  50.046  1.00  0.00     0.041 C 
ATOM      8  O   UNL     1      60.992  23.108  49.435  1.00  0.00    -0.550 OA
ATOM      9  O   UNL     1      62.492  24.254  50.733  1.00  0.00    -0.550 OA
ENDBRANCH   6   7
ENDBRANCH   5   6
ENDBRANCH   4   5
ENDBRANCH   3   4
ENDBRANCH   2   3
ENDBRANCH   1   2
BRANCH   1  10
ATOM     10  C   UNL     1      57.171  27.481  50.963  1.00  0.00     0.027 C 
BRANCH  10  11
ATOM     11  C   UNL     1      56.701  26.262  50.207  1.00  0.00    -0.031 C 
ATOM     12  C   UNL     1      55.414  25.894  50.068  1.00  0.00    -0.031 C 
BRANCH  12  13
ATOM     13  C   UNL     1      54.246  26.583  50.731  1.00  0.00     0.027 C 
BRANCH  13  14
ATOM     14  C   UNL     1      53.382  27.350  49.719  1.00  0.00     0.004 C 
BRANCH  14  15
ATOM     15  C   UNL     1      52.875  28.687  50.287  1.00  0.00     0.000 C 
BRANCH  15  16
ATOM     16  C   UNL     1      53.994  29.730  50.431  1.00  0.00    -0.000 C 
BRANCH  16  17
ATOM     17  C   UNL     1      53.956  30.457  51.784  1.00  0.00    -0.003 C 
ATOM     18  C   UNL     1      54.940  29.832  52.770  1.00  0.00     0.004 C 
ENDBRANCH  16  17
ENDBRANCH  15  16
ENDBRANCH  14  15
ENDBRANCH  13  14
ENDBRANCH  12  13
ENDBRANCH  10  11
ENDBRANCH   1  10
TORSDOF 13
ENDMDL
MODEL 4
REMARK VINA RESULT:    -3.417      1.216      3.324
REMARK INTER + INTRA:          -7.985
REMARK INTER:                  -5.610
REMARK INTRA:                  -2.375
REMARK UNBOUND:                -1.972
REMARK SMILES CCCCCCC=CCCCCCCCC(=O)[O-]
REMARK SMILES IDX 10 1 11 2 12 3 13 4 14 5 15 6 16 7 17 8 18 9 9 10 8 11 7 12
REMARK SMILES IDX 6 13 5 14 4 15 3 16 2 17 1 18
REMARK H PARENT
REMARK Flexibility Score: inf
ROOT
ATOM      1  C   UNL     1      61.519  34.141  58.439  1.00  0.00     0.004 C 
ENDROOT
BRANCH   1   2
ATOM      2  C   UNL     1      60.328  33.251  58.842  1.00  0.00     0.000 C 
BRANCH   2   3
ATOM      3  C   UNL     1      60.761  31.977  59.588  1.00  0.00     0.000 C 
BRANCH   3   4
ATOM      4  C   UNL     1      60.998  32.224  61.087  1.00  0.00     0.000 C 
BRANCH   4   5
ATOM      5  C   UNL     1      61.306  30.930  61.857  1.00  0.00     0.006 C 
BRANCH   5   6
ATOM      6  C   UNL     1      60.907  29.699  61.039  1.00  0.00     0.053 C 
BRANCH   6   7
ATOM      7  C   UNL     1      61.958  28.639  61.140  1.00  0.00     0.041 C 
ATOM      8  O   UNL     1      62.920  28.621  60.328  1.00  0.00    -0.550 OA
ATOM      9  O   UNL     1      61.849  27.641  62.100  1.00  0.00    -0.550 OA
ENDBRANCH   6   7
ENDBRANCH   5   6
ENDBRANCH   4   5
ENDBRANCH   3   4
ENDBRANCH   2   3
ENDBRANCH   1   2
BRANCH   1  10
ATOM     10  C   UNL     1      61.413  35.601  58.909  1.00  0.00     0.027 C 
BRANCH  10  11
ATOM     11  C   UNL     1      61.264  35.709  60.407  1.00  0.00    -0.031 C 
ATOM     12  C   UNL     1      62.273  35.956  61.264  1.00  0.00    -0.031 C 
BRANCH  12  13
ATOM     13  C   UNL     1      63.726  36.063  60.872  1.00  0.00     0.027 C 
BRANCH  13  14
ATOM     14  C   UNL     1      64.608  35.086  61.663  1.00  0.00     0.004 C 
BRANCH  14  15
ATOM     15  C   UNL     1      64.257  33.618  61.363  1.00  0.00     0.000 C 
BRANCH  15  16
ATOM     16  C   UNL     1      64.584  33.214  59.917  1.00  0.00    -0.000 C 
BRANCH  16  17
ATOM     17  C   UNL     1      64.629  31.692  59.722  1.00  0.00    -0.003 C 
ATOM     18  C   UNL     1      64.013  31.291  58.385  1.00  0.00     0.004 C 
ENDBRANCH  16  17
ENDBRANCH  15  16
ENDBRANCH  14  15
ENDBRANCH  13  14
ENDBRANCH  12  13
ENDBRANCH  10  11
ENDBRANCH   1  10
TORSDOF 13
ENDMDL
MODEL 5
REMARK VINA RESULT:    -3.416      3.605      6.293
REMARK INTER + INTRA:          -7.985
REMARK INTER:                  -5.894
REMARK INTRA:                  -2.091
REMARK UNBOUND:                -1.972
REMARK SMILES CCCCCCC=CCCCCCCCC(=O)[O-]
REMARK SMILES IDX 10 1 11 2 12 3 13 4 14 5 15 6 16 7 17 8 18 9 9 10 8 11 7 12
REMARK SMILES IDX 6 13 5 14 4 15 3 16 2 17 1 18
REMARK H PARENT
REMARK Flexibility Score: inf
ROOT
ATOM      1  C   UNL     1      60.636  31.349  60.374  1.00  0.00     0.004 C 
ENDROOT
BRANCH   1   2
ATOM      2  C   UNL     1      60.968  32.750  59.825  1.00  0.00     0.000 C 
BRANCH   2   3
ATOM      3  C   UNL     1      61.694  33.637  60.852  1.00  0.00     0.000 C 
BRANCH   3   4
ATOM      4  C   UNL     1      61.615  35.131  60.498  1.00  0.00     0.000 C 
BRANCH   4   5
ATOM      5  C   UNL     1      62.570  35.989  61.343  1.00  0.00     0.006 C 
BRANCH   5   6
ATOM      6  C   UNL     1      63.641  36.641  60.464  1.00  0.00     0.053 C 
BRANCH   6   7
ATOM      7  C   UNL     1      64.985  36.046  60.748  1.00  0.00     0.041 C 
ATOM      8  O   UNL     1      65.895  36.096  59.881  1.00  0.00    -0.550 OA
ATOM      9  O   UNL     1      65.215  35.393  61.952  1.00  0.00    -0.550 OA
ENDBRANCH   6   7
ENDBRANCH   5   6
ENDBRANCH   4   5
ENDBRANCH   3   4
ENDBRANCH   2   3
ENDBRANCH   1   2
BRANCH   1  10
ATOM     10  C   UNL     1      61.108  31.102  61.817  1.00  0.00     0.027 C 
BRANCH  10  11
ATOM     11  C   UNL     1      61.996  29.886  61.927  1.00  0.00    -0.031 C 
ATOM     12  C   UNL     1      63.332  29.893  61.762  1.00  0.00    -0.031 C 
BRANCH  12  13
ATOM     13  C   UNL     1      64.140  31.096  61.341  1.00  0.00     0.027 C 
BRANCH  13  14
ATOM     14  C   UNL     1      65.191  30.740  60.280  1.00  0.00     0.004 C 
BRANCH  14  15
ATOM     15  C   UNL     1      64.580  29.967  59.097  1.00  0.00     0.000 C 
BRANCH  15  16
ATOM     16  C   UNL     1      63.724  30.861  58.186  1.00  0.00    -0.000 C 
BRANCH  16  17
ATOM     17  C   UNL     1      62.583  30.092  57.505  1.00  0.00    -0.003 C 
ATOM     18  C   UNL     1      62.289  28.784  58.236  1.00  0.00     0.004 C 
ENDBRANCH  16  17
ENDBRANCH  15  16
ENDBRANCH  14  15
ENDBRANCH  13  14
ENDBRANCH  12  13
ENDBRANCH  10  11
ENDBRANCH   1  10
TORSDOF 13
ENDMDL
MODEL 6
REMARK VINA RESULT:    -3.318     10.864     12.835
REMARK INTER + INTRA:          -7.812
REMARK INTER:                  -5.312
REMARK INTRA:                  -2.500
REMARK UNBOUND:                -1.972
REMARK SMILES CCCCCCC=CCCCCCCCC(=O)[O-]
REMARK SMILES IDX 10 1 11 2 12 3 13 4 14 5 15 6 16 7 17 8 18 9 9 10 8 11 7 12
REMARK SMILES IDX 6 13 5 14 4 15 3 16 2 17 1 18
REMARK H PARENT
REMARK Flexibility Score: inf
ROOT
ATOM      1  C   UNL     1      55.138  25.618  51.297  1.00  0.00     0.004 C 
ENDROOT
BRANCH   1   2
ATOM      2  C   UNL     1      56.639  25.421  51.583  1.00  0.00     0.000 C 
BRANCH   2   3
ATOM      3  C   UNL     1      57.521  25.686  50.352  1.00  0.00     0.000 C 
BRANCH   3   4
ATOM      4  C   UNL     1      58.963  25.185  50.542  1.00  0.00     0.000 C 
BRANCH   4   5
ATOM      5  C   UNL     1      59.948  25.836  49.558  1.00  0.00     0.006 C 
BRANCH   5   6
ATOM      6  C   UNL     1      59.636  27.323  49.375  1.00  0.00     0.053 C 
BRANCH   6   7
ATOM      7  C   UNL     1      60.882  28.141  49.507  1.00  0.00     0.041 C 
ATOM      8  O   UNL     1      62.006  27.626  49.272  1.00  0.00    -0.550 OA
ATOM      9  O   UNL     1      60.806  29.459  49.939  1.00  0.00    -0.550 OA
ENDBRANCH   6   7
ENDBRANCH   5   6
ENDBRANCH   4   5
ENDBRANCH   3   4
ENDBRANCH   2   3
ENDBRANCH   1   2
BRANCH   1  10
ATOM     10  C   UNL     1      54.830  26.299  49.953  1.00  0.00     0.027 C 
BRANCH  10  11
ATOM     11  C   UNL     1      54.101  27.609  50.130  1.00  0.00    -0.031 C 
ATOM     12  C   UNL     1      54.699  28.799  50.324  1.00  0.00    -0.031 C 
BRANCH  12  13
ATOM     13  C   UNL     1      56.185  28.998  50.495  1.00  0.00     0.027 C 
BRANCH  13  14
ATOM     14  C   UNL     1      56.586  29.087  51.975  1.00  0.00     0.004 C 
BRANCH  14  15
ATOM     15  C   UNL     1      58.106  29.248  52.154  1.00  0.00     0.000 C 
BRANCH  15  16
ATOM     16  C   UNL     1      58.730  28.106  52.971  1.00  0.00    -0.000 C 
BRANCH  16  17
ATOM     17  C   UNL     1      60.233  28.304  53.214  1.00  0.00    -0.003 C 
ATOM     18  C   UNL     1      60.985  26.980  53.110  1.00  0.00     0.004 C 
ENDBRANCH  16  17
ENDBRANCH  15  16
ENDBRANCH  14  15
ENDBRANCH  13  14
ENDBRANCH  12  13
ENDBRANCH  10  11
ENDBRANCH   1  10
TORSDOF 13
ENDMDL
MODEL 7
REMARK VINA RESULT:    -3.309      3.401      6.152
REMARK INTER + INTRA:          -7.796
REMARK INTER:                  -5.705
REMARK INTRA:                  -2.091
REMARK UNBOUND:                -1.972
REMARK SMILES CCCCCCC=CCCCCCCCC(=O)[O-]
REMARK SMILES IDX 10 1 11 2 12 3 13 4 14 5 15 6 16 7 17 8 18 9 9 10 8 11 7 12
REMARK SMILES IDX 6 13 5 14 4 15 3 16 2 17 1 18
REMARK H PARENT
REMARK Flexibility Score: inf
ROOT
ATOM      1  C   UNL     1      60.490  34.690  58.681  1.00  0.00     0.004 C 
ENDROOT
BRANCH   1   2
ATOM      2  C   UNL     1      60.713  35.780  59.747  1.00  0.00     0.000 C 
BRANCH   2   3
ATOM      3  C   UNL     1      61.626  35.315  60.894  1.00  0.00     0.000 C 
BRANCH   3   4
ATOM      4  C   UNL     1      62.591  36.417  61.361  1.00  0.00     0.000 C 
BRANCH   4   5
ATOM      5  C   UNL     1      64.015  35.891  61.604  1.00  0.00     0.006 C 
BRANCH   5   6
ATOM      6  C   UNL     1      64.303  34.668  60.729  1.00  0.00     0.053 C 
BRANCH   6   7
ATOM      7  C   UNL     1      65.111  35.058  59.532  1.00  0.00     0.041 C 
ATOM      8  O   UNL     1      65.537  34.177  58.741  1.00  0.00    -0.550 OA
ATOM      9  O   UNL     1      65.437  36.391  59.318  1.00  0.00    -0.550 OA
ENDBRANCH   6   7
ENDBRANCH   5   6
ENDBRANCH   4   5
ENDBRANCH   3   4
ENDBRANCH   2   3
ENDBRANCH   1   2
BRANCH   1  10
ATOM     10  C   UNL     1      61.430  33.478  58.803  1.00  0.00     0.027 C 
BRANCH  10  11
ATOM     11  C   UNL     1      60.674  32.174  58.881  1.00  0.00    -0.031 C 
ATOM     12  C   UNL     1      60.513  31.447  60.003  1.00  0.00    -0.031 C 
BRANCH  12  13
ATOM     13  C   UNL     1      61.148  31.767  61.334  1.00  0.00     0.027 C 
BRANCH  13  14
ATOM     14  C   UNL     1      61.496  30.497  62.124  1.00  0.00     0.004 C 
BRANCH  14  15
ATOM     15  C   UNL     1      62.884  29.946  61.752  1.00  0.00     0.000 C 
BRANCH  15  16
ATOM     16  C   UNL     1      63.895  31.058  61.431  1.00  0.00    -0.000 C 
BRANCH  16  17
ATOM     17  C   UNL     1      64.385  31.011  59.976  1.00  0.00    -0.003 C 
ATOM     18  C   UNL     1      64.081  29.658  59.338  1.00  0.00     0.004 C 
ENDBRANCH  16  17
ENDBRANCH  15  16
ENDBRANCH  14  15
ENDBRANCH  13  14
ENDBRANCH  12  13
ENDBRANCH  10  11
ENDBRANCH   1  10
TORSDOF 13
ENDMDL
MODEL 8
REMARK VINA RESULT:    -3.304      2.268      4.448
REMARK INTER + INTRA:          -7.787
REMARK INTER:                  -5.660
REMARK INTRA:                  -2.127
REMARK UNBOUND:                -1.972
REMARK SMILES CCCCCCC=CCCCCCCCC(=O)[O-]
REMARK SMILES IDX 10 1 11 2 12 3 13 4 14 5 15 6 16 7 17 8 18 9 9 10 8 11 7 12
REMARK SMILES IDX 6 13 5 14 4 15 3 16 2 17 1 18
REMARK H PARENT
REMARK Flexibility Score: inf
ROOT
ATOM      1  C   UNL     1      62.486  28.333  59.877  1.00  0.00     0.004 C 
ENDROOT
BRANCH   1   2
ATOM      2  C   UNL     1      63.200  27.937  61.184  1.00  0.00     0.000 C 
BRANCH   2   3
ATOM      3  C   UNL     1      63.613  26.456  61.213  1.00  0.00     0.000 C 
BRANCH   3   4
ATOM      4  C   UNL     1      62.608  25.579  61.977  1.00  0.00     0.000 C 
BRANCH   4   5
ATOM      5  C   UNL     1      61.616  26.406  62.810  1.00  0.00     0.006 C 
BRANCH   5   6
ATOM      6  C   UNL     1      60.257  25.705  62.898  1.00  0.00     0.053 C 
BRANCH   6   7
ATOM      7  C   UNL     1      59.336  26.211  61.833  1.00  0.00     0.041 C 
ATOM      8  O   UNL     1      59.316  25.663  60.700  1.00  0.00    -0.550 OA
ATOM      9  O   UNL     1      58.536  27.320  62.076  1.00  0.00    -0.550 OA
ENDBRANCH   6   7
ENDBRANCH   5   6
ENDBRANCH   4   5
ENDBRANCH   3   4
ENDBRANCH   2   3
ENDBRANCH   1   2
BRANCH   1  10
ATOM     10  C   UNL     1      61.192  29.138  60.077  1.00  0.00     0.027 C 
BRANCH  10  11
ATOM     11  C   UNL     1      61.140  29.810  61.428  1.00  0.00    -0.031 C 
ATOM     12  C   UNL     1      60.910  31.122  61.624  1.00  0.00    -0.031 C 
BRANCH  12  13
ATOM     13  C   UNL     1      60.769  32.145  60.523  1.00  0.00     0.027 C 
BRANCH  13  14
ATOM     14  C   UNL     1      61.663  33.370  60.759  1.00  0.00     0.004 C 
BRANCH  14  15
ATOM     15  C   UNL     1      63.039  33.221  60.085  1.00  0.00     0.000 C 
BRANCH  15  16
ATOM     16  C   UNL     1      64.152  32.871  61.085  1.00  0.00    -0.000 C 
BRANCH  16  17
ATOM     17  C   UNL     1      64.545  31.387  61.040  1.00  0.00    -0.003 C 
ATOM     18  C   UNL     1      65.033  30.991  59.649  1.00  0.00     0.004 C 
ENDBRANCH  16  17
ENDBRANCH  15  16
ENDBRANCH  14  15
ENDBRANCH  13  14
ENDBRANCH  12  13
ENDBRANCH  10  11
ENDBRANCH   1  10
TORSDOF 13
ENDMDL
MODEL 9
REMARK VINA RESULT:    -3.232      1.346      1.971
REMARK INTER + INTRA:          -7.660
REMARK INTER:                  -5.134
REMARK INTRA:                  -2.526
REMARK UNBOUND:                -1.972
REMARK SMILES CCCCCCC=CCCCCCCCC(=O)[O-]
REMARK SMILES IDX 10 1 11 2 12 3 13 4 14 5 15 6 16 7 17 8 18 9 9 10 8 11 7 12
REMARK SMILES IDX 6 13 5 14 4 15 3 16 2 17 1 18
REMARK H PARENT
REMARK Flexibility Score: inf
ROOT
ATOM      1  C   UNL     1      62.046  30.602  57.563  1.00  0.00     0.004 C 
ENDROOT
BRANCH   1   2
ATOM      2  C   UNL     1      60.887  30.327  58.540  1.00  0.00     0.000 C 
BRANCH   2   3
ATOM      3  C   UNL     1      61.021  31.107  59.859  1.00  0.00     0.000 C 
BRANCH   3   4
ATOM      4  C   UNL     1      60.818  30.213  61.094  1.00  0.00     0.000 C 
BRANCH   4   5
ATOM      5  C   UNL     1      61.976  30.322  62.099  1.00  0.00     0.006 C 
BRANCH   5   6
ATOM      6  C   UNL     1      63.205  29.556  61.603  1.00  0.00     0.053 C 
BRANCH   6   7
ATOM      7  C   UNL     1      62.830  28.162  61.210  1.00  0.00     0.041 C 
ATOM      8  O   UNL     1      62.404  27.352  62.074  1.00  0.00    -0.550 OA
ATOM      9  O   UNL     1      63.000  27.740  59.897  1.00  0.00    -0.550 OA
ENDBRANCH   6   7
ENDBRANCH   5   6
ENDBRANCH   4   5
ENDBRANCH   3   4
ENDBRANCH   2   3
ENDBRANCH   1   2
BRANCH   1  10
ATOM     10  C   UNL     1      63.376  30.971  58.241  1.00  0.00     0.027 C 
BRANCH  10  11
ATOM     11  C   UNL     1      63.770  32.405  57.984  1.00  0.00    -0.031 C 
ATOM     12  C   UNL     1      64.368  33.210  58.883  1.00  0.00    -0.031 C 
BRANCH  12  13
ATOM     13  C   UNL     1      64.646  32.838  60.319  1.00  0.00     0.027 C 
BRANCH  13  14
ATOM     14  C   UNL     1      63.632  33.471  61.283  1.00  0.00     0.004 C 
BRANCH  14  15
ATOM     15  C   UNL     1      63.745  35.006  61.314  1.00  0.00     0.000 C 
BRANCH  15  16
ATOM     16  C   UNL     1      62.409  35.702  61.010  1.00  0.00    -0.000 C 
BRANCH  16  17
ATOM     17  C   UNL     1      61.293  34.711  60.650  1.00  0.00    -0.003 C 
ATOM     18  C   UNL     1      60.920  34.818  59.174  1.00  0.00     0.004 C 
ENDBRANCH  16  17
ENDBRANCH  15  16
ENDBRANCH  14  15
ENDBRANCH  13  14
ENDBRANCH  12  13
ENDBRANCH  10  11
ENDBRANCH   1  10
TORSDOF 13
ENDMDL
