MODEL 1
REMARK VINA RESULT:    -3.597      0.000      0.000
REMARK INTER + INTRA:          -3.912
REMARK INTER:                  -3.912
REMARK INTRA:                   0.000
REMARK UNBOUND:                 0.000
REMARK SMILES [NH3+]CC(=O)[O-]
REMARK SMILES IDX 2 1 1 2 3 6 4 7 5 8
REMARK H PARENT 1 3 1 4 1 5
REMARK Flexibility Score: inf
ROOT
ATOM      1  C   UNL     1     125.489 136.440 134.595  1.00  0.00     0.312 C 
ENDROOT
BRANCH   1   2
ATOM      2  N   UNL     1     126.211 137.103 135.679  1.00  0.00    -0.353 N 
ATOM      3  H   UNL     1     125.713 137.980 135.957  1.00  0.00     0.344 HD
ATOM      4  H   UNL     1     127.186 137.332 135.374  1.00  0.00     0.344 HD
ATOM      5  H   UNL     1     126.255 136.463 136.503  1.00  0.00     0.344 HD
ENDBRANCH   1   2
BRANCH   1   6
ATOM      6  C   UNL     1     124.047 136.844 134.596  1.00  0.00     0.096 C 
ATOM      7  O   UNL     1     123.156 136.013 134.280  1.00  0.00    -0.544 OA
ATOM      8  O   UNL     1     123.683 138.124 134.996  1.00  0.00    -0.544 OA
ENDBRANCH   1   6
TORSDOF 2
ENDMDL
MODEL 2
REMARK VINA RESULT:    -3.374     17.971     18.185
REMARK INTER + INTRA:          -3.670
REMARK INTER:                  -3.670
REMARK INTRA:                   0.000
REMARK UNBOUND:                 0.000
REMARK SMILES [NH3+]CC(=O)[O-]
REMARK SMILES IDX 2 1 1 2 3 6 4 7 5 8
REMARK H PARENT 1 3 1 4 1 5
REMARK Flexibility Score: inf
ROOT
ATOM      1  C   UNL     1     139.405 128.107 130.801  1.00  0.00     0.312 C 
ENDROOT
BRANCH   1   2
ATOM      2  N   UNL     1     139.091 128.047 129.375  1.00  0.00    -0.353 N 
ATOM      3  H   UNL     1     139.745 128.662 128.838  1.00  0.00     0.344 HD
ATOM      4  H   UNL     1     138.103 128.354 129.212  1.00  0.00     0.344 HD
ATOM      5  H   UNL     1     139.200 127.063 129.041  1.00  0.00     0.344 HD
ENDBRANCH   1   2
BRANCH   1   6
ATOM      6  C   UNL     1     139.166 126.778 131.450  1.00  0.00     0.096 C 
ATOM      7  O   UNL     1     139.734 126.492 132.537  1.00  0.00    -0.544 OA
ATOM      8  O   UNL     1     138.277 125.875 130.880  1.00  0.00    -0.544 OA
ENDBRANCH   1   6
TORSDOF 2
ENDMDL
MODEL 3
REMARK VINA RESULT:    -3.055      1.899      2.043
REMARK INTER + INTRA:          -3.323
REMARK INTER:                  -3.323
REMARK INTRA:                   0.000
REMARK UNBOUND:                 0.000
REMARK SMILES [NH3+]CC(=O)[O-]
REMARK SMILES IDX 2 1 1 2 3 6 4 7 5 8
REMARK H PARENT 1 3 1 4 1 5
REMARK Flexibility Score: inf
ROOT
ATOM      1  C   UNL     1     123.900 136.183 134.094  1.00  0.00     0.312 C 
ENDROOT
BRANCH   1   2
ATOM      2  N   UNL     1     125.067 135.659 133.387  1.00  0.00    -0.353 N 
ATOM      3  H   UNL     1     125.358 136.323 132.633  1.00  0.00     0.344 HD
ATOM      4  H   UNL     1     124.845 134.725 132.970  1.00  0.00     0.344 HD
ATOM      5  H   UNL     1     125.856 135.550 134.064  1.00  0.00     0.344 HD
ENDBRANCH   1   2
BRANCH   1   6
ATOM      6  C   UNL     1     124.286 137.338 134.966  1.00  0.00     0.096 C 
ATOM      7  O   UNL     1     125.481 137.484 135.332  1.00  0.00    -0.544 OA
ATOM      8  O   UNL     1     123.334 138.282 135.332  1.00  0.00    -0.544 OA
ENDBRANCH   1   6
TORSDOF 2
ENDMDL
MODEL 4
REMARK VINA RESULT:    -2.815      6.520      6.885
REMARK INTER + INTRA:          -3.062
REMARK INTER:                  -3.062
REMARK INTRA:                   0.000
REMARK UNBOUND:                 0.000
REMARK SMILES [NH3+]CC(=O)[O-]
REMARK SMILES IDX 2 1 1 2 3 6 4 7 5 8
REMARK H PARENT 1 3 1 4 1 5
REMARK Flexibility Score: inf
ROOT
ATOM      1  C   UNL     1     129.455 131.590 136.670  1.00  0.00     0.312 C 
ENDROOT
BRANCH   1   2
ATOM      2  N   UNL     1     129.715 130.167 136.465  1.00  0.00    -0.353 N 
ATOM      3  H   UNL     1     129.098 129.596 137.087  1.00  0.00     0.344 HD
ATOM      4  H   UNL     1     130.720 129.952 136.671  1.00  0.00     0.344 HD
ATOM      5  H   UNL     1     129.513 129.922 135.470  1.00  0.00     0.344 HD
ENDBRANCH   1   2
BRANCH   1   6
ATOM      6  C   UNL     1     128.004 131.897 136.461  1.00  0.00     0.096 C 
ATOM      7  O   UNL     1     127.121 131.193 137.019  1.00  0.00    -0.544 OA
ATOM      8  O   UNL     1     127.627 132.990 135.691  1.00  0.00    -0.544 OA
ENDBRANCH   1   6
TORSDOF 2
ENDMDL
MODEL 5
REMARK VINA RESULT:    -2.785     20.533     20.788
REMARK INTER + INTRA:          -3.029
REMARK INTER:                  -3.029
REMARK INTRA:                   0.000
REMARK UNBOUND:                 0.000
REMARK SMILES [NH3+]CC(=O)[O-]
REMARK SMILES IDX 2 1 1 2 3 6 4 7 5 8
REMARK H PARENT 1 3 1 4 1 5
REMARK Flexibility Score: inf
ROOT
ATOM      1  C   UNL     1     141.934 130.315 123.866  1.00  0.00     0.312 C 
ENDROOT
BRANCH   1   2
ATOM      2  N   UNL     1     142.687 129.598 124.893  1.00  0.00    -0.353 N 
ATOM      3  H   UNL     1     143.643 129.363 124.539  1.00  0.00     0.344 HD
ATOM      4  H   UNL     1     142.183 128.721 125.161  1.00  0.00     0.344 HD
ATOM      5  H   UNL     1     142.780 130.208 125.737  1.00  0.00     0.344 HD
ENDBRANCH   1   2
BRANCH   1   6
ATOM      6  C   UNL     1     140.468 130.040 123.998  1.00  0.00     0.096 C 
ATOM      7  O   UNL     1     140.060 129.136 124.773  1.00  0.00    -0.544 OA
ATOM      8  O   UNL     1     139.549 130.817 123.303  1.00  0.00    -0.544 OA
ENDBRANCH   1   6
TORSDOF 2
ENDMDL
MODEL 6
REMARK VINA RESULT:    -2.756     20.613     20.981
REMARK INTER + INTRA:          -2.998
REMARK INTER:                  -2.998
REMARK INTRA:                   0.000
REMARK UNBOUND:                 0.000
REMARK SMILES [NH3+]CC(=O)[O-]
REMARK SMILES IDX 2 1 1 2 3 6 4 7 5 8
REMARK H PARENT 1 3 1 4 1 5
REMARK Flexibility Score: inf
ROOT
ATOM      1  C   UNL     1     139.541 130.588 123.599  1.00  0.00     0.312 C 
ENDROOT
BRANCH   1   2
ATOM      2  N   UNL     1     138.847 129.971 122.470  1.00  0.00    -0.353 N 
ATOM      3  H   UNL     1     138.564 128.994 122.713  1.00  0.00     0.344 HD
ATOM      4  H   UNL     1     139.470 129.960 121.628  1.00  0.00     0.344 HD
ATOM      5  H   UNL     1     137.991 130.527 122.249  1.00  0.00     0.344 HD
ENDBRANCH   1   2
BRANCH   1   6
ATOM      6  C   UNL     1     140.960 130.115 123.668  1.00  0.00     0.096 C 
ATOM      7  O   UNL     1     141.879 130.913 123.990  1.00  0.00    -0.544 OA
ATOM      8  O   UNL     1     141.262 128.780 123.427  1.00  0.00    -0.544 OA
ENDBRANCH   1   6
TORSDOF 2
ENDMDL
MODEL 7
REMARK VINA RESULT:    -2.737     13.451     13.480
REMARK INTER + INTRA:          -2.977
REMARK INTER:                  -2.977
REMARK INTRA:                   0.000
REMARK UNBOUND:                 0.000
REMARK SMILES [NH3+]CC(=O)[O-]
REMARK SMILES IDX 2 1 1 2 3 6 4 7 5 8
REMARK H PARENT 1 3 1 4 1 5
REMARK Flexibility Score: inf
ROOT
ATOM      1  C   UNL     1     126.989 142.968 122.910  1.00  0.00     0.312 C 
ENDROOT
BRANCH   1   2
ATOM      2  N   UNL     1     127.760 143.419 121.753  1.00  0.00    -0.353 N 
ATOM      3  H   UNL     1     127.114 143.746 120.997  1.00  0.00     0.344 HD
ATOM      4  H   UNL     1     128.359 142.639 121.393  1.00  0.00     0.344 HD
ATOM      5  H   UNL     1     128.374 144.214 122.040  1.00  0.00     0.344 HD
ENDBRANCH   1   2
BRANCH   1   6
ATOM      6  C   UNL     1     126.932 141.472 122.954  1.00  0.00     0.096 C 
ATOM      7  O   UNL     1     127.199 140.797 121.926  1.00  0.00    -0.544 OA
ATOM      8  O   UNL     1     126.633 140.822 124.145  1.00  0.00    -0.544 OA
ENDBRANCH   1   6
TORSDOF 2
ENDMDL
MODEL 8
REMARK VINA RESULT:    -2.713     12.780     12.823
REMARK INTER + INTRA:          -2.951
REMARK INTER:                  -2.951
REMARK INTRA:                   0.000
REMARK UNBOUND:                 0.000
REMARK SMILES [NH3+]CC(=O)[O-]
REMARK SMILES IDX 2 1 1 2 3 6 4 7 5 8
REMARK H PARENT 1 3 1 4 1 5
REMARK Flexibility Score: inf
ROOT
ATOM      1  C   UNL     1     126.904 140.603 123.812  1.00  0.00     0.312 C 
ENDROOT
BRANCH   1   2
ATOM      2  N   UNL     1     125.644 139.865 123.881  1.00  0.00    -0.353 N 
ATOM      3  H   UNL     1     125.778 138.892 123.519  1.00  0.00     0.344 HD
ATOM      4  H   UNL     1     124.910 140.354 123.318  1.00  0.00     0.344 HD
ATOM      5  H   UNL     1     125.331 139.815 124.877  1.00  0.00     0.344 HD
ENDBRANCH   1   2
BRANCH   1   6
ATOM      6  C   UNL     1     126.775 141.782 122.897  1.00  0.00     0.096 C 
ATOM      7  O   UNL     1     126.293 141.638 121.743  1.00  0.00    -0.544 OA
ATOM      8  O   UNL     1     127.141 143.047 123.338  1.00  0.00    -0.544 OA
ENDBRANCH   1   6
TORSDOF 2
ENDMDL
MODEL 9
REMARK VINA RESULT:    -2.700     12.698     12.807
REMARK INTER + INTRA:          -2.936
REMARK INTER:                  -2.936
REMARK INTRA:                   0.000
REMARK UNBOUND:                 0.000
REMARK SMILES [NH3+]CC(=O)[O-]
REMARK SMILES IDX 2 1 1 2 3 6 4 7 5 8
REMARK H PARENT 1 3 1 4 1 5
REMARK Flexibility Score: inf
ROOT
ATOM      1  C   UNL     1     126.860 140.531 123.873  1.00  0.00     0.312 C 
ENDROOT
BRANCH   1   2
ATOM      2  N   UNL     1     125.626 139.748 123.878  1.00  0.00    -0.353 N 
ATOM      3  H   UNL     1     125.516 139.246 122.968  1.00  0.00     0.344 HD
ATOM      4  H   UNL     1     124.803 140.375 124.038  1.00  0.00     0.344 HD
ATOM      5  H   UNL     1     125.671 139.044 124.649  1.00  0.00     0.344 HD
ENDBRANCH   1   2
BRANCH   1   6
ATOM      6  C   UNL     1     126.707 141.751 123.017  1.00  0.00     0.096 C 
ATOM      7  O   UNL     1     127.007 142.886 123.472  1.00  0.00    -0.544 OA
ATOM      8  O   UNL     1     126.282 141.628 121.700  1.00  0.00    -0.544 OA
ENDBRANCH   1   6
TORSDOF 2
ENDMDL
