MODEL 1
REMARK VINA RESULT:    -5.923      0.000      0.000
REMARK INTER + INTRA:         -11.885
REMARK INTER:                 -10.771
REMARK INTRA:                  -1.114
REMARK UNBOUND:                -1.114
REMARK SMILES CCCCCC=CCC=CCCCCCCCC(=O)[O-]
REMARK SMILES IDX 11 1 12 2 13 3 14 4 15 5 16 6 17 7 18 8 19 9 20 10 10 11
REMARK SMILES IDX 9 12 8 13 7 14 6 15 5 16 4 17 3 18 2 19 1 20
REMARK H PARENT
REMARK Flexibility Score: inf
ROOT
ATOM      1  C   UNL     1       3.941 -11.575 -19.019  1.00  0.00     0.027 C 
ENDROOT
BRANCH   1   2
ATOM      2  C   UNL     1       2.757 -10.849 -18.359  1.00  0.00     0.004 C 
BRANCH   2   3
ATOM      3  C   UNL     1       3.094  -9.409 -17.944  1.00  0.00     0.000 C 
BRANCH   3   4
ATOM      4  C   UNL     1       2.770  -9.119 -16.467  1.00  0.00     0.000 C 
BRANCH   4   5
ATOM      5  C   UNL     1       4.049  -8.975 -15.613  1.00  0.00     0.000 C 
BRANCH   5   6
ATOM      6  C   UNL     1       4.382 -10.235 -14.797  1.00  0.00     0.006 C 
BRANCH   6   7
ATOM      7  C   UNL     1       3.198 -11.206 -14.692  1.00  0.00     0.053 C 
BRANCH   7   8
ATOM      8  C   UNL     1       3.548 -12.540 -15.274  1.00  0.00     0.041 C 
ATOM      9  O   UNL     1       2.639 -13.353 -15.594  1.00  0.00    -0.550 OA
ATOM     10  O   UNL     1       4.880 -12.913 -15.413  1.00  0.00    -0.550 OA
ENDBRANCH   7   8
ENDBRANCH   6   7
ENDBRANCH   5   6
ENDBRANCH   4   5
ENDBRANCH   3   4
ENDBRANCH   2   3
ENDBRANCH   1   2
BRANCH   1  11
ATOM     11  C   UNL     1       5.245 -11.155 -18.387  1.00  0.00    -0.031 C 
ATOM     12  C   UNL     1       6.319 -10.720 -19.073  1.00  0.00    -0.027 C 
BRANCH  12  13
ATOM     13  C   UNL     1       6.352 -10.509 -20.566  1.00  0.00     0.054 C 
BRANCH  13  14
ATOM     14  C   UNL     1       5.035  -9.953 -21.045  1.00  0.00    -0.027 C 
ATOM     15  C   UNL     1       4.900  -8.838 -21.789  1.00  0.00    -0.031 C 
BRANCH  15  16
ATOM     16  C   UNL     1       6.051  -8.029 -22.341  1.00  0.00     0.027 C 
BRANCH  16  17
ATOM     17  C   UNL     1       5.581  -6.696 -22.956  1.00  0.00     0.004 C 
BRANCH  17  18
ATOM     18  C   UNL     1       4.386  -6.060 -22.222  1.00  0.00     0.000 C 
BRANCH  18  19
ATOM     19  C   UNL     1       3.069  -6.193 -23.005  1.00  0.00    -0.003 C 
ATOM     20  C   UNL     1       3.282  -5.905 -24.489  1.00  0.00     0.004 C 
ENDBRANCH  18  19
ENDBRANCH  17  18
ENDBRANCH  16  17
ENDBRANCH  15  16
ENDBRANCH  13  14
ENDBRANCH  12  13
ENDBRANCH   1  11
TORSDOF 14
ENDMDL
MODEL 2
REMARK VINA RESULT:    -5.738      1.619      2.796
REMARK INTER + INTRA:         -11.548
REMARK INTER:                  -9.877
REMARK INTRA:                  -1.671
REMARK UNBOUND:                -1.114
REMARK SMILES CCCCCC=CCC=CCCCCCCCC(=O)[O-]
REMARK SMILES IDX 11 1 12 2 13 3 14 4 15 5 16 6 17 7 18 8 19 9 20 10 10 11
REMARK SMILES IDX 9 12 8 13 7 14 6 15 5 16 4 17 3 18 2 19 1 20
REMARK H PARENT
REMARK Flexibility Score: inf
ROOT
ATOM      1  C   UNL     1       3.702  -9.785 -17.215  1.00  0.00     0.027 C 
ENDROOT
BRANCH   1   2
ATOM      2  C   UNL     1       3.230  -9.142 -15.900  1.00  0.00     0.004 C 
BRANCH   2   3
ATOM      3  C   UNL     1       3.832  -9.814 -14.657  1.00  0.00     0.000 C 
BRANCH   3   4
ATOM      4  C   UNL     1       3.165 -11.161 -14.321  1.00  0.00     0.000 C 
BRANCH   4   5
ATOM      5  C   UNL     1       4.135 -12.348 -14.514  1.00  0.00     0.000 C 
BRANCH   5   6
ATOM      6  C   UNL     1       3.893 -13.125 -15.819  1.00  0.00     0.006 C 
BRANCH   6   7
ATOM      7  C   UNL     1       2.403 -13.340 -16.117  1.00  0.00     0.053 C 
BRANCH   7   8
ATOM      8  C   UNL     1       2.187 -13.649 -17.566  1.00  0.00     0.041 C 
ATOM      9  O   UNL     1       2.542 -12.827 -18.451  1.00  0.00    -0.550 OA
ATOM     10  O   UNL     1       1.541 -14.822 -17.940  1.00  0.00    -0.550 OA
ENDBRANCH   7   8
ENDBRANCH   6   7
ENDBRANCH   5   6
ENDBRANCH   4   5
ENDBRANCH   3   4
ENDBRANCH   2   3
ENDBRANCH   1   2
BRANCH   1  11
ATOM     11  C   UNL     1       5.172 -10.113 -17.152  1.00  0.00    -0.031 C 
ATOM     12  C   UNL     1       5.865 -10.701 -18.146  1.00  0.00    -0.027 C 
BRANCH  12  13
ATOM     13  C   UNL     1       5.295 -11.043 -19.501  1.00  0.00     0.054 C 
BRANCH  13  14
ATOM     14  C   UNL     1       6.161 -10.466 -20.593  1.00  0.00    -0.027 C 
ATOM     15  C   UNL     1       5.752  -9.545 -21.486  1.00  0.00    -0.031 C 
BRANCH  15  16
ATOM     16  C   UNL     1       4.398  -8.875 -21.472  1.00  0.00     0.027 C 
BRANCH  16  17
ATOM     17  C   UNL     1       4.396  -7.553 -22.264  1.00  0.00     0.004 C 
BRANCH  17  18
ATOM     18  C   UNL     1       5.799  -6.960 -22.488  1.00  0.00     0.000 C 
BRANCH  18  19
ATOM     19  C   UNL     1       6.256  -7.050 -23.953  1.00  0.00    -0.003 C 
ATOM     20  C   UNL     1       7.771  -7.211 -24.047  1.00  0.00     0.004 C 
ENDBRANCH  18  19
ENDBRANCH  17  18
ENDBRANCH  16  17
ENDBRANCH  15  16
ENDBRANCH  13  14
ENDBRANCH  12  13
ENDBRANCH   1  11
TORSDOF 14
ENDMDL
MODEL 3
REMARK VINA RESULT:    -5.719      0.985      1.872
REMARK INTER + INTRA:         -11.514
REMARK INTER:                  -9.768
REMARK INTRA:                  -1.747
REMARK UNBOUND:                -1.114
REMARK SMILES CCCCCC=CCC=CCCCCCCCC(=O)[O-]
REMARK SMILES IDX 11 1 12 2 13 3 14 4 15 5 16 6 17 7 18 8 19 9 20 10 10 11
REMARK SMILES IDX 9 12 8 13 7 14 6 15 5 16 4 17 3 18 2 19 1 20
REMARK H PARENT
REMARK Flexibility Score: inf
ROOT
ATOM      1  C   UNL     1       3.024  -9.373 -18.321  1.00  0.00     0.027 C 
ENDROOT
BRANCH   1   2
ATOM      2  C   UNL     1       2.506  -9.303 -16.875  1.00  0.00     0.004 C 
BRANCH   2   3
ATOM      3  C   UNL     1       3.574  -8.823 -15.881  1.00  0.00     0.000 C 
BRANCH   3   4
ATOM      4  C   UNL     1       4.566  -9.933 -15.484  1.00  0.00     0.000 C 
BRANCH   4   5
ATOM      5  C   UNL     1       4.110 -10.685 -14.213  1.00  0.00     0.000 C 
BRANCH   5   6
ATOM      6  C   UNL     1       4.193 -12.215 -14.349  1.00  0.00     0.006 C 
BRANCH   6   7
ATOM      7  C   UNL     1       4.010 -12.695 -15.795  1.00  0.00     0.053 C 
BRANCH   7   8
ATOM      8  C   UNL     1       2.670 -13.337 -15.979  1.00  0.00     0.041 C 
ATOM      9  O   UNL     1       1.894 -13.481 -14.997  1.00  0.00    -0.550 OA
ATOM     10  O   UNL     1       2.298 -13.831 -17.224  1.00  0.00    -0.550 OA
ENDBRANCH   7   8
ENDBRANCH   6   7
ENDBRANCH   5   6
ENDBRANCH   4   5
ENDBRANCH   3   4
ENDBRANCH   2   3
ENDBRANCH   1   2
BRANCH   1  11
ATOM     11  C   UNL     1       3.164 -10.806 -18.771  1.00  0.00    -0.031 C 
ATOM     12  C   UNL     1       4.330 -11.387 -19.114  1.00  0.00    -0.027 C 
BRANCH  12  13
ATOM     13  C   UNL     1       5.679 -10.719 -19.019  1.00  0.00     0.054 C 
BRANCH  13  14
ATOM     14  C   UNL     1       6.388 -10.781 -20.348  1.00  0.00    -0.027 C 
ATOM     15  C   UNL     1       6.056 -10.046 -21.427  1.00  0.00    -0.031 C 
BRANCH  15  16
ATOM     16  C   UNL     1       4.989  -8.977 -21.443  1.00  0.00     0.027 C 
BRANCH  16  17
ATOM     17  C   UNL     1       5.313  -7.849 -22.442  1.00  0.00     0.004 C 
BRANCH  17  18
ATOM     18  C   UNL     1       4.558  -6.536 -22.163  1.00  0.00     0.000 C 
BRANCH  18  19
ATOM     19  C   UNL     1       3.155  -6.513 -22.792  1.00  0.00    -0.003 C 
ATOM     20  C   UNL     1       3.183  -5.862 -24.173  1.00  0.00     0.004 C 
ENDBRANCH  18  19
ENDBRANCH  17  18
ENDBRANCH  16  17
ENDBRANCH  15  16
ENDBRANCH  13  14
ENDBRANCH  12  13
ENDBRANCH   1  11
TORSDOF 14
ENDMDL
MODEL 4
REMARK VINA RESULT:    -5.625      3.478      7.892
REMARK INTER + INTRA:         -11.344
REMARK INTER:                  -9.993
REMARK INTRA:                  -1.351
REMARK UNBOUND:                -1.114
REMARK SMILES CCCCCC=CCC=CCCCCCCCC(=O)[O-]
REMARK SMILES IDX 11 1 12 2 13 3 14 4 15 5 16 6 17 7 18 8 19 9 20 10 10 11
REMARK SMILES IDX 9 12 8 13 7 14 6 15 5 16 4 17 3 18 2 19 1 20
REMARK H PARENT
REMARK Flexibility Score: inf
ROOT
ATOM      1  C   UNL     1       5.337 -11.464 -19.018  1.00  0.00     0.027 C 
ENDROOT
BRANCH   1   2
ATOM      2  C   UNL     1       5.583 -10.679 -20.316  1.00  0.00     0.004 C 
BRANCH   2   3
ATOM      3  C   UNL     1       4.481  -9.650 -20.610  1.00  0.00     0.000 C 
BRANCH   3   4
ATOM      4  C   UNL     1       4.678  -8.928 -21.956  1.00  0.00     0.000 C 
BRANCH   4   5
ATOM      5  C   UNL     1       4.106  -7.493 -21.930  1.00  0.00     0.000 C 
BRANCH   5   6
ATOM      6  C   UNL     1       5.075  -6.441 -22.496  1.00  0.00     0.006 C 
BRANCH   6   7
ATOM      7  C   UNL     1       5.769  -6.904 -23.785  1.00  0.00     0.053 C 
BRANCH   7   8
ATOM      8  C   UNL     1       7.229  -7.136 -23.552  1.00  0.00     0.041 C 
ATOM      9  O   UNL     1       8.074  -6.794 -24.422  1.00  0.00    -0.550 OA
ATOM     10  O   UNL     1       7.658  -7.780 -22.397  1.00  0.00    -0.550 OA
ENDBRANCH   7   8
ENDBRANCH   6   7
ENDBRANCH   5   6
ENDBRANCH   4   5
ENDBRANCH   3   4
ENDBRANCH   2   3
ENDBRANCH   1   2
BRANCH   1  11
ATOM     11  C   UNL     1       6.140 -10.885 -17.881  1.00  0.00    -0.031 C 
ATOM     12  C   UNL     1       5.638 -10.076 -16.927  1.00  0.00    -0.027 C 
BRANCH  12  13
ATOM     13  C   UNL     1       4.182  -9.699 -16.806  1.00  0.00     0.054 C 
BRANCH  13  14
ATOM     14  C   UNL     1       3.899  -9.144 -15.432  1.00  0.00    -0.027 C 
ATOM     15  C   UNL     1       3.720  -9.893 -14.328  1.00  0.00    -0.031 C 
BRANCH  15  16
ATOM     16  C   UNL     1       3.874 -11.396 -14.273  1.00  0.00     0.027 C 
BRANCH  16  17
ATOM     17  C   UNL     1       2.514 -12.115 -14.178  1.00  0.00     0.004 C 
BRANCH  17  18
ATOM     18  C   UNL     1       2.382 -13.323 -15.124  1.00  0.00     0.000 C 
BRANCH  18  19
ATOM     19  C   UNL     1       3.170 -13.141 -16.432  1.00  0.00    -0.003 C 
ATOM     20  C   UNL     1       2.348 -13.595 -17.635  1.00  0.00     0.004 C 
ENDBRANCH  18  19
ENDBRANCH  17  18
ENDBRANCH  16  17
ENDBRANCH  15  16
ENDBRANCH  13  14
ENDBRANCH  12  13
ENDBRANCH   1  11
TORSDOF 14
ENDMDL
MODEL 5
REMARK VINA RESULT:    -5.584      3.316      7.742
REMARK INTER + INTRA:         -11.269
REMARK INTER:                  -9.740
REMARK INTRA:                  -1.529
REMARK UNBOUND:                -1.114
REMARK SMILES CCCCCC=CCC=CCCCCCCCC(=O)[O-]
REMARK SMILES IDX 11 1 12 2 13 3 14 4 15 5 16 6 17 7 18 8 19 9 20 10 10 11
REMARK SMILES IDX 9 12 8 13 7 14 6 15 5 16 4 17 3 18 2 19 1 20
REMARK H PARENT
REMARK Flexibility Score: inf
ROOT
ATOM      1  C   UNL     1       6.184 -10.783 -19.251  1.00  0.00     0.027 C 
ENDROOT
BRANCH   1   2
ATOM      2  C   UNL     1       6.539 -10.541 -20.727  1.00  0.00     0.004 C 
BRANCH   2   3
ATOM      3  C   UNL     1       7.974 -10.029 -20.920  1.00  0.00     0.000 C 
BRANCH   3   4
ATOM      4  C   UNL     1       8.046  -8.756 -21.783  1.00  0.00     0.000 C 
BRANCH   4   5
ATOM      5  C   UNL     1       6.648  -8.309 -22.268  1.00  0.00     0.000 C 
BRANCH   5   6
ATOM      6  C   UNL     1       6.641  -6.905 -22.895  1.00  0.00     0.006 C 
BRANCH   6   7
ATOM      7  C   UNL     1       5.447  -6.676 -23.831  1.00  0.00     0.053 C 
BRANCH   7   8
ATOM      8  C   UNL     1       4.224  -6.299 -23.054  1.00  0.00     0.041 C 
ATOM      9  O   UNL     1       4.300  -6.076 -21.817  1.00  0.00    -0.550 OA
ATOM     10  O   UNL     1       2.985  -6.249 -23.684  1.00  0.00    -0.550 OA
ENDBRANCH   7   8
ENDBRANCH   6   7
ENDBRANCH   5   6
ENDBRANCH   4   5
ENDBRANCH   3   4
ENDBRANCH   2   3
ENDBRANCH   1   2
BRANCH   1  11
ATOM     11  C   UNL     1       4.899 -11.562 -19.130  1.00  0.00    -0.031 C 
ATOM     12  C   UNL     1       3.694 -11.012 -18.885  1.00  0.00    -0.027 C 
BRANCH  12  13
ATOM     13  C   UNL     1       3.437  -9.530 -18.777  1.00  0.00     0.054 C 
BRANCH  13  14
ATOM     14  C   UNL     1       2.513  -9.242 -17.620  1.00  0.00    -0.027 C 
ATOM     15  C   UNL     1       2.894  -9.200 -16.330  1.00  0.00    -0.031 C 
BRANCH  15  16
ATOM     16  C   UNL     1       4.320  -9.337 -15.849  1.00  0.00     0.027 C 
BRANCH  16  17
ATOM     17  C   UNL     1       4.453 -10.366 -14.709  1.00  0.00     0.004 C 
BRANCH  17  18
ATOM     18  C   UNL     1       3.129 -11.063 -14.344  1.00  0.00     0.000 C 
BRANCH  18  19
ATOM     19  C   UNL     1       3.217 -12.594 -14.442  1.00  0.00    -0.003 C 
ATOM     20  C   UNL     1       3.120 -13.058 -15.894  1.00  0.00     0.004 C 
ENDBRANCH  18  19
ENDBRANCH  17  18
ENDBRANCH  16  17
ENDBRANCH  15  16
ENDBRANCH  13  14
ENDBRANCH  12  13
ENDBRANCH   1  11
TORSDOF 14
ENDMDL
MODEL 6
REMARK VINA RESULT:    -5.171      1.750      2.498
REMARK INTER + INTRA:         -10.518
REMARK INTER:                  -9.159
REMARK INTRA:                  -1.359
REMARK UNBOUND:                -1.114
REMARK SMILES CCCCCC=CCC=CCCCCCCCC(=O)[O-]
REMARK SMILES IDX 11 1 12 2 13 3 14 4 15 5 16 6 17 7 18 8 19 9 20 10 10 11
REMARK SMILES IDX 9 12 8 13 7 14 6 15 5 16 4 17 3 18 2 19 1 20
REMARK H PARENT
REMARK Flexibility Score: inf
ROOT
ATOM      1  C   UNL     1       3.970 -11.045 -19.074  1.00  0.00     0.027 C 
ENDROOT
BRANCH   1   2
ATOM      2  C   UNL     1       3.030 -11.917 -18.225  1.00  0.00     0.004 C 
BRANCH   2   3
ATOM      3  C   UNL     1       3.726 -12.527 -16.999  1.00  0.00     0.000 C 
BRANCH   3   4
ATOM      4  C   UNL     1       2.750 -13.254 -16.056  1.00  0.00     0.000 C 
BRANCH   4   5
ATOM      5  C   UNL     1       2.824 -12.704 -14.613  1.00  0.00     0.000 C 
BRANCH   5   6
ATOM      6  C   UNL     1       3.980 -11.713 -14.399  1.00  0.00     0.006 C 
BRANCH   6   7
ATOM      7  C   UNL     1       3.499 -10.267 -14.213  1.00  0.00     0.053 C 
BRANCH   7   8
ATOM      8  C   UNL     1       3.990  -9.394 -15.325  1.00  0.00     0.041 C 
ATOM      9  O   UNL     1       3.176  -8.887 -16.143  1.00  0.00    -0.550 OA
ATOM     10  O   UNL     1       5.353  -9.182 -15.496  1.00  0.00    -0.550 OA
ENDBRANCH   7   8
ENDBRANCH   6   7
ENDBRANCH   5   6
ENDBRANCH   4   5
ENDBRANCH   3   4
ENDBRANCH   2   3
ENDBRANCH   1   2
BRANCH   1  11
ATOM     11  C   UNL     1       5.340 -10.970 -18.448  1.00  0.00    -0.031 C 
ATOM     12  C   UNL     1       6.490 -10.867 -19.141  1.00  0.00    -0.027 C 
BRANCH  12  13
ATOM     13  C   UNL     1       6.576 -10.727 -20.641  1.00  0.00     0.054 C 
BRANCH  13  14
ATOM     14  C   UNL     1       7.819  -9.966 -21.026  1.00  0.00    -0.027 C 
ATOM     15  C   UNL     1       7.824  -8.799 -21.698  1.00  0.00    -0.031 C 
BRANCH  15  16
ATOM     16  C   UNL     1       6.586  -8.024 -22.083  1.00  0.00     0.027 C 
BRANCH  16  17
ATOM     17  C   UNL     1       6.807  -7.165 -23.344  1.00  0.00     0.004 C 
BRANCH  17  18
ATOM     18  C   UNL     1       5.516  -6.545 -23.908  1.00  0.00     0.000 C 
BRANCH  18  19
ATOM     19  C   UNL     1       4.282  -6.853 -23.044  1.00  0.00    -0.003 C 
ATOM     20  C   UNL     1       3.800  -5.604 -22.310  1.00  0.00     0.004 C 
ENDBRANCH  18  19
ENDBRANCH  17  18
ENDBRANCH  16  17
ENDBRANCH  15  16
ENDBRANCH  13  14
ENDBRANCH  12  13
ENDBRANCH   1  11
TORSDOF 14
ENDMDL
MODEL 7
REMARK VINA RESULT:    -5.108      3.633      7.751
REMARK INTER + INTRA:         -10.402
REMARK INTER:                  -8.534
REMARK INTRA:                  -1.869
REMARK UNBOUND:                -1.114
REMARK SMILES CCCCCC=CCC=CCCCCCCCC(=O)[O-]
REMARK SMILES IDX 11 1 12 2 13 3 14 4 15 5 16 6 17 7 18 8 19 9 20 10 10 11
REMARK SMILES IDX 9 12 8 13 7 14 6 15 5 16 4 17 3 18 2 19 1 20
REMARK H PARENT
REMARK Flexibility Score: inf
ROOT
ATOM      1  C   UNL     1       5.854 -10.314 -16.965  1.00  0.00     0.027 C 
ENDROOT
BRANCH   1   2
ATOM      2  C   UNL     1       6.508 -11.105 -18.109  1.00  0.00     0.004 C 
BRANCH   2   3
ATOM      3  C   UNL     1       5.546 -11.374 -19.276  1.00  0.00     0.000 C 
BRANCH   3   4
ATOM      4  C   UNL     1       5.842 -10.503 -20.511  1.00  0.00     0.000 C 
BRANCH   4   5
ATOM      5  C   UNL     1       4.608  -9.681 -20.945  1.00  0.00     0.000 C 
BRANCH   5   6
ATOM      6  C   UNL     1       4.926  -8.624 -22.017  1.00  0.00     0.006 C 
BRANCH   6   7
ATOM      7  C   UNL     1       3.899  -7.484 -22.053  1.00  0.00     0.053 C 
BRANCH   7   8
ATOM      8  C   UNL     1       4.432  -6.309 -22.812  1.00  0.00     0.041 C 
ATOM      9  O   UNL     1       4.007  -5.148 -22.567  1.00  0.00    -0.550 OA
ATOM     10  O   UNL     1       5.357  -6.498 -23.831  1.00  0.00    -0.550 OA
ENDBRANCH   7   8
ENDBRANCH   6   7
ENDBRANCH   5   6
ENDBRANCH   4   5
ENDBRANCH   3   4
ENDBRANCH   2   3
ENDBRANCH   1   2
BRANCH   1  11
ATOM     11  C   UNL     1       4.457  -9.888 -17.339  1.00  0.00    -0.031 C 
ATOM     12  C   UNL     1       3.516  -9.500 -16.457  1.00  0.00    -0.027 C 
BRANCH  12  13
ATOM     13  C   UNL     1       3.744  -9.354 -14.973  1.00  0.00     0.054 C 
BRANCH  13  14
ATOM     14  C   UNL     1       2.768 -10.212 -14.207  1.00  0.00    -0.027 C 
ATOM     15  C   UNL     1       2.959 -11.512 -13.914  1.00  0.00    -0.031 C 
BRANCH  15  16
ATOM     16  C   UNL     1       4.221 -12.285 -14.218  1.00  0.00     0.027 C 
BRANCH  16  17
ATOM     17  C   UNL     1       4.140 -13.018 -15.572  1.00  0.00     0.004 C 
BRANCH  17  18
ATOM     18  C   UNL     1       2.702 -13.315 -16.033  1.00  0.00     0.000 C 
BRANCH  18  19
ATOM     19  C   UNL     1       2.556 -13.307 -17.563  1.00  0.00    -0.003 C 
ATOM     20  C   UNL     1       1.633 -14.428 -18.033  1.00  0.00     0.004 C 
ENDBRANCH  18  19
ENDBRANCH  17  18
ENDBRANCH  16  17
ENDBRANCH  15  16
ENDBRANCH  13  14
ENDBRANCH  12  13
ENDBRANCH   1  11
TORSDOF 14
ENDMDL
MODEL 8
REMARK VINA RESULT:    -5.069      4.265      6.749
REMARK INTER + INTRA:         -10.332
REMARK INTER:                  -8.649
REMARK INTRA:                  -1.683
REMARK UNBOUND:                -1.114
REMARK SMILES CCCCCC=CCC=CCCCCCCCC(=O)[O-]
REMARK SMILES IDX 11 1 12 2 13 3 14 4 15 5 16 6 17 7 18 8 19 9 20 10 10 11
REMARK SMILES IDX 9 12 8 13 7 14 6 15 5 16 4 17 3 18 2 19 1 20
REMARK H PARENT
REMARK Flexibility Score: inf
ROOT
ATOM      1  C   UNL     1       3.253 -13.003 -15.921  1.00  0.00     0.027 C 
ENDROOT
BRANCH   1   2
ATOM      2  C   UNL     1       2.062 -13.936 -16.195  1.00  0.00     0.004 C 
BRANCH   2   3
ATOM      3  C   UNL     1       1.791 -14.135 -17.694  1.00  0.00     0.000 C 
BRANCH   3   4
ATOM      4  C   UNL     1       1.074 -15.462 -18.003  1.00  0.00     0.000 C 
BRANCH   4   5
ATOM      5  C   UNL     1      -0.407 -15.241 -18.385  1.00  0.00     0.000 C 
BRANCH   5   6
ATOM      6  C   UNL     1      -1.233 -16.539 -18.393  1.00  0.00     0.006 C 
BRANCH   6   7
ATOM      7  C   UNL     1      -0.864 -17.473 -19.553  1.00  0.00     0.053 C 
BRANCH   7   8
ATOM      8  C   UNL     1      -0.394 -18.799 -19.042  1.00  0.00     0.041 C 
ATOM      9  O   UNL     1      -0.952 -19.863 -19.425  1.00  0.00    -0.550 OA
ATOM     10  O   UNL     1       0.624 -18.863 -18.098  1.00  0.00    -0.550 OA
ENDBRANCH   7   8
ENDBRANCH   6   7
ENDBRANCH   5   6
ENDBRANCH   4   5
ENDBRANCH   3   4
ENDBRANCH   2   3
ENDBRANCH   1   2
BRANCH   1  11
ATOM     11  C   UNL     1       3.034 -12.213 -14.656  1.00  0.00    -0.031 C 
ATOM     12  C   UNL     1       3.489 -10.962 -14.450  1.00  0.00    -0.027 C 
BRANCH  12  13
ATOM     13  C   UNL     1       4.213 -10.134 -15.483  1.00  0.00     0.054 C 
BRANCH  13  14
ATOM     14  C   UNL     1       3.281  -9.110 -16.080  1.00  0.00    -0.027 C 
ATOM     15  C   UNL     1       2.698  -9.219 -17.288  1.00  0.00    -0.031 C 
BRANCH  15  16
ATOM     16  C   UNL     1       2.808 -10.426 -18.190  1.00  0.00     0.027 C 
BRANCH  16  17
ATOM     17  C   UNL     1       3.896 -10.248 -19.268  1.00  0.00     0.004 C 
BRANCH  17  18
ATOM     18  C   UNL     1       5.009 -11.310 -19.208  1.00  0.00     0.000 C 
BRANCH  18  19
ATOM     19  C   UNL     1       6.211 -10.864 -18.361  1.00  0.00    -0.003 C 
ATOM     20  C   UNL     1       6.483 -11.852 -17.230  1.00  0.00     0.004 C 
ENDBRANCH  18  19
ENDBRANCH  17  18
ENDBRANCH  16  17
ENDBRANCH  15  16
ENDBRANCH  13  14
ENDBRANCH  12  13
ENDBRANCH   1  11
TORSDOF 14
ENDMDL
MODEL 9
REMARK VINA RESULT:    -5.055      1.147      2.933
REMARK INTER + INTRA:         -10.307
REMARK INTER:                  -8.367
REMARK INTRA:                  -1.940
REMARK UNBOUND:                -1.114
REMARK SMILES CCCCCC=CCC=CCCCCCCCC(=O)[O-]
REMARK SMILES IDX 11 1 12 2 13 3 14 4 15 5 16 6 17 7 18 8 19 9 20 10 10 11
REMARK SMILES IDX 9 12 8 13 7 14 6 15 5 16 4 17 3 18 2 19 1 20
REMARK H PARENT
REMARK Flexibility Score: inf
ROOT
ATOM      1  C   UNL     1       5.107 -10.351 -19.505  1.00  0.00     0.027 C 
ENDROOT
BRANCH   1   2
ATOM      2  C   UNL     1       4.129 -11.449 -19.058  1.00  0.00     0.004 C 
BRANCH   2   3
ATOM      3  C   UNL     1       2.872 -10.888 -18.376  1.00  0.00     0.000 C 
BRANCH   3   4
ATOM      4  C   UNL     1       2.983  -9.386 -18.056  1.00  0.00     0.000 C 
BRANCH   4   5
ATOM      5  C   UNL     1       2.944  -9.116 -16.535  1.00  0.00     0.000 C 
BRANCH   5   6
ATOM      6  C   UNL     1       4.143  -9.712 -15.779  1.00  0.00     0.006 C 
BRANCH   6   7
ATOM      7  C   UNL     1       3.724 -10.695 -14.677  1.00  0.00     0.053 C 
BRANCH   7   8
ATOM      8  C   UNL     1       3.824 -12.109 -15.157  1.00  0.00     0.041 C 
ATOM      9  O   UNL     1       4.874 -12.517 -15.723  1.00  0.00    -0.550 OA
ATOM     10  O   UNL     1       2.737 -12.967 -15.032  1.00  0.00    -0.550 OA
ENDBRANCH   7   8
ENDBRANCH   6   7
ENDBRANCH   5   6
ENDBRANCH   4   5
ENDBRANCH   3   4
ENDBRANCH   2   3
ENDBRANCH   1   2
BRANCH   1  11
ATOM     11  C   UNL     1       5.171 -10.271 -21.009  1.00  0.00    -0.031 C 
ATOM     12  C   UNL     1       4.659  -9.263 -21.741  1.00  0.00    -0.027 C 
BRANCH  12  13
ATOM     13  C   UNL     1       4.019  -8.025 -21.163  1.00  0.00     0.054 C 
BRANCH  13  14
ATOM     14  C   UNL     1       3.528  -7.125 -22.269  1.00  0.00    -0.027 C 
ATOM     15  C   UNL     1       4.315  -6.315 -23.001  1.00  0.00    -0.031 C 
BRANCH  15  16
ATOM     16  C   UNL     1       5.821  -6.254 -22.896  1.00  0.00     0.027 C 
BRANCH  16  17
ATOM     17  C   UNL     1       6.514  -7.048 -24.021  1.00  0.00     0.004 C 
BRANCH  17  18
ATOM     18  C   UNL     1       7.822  -7.733 -23.585  1.00  0.00     0.000 C 
BRANCH  18  19
ATOM     19  C   UNL     1       7.953  -7.842 -22.057  1.00  0.00    -0.003 C 
ATOM     20  C   UNL     1       8.390  -9.245 -21.642  1.00  0.00     0.004 C 
ENDBRANCH  18  19
ENDBRANCH  17  18
ENDBRANCH  16  17
ENDBRANCH  15  16
ENDBRANCH  13  14
ENDBRANCH  12  13
ENDBRANCH   1  11
TORSDOF 14
ENDMDL
