MODEL 1
REMARK VINA RESULT:    -4.600      0.000      0.000
REMARK INTER + INTRA:          -7.575
REMARK INTER:                  -6.751
REMARK INTRA:                  -0.824
REMARK UNBOUND:                -0.824
REMARK SMILES O=C([O-])CCCCCCCC(=O)[O-]
REMARK SMILES IDX 7 1 6 2 5 3 4 4 2 5 1 6 3 7 8 8 9 9 10 10 11 11 12 12 13 13
REMARK H PARENT
REMARK Flexibility Score: inf
ROOT
ATOM      1  C   UNL     1      23.495  -4.469 -36.373  1.00  0.00     0.000 C 
ENDROOT
BRANCH   1   2
ATOM      2  C   UNL     1      23.799  -5.951 -36.086  1.00  0.00     0.000 C 
BRANCH   2   3
ATOM      3  C   UNL     1      23.944  -6.789 -37.367  1.00  0.00     0.006 C 
BRANCH   3   4
ATOM      4  C   UNL     1      22.669  -7.581 -37.687  1.00  0.00     0.053 C 
BRANCH   4   5
ATOM      5  C   UNL     1      22.645  -8.046 -39.112  1.00  0.00     0.041 C 
ATOM      6  O   UNL     1      21.692  -7.724 -39.867  1.00  0.00    -0.550 OA
ATOM      7  O   UNL     1      23.662  -8.860 -39.595  1.00  0.00    -0.550 OA
ENDBRANCH   4   5
ENDBRANCH   3   4
ENDBRANCH   2   3
ENDBRANCH   1   2
BRANCH   1   8
ATOM      8  C   UNL     1      22.053  -4.023 -36.059  1.00  0.00     0.000 C 
BRANCH   8   9
ATOM      9  C   UNL     1      21.271  -3.452 -37.255  1.00  0.00     0.006 C 
BRANCH   9  10
ATOM     10  C   UNL     1      20.906  -4.520 -38.292  1.00  0.00     0.053 C 
BRANCH  10  11
ATOM     11  C   UNL     1      21.522  -4.196 -39.617  1.00  0.00     0.041 C 
ATOM     12  O   UNL     1      20.820  -3.706 -40.540  1.00  0.00    -0.550 OA
ATOM     13  O   UNL     1      22.862  -4.481 -39.847  1.00  0.00    -0.550 OA
ENDBRANCH  10  11
ENDBRANCH   9  10
ENDBRANCH   8   9
ENDBRANCH   1   8
TORSDOF 8
ENDMDL
MODEL 2
REMARK VINA RESULT:    -4.589      1.768      4.247
REMARK INTER + INTRA:          -7.559
REMARK INTER:                  -6.729
REMARK INTRA:                  -0.831
REMARK UNBOUND:                -0.824
REMARK SMILES O=C([O-])CCCCCCCC(=O)[O-]
REMARK SMILES IDX 7 1 6 2 5 3 4 4 2 5 1 6 3 7 8 8 9 9 10 10 11 11 12 12 13 13
REMARK H PARENT
REMARK Flexibility Score: inf
ROOT
ATOM      1  C   UNL     1      24.373  -5.234 -37.244  1.00  0.00     0.000 C 
ENDROOT
BRANCH   1   2
ATOM      2  C   UNL     1      23.713  -6.442 -36.554  1.00  0.00     0.000 C 
BRANCH   2   3
ATOM      3  C   UNL     1      22.391  -6.860 -37.218  1.00  0.00     0.006 C 
BRANCH   3   4
ATOM      4  C   UNL     1      21.859  -5.786 -38.176  1.00  0.00     0.053 C 
BRANCH   4   5
ATOM      5  C   UNL     1      21.902  -6.242 -39.603  1.00  0.00     0.041 C 
ATOM      6  O   UNL     1      21.757  -7.460 -39.883  1.00  0.00    -0.550 OA
ATOM      7  O   UNL     1      22.130  -5.324 -40.620  1.00  0.00    -0.550 OA
ENDBRANCH   4   5
ENDBRANCH   3   4
ENDBRANCH   2   3
ENDBRANCH   1   2
BRANCH   1   8
ATOM      8  C   UNL     1      25.628  -5.561 -38.079  1.00  0.00     0.000 C 
BRANCH   8   9
ATOM      9  C   UNL     1      25.941  -7.060 -38.226  1.00  0.00     0.006 C 
BRANCH   9  10
ATOM     10  C   UNL     1      25.459  -7.642 -39.561  1.00  0.00     0.053 C 
BRANCH  10  11
ATOM     11  C   UNL     1      24.833  -8.985 -39.351  1.00  0.00     0.041 C 
ATOM     12  O   UNL     1      24.720  -9.456 -38.189  1.00  0.00    -0.550 OA
ATOM     13  O   UNL     1      24.422  -9.737 -40.444  1.00  0.00    -0.550 OA
ENDBRANCH  10  11
ENDBRANCH   9  10
ENDBRANCH   8   9
ENDBRANCH   1   8
TORSDOF 8
ENDMDL
MODEL 3
REMARK VINA RESULT:    -4.491      1.668      4.320
REMARK INTER + INTRA:          -7.415
REMARK INTER:                  -6.654
REMARK INTRA:                  -0.761
REMARK UNBOUND:                -0.824
REMARK SMILES O=C([O-])CCCCCCCC(=O)[O-]
REMARK SMILES IDX 7 1 6 2 5 3 4 4 2 5 1 6 3 7 8 8 9 9 10 10 11 11 12 12 13 13
REMARK H PARENT
REMARK Flexibility Score: inf
ROOT
ATOM      1  C   UNL     1      23.675  -6.204 -36.601  1.00  0.00     0.000 C 
ENDROOT
BRANCH   1   2
ATOM      2  C   UNL     1      24.094  -4.842 -37.182  1.00  0.00     0.000 C 
BRANCH   2   3
ATOM      3  C   UNL     1      24.545  -4.932 -38.649  1.00  0.00     0.006 C 
BRANCH   3   4
ATOM      4  C   UNL     1      23.921  -3.829 -39.515  1.00  0.00     0.053 C 
BRANCH   4   5
ATOM      5  C   UNL     1      22.446  -4.029 -39.695  1.00  0.00     0.041 C 
ATOM      6  O   UNL     1      21.629  -3.271 -39.112  1.00  0.00    -0.550 OA
ATOM      7  O   UNL     1      21.976  -5.072 -40.483  1.00  0.00    -0.550 OA
ENDBRANCH   4   5
ENDBRANCH   3   4
ENDBRANCH   2   3
ENDBRANCH   1   2
BRANCH   1   8
ATOM      8  C   UNL     1      22.373  -6.792 -37.182  1.00  0.00     0.000 C 
BRANCH   8   9
ATOM      9  C   UNL     1      22.503  -8.207 -37.774  1.00  0.00     0.006 C 
BRANCH   9  10
ATOM     10  C   UNL     1      22.984  -8.202 -39.229  1.00  0.00     0.053 C 
BRANCH  10  11
ATOM     11  C   UNL     1      24.300  -8.905 -39.348  1.00  0.00     0.041 C 
ATOM     12  O   UNL     1      24.473  -9.780 -40.236  1.00  0.00    -0.550 OA
ATOM     13  O   UNL     1      25.318  -8.629 -38.443  1.00  0.00    -0.550 OA
ENDBRANCH  10  11
ENDBRANCH   9  10
ENDBRANCH   8   9
ENDBRANCH   1   8
TORSDOF 8
ENDMDL
MODEL 4
REMARK VINA RESULT:    -4.489      1.480      2.172
REMARK INTER + INTRA:          -7.413
REMARK INTER:                  -6.628
REMARK INTRA:                  -0.785
REMARK UNBOUND:                -0.824
REMARK SMILES O=C([O-])CCCCCCCC(=O)[O-]
REMARK SMILES IDX 7 1 6 2 5 3 4 4 2 5 1 6 3 7 8 8 9 9 10 10 11 11 12 12 13 13
REMARK H PARENT
REMARK Flexibility Score: inf
ROOT
ATOM      1  C   UNL     1      25.000  -5.255 -37.912  1.00  0.00     0.000 C 
ENDROOT
BRANCH   1   2
ATOM      2  C   UNL     1      24.558  -6.572 -37.251  1.00  0.00     0.000 C 
BRANCH   2   3
ATOM      3  C   UNL     1      23.033  -6.673 -37.081  1.00  0.00     0.006 C 
BRANCH   3   4
ATOM      4  C   UNL     1      22.478  -8.002 -37.610  1.00  0.00     0.053 C 
BRANCH   4   5
ATOM      5  C   UNL     1      22.565  -8.088 -39.103  1.00  0.00     0.041 C 
ATOM      6  O   UNL     1      23.416  -8.839 -39.646  1.00  0.00    -0.550 OA
ATOM      7  O   UNL     1      21.724  -7.317 -39.895  1.00  0.00    -0.550 OA
ENDBRANCH   4   5
ENDBRANCH   3   4
ENDBRANCH   2   3
ENDBRANCH   1   2
BRANCH   1   8
ATOM      8  C   UNL     1      24.399  -4.988 -39.307  1.00  0.00     0.000 C 
BRANCH   8   9
ATOM      9  C   UNL     1      23.883  -3.555 -39.532  1.00  0.00     0.006 C 
BRANCH   9  10
ATOM     10  C   UNL     1      22.677  -3.212 -38.651  1.00  0.00     0.053 C 
BRANCH  10  11
ATOM     11  C   UNL     1      21.449  -3.906 -39.150  1.00  0.00     0.041 C 
ATOM     12  O   UNL     1      21.156  -3.873 -40.375  1.00  0.00    -0.550 OA
ATOM     13  O   UNL     1      20.601  -4.546 -38.256  1.00  0.00    -0.550 OA
ENDBRANCH  10  11
ENDBRANCH   9  10
ENDBRANCH   8   9
ENDBRANCH   1   8
TORSDOF 8
ENDMDL
MODEL 5
REMARK VINA RESULT:    -4.485      1.302      1.775
REMARK INTER + INTRA:          -7.406
REMARK INTER:                  -6.607
REMARK INTRA:                  -0.799
REMARK UNBOUND:                -0.824
REMARK SMILES O=C([O-])CCCCCCCC(=O)[O-]
REMARK SMILES IDX 7 1 6 2 5 3 4 4 2 5 1 6 3 7 8 8 9 9 10 10 11 11 12 12 13 13
REMARK H PARENT
REMARK Flexibility Score: inf
ROOT
ATOM      1  C   UNL     1      22.359  -4.469 -36.243  1.00  0.00     0.000 C 
ENDROOT
BRANCH   1   2
ATOM      2  C   UNL     1      23.601  -5.376 -36.164  1.00  0.00     0.000 C 
BRANCH   2   3
ATOM      3  C   UNL     1      23.375  -6.754 -36.806  1.00  0.00     0.006 C 
BRANCH   3   4
ATOM      4  C   UNL     1      24.646  -7.297 -37.473  1.00  0.00     0.053 C 
BRANCH   4   5
ATOM      5  C   UNL     1      24.329  -8.207 -38.621  1.00  0.00     0.041 C 
ATOM      6  O   UNL     1      23.159  -8.643 -38.778  1.00  0.00    -0.550 OA
ATOM      7  O   UNL     1      25.333  -8.596 -39.499  1.00  0.00    -0.550 OA
ENDBRANCH   4   5
ENDBRANCH   3   4
ENDBRANCH   2   3
ENDBRANCH   1   2
BRANCH   1   8
ATOM      8  C   UNL     1      21.236  -4.975 -37.171  1.00  0.00     0.000 C 
BRANCH   8   9
ATOM      9  C   UNL     1      20.920  -4.065 -38.370  1.00  0.00     0.006 C 
BRANCH   9  10
ATOM     10  C   UNL     1      22.176  -3.629 -39.135  1.00  0.00     0.053 C 
BRANCH  10  11
ATOM     11  C   UNL     1      22.763  -4.787 -39.880  1.00  0.00     0.041 C 
ATOM     12  O   UNL     1      24.012  -4.922 -39.958  1.00  0.00    -0.550 OA
ATOM     13  O   UNL     1      21.929  -5.688 -40.530  1.00  0.00    -0.550 OA
ENDBRANCH  10  11
ENDBRANCH   9  10
ENDBRANCH   8   9
ENDBRANCH   1   8
TORSDOF 8
ENDMDL
MODEL 6
REMARK VINA RESULT:    -4.478      1.208      4.134
REMARK INTER + INTRA:          -7.396
REMARK INTER:                  -6.580
REMARK INTRA:                  -0.816
REMARK UNBOUND:                -0.824
REMARK SMILES O=C([O-])CCCCCCCC(=O)[O-]
REMARK SMILES IDX 7 1 6 2 5 3 4 4 2 5 1 6 3 7 8 8 9 9 10 10 11 11 12 12 13 13
REMARK H PARENT
REMARK Flexibility Score: inf
ROOT
ATOM      1  C   UNL     1      23.455  -4.955 -36.137  1.00  0.00     0.000 C 
ENDROOT
BRANCH   1   2
ATOM      2  C   UNL     1      22.009  -4.448 -36.285  1.00  0.00     0.000 C 
BRANCH   2   3
ATOM      3  C   UNL     1      21.239  -5.162 -37.408  1.00  0.00     0.006 C 
BRANCH   3   4
ATOM      4  C   UNL     1      21.021  -4.255 -38.627  1.00  0.00     0.053 C 
BRANCH   4   5
ATOM      5  C   UNL     1      22.098  -4.433 -39.654  1.00  0.00     0.041 C 
ATOM      6  O   UNL     1      21.999  -5.336 -40.525  1.00  0.00    -0.550 OA
ATOM      7  O   UNL     1      23.224  -3.620 -39.630  1.00  0.00    -0.550 OA
ENDBRANCH   4   5
ENDBRANCH   3   4
ENDBRANCH   2   3
ENDBRANCH   1   2
BRANCH   1   8
ATOM      8  C   UNL     1      23.768  -6.272 -36.875  1.00  0.00     0.000 C 
BRANCH   8   9
ATOM      9  C   UNL     1      25.072  -6.269 -37.692  1.00  0.00     0.006 C 
BRANCH   9  10
ATOM     10  C   UNL     1      24.905  -6.890 -39.084  1.00  0.00     0.053 C 
BRANCH  10  11
ATOM     11  C   UNL     1      24.251  -8.232 -38.983  1.00  0.00     0.041 C 
ATOM     12  O   UNL     1      24.870  -9.201 -38.471  1.00  0.00    -0.550 OA
ATOM     13  O   UNL     1      22.977  -8.424 -39.503  1.00  0.00    -0.550 OA
ENDBRANCH  10  11
ENDBRANCH   9  10
ENDBRANCH   8   9
ENDBRANCH   1   8
TORSDOF 8
ENDMDL
MODEL 7
REMARK VINA RESULT:    -4.422      1.035      3.853
REMARK INTER + INTRA:          -7.314
REMARK INTER:                  -6.568
REMARK INTRA:                  -0.746
REMARK UNBOUND:                -0.824
REMARK SMILES O=C([O-])CCCCCCCC(=O)[O-]
REMARK SMILES IDX 7 1 6 2 5 3 4 4 2 5 1 6 3 7 8 8 9 9 10 10 11 11 12 12 13 13
REMARK H PARENT
REMARK Flexibility Score: inf
ROOT
ATOM      1  C   UNL     1      21.915  -4.649 -36.275  1.00  0.00     0.000 C 
ENDROOT
BRANCH   1   2
ATOM      2  C   UNL     1      21.858  -3.127 -36.496  1.00  0.00     0.000 C 
BRANCH   2   3
ATOM      3  C   UNL     1      21.737  -2.742 -37.979  1.00  0.00     0.006 C 
BRANCH   3   4
ATOM      4  C   UNL     1      23.036  -3.003 -38.753  1.00  0.00     0.053 C 
BRANCH   4   5
ATOM      5  C   UNL     1      22.894  -4.143 -39.715  1.00  0.00     0.041 C 
ATOM      6  O   UNL     1      23.893  -4.846 -40.016  1.00  0.00    -0.550 OA
ATOM      7  O   UNL     1      21.663  -4.410 -40.300  1.00  0.00    -0.550 OA
ENDBRANCH   4   5
ENDBRANCH   3   4
ENDBRANCH   2   3
ENDBRANCH   1   2
BRANCH   1   8
ATOM      8  C   UNL     1      23.331  -5.234 -36.101  1.00  0.00     0.000 C 
BRANCH   8   9
ATOM      9  C   UNL     1      23.601  -6.532 -36.882  1.00  0.00     0.006 C 
BRANCH   9  10
ATOM     10  C   UNL     1      22.320  -7.186 -37.413  1.00  0.00     0.053 C 
BRANCH  10  11
ATOM     11  C   UNL     1      22.588  -7.887 -38.708  1.00  0.00     0.041 C 
ATOM     12  O   UNL     1      21.851  -7.677 -39.707  1.00  0.00    -0.550 OA
ATOM     13  O   UNL     1      23.622  -8.810 -38.796  1.00  0.00    -0.550 OA
ENDBRANCH  10  11
ENDBRANCH   9  10
ENDBRANCH   8   9
ENDBRANCH   1   8
TORSDOF 8
ENDMDL
MODEL 8
REMARK VINA RESULT:    -4.409      1.494      2.455
REMARK INTER + INTRA:          -7.295
REMARK INTER:                  -6.661
REMARK INTRA:                  -0.634
REMARK UNBOUND:                -0.824
REMARK SMILES O=C([O-])CCCCCCCC(=O)[O-]
REMARK SMILES IDX 7 1 6 2 5 3 4 4 2 5 1 6 3 7 8 8 9 9 10 10 11 11 12 12 13 13
REMARK H PARENT
REMARK Flexibility Score: inf
ROOT
ATOM      1  C   UNL     1      23.596  -6.389 -36.532  1.00  0.00     0.000 C 
ENDROOT
BRANCH   1   2
ATOM      2  C   UNL     1      24.795  -6.071 -37.443  1.00  0.00     0.000 C 
BRANCH   2   3
ATOM      3  C   UNL     1      25.597  -7.324 -37.833  1.00  0.00     0.006 C 
BRANCH   3   4
ATOM      4  C   UNL     1      25.439  -7.673 -39.319  1.00  0.00     0.053 C 
BRANCH   4   5
ATOM      5  C   UNL     1      24.742  -8.986 -39.512  1.00  0.00     0.041 C 
ATOM      6  O   UNL     1      25.355 -10.065 -39.303  1.00  0.00    -0.550 OA
ATOM      7  O   UNL     1      23.425  -9.017 -39.950  1.00  0.00    -0.550 OA
ENDBRANCH   4   5
ENDBRANCH   3   4
ENDBRANCH   2   3
ENDBRANCH   1   2
BRANCH   1   8
ATOM      8  C   UNL     1      22.398  -7.060 -37.234  1.00  0.00     0.000 C 
BRANCH   8   9
ATOM      9  C   UNL     1      21.772  -6.244 -38.379  1.00  0.00     0.006 C 
BRANCH   9  10
ATOM     10  C   UNL     1      21.272  -4.867 -37.925  1.00  0.00     0.053 C 
BRANCH  10  11
ATOM     11  C   UNL     1      21.463  -3.856 -39.011  1.00  0.00     0.041 C 
ATOM     12  O   UNL     1      22.585  -3.728 -39.567  1.00  0.00    -0.550 OA
ATOM     13  O   UNL     1      20.413  -3.022 -39.375  1.00  0.00    -0.550 OA
ENDBRANCH  10  11
ENDBRANCH   9  10
ENDBRANCH   8   9
ENDBRANCH   1   8
TORSDOF 8
ENDMDL
MODEL 9
REMARK VINA RESULT:    -4.382      1.282      4.152
REMARK INTER + INTRA:          -7.256
REMARK INTER:                  -6.469
REMARK INTRA:                  -0.787
REMARK UNBOUND:                -0.824
REMARK SMILES O=C([O-])CCCCCCCC(=O)[O-]
REMARK SMILES IDX 7 1 6 2 5 3 4 4 2 5 1 6 3 7 8 8 9 9 10 10 11 11 12 12 13 13
REMARK H PARENT
REMARK Flexibility Score: inf
ROOT
ATOM      1  C   UNL     1      24.538  -5.285 -37.204  1.00  0.00     0.000 C 
ENDROOT
BRANCH   1   2
ATOM      2  C   UNL     1      23.482  -5.175 -36.090  1.00  0.00     0.000 C 
BRANCH   2   3
ATOM      3  C   UNL     1      22.320  -4.238 -36.459  1.00  0.00     0.006 C 
BRANCH   3   4
ATOM      4  C   UNL     1      21.273  -4.933 -37.340  1.00  0.00     0.053 C 
BRANCH   4   5
ATOM      5  C   UNL     1      21.110  -4.244 -38.661  1.00  0.00     0.041 C 
ATOM      6  O   UNL     1      21.937  -4.448 -39.587  1.00  0.00    -0.550 OA
ATOM      7  O   UNL     1      20.061  -3.356 -38.857  1.00  0.00    -0.550 OA
ENDBRANCH   4   5
ENDBRANCH   3   4
ENDBRANCH   2   3
ENDBRANCH   1   2
BRANCH   1   8
ATOM      8  C   UNL     1      25.452  -6.525 -37.122  1.00  0.00     0.000 C 
BRANCH   8   9
ATOM      9  C   UNL     1      25.007  -7.722 -37.980  1.00  0.00     0.006 C 
BRANCH   9  10
ATOM     10  C   UNL     1      24.063  -7.320 -39.120  1.00  0.00     0.053 C 
BRANCH  10  11
ATOM     11  C   UNL     1      22.690  -7.864 -38.878  1.00  0.00     0.041 C 
ATOM     12  O   UNL     1      22.422  -8.451 -37.797  1.00  0.00    -0.550 OA
ATOM     13  O   UNL     1      21.721  -7.767 -39.869  1.00  0.00    -0.550 OA
ENDBRANCH  10  11
ENDBRANCH   9  10
ENDBRANCH   8   9
ENDBRANCH   1   8
TORSDOF 8
ENDMDL
