MODEL 1
REMARK VINA RESULT:    -4.085      0.000      0.000
REMARK INTER + INTRA:          -4.085
REMARK INTER:                  -4.085
REMARK INTRA:                   0.000
REMARK UNBOUND:                 0.000
REMARK SMILES CC1=CC(=O)[C@@H]2C[C@H]1C2(C)C
REMARK SMILES IDX 1 1 2 2 3 3 4 4 5 5 6 6 7 7 8 8 9 9 10 10 11 11
REMARK H PARENT
REMARK Flexibility Score: inf
ROOT
ATOM      1  C   UNL     1     120.658 127.632 107.525  1.00  0.00     0.040 C 
ATOM      2  C   UNL     1     119.738 126.556 108.011  1.00  0.00    -0.066 C 
ATOM      3  C   UNL     1     120.024 125.832 109.129  1.00  0.00     0.047 C 
ATOM      4  C   UNL     1     119.009 124.804 109.530  1.00  0.00     0.159 C 
ATOM      5  O   UNL     1     119.139 124.099 110.564  1.00  0.00    -0.295 OA
ATOM      6  C   UNL     1     117.805 124.673 108.596  1.00  0.00     0.067 C 
ATOM      7  C   UNL     1     118.426 124.658 107.181  1.00  0.00     0.021 C 
ATOM      8  C   UNL     1     118.435 126.201 107.263  1.00  0.00     0.022 C 
ATOM      9  C   UNL     1     117.264 126.097 108.284  1.00  0.00    -0.019 C 
ATOM     10  C   UNL     1     117.204 127.134 109.440  1.00  0.00     0.012 C 
ATOM     11  C   UNL     1     115.880 126.062 107.590  1.00  0.00     0.012 C 
ENDROOT
TORSDOF 0
ENDMDL
MODEL 2
REMARK VINA RESULT:    -4.082     13.458     14.908
REMARK INTER + INTRA:          -4.082
REMARK INTER:                  -4.082
REMARK INTRA:                   0.000
REMARK UNBOUND:                 0.000
REMARK SMILES CC1=CC(=O)[C@@H]2C[C@H]1C2(C)C
REMARK SMILES IDX 1 1 2 2 3 3 4 4 5 5 6 6 7 7 8 8 9 9 10 10 11 11
REMARK H PARENT
REMARK Flexibility Score: inf
ROOT
ATOM      1  C   UNL     1     130.000 119.667  98.502  1.00  0.00     0.040 C 
ATOM      2  C   UNL     1     129.738 120.974  99.181  1.00  0.00    -0.066 C 
ATOM      3  C   UNL     1     130.232 121.238 100.423  1.00  0.00     0.047 C 
ATOM      4  C   UNL     1     129.926 122.594 100.983  1.00  0.00     0.159 C 
ATOM      5  O   UNL     1     130.358 122.971 102.103  1.00  0.00    -0.295 OA
ATOM      6  C   UNL     1     129.054 123.486 100.099  1.00  0.00     0.067 C 
ATOM      7  C   UNL     1     127.916 122.554  99.627  1.00  0.00     0.021 C 
ATOM      8  C   UNL     1     128.883 122.077  98.521  1.00  0.00     0.022 C 
ATOM      9  C   UNL     1     129.615 123.445  98.649  1.00  0.00    -0.019 C 
ATOM     10  C   UNL     1     131.156 123.475  98.453  1.00  0.00     0.012 C 
ATOM     11  C   UNL     1     128.988 124.535  97.744  1.00  0.00     0.012 C 
ENDROOT
TORSDOF 0
ENDMDL
MODEL 3
REMARK VINA RESULT:    -3.986     13.227     14.614
REMARK INTER + INTRA:          -3.986
REMARK INTER:                  -3.986
REMARK INTRA:                   0.000
REMARK UNBOUND:                 0.000
REMARK SMILES CC1=CC(=O)[C@@H]2C[C@H]1C2(C)C
REMARK SMILES IDX 1 1 2 2 3 3 4 4 5 5 6 6 7 7 8 8 9 9 10 10 11 11
REMARK H PARENT
REMARK Flexibility Score: inf
ROOT
ATOM      1  C   UNL     1     129.641 125.380  97.666  1.00  0.00     0.040 C 
ATOM      2  C   UNL     1     129.782 124.124  98.466  1.00  0.00    -0.066 C 
ATOM      3  C   UNL     1     131.007 123.646  98.824  1.00  0.00     0.047 C 
ATOM      4  C   UNL     1     131.014 122.397  99.652  1.00  0.00     0.159 C 
ATOM      5  O   UNL     1     132.080 121.880 100.077  1.00  0.00    -0.295 OA
ATOM      6  C   UNL     1     129.639 121.796  99.943  1.00  0.00     0.067 C 
ATOM      7  C   UNL     1     128.914 121.833  98.579  1.00  0.00     0.021 C 
ATOM      8  C   UNL     1     128.554 123.299  98.909  1.00  0.00     0.022 C 
ATOM      9  C   UNL     1     128.692 122.935 100.416  1.00  0.00    -0.019 C 
ATOM     10  C   UNL     1     129.258 124.012 101.383  1.00  0.00     0.012 C 
ATOM     11  C   UNL     1     127.370 122.392 101.014  1.00  0.00     0.012 C 
ENDROOT
TORSDOF 0
ENDMDL
MODEL 4
REMARK VINA RESULT:    -3.969      1.616      2.919
REMARK INTER + INTRA:          -3.969
REMARK INTER:                  -3.969
REMARK INTRA:                   0.000
REMARK UNBOUND:                 0.000
REMARK SMILES CC1=CC(=O)[C@@H]2C[C@H]1C2(C)C
REMARK SMILES IDX 1 1 2 2 3 3 4 4 5 5 6 6 7 7 8 8 9 9 10 10 11 11
REMARK H PARENT
REMARK Flexibility Score: inf
ROOT
ATOM      1  C   UNL     1     116.753 128.760 110.488  1.00  0.00     0.040 C 
ATOM      2  C   UNL     1     116.999 127.331 110.119  1.00  0.00    -0.066 C 
ATOM      3  C   UNL     1     116.340 126.314 110.743  1.00  0.00     0.047 C 
ATOM      4  C   UNL     1     116.651 124.929 110.261  1.00  0.00     0.159 C 
ATOM      5  O   UNL     1     116.080 123.911 110.731  1.00  0.00    -0.295 OA
ATOM      6  C   UNL     1     117.708 124.841 109.160  1.00  0.00     0.067 C 
ATOM      7  C   UNL     1     118.837 125.778 109.644  1.00  0.00     0.021 C 
ATOM      8  C   UNL     1     118.019 126.936 109.029  1.00  0.00     0.022 C 
ATOM      9  C   UNL     1     117.374 125.896 108.068  1.00  0.00    -0.019 C 
ATOM     10  C   UNL     1     115.887 126.094 107.662  1.00  0.00     0.012 C 
ATOM     11  C   UNL     1     118.207 125.692 106.777  1.00  0.00     0.012 C 
ENDROOT
TORSDOF 0
ENDMDL
MODEL 5
REMARK VINA RESULT:    -3.949      1.420      3.245
REMARK INTER + INTRA:          -3.949
REMARK INTER:                  -3.949
REMARK INTRA:                   0.000
REMARK UNBOUND:                 0.000
REMARK SMILES CC1=CC(=O)[C@@H]2C[C@H]1C2(C)C
REMARK SMILES IDX 1 1 2 2 3 3 4 4 5 5 6 6 7 7 8 8 9 9 10 10 11 11
REMARK H PARENT
REMARK Flexibility Score: inf
ROOT
ATOM      1  C   UNL     1     116.516 126.116 107.493  1.00  0.00     0.040 C 
ATOM      2  C   UNL     1     117.956 126.032 107.886  1.00  0.00    -0.066 C 
ATOM      3  C   UNL     1     118.326 125.728 109.162  1.00  0.00     0.047 C 
ATOM      4  C   UNL     1     119.800 125.642 109.422  1.00  0.00     0.159 C 
ATOM      5  O   UNL     1     120.265 125.331 110.549  1.00  0.00    -0.295 OA
ATOM      6  C   UNL     1     120.696 125.958 108.224  1.00  0.00     0.067 C 
ATOM      7  C   UNL     1     120.076 127.236 107.615  1.00  0.00     0.021 C 
ATOM      8  C   UNL     1     119.093 126.301 106.876  1.00  0.00     0.022 C 
ATOM      9  C   UNL     1     120.164 125.177 106.989  1.00  0.00    -0.019 C 
ATOM     10  C   UNL     1     119.676 123.716 107.193  1.00  0.00     0.012 C 
ATOM     11  C   UNL     1     121.163 125.195 105.805  1.00  0.00     0.012 C 
ENDROOT
TORSDOF 0
ENDMDL
MODEL 6
REMARK VINA RESULT:    -3.926      1.737      3.485
REMARK INTER + INTRA:          -3.926
REMARK INTER:                  -3.926
REMARK INTRA:                   0.000
REMARK UNBOUND:                 0.000
REMARK SMILES CC1=CC(=O)[C@@H]2C[C@H]1C2(C)C
REMARK SMILES IDX 1 1 2 2 3 3 4 4 5 5 6 6 7 7 8 8 9 9 10 10 11 11
REMARK H PARENT
REMARK Flexibility Score: inf
ROOT
ATOM      1  C   UNL     1     119.149 124.233 104.914  1.00  0.00     0.040 C 
ATOM      2  C   UNL     1     119.550 124.803 106.238  1.00  0.00    -0.066 C 
ATOM      3  C   UNL     1     119.950 123.999 107.263  1.00  0.00     0.047 C 
ATOM      4  C   UNL     1     120.357 124.692 108.528  1.00  0.00     0.159 C 
ATOM      5  O   UNL     1     120.781 124.062 109.532  1.00  0.00    -0.295 OA
ATOM      6  C   UNL     1     120.222 126.215 108.513  1.00  0.00     0.067 C 
ATOM      7  C   UNL     1     118.831 126.465 107.891  1.00  0.00     0.021 C 
ATOM      8  C   UNL     1     119.517 126.321 106.514  1.00  0.00     0.022 C 
ATOM      9  C   UNL     1     120.848 126.754 107.195  1.00  0.00    -0.019 C 
ATOM     10  C   UNL     1     122.172 126.115 106.691  1.00  0.00     0.012 C 
ATOM     11  C   UNL     1     121.027 128.292 107.214  1.00  0.00     0.012 C 
ENDROOT
TORSDOF 0
ENDMDL
MODEL 7
REMARK VINA RESULT:    -3.917      1.850      2.795
REMARK INTER + INTRA:          -3.917
REMARK INTER:                  -3.917
REMARK INTRA:                   0.000
REMARK UNBOUND:                 0.000
REMARK SMILES CC1=CC(=O)[C@@H]2C[C@H]1C2(C)C
REMARK SMILES IDX 1 1 2 2 3 3 4 4 5 5 6 6 7 7 8 8 9 9 10 10 11 11
REMARK H PARENT
REMARK Flexibility Score: inf
ROOT
ATOM      1  C   UNL     1     121.119 128.269 107.094  1.00  0.00     0.040 C 
ATOM      2  C   UNL     1     120.354 126.992 107.229  1.00  0.00    -0.066 C 
ATOM      3  C   UNL     1     120.587 125.935 106.401  1.00  0.00     0.047 C 
ATOM      4  C   UNL     1     119.777 124.700 106.659  1.00  0.00     0.159 C 
ATOM      5  O   UNL     1     119.928 123.646 105.987  1.00  0.00    -0.295 OA
ATOM      6  C   UNL     1     118.757 124.810 107.792  1.00  0.00     0.067 C 
ATOM      7  C   UNL     1     118.065 126.170 107.547  1.00  0.00     0.021 C 
ATOM      8  C   UNL     1     119.253 126.811 108.298  1.00  0.00     0.022 C 
ATOM      9  C   UNL     1     119.456 125.451 109.026  1.00  0.00    -0.019 C 
ATOM     10  C   UNL     1     120.907 125.008 109.365  1.00  0.00     0.012 C 
ATOM     11  C   UNL     1     118.600 125.338 110.312  1.00  0.00     0.012 C 
ENDROOT
TORSDOF 0
ENDMDL
MODEL 8
REMARK VINA RESULT:    -3.878      8.312     10.209
REMARK INTER + INTRA:          -3.878
REMARK INTER:                  -3.878
REMARK INTRA:                   0.000
REMARK UNBOUND:                 0.000
REMARK SMILES CC1=CC(=O)[C@@H]2C[C@H]1C2(C)C
REMARK SMILES IDX 1 1 2 2 3 3 4 4 5 5 6 6 7 7 8 8 9 9 10 10 11 11
REMARK H PARENT
REMARK Flexibility Score: inf
ROOT
ATOM      1  C   UNL     1     129.993 125.768 109.937  1.00  0.00     0.040 C 
ATOM      2  C   UNL     1     129.238 126.195 108.719  1.00  0.00    -0.066 C 
ATOM      3  C   UNL     1     129.883 126.512 107.561  1.00  0.00     0.047 C 
ATOM      4  C   UNL     1     129.013 126.895 106.402  1.00  0.00     0.159 C 
ATOM      5  O   UNL     1     129.488 127.171 105.269  1.00  0.00    -0.295 OA
ATOM      6  C   UNL     1     127.512 126.927 106.691  1.00  0.00     0.067 C 
ATOM      7  C   UNL     1     127.403 127.674 108.039  1.00  0.00     0.021 C 
ATOM      8  C   UNL     1     127.699 126.317 108.716  1.00  0.00     0.022 C 
ATOM      9  C   UNL     1     127.127 125.622 107.445  1.00  0.00    -0.019 C 
ATOM     10  C   UNL     1     127.772 124.285 106.986  1.00  0.00     0.012 C 
ATOM     11  C   UNL     1     125.593 125.420 107.525  1.00  0.00     0.012 C 
ENDROOT
TORSDOF 0
ENDMDL
MODEL 9
REMARK VINA RESULT:    -3.850     13.847     15.134
REMARK INTER + INTRA:          -3.850
REMARK INTER:                  -3.850
REMARK INTRA:                   0.000
REMARK UNBOUND:                 0.000
REMARK SMILES CC1=CC(=O)[C@@H]2C[C@H]1C2(C)C
REMARK SMILES IDX 1 1 2 2 3 3 4 4 5 5 6 6 7 7 8 8 9 9 10 10 11 11
REMARK H PARENT
REMARK Flexibility Score: inf
ROOT
ATOM      1  C   UNL     1     130.677 124.249 101.763  1.00  0.00     0.040 C 
ATOM      2  C   UNL     1     130.063 123.770 100.486  1.00  0.00    -0.066 C 
ATOM      3  C   UNL     1     129.986 124.576  99.390  1.00  0.00     0.047 C 
ATOM      4  C   UNL     1     129.377 123.969  98.163  1.00  0.00     0.159 C 
ATOM      5  O   UNL     1     129.285 124.599  97.077  1.00  0.00    -0.295 OA
ATOM      6  C   UNL     1     128.875 122.533  98.322  1.00  0.00     0.067 C 
ATOM      7  C   UNL     1     128.103 122.549  99.660  1.00  0.00     0.021 C 
ATOM      8  C   UNL     1     129.470 122.351 100.351  1.00  0.00     0.022 C 
ATOM      9  C   UNL     1     129.979 121.700  99.032  1.00  0.00    -0.019 C 
ATOM     10  C   UNL     1     131.460 121.934  98.622  1.00  0.00     0.012 C 
ATOM     11  C   UNL     1     129.695 120.178  98.978  1.00  0.00     0.012 C 
ENDROOT
TORSDOF 0
ENDMDL
