MODEL 1
REMARK VINA RESULT:    -3.662      0.000      0.000
REMARK INTER + INTRA:          -8.956
REMARK INTER:                  -6.874
REMARK INTRA:                  -2.082
REMARK UNBOUND:                -2.082
REMARK SMILES O=C([O-])CCCCCCCCCCCCCCC(=O)[O-]
REMARK SMILES IDX 10 1 9 2 8 3 7 4 6 5 5 6 4 7 2 8 1 9 3 10 11 11 12 12 13 13
REMARK SMILES IDX 14 14 15 15 16 16 17 17 18 18 19 19 20 20
REMARK H PARENT
REMARK Flexibility Score: inf
ROOT
ATOM      1  C   UNL     1       8.245 -32.677  15.567  1.00  0.00     0.000 C 
ENDROOT
BRANCH   1   2
ATOM      2  C   UNL     1       6.735 -32.975  15.606  1.00  0.00     0.000 C 
BRANCH   2   3
ATOM      3  C   UNL     1       5.879 -31.712  15.429  1.00  0.00     0.000 C 
BRANCH   3   4
ATOM      4  C   UNL     1       6.607 -30.436  15.888  1.00  0.00     0.000 C 
BRANCH   4   5
ATOM      5  C   UNL     1       5.884 -29.726  17.044  1.00  0.00     0.000 C 
BRANCH   5   6
ATOM      6  C   UNL     1       6.788 -29.520  18.272  1.00  0.00     0.006 C 
BRANCH   6   7
ATOM      7  C   UNL     1       8.220 -30.015  18.027  1.00  0.00     0.053 C 
BRANCH   7   8
ATOM      8  C   UNL     1       9.238 -28.998  18.444  1.00  0.00     0.041 C 
ATOM      9  O   UNL     1       9.885 -28.356  17.575  1.00  0.00    -0.550 OA
ATOM     10  O   UNL     1       9.500 -28.788  19.792  1.00  0.00    -0.550 OA
ENDBRANCH   7   8
ENDBRANCH   6   7
ENDBRANCH   5   6
ENDBRANCH   4   5
ENDBRANCH   3   4
ENDBRANCH   2   3
ENDBRANCH   1   2
BRANCH   1  11
ATOM     11  C   UNL     1       8.910 -33.169  14.272  1.00  0.00     0.000 C 
BRANCH  11  12
ATOM     12  C   UNL     1       7.944 -33.965  13.377  1.00  0.00     0.000 C 
BRANCH  12  13
ATOM     13  C   UNL     1       7.240 -33.065  12.338  1.00  0.00     0.000 C 
BRANCH  13  14
ATOM     14  C   UNL     1       8.095 -31.872  11.875  1.00  0.00     0.000 C 
BRANCH  14  15
ATOM     15  C   UNL     1       7.442 -30.515  12.181  1.00  0.00     0.000 C 
BRANCH  15  16
ATOM     16  C   UNL     1       8.474 -29.404  12.447  1.00  0.00     0.006 C 
BRANCH  16  17
ATOM     17  C   UNL     1       9.182 -29.509  13.807  1.00  0.00     0.053 C 
BRANCH  17  18
ATOM     18  C   UNL     1      10.668 -29.616  13.660  1.00  0.00     0.041 C 
ATOM     19  O   UNL     1      11.418 -28.721  14.131  1.00  0.00    -0.550 OA
ATOM     20  O   UNL     1      11.224 -30.689  12.973  1.00  0.00    -0.550 OA
ENDBRANCH  17  18
ENDBRANCH  16  17
ENDBRANCH  15  16
ENDBRANCH  14  15
ENDBRANCH  13  14
ENDBRANCH  12  13
ENDBRANCH  11  12
ENDBRANCH   1  11
TORSDOF 15
ENDMDL
MODEL 2
REMARK VINA RESULT:    -3.485      1.880      3.186
REMARK INTER + INTRA:          -8.624
REMARK INTER:                  -6.719
REMARK INTRA:                  -1.905
REMARK UNBOUND:                -2.082
REMARK SMILES O=C([O-])CCCCCCCCCCCCCCC(=O)[O-]
REMARK SMILES IDX 10 1 9 2 8 3 7 4 6 5 5 6 4 7 2 8 1 9 3 10 11 11 12 12 13 13
REMARK SMILES IDX 14 14 15 15 16 16 17 17 18 18 19 19 20 20
REMARK H PARENT
REMARK Flexibility Score: inf
ROOT
ATOM      1  C   UNL     1       6.942 -32.332  12.471  1.00  0.00     0.000 C 
ENDROOT
BRANCH   1   2
ATOM      2  C   UNL     1       6.210 -33.163  13.540  1.00  0.00     0.000 C 
BRANCH   2   3
ATOM      3  C   UNL     1       7.161 -33.722  14.610  1.00  0.00     0.000 C 
BRANCH   3   4
ATOM      4  C   UNL     1       6.442 -34.028  15.935  1.00  0.00     0.000 C 
BRANCH   4   5
ATOM      5  C   UNL     1       7.041 -33.257  17.123  1.00  0.00     0.000 C 
BRANCH   5   6
ATOM      6  C   UNL     1       6.841 -31.735  17.004  1.00  0.00     0.006 C 
BRANCH   6   7
ATOM      7  C   UNL     1       8.011 -30.948  17.611  1.00  0.00     0.053 C 
BRANCH   7   8
ATOM      8  C   UNL     1       7.561 -29.641  18.188  1.00  0.00     0.041 C 
ATOM      9  O   UNL     1       8.407 -28.816  18.622  1.00  0.00    -0.550 OA
ATOM     10  O   UNL     1       6.206 -29.352  18.284  1.00  0.00    -0.550 OA
ENDBRANCH   7   8
ENDBRANCH   6   7
ENDBRANCH   5   6
ENDBRANCH   4   5
ENDBRANCH   3   4
ENDBRANCH   2   3
ENDBRANCH   1   2
BRANCH   1  11
ATOM     11  C   UNL     1       6.228 -31.006  12.164  1.00  0.00     0.000 C 
BRANCH  11  12
ATOM     12  C   UNL     1       7.058 -29.778  12.579  1.00  0.00     0.000 C 
BRANCH  12  13
ATOM     13  C   UNL     1       7.508 -29.852  14.054  1.00  0.00     0.000 C 
BRANCH  13  14
ATOM     14  C   UNL     1       9.033 -29.777  14.239  1.00  0.00     0.000 C 
BRANCH  14  15
ATOM     15  C   UNL     1       9.781 -29.507  12.924  1.00  0.00     0.000 C 
BRANCH  15  16
ATOM     16  C   UNL     1      10.711 -30.664  12.519  1.00  0.00     0.006 C 
BRANCH  16  17
ATOM     17  C   UNL     1      10.497 -31.959  13.318  1.00  0.00     0.053 C 
BRANCH  17  18
ATOM     18  C   UNL     1      11.606 -32.943  13.103  1.00  0.00     0.041 C 
ATOM     19  O   UNL     1      11.958 -33.716  14.032  1.00  0.00    -0.550 OA
ATOM     20  O   UNL     1      12.274 -32.982  11.885  1.00  0.00    -0.550 OA
ENDBRANCH  17  18
ENDBRANCH  16  17
ENDBRANCH  15  16
ENDBRANCH  14  15
ENDBRANCH  13  14
ENDBRANCH  12  13
ENDBRANCH  11  12
ENDBRANCH   1  11
TORSDOF 15
ENDMDL
MODEL 3
REMARK VINA RESULT:    -3.464      2.673      4.544
REMARK INTER + INTRA:          -8.584
REMARK INTER:                  -6.789
REMARK INTRA:                  -1.795
REMARK UNBOUND:                -2.082
REMARK SMILES O=C([O-])CCCCCCCCCCCCCCC(=O)[O-]
REMARK SMILES IDX 10 1 9 2 8 3 7 4 6 5 5 6 4 7 2 8 1 9 3 10 11 11 12 12 13 13
REMARK SMILES IDX 14 14 15 15 16 16 17 17 18 18 19 19 20 20
REMARK H PARENT
REMARK Flexibility Score: inf
ROOT
ATOM      1  C   UNL     1       9.257 -28.808  18.550  1.00  0.00     0.000 C 
ENDROOT
BRANCH   1   2
ATOM      2  C   UNL     1       8.259 -29.858  18.030  1.00  0.00     0.000 C 
BRANCH   2   3
ATOM      3  C   UNL     1       6.804 -29.525  18.398  1.00  0.00     0.000 C 
BRANCH   3   4
ATOM      4  C   UNL     1       5.875 -29.506  17.172  1.00  0.00     0.000 C 
BRANCH   4   5
ATOM      5  C   UNL     1       6.540 -30.100  15.919  1.00  0.00     0.000 C 
BRANCH   5   6
ATOM      6  C   UNL     1       5.998 -31.497  15.565  1.00  0.00     0.006 C 
BRANCH   6   7
ATOM      7  C   UNL     1       7.094 -32.571  15.607  1.00  0.00     0.053 C 
BRANCH   7   8
ATOM      8  C   UNL     1       6.925 -33.490  16.778  1.00  0.00     0.041 C 
ATOM      9  O   UNL     1       6.139 -34.471  16.704  1.00  0.00    -0.550 OA
ATOM     10  O   UNL     1       7.606 -33.242  17.963  1.00  0.00    -0.550 OA
ENDBRANCH   7   8
ENDBRANCH   6   7
ENDBRANCH   5   6
ENDBRANCH   4   5
ENDBRANCH   3   4
ENDBRANCH   2   3
ENDBRANCH   1   2
BRANCH   1  11
ATOM     11  C   UNL     1       9.999 -28.087  17.414  1.00  0.00     0.000 C 
BRANCH  11  12
ATOM     12  C   UNL     1       9.756 -28.740  16.042  1.00  0.00     0.000 C 
BRANCH  12  13
ATOM     13  C   UNL     1      11.025 -28.732  15.162  1.00  0.00     0.000 C 
BRANCH  13  14
ATOM     14  C   UNL     1      10.748 -29.012  13.675  1.00  0.00     0.000 C 
BRANCH  14  15
ATOM     15  C   UNL     1      10.536 -30.505  13.378  1.00  0.00     0.000 C 
BRANCH  15  16
ATOM     16  C   UNL     1       9.791 -30.750  12.054  1.00  0.00     0.006 C 
BRANCH  16  17
ATOM     17  C   UNL     1       8.475 -31.531  12.203  1.00  0.00     0.053 C 
BRANCH  17  18
ATOM     18  C   UNL     1       7.282 -30.624  12.220  1.00  0.00     0.041 C 
ATOM     19  O   UNL     1       7.424 -29.394  12.447  1.00  0.00    -0.550 OA
ATOM     20  O   UNL     1       6.010 -31.145  12.016  1.00  0.00    -0.550 OA
ENDBRANCH  17  18
ENDBRANCH  16  17
ENDBRANCH  15  16
ENDBRANCH  14  15
ENDBRANCH  13  14
ENDBRANCH  12  13
ENDBRANCH  11  12
ENDBRANCH   1  11
TORSDOF 15
ENDMDL
MODEL 4
REMARK VINA RESULT:    -3.458      2.449      6.036
REMARK INTER + INTRA:          -8.573
REMARK INTER:                  -6.924
REMARK INTRA:                  -1.649
REMARK UNBOUND:                -2.082
REMARK SMILES O=C([O-])CCCCCCCCCCCCCCC(=O)[O-]
REMARK SMILES IDX 10 1 9 2 8 3 7 4 6 5 5 6 4 7 2 8 1 9 3 10 11 11 12 12 13 13
REMARK SMILES IDX 14 14 15 15 16 16 17 17 18 18 19 19 20 20
REMARK H PARENT
REMARK Flexibility Score: inf
ROOT
ATOM      1  C   UNL     1      10.005 -28.452  16.894  1.00  0.00     0.000 C 
ENDROOT
BRANCH   1   2
ATOM      2  C   UNL     1       9.412 -29.177  15.672  1.00  0.00     0.000 C 
BRANCH   2   3
ATOM      3  C   UNL     1      10.363 -29.176  14.465  1.00  0.00     0.000 C 
BRANCH   3   4
ATOM      4  C   UNL     1       9.621 -29.362  13.130  1.00  0.00     0.000 C 
BRANCH   4   5
ATOM      5  C   UNL     1      10.326 -30.362  12.198  1.00  0.00     0.000 C 
BRANCH   5   6
ATOM      6  C   UNL     1      11.333 -31.258  12.941  1.00  0.00     0.006 C 
BRANCH   6   7
ATOM      7  C   UNL     1      11.868 -32.388  12.051  1.00  0.00     0.053 C 
BRANCH   7   8
ATOM      8  C   UNL     1      12.003 -33.674  12.808  1.00  0.00     0.041 C 
ATOM      9  O   UNL     1      11.696 -33.725  14.028  1.00  0.00    -0.550 OA
ATOM     10  O   UNL     1      12.506 -34.804  12.178  1.00  0.00    -0.550 OA
ENDBRANCH   7   8
ENDBRANCH   6   7
ENDBRANCH   5   6
ENDBRANCH   4   5
ENDBRANCH   3   4
ENDBRANCH   2   3
ENDBRANCH   1   2
BRANCH   1  11
ATOM     11  C   UNL     1       9.264 -28.793  18.197  1.00  0.00     0.000 C 
BRANCH  11  12
ATOM     12  C   UNL     1       8.286 -29.969  18.031  1.00  0.00     0.000 C 
BRANCH  12  13
ATOM     13  C   UNL     1       6.826 -29.554  18.313  1.00  0.00     0.000 C 
BRANCH  13  14
ATOM     14  C   UNL     1       5.925 -29.583  17.066  1.00  0.00     0.000 C 
BRANCH  14  15
ATOM     15  C   UNL     1       6.041 -30.895  16.275  1.00  0.00     0.000 C 
BRANCH  15  16
ATOM     16  C   UNL     1       6.459 -30.673  14.810  1.00  0.00     0.006 C 
BRANCH  16  17
ATOM     17  C   UNL     1       6.911 -31.948  14.080  1.00  0.00     0.053 C 
BRANCH  17  18
ATOM     18  C   UNL     1       7.728 -32.841  14.963  1.00  0.00     0.041 C 
ATOM     19  O   UNL     1       7.269 -33.951  15.340  1.00  0.00    -0.550 OA
ATOM     20  O   UNL     1       8.984 -32.433  15.396  1.00  0.00    -0.550 OA
ENDBRANCH  17  18
ENDBRANCH  16  17
ENDBRANCH  15  16
ENDBRANCH  14  15
ENDBRANCH  13  14
ENDBRANCH  12  13
ENDBRANCH  11  12
ENDBRANCH   1  11
TORSDOF 15
ENDMDL
MODEL 5
REMARK VINA RESULT:    -3.434      2.006      5.592
REMARK INTER + INTRA:          -8.528
REMARK INTER:                  -6.398
REMARK INTRA:                  -2.131
REMARK UNBOUND:                -2.082
REMARK SMILES O=C([O-])CCCCCCCCCCCCCCC(=O)[O-]
REMARK SMILES IDX 10 1 9 2 8 3 7 4 6 5 5 6 4 7 2 8 1 9 3 10 11 11 12 12 13 13
REMARK SMILES IDX 14 14 15 15 16 16 17 17 18 18 19 19 20 20
REMARK H PARENT
REMARK Flexibility Score: inf
ROOT
ATOM      1  C   UNL     1       6.855 -30.635  12.852  1.00  0.00     0.000 C 
ENDROOT
BRANCH   1   2
ATOM      2  C   UNL     1       7.343 -29.376  12.113  1.00  0.00     0.000 C 
BRANCH   2   3
ATOM      3  C   UNL     1       8.875 -29.310  12.004  1.00  0.00     0.000 C 
BRANCH   3   4
ATOM      4  C   UNL     1       9.570 -29.448  13.370  1.00  0.00     0.000 C 
BRANCH   4   5
ATOM      5  C   UNL     1      10.751 -30.431  13.334  1.00  0.00     0.000 C 
BRANCH   5   6
ATOM      6  C   UNL     1      10.792 -31.263  12.039  1.00  0.00     0.006 C 
BRANCH   6   7
ATOM      7  C   UNL     1      11.905 -32.320  12.065  1.00  0.00     0.053 C 
BRANCH   7   8
ATOM      8  C   UNL     1      11.504 -33.530  12.851  1.00  0.00     0.041 C 
ATOM      9  O   UNL     1      11.896 -33.672  14.039  1.00  0.00    -0.550 OA
ATOM     10  O   UNL     1      10.731 -34.520  12.258  1.00  0.00    -0.550 OA
ENDBRANCH   7   8
ENDBRANCH   6   7
ENDBRANCH   5   6
ENDBRANCH   4   5
ENDBRANCH   3   4
ENDBRANCH   2   3
ENDBRANCH   1   2
BRANCH   1  11
ATOM     11  C   UNL     1       7.216 -31.931  12.110  1.00  0.00     0.000 C 
BRANCH  11  12
ATOM     12  C   UNL     1       7.474 -33.109  13.066  1.00  0.00     0.000 C 
BRANCH  12  13
ATOM     13  C   UNL     1       6.510 -33.098  14.273  1.00  0.00     0.000 C 
BRANCH  13  14
ATOM     14  C   UNL     1       7.149 -33.605  15.577  1.00  0.00     0.000 C 
BRANCH  14  15
ATOM     15  C   UNL     1       7.189 -32.534  16.679  1.00  0.00     0.000 C 
BRANCH  15  16
ATOM     16  C   UNL     1       8.206 -31.417  16.386  1.00  0.00     0.006 C 
BRANCH  16  17
ATOM     17  C   UNL     1       7.635 -29.994  16.502  1.00  0.00     0.053 C 
BRANCH  17  18
ATOM     18  C   UNL     1       7.490 -29.561  17.928  1.00  0.00     0.041 C 
ATOM     19  O   UNL     1       8.509 -29.412  18.653  1.00  0.00    -0.550 OA
ATOM     20  O   UNL     1       6.226 -29.352  18.467  1.00  0.00    -0.550 OA
ENDBRANCH  17  18
ENDBRANCH  16  17
ENDBRANCH  15  16
ENDBRANCH  14  15
ENDBRANCH  13  14
ENDBRANCH  12  13
ENDBRANCH  11  12
ENDBRANCH   1  11
TORSDOF 15
ENDMDL
MODEL 6
REMARK VINA RESULT:    -3.371      2.650      4.672
REMARK INTER + INTRA:          -8.409
REMARK INTER:                  -6.673
REMARK INTRA:                  -1.737
REMARK UNBOUND:                -2.082
REMARK SMILES O=C([O-])CCCCCCCCCCCCCCC(=O)[O-]
REMARK SMILES IDX 10 1 9 2 8 3 7 4 6 5 5 6 4 7 2 8 1 9 3 10 11 11 12 12 13 13
REMARK SMILES IDX 14 14 15 15 16 16 17 17 18 18 19 19 20 20
REMARK H PARENT
REMARK Flexibility Score: inf
ROOT
ATOM      1  C   UNL     1       9.268 -28.884  18.614  1.00  0.00     0.000 C 
ENDROOT
BRANCH   1   2
ATOM      2  C   UNL     1       8.261 -29.868  17.991  1.00  0.00     0.000 C 
BRANCH   2   3
ATOM      3  C   UNL     1       6.801 -29.453  18.233  1.00  0.00     0.000 C 
BRANCH   3   4
ATOM      4  C   UNL     1       5.901 -29.728  17.015  1.00  0.00     0.000 C 
BRANCH   4   5
ATOM      5  C   UNL     1       6.700 -29.861  15.709  1.00  0.00     0.000 C 
BRANCH   5   6
ATOM      6  C   UNL     1       6.215 -31.031  14.833  1.00  0.00     0.006 C 
BRANCH   6   7
ATOM      7  C   UNL     1       7.338 -32.034  14.535  1.00  0.00     0.053 C 
BRANCH   7   8
ATOM      8  C   UNL     1       7.233 -33.256  15.394  1.00  0.00     0.041 C 
ATOM      9  O   UNL     1       7.290 -34.402  14.875  1.00  0.00    -0.550 OA
ATOM     10  O   UNL     1       7.032 -33.130  16.763  1.00  0.00    -0.550 OA
ENDBRANCH   7   8
ENDBRANCH   6   7
ENDBRANCH   5   6
ENDBRANCH   4   5
ENDBRANCH   3   4
ENDBRANCH   2   3
ENDBRANCH   1   2
BRANCH   1  11
ATOM     11  C   UNL     1      10.033 -28.075  17.555  1.00  0.00     0.000 C 
BRANCH  11  12
ATOM     12  C   UNL     1      10.032 -28.756  16.175  1.00  0.00     0.000 C 
BRANCH  12  13
ATOM     13  C   UNL     1      11.300 -28.420  15.361  1.00  0.00     0.000 C 
BRANCH  13  14
ATOM     14  C   UNL     1      11.224 -28.863  13.889  1.00  0.00     0.000 C 
BRANCH  14  15
ATOM     15  C   UNL     1      10.228 -30.011  13.662  1.00  0.00     0.000 C 
BRANCH  15  16
ATOM     16  C   UNL     1      10.494 -30.781  12.356  1.00  0.00     0.006 C 
BRANCH  16  17
ATOM     17  C   UNL     1      11.595 -31.849  12.463  1.00  0.00     0.053 C 
BRANCH  17  18
ATOM     18  C   UNL     1      11.098 -33.105  13.110  1.00  0.00     0.041 C 
ATOM     19  O   UNL     1       9.994 -33.603  12.764  1.00  0.00    -0.550 OA
ATOM     20  O   UNL     1      11.838 -33.708  14.120  1.00  0.00    -0.550 OA
ENDBRANCH  17  18
ENDBRANCH  16  17
ENDBRANCH  15  16
ENDBRANCH  14  15
ENDBRANCH  13  14
ENDBRANCH  12  13
ENDBRANCH  11  12
ENDBRANCH   1  11
TORSDOF 15
ENDMDL
MODEL 7
REMARK VINA RESULT:    -3.303      1.868      4.878
REMARK INTER + INTRA:          -8.282
REMARK INTER:                  -5.930
REMARK INTRA:                  -2.352
REMARK UNBOUND:                -2.082
REMARK SMILES O=C([O-])CCCCCCCCCCCCCCC(=O)[O-]
REMARK SMILES IDX 10 1 9 2 8 3 7 4 6 5 5 6 4 7 2 8 1 9 3 10 11 11 12 12 13 13
REMARK SMILES IDX 14 14 15 15 16 16 17 17 18 18 19 19 20 20
REMARK H PARENT
REMARK Flexibility Score: inf
ROOT
ATOM      1  C   UNL     1       7.913 -32.706  17.219  1.00  0.00     0.000 C 
ENDROOT
BRANCH   1   2
ATOM      2  C   UNL     1       6.613 -33.348  16.702  1.00  0.00     0.000 C 
BRANCH   2   3
ATOM      3  C   UNL     1       6.825 -34.160  15.415  1.00  0.00     0.000 C 
BRANCH   3   4
ATOM      4  C   UNL     1       8.061 -33.698  14.623  1.00  0.00     0.000 C 
BRANCH   4   5
ATOM      5  C   UNL     1       7.966 -34.043  13.128  1.00  0.00     0.000 C 
BRANCH   5   6
ATOM      6  C   UNL     1       9.227 -34.752  12.601  1.00  0.00     0.006 C 
BRANCH   6   7
ATOM      7  C   UNL     1      10.270 -33.759  12.070  1.00  0.00     0.053 C 
BRANCH   7   8
ATOM      8  C   UNL     1      11.614 -33.979  12.693  1.00  0.00     0.041 C 
ATOM      9  O   UNL     1      12.566 -34.428  12.003  1.00  0.00    -0.550 OA
ATOM     10  O   UNL     1      11.804 -33.725  14.045  1.00  0.00    -0.550 OA
ENDBRANCH   7   8
ENDBRANCH   6   7
ENDBRANCH   5   6
ENDBRANCH   4   5
ENDBRANCH   3   4
ENDBRANCH   2   3
ENDBRANCH   1   2
BRANCH   1  11
ATOM     11  C   UNL     1       7.811 -31.177  17.330  1.00  0.00     0.000 C 
BRANCH  11  12
ATOM     12  C   UNL     1       6.431 -30.643  16.904  1.00  0.00     0.000 C 
BRANCH  12  13
ATOM     13  C   UNL     1       6.519 -29.740  15.655  1.00  0.00     0.000 C 
BRANCH  13  14
ATOM     14  C   UNL     1       6.636 -30.522  14.335  1.00  0.00     0.000 C 
BRANCH  14  15
ATOM     15  C   UNL     1       7.389 -29.744  13.245  1.00  0.00     0.000 C 
BRANCH  15  16
ATOM     16  C   UNL     1       8.739 -30.388  12.879  1.00  0.00     0.006 C 
BRANCH  16  17
ATOM     17  C   UNL     1       9.675 -30.621  14.076  1.00  0.00     0.053 C 
BRANCH  17  18
ATOM     18  C   UNL     1      10.298 -29.347  14.559  1.00  0.00     0.041 C 
ATOM     19  O   UNL     1      11.167 -28.761  13.861  1.00  0.00    -0.550 OA
ATOM     20  O   UNL     1       9.942 -28.824  15.796  1.00  0.00    -0.550 OA
ENDBRANCH  17  18
ENDBRANCH  16  17
ENDBRANCH  15  16
ENDBRANCH  14  15
ENDBRANCH  13  14
ENDBRANCH  12  13
ENDBRANCH  11  12
ENDBRANCH   1  11
TORSDOF 15
ENDMDL
MODEL 8
REMARK VINA RESULT:    -3.268      2.191      4.752
REMARK INTER + INTRA:          -8.216
REMARK INTER:                  -6.463
REMARK INTRA:                  -1.753
REMARK UNBOUND:                -2.082
REMARK SMILES O=C([O-])CCCCCCCCCCCCCCC(=O)[O-]
REMARK SMILES IDX 10 1 9 2 8 3 7 4 6 5 5 6 4 7 2 8 1 9 3 10 11 11 12 12 13 13
REMARK SMILES IDX 14 14 15 15 16 16 17 17 18 18 19 19 20 20
REMARK H PARENT
REMARK Flexibility Score: inf
ROOT
ATOM      1  C   UNL     1      10.914 -30.401  13.128  1.00  0.00     0.000 C 
ENDROOT
BRANCH   1   2
ATOM      2  C   UNL     1      10.583 -31.818  12.625  1.00  0.00     0.000 C 
BRANCH   2   3
ATOM      3  C   UNL     1       9.932 -32.693  13.708  1.00  0.00     0.000 C 
BRANCH   3   4
ATOM      4  C   UNL     1       8.633 -33.361  13.224  1.00  0.00     0.000 C 
BRANCH   4   5
ATOM      5  C   UNL     1       8.093 -34.395  14.226  1.00  0.00     0.000 C 
BRANCH   5   6
ATOM      6  C   UNL     1       6.591 -34.215  14.513  1.00  0.00     0.006 C 
BRANCH   6   7
ATOM      7  C   UNL     1       6.219 -34.644  15.939  1.00  0.00     0.053 C 
BRANCH   7   8
ATOM      8  C   UNL     1       6.618 -33.614  16.950  1.00  0.00     0.041 C 
ATOM      9  O   UNL     1       6.277 -32.412  16.797  1.00  0.00    -0.550 OA
ATOM     10  O   UNL     1       7.399 -33.974  18.040  1.00  0.00    -0.550 OA
ENDBRANCH   7   8
ENDBRANCH   6   7
ENDBRANCH   5   6
ENDBRANCH   4   5
ENDBRANCH   3   4
ENDBRANCH   2   3
ENDBRANCH   1   2
BRANCH   1  11
ATOM     11  C   UNL     1       9.967 -29.336  12.554  1.00  0.00     0.000 C 
BRANCH  11  12
ATOM     12  C   UNL     1       8.683 -29.943  11.962  1.00  0.00     0.000 C 
BRANCH  12  13
ATOM     13  C   UNL     1       7.416 -29.443  12.689  1.00  0.00     0.000 C 
BRANCH  13  14
ATOM     14  C   UNL     1       6.939 -30.380  13.812  1.00  0.00     0.000 C 
BRANCH  14  15
ATOM     15  C   UNL     1       7.007 -29.728  15.202  1.00  0.00     0.000 C 
BRANCH  15  16
ATOM     16  C   UNL     1       8.433 -29.707  15.781  1.00  0.00     0.006 C 
BRANCH  16  17
ATOM     17  C   UNL     1       8.498 -29.833  17.312  1.00  0.00     0.053 C 
BRANCH  17  18
ATOM     18  C   UNL     1       9.359 -28.773  17.927  1.00  0.00     0.041 C 
ATOM     19  O   UNL     1      10.237 -28.190  17.238  1.00  0.00    -0.550 OA
ATOM     20  O   UNL     1       9.213 -28.451  19.271  1.00  0.00    -0.550 OA
ENDBRANCH  17  18
ENDBRANCH  16  17
ENDBRANCH  15  16
ENDBRANCH  14  15
ENDBRANCH  13  14
ENDBRANCH  12  13
ENDBRANCH  11  12
ENDBRANCH   1  11
TORSDOF 15
ENDMDL
MODEL 9
REMARK VINA RESULT:    -3.179      1.484      2.344
REMARK INTER + INTRA:          -8.049
REMARK INTER:                  -6.194
REMARK INTRA:                  -1.855
REMARK UNBOUND:                -2.082
REMARK SMILES O=C([O-])CCCCCCCCCCCCCCC(=O)[O-]
REMARK SMILES IDX 10 1 9 2 8 3 7 4 6 5 5 6 4 7 2 8 1 9 3 10 11 11 12 12 13 13
REMARK SMILES IDX 14 14 15 15 16 16 17 17 18 18 19 19 20 20
REMARK H PARENT
REMARK Flexibility Score: inf
ROOT
ATOM      1  C   UNL     1       7.466 -32.475  13.619  1.00  0.00     0.000 C 
ENDROOT
BRANCH   1   2
ATOM      2  C   UNL     1       6.034 -32.524  14.179  1.00  0.00     0.000 C 
BRANCH   2   3
ATOM      3  C   UNL     1       5.979 -33.060  15.618  1.00  0.00     0.000 C 
BRANCH   3   4
ATOM      4  C   UNL     1       7.377 -33.215  16.243  1.00  0.00     0.000 C 
BRANCH   4   5
ATOM      5  C   UNL     1       7.614 -32.242  17.409  1.00  0.00     0.000 C 
BRANCH   5   6
ATOM      6  C   UNL     1       7.445 -30.768  16.996  1.00  0.00     0.006 C 
BRANCH   6   7
ATOM      7  C   UNL     1       7.492 -29.820  18.202  1.00  0.00     0.053 C 
BRANCH   7   8
ATOM      8  C   UNL     1       8.839 -29.185  18.357  1.00  0.00     0.041 C 
ATOM      9  O   UNL     1       9.458 -28.758  17.347  1.00  0.00    -0.550 OA
ATOM     10  O   UNL     1       9.430 -29.102  19.611  1.00  0.00    -0.550 OA
ENDBRANCH   7   8
ENDBRANCH   6   7
ENDBRANCH   5   6
ENDBRANCH   4   5
ENDBRANCH   3   4
ENDBRANCH   2   3
ENDBRANCH   1   2
BRANCH   1  11
ATOM     11  C   UNL     1       7.582 -33.141  12.239  1.00  0.00     0.000 C 
BRANCH  11  12
ATOM     12  C   UNL     1       8.243 -34.530  12.306  1.00  0.00     0.000 C 
BRANCH  12  13
ATOM     13  C   UNL     1       9.348 -34.595  13.382  1.00  0.00     0.000 C 
BRANCH  13  14
ATOM     14  C   UNL     1      10.725 -34.125  12.882  1.00  0.00     0.000 C 
BRANCH  14  15
ATOM     15  C   UNL     1      11.188 -32.819  13.546  1.00  0.00     0.000 C 
BRANCH  15  16
ATOM     16  C   UNL     1      11.512 -31.713  12.526  1.00  0.00     0.006 C 
BRANCH  16  17
ATOM     17  C   UNL     1      10.392 -30.678  12.334  1.00  0.00     0.053 C 
BRANCH  17  18
ATOM     18  C   UNL     1      10.342 -29.690  13.459  1.00  0.00     0.041 C 
ATOM     19  O   UNL     1       9.238 -29.368  13.971  1.00  0.00    -0.550 OA
ATOM     20  O   UNL     1      11.513 -29.101  13.921  1.00  0.00    -0.550 OA
ENDBRANCH  17  18
ENDBRANCH  16  17
ENDBRANCH  15  16
ENDBRANCH  14  15
ENDBRANCH  13  14
ENDBRANCH  12  13
ENDBRANCH  11  12
ENDBRANCH   1  11
TORSDOF 15
ENDMDL
