MODEL 1
REMARK VINA RESULT:    -5.374      0.000      0.000
REMARK INTER + INTRA:         -14.525
REMARK INTER:                 -11.657
REMARK INTRA:                  -2.868
REMARK UNBOUND:                -2.868
REMARK SMILES CCCCCCCCCCCCCCCCCCCCCC(=O)[O-]
REMARK SMILES IDX 12 1 11 2 10 3 9 4 8 5 7 6 6 7 5 8 4 9 3 10 2 11 1 12 13 13
REMARK SMILES IDX 14 14 15 15 16 16 17 17 18 18 19 19 20 20 21 21 22 22 23 23
REMARK SMILES IDX 24 24
REMARK H PARENT
REMARK Flexibility Score: inf
ROOT
ATOM      1  C   UNL     1     160.267 159.009 153.396  1.00  0.00     0.000 C 
ENDROOT
BRANCH   1   2
ATOM      2  C   UNL     1     159.504 160.324 153.633  1.00  0.00     0.000 C 
BRANCH   2   3
ATOM      3  C   UNL     1     158.615 160.721 152.446  1.00  0.00     0.000 C 
BRANCH   3   4
ATOM      4  C   UNL     1     158.575 162.242 152.216  1.00  0.00    -0.000 C 
BRANCH   4   5
ATOM      5  C   UNL     1     158.628 162.609 150.723  1.00  0.00    -0.000 C 
BRANCH   5   6
ATOM      6  C   UNL     1     158.892 161.389 149.823  1.00  0.00    -0.000 C 
BRANCH   6   7
ATOM      7  C   UNL     1     159.879 161.706 148.680  1.00  0.00    -0.000 C 
BRANCH   7   8
ATOM      8  C   UNL     1     161.128 162.483 149.134  1.00  0.00    -0.000 C 
BRANCH   8   9
ATOM      9  C   UNL     1     162.037 161.664 150.065  1.00  0.00    -0.000 C 
BRANCH   9  10
ATOM     10  C   UNL     1     163.447 162.279 150.193  1.00  0.00    -0.000 C 
BRANCH  10  11
ATOM     11  C   UNL     1     163.502 163.774 149.838  1.00  0.00    -0.003 C 
ATOM     12  C   UNL     1     164.927 164.295 149.658  1.00  0.00     0.004 C 
ENDBRANCH  10  11
ENDBRANCH   9  10
ENDBRANCH   8   9
ENDBRANCH   7   8
ENDBRANCH   6   7
ENDBRANCH   5   6
ENDBRANCH   4   5
ENDBRANCH   3   4
ENDBRANCH   2   3
ENDBRANCH   1   2
BRANCH   1  13
ATOM     13  C   UNL     1     160.462 158.691 151.895  1.00  0.00     0.000 C 
BRANCH  13  14
ATOM     14  C   UNL     1     160.831 157.223 151.612  1.00  0.00     0.000 C 
BRANCH  14  15
ATOM     15  C   UNL     1     160.880 156.851 150.119  1.00  0.00     0.000 C 
BRANCH  15  16
ATOM     16  C   UNL     1     160.683 158.058 149.174  1.00  0.00     0.000 C 
BRANCH  16  17
ATOM     17  C   UNL     1     159.422 157.925 148.305  1.00  0.00     0.000 C 
BRANCH  17  18
ATOM     18  C   UNL     1     158.351 157.025 148.943  1.00  0.00     0.000 C 
BRANCH  18  19
ATOM     19  C   UNL     1     157.387 157.813 149.847  1.00  0.00     0.000 C 
BRANCH  19  20
ATOM     20  C   UNL     1     156.226 156.950 150.367  1.00  0.00     0.006 C 
BRANCH  20  21
ATOM     21  C   UNL     1     156.215 155.542 149.757  1.00  0.00     0.053 C 
BRANCH  21  22
ATOM     22  C   UNL     1     155.000 154.791 150.199  1.00  0.00     0.041 C 
ATOM     23  O   UNL     1     154.095 154.507 149.371  1.00  0.00    -0.550 OA
ATOM     24  O   UNL     1     154.889 154.360 151.515  1.00  0.00    -0.550 OA
ENDBRANCH  21  22
ENDBRANCH  20  21
ENDBRANCH  19  20
ENDBRANCH  18  19
ENDBRANCH  17  18
ENDBRANCH  16  17
ENDBRANCH  15  16
ENDBRANCH  14  15
ENDBRANCH  13  14
ENDBRANCH   1  13
TORSDOF 20
ENDMDL
MODEL 2
REMARK VINA RESULT:    -5.352      4.656      8.016
REMARK INTER + INTRA:         -14.477
REMARK INTER:                 -11.641
REMARK INTRA:                  -2.836
REMARK UNBOUND:                -2.868
REMARK SMILES CCCCCCCCCCCCCCCCCCCCCC(=O)[O-]
REMARK SMILES IDX 12 1 11 2 10 3 9 4 8 5 7 6 6 7 5 8 4 9 3 10 2 11 1 12 13 13
REMARK SMILES IDX 14 14 15 15 16 16 17 17 18 18 19 19 20 20 21 21 22 22 23 23
REMARK SMILES IDX 24 24
REMARK H PARENT
REMARK Flexibility Score: inf
ROOT
ATOM      1  C   UNL     1     159.384 157.982 147.977  1.00  0.00     0.000 C 
ENDROOT
BRANCH   1   2
ATOM      2  C   UNL     1     158.109 158.100 148.832  1.00  0.00     0.000 C 
BRANCH   2   3
ATOM      3  C   UNL     1     158.406 158.396 150.309  1.00  0.00     0.000 C 
BRANCH   3   4
ATOM      4  C   UNL     1     159.723 157.760 150.789  1.00  0.00    -0.000 C 
BRANCH   4   5
ATOM      5  C   UNL     1     160.661 158.784 151.449  1.00  0.00    -0.000 C 
BRANCH   5   6
ATOM      6  C   UNL     1     160.728 158.624 152.979  1.00  0.00    -0.000 C 
BRANCH   6   7
ATOM      7  C   UNL     1     160.190 159.864 153.723  1.00  0.00    -0.000 C 
BRANCH   7   8
ATOM      8  C   UNL     1     158.694 160.135 153.478  1.00  0.00    -0.000 C 
BRANCH   8   9
ATOM      9  C   UNL     1     158.405 161.595 153.093  1.00  0.00    -0.000 C 
BRANCH   9  10
ATOM     10  C   UNL     1     158.804 161.904 151.635  1.00  0.00    -0.000 C 
BRANCH  10  11
ATOM     11  C   UNL     1     158.343 163.289 151.150  1.00  0.00    -0.003 C 
ATOM     12  C   UNL     1     157.026 163.738 151.781  1.00  0.00     0.004 C 
ENDBRANCH  10  11
ENDBRANCH   9  10
ENDBRANCH   8   9
ENDBRANCH   7   8
ENDBRANCH   6   7
ENDBRANCH   5   6
ENDBRANCH   4   5
ENDBRANCH   3   4
ENDBRANCH   2   3
ENDBRANCH   1   2
BRANCH   1  13
ATOM     13  C   UNL     1     159.584 159.189 147.031  1.00  0.00     0.000 C 
BRANCH  13  14
ATOM     14  C   UNL     1     159.404 160.555 147.717  1.00  0.00     0.000 C 
BRANCH  14  15
ATOM     15  C   UNL     1     160.663 161.089 148.424  1.00  0.00     0.000 C 
BRANCH  15  16
ATOM     16  C   UNL     1     160.761 162.632 148.431  1.00  0.00     0.000 C 
BRANCH  16  17
ATOM     17  C   UNL     1     161.749 163.152 149.488  1.00  0.00     0.000 C 
BRANCH  17  18
ATOM     18  C   UNL     1     162.684 162.055 150.021  1.00  0.00     0.000 C 
BRANCH  18  19
ATOM     19  C   UNL     1     163.999 162.626 150.580  1.00  0.00     0.000 C 
BRANCH  19  20
ATOM     20  C   UNL     1     164.690 163.586 149.599  1.00  0.00     0.006 C 
BRANCH  20  21
ATOM     21  C   UNL     1     165.450 164.714 150.309  1.00  0.00     0.053 C 
BRANCH  21  22
ATOM     22  C   UNL     1     164.491 165.683 150.924  1.00  0.00     0.041 C 
ATOM     23  O   UNL     1     164.494 165.875 152.168  1.00  0.00    -0.550 OA
ATOM     24  O   UNL     1     163.628 166.414 150.117  1.00  0.00    -0.550 OA
ENDBRANCH  21  22
ENDBRANCH  20  21
ENDBRANCH  19  20
ENDBRANCH  18  19
ENDBRANCH  17  18
ENDBRANCH  16  17
ENDBRANCH  15  16
ENDBRANCH  14  15
ENDBRANCH  13  14
ENDBRANCH   1  13
TORSDOF 20
ENDMDL
MODEL 3
REMARK VINA RESULT:    -5.245      0.736      1.574
REMARK INTER + INTRA:         -14.244
REMARK INTER:                 -11.880
REMARK INTRA:                  -2.365
REMARK UNBOUND:                -2.868
REMARK SMILES CCCCCCCCCCCCCCCCCCCCCC(=O)[O-]
REMARK SMILES IDX 12 1 11 2 10 3 9 4 8 5 7 6 6 7 5 8 4 9 3 10 2 11 1 12 13 13
REMARK SMILES IDX 14 14 15 15 16 16 17 17 18 18 19 19 20 20 21 21 22 22 23 23
REMARK SMILES IDX 24 24
REMARK H PARENT
REMARK Flexibility Score: inf
ROOT
ATOM      1  C   UNL     1     159.223 160.287 153.768  1.00  0.00     0.000 C 
ENDROOT
BRANCH   1   2
ATOM      2  C   UNL     1     158.462 160.766 152.519  1.00  0.00     0.000 C 
BRANCH   2   3
ATOM      3  C   UNL     1     158.838 162.197 152.104  1.00  0.00     0.000 C 
BRANCH   3   4
ATOM      4  C   UNL     1     158.493 162.498 150.635  1.00  0.00    -0.000 C 
BRANCH   4   5
ATOM      5  C   UNL     1     159.111 161.475 149.668  1.00  0.00    -0.000 C 
BRANCH   5   6
ATOM      6  C   UNL     1     160.283 162.058 148.859  1.00  0.00    -0.000 C 
BRANCH   6   7
ATOM      7  C   UNL     1     161.649 161.785 149.524  1.00  0.00    -0.000 C 
BRANCH   7   8
ATOM      8  C   UNL     1     162.557 163.025 149.609  1.00  0.00    -0.000 C 
BRANCH   8   9
ATOM      9  C   UNL     1     163.882 162.748 150.338  1.00  0.00    -0.000 C 
BRANCH   9  10
ATOM     10  C   UNL     1     164.486 164.027 150.956  1.00  0.00    -0.000 C 
BRANCH  10  11
ATOM     11  C   UNL     1     164.609 165.193 149.961  1.00  0.00    -0.003 C 
ATOM     12  C   UNL     1     165.607 164.921 148.837  1.00  0.00     0.004 C 
ENDBRANCH  10  11
ENDBRANCH   9  10
ENDBRANCH   8   9
ENDBRANCH   7   8
ENDBRANCH   6   7
ENDBRANCH   5   6
ENDBRANCH   4   5
ENDBRANCH   3   4
ENDBRANCH   2   3
ENDBRANCH   1   2
BRANCH   1  13
ATOM     13  C   UNL     1     160.504 159.492 153.422  1.00  0.00     0.000 C 
BRANCH  13  14
ATOM     14  C   UNL     1     160.543 158.973 151.973  1.00  0.00     0.000 C 
BRANCH  14  15
ATOM     15  C   UNL     1     160.828 157.467 151.839  1.00  0.00     0.000 C 
BRANCH  15  16
ATOM     16  C   UNL     1     160.692 156.938 150.392  1.00  0.00     0.000 C 
BRANCH  16  17
ATOM     17  C   UNL     1     160.469 158.067 149.373  1.00  0.00     0.000 C 
BRANCH  17  18
ATOM     18  C   UNL     1     159.181 157.885 148.554  1.00  0.00     0.000 C 
BRANCH  18  19
ATOM     19  C   UNL     1     157.915 157.974 149.424  1.00  0.00     0.000 C 
BRANCH  19  20
ATOM     20  C   UNL     1     157.226 156.612 149.606  1.00  0.00     0.006 C 
BRANCH  20  21
ATOM     21  C   UNL     1     155.894 156.718 150.359  1.00  0.00     0.053 C 
BRANCH  21  22
ATOM     22  C   UNL     1     155.074 155.485 150.146  1.00  0.00     0.041 C 
ATOM     23  O   UNL     1     154.058 155.520 149.403  1.00  0.00    -0.550 OA
ATOM     24  O   UNL     1     155.459 154.285 150.729  1.00  0.00    -0.550 OA
ENDBRANCH  21  22
ENDBRANCH  20  21
ENDBRANCH  19  20
ENDBRANCH  18  19
ENDBRANCH  17  18
ENDBRANCH  16  17
ENDBRANCH  15  16
ENDBRANCH  14  15
ENDBRANCH  13  14
ENDBRANCH   1  13
TORSDOF 20
ENDMDL
MODEL 4
REMARK VINA RESULT:    -5.212      0.863      1.812
REMARK INTER + INTRA:         -14.173
REMARK INTER:                 -11.615
REMARK INTRA:                  -2.558
REMARK UNBOUND:                -2.868
REMARK SMILES CCCCCCCCCCCCCCCCCCCCCC(=O)[O-]
REMARK SMILES IDX 12 1 11 2 10 3 9 4 8 5 7 6 6 7 5 8 4 9 3 10 2 11 1 12 13 13
REMARK SMILES IDX 14 14 15 15 16 16 17 17 18 18 19 19 20 20 21 21 22 22 23 23
REMARK SMILES IDX 24 24
REMARK H PARENT
REMARK Flexibility Score: inf
ROOT
ATOM      1  C   UNL     1     160.150 158.015 152.169  1.00  0.00     0.000 C 
ENDROOT
BRANCH   1   2
ATOM      2  C   UNL     1     160.861 158.925 153.187  1.00  0.00     0.000 C 
BRANCH   2   3
ATOM      3  C   UNL     1     159.947 160.025 153.744  1.00  0.00     0.000 C 
BRANCH   3   4
ATOM      4  C   UNL     1     158.784 160.368 152.797  1.00  0.00    -0.000 C 
BRANCH   4   5
ATOM      5  C   UNL     1     158.423 161.862 152.829  1.00  0.00    -0.000 C 
BRANCH   5   6
ATOM      6  C   UNL     1     158.718 162.572 151.495  1.00  0.00    -0.000 C 
BRANCH   6   7
ATOM      7  C   UNL     1     159.344 161.623 150.452  1.00  0.00    -0.000 C 
BRANCH   7   8
ATOM      8  C   UNL     1     159.758 162.323 149.145  1.00  0.00    -0.000 C 
BRANCH   8   9
ATOM      9  C   UNL     1     161.222 162.792 149.154  1.00  0.00    -0.000 C 
BRANCH   9  10
ATOM     10  C   UNL     1     162.165 161.751 149.794  1.00  0.00    -0.000 C 
BRANCH  10  11
ATOM     11  C   UNL     1     163.483 162.350 150.313  1.00  0.00    -0.003 C 
ATOM     12  C   UNL     1     163.700 163.796 149.870  1.00  0.00     0.004 C 
ENDBRANCH  10  11
ENDBRANCH   9  10
ENDBRANCH   8   9
ENDBRANCH   7   8
ENDBRANCH   6   7
ENDBRANCH   5   6
ENDBRANCH   4   5
ENDBRANCH   3   4
ENDBRANCH   2   3
ENDBRANCH   1   2
BRANCH   1  13
ATOM     13  C   UNL     1     161.098 156.972 151.532  1.00  0.00     0.000 C 
BRANCH  13  14
ATOM     14  C   UNL     1     161.101 156.991 149.993  1.00  0.00     0.000 C 
BRANCH  14  15
ATOM     15  C   UNL     1     160.644 158.320 149.366  1.00  0.00     0.000 C 
BRANCH  15  16
ATOM     16  C   UNL     1     159.445 158.169 148.401  1.00  0.00     0.000 C 
BRANCH  16  17
ATOM     17  C   UNL     1     158.096 158.152 149.138  1.00  0.00     0.000 C 
BRANCH  17  18
ATOM     18  C   UNL     1     157.574 156.729 149.394  1.00  0.00     0.000 C 
BRANCH  18  19
ATOM     19  C   UNL     1     156.335 156.714 150.306  1.00  0.00     0.000 C 
BRANCH  19  20
ATOM     20  C   UNL     1     155.172 155.905 149.709  1.00  0.00     0.006 C 
BRANCH  20  21
ATOM     21  C   UNL     1     154.438 155.061 150.758  1.00  0.00     0.053 C 
BRANCH  21  22
ATOM     22  C   UNL     1     155.203 153.810 151.052  1.00  0.00     0.041 C 
ATOM     23  O   UNL     1     155.114 153.264 152.183  1.00  0.00    -0.550 OA
ATOM     24  O   UNL     1     155.975 153.219 150.061  1.00  0.00    -0.550 OA
ENDBRANCH  21  22
ENDBRANCH  20  21
ENDBRANCH  19  20
ENDBRANCH  18  19
ENDBRANCH  17  18
ENDBRANCH  16  17
ENDBRANCH  15  16
ENDBRANCH  14  15
ENDBRANCH  13  14
ENDBRANCH   1  13
TORSDOF 20
ENDMDL
MODEL 5
REMARK VINA RESULT:    -5.194      4.267      8.258
REMARK INTER + INTRA:         -14.136
REMARK INTER:                 -11.621
REMARK INTRA:                  -2.515
REMARK UNBOUND:                -2.868
REMARK SMILES CCCCCCCCCCCCCCCCCCCCCC(=O)[O-]
REMARK SMILES IDX 12 1 11 2 10 3 9 4 8 5 7 6 6 7 5 8 4 9 3 10 2 11 1 12 13 13
REMARK SMILES IDX 14 14 15 15 16 16 17 17 18 18 19 19 20 20 21 21 22 22 23 23
REMARK SMILES IDX 24 24
REMARK H PARENT
REMARK Flexibility Score: inf
ROOT
ATOM      1  C   UNL     1     160.851 159.092 153.039  1.00  0.00     0.000 C 
ENDROOT
BRANCH   1   2
ATOM      2  C   UNL     1     159.997 158.291 152.040  1.00  0.00     0.000 C 
BRANCH   2   3
ATOM      3  C   UNL     1     160.734 157.072 151.467  1.00  0.00     0.000 C 
BRANCH   3   4
ATOM      4  C   UNL     1     161.094 157.240 149.980  1.00  0.00    -0.000 C 
BRANCH   4   5
ATOM      5  C   UNL     1     160.407 158.462 149.347  1.00  0.00    -0.000 C 
BRANCH   5   6
ATOM      6  C   UNL     1     159.147 158.084 148.548  1.00  0.00    -0.000 C 
BRANCH   6   7
ATOM      7  C   UNL     1     158.968 156.556 148.422  1.00  0.00    -0.000 C 
BRANCH   7   8
ATOM      8  C   UNL     1     157.769 156.003 149.212  1.00  0.00    -0.000 C 
BRANCH   8   9
ATOM      9  C   UNL     1     156.972 157.100 149.937  1.00  0.00    -0.000 C 
BRANCH   9  10
ATOM     10  C   UNL     1     155.573 156.615 150.373  1.00  0.00    -0.000 C 
BRANCH  10  11
ATOM     11  C   UNL     1     155.324 155.124 150.095  1.00  0.00    -0.003 C 
ATOM     12  C   UNL     1     154.014 154.862 149.354  1.00  0.00     0.004 C 
ENDBRANCH  10  11
ENDBRANCH   9  10
ENDBRANCH   8   9
ENDBRANCH   7   8
ENDBRANCH   6   7
ENDBRANCH   5   6
ENDBRANCH   4   5
ENDBRANCH   3   4
ENDBRANCH   2   3
ENDBRANCH   1   2
BRANCH   1  13
ATOM     13  C   UNL     1     160.102 160.312 153.625  1.00  0.00     0.000 C 
BRANCH  13  14
ATOM     14  C   UNL     1     158.614 160.376 153.235  1.00  0.00     0.000 C 
BRANCH  14  15
ATOM     15  C   UNL     1     158.197 161.665 152.506  1.00  0.00     0.000 C 
BRANCH  15  16
ATOM     16  C   UNL     1     159.276 162.206 151.540  1.00  0.00     0.000 C 
BRANCH  16  17
ATOM     17  C   UNL     1     158.944 161.915 150.067  1.00  0.00     0.000 C 
BRANCH  17  18
ATOM     18  C   UNL     1     160.100 162.263 149.116  1.00  0.00     0.000 C 
BRANCH  18  19
ATOM     19  C   UNL     1     161.474 161.896 149.703  1.00  0.00     0.000 C 
BRANCH  19  20
ATOM     20  C   UNL     1     162.497 163.035 149.570  1.00  0.00     0.006 C 
BRANCH  20  21
ATOM     21  C   UNL     1     163.821 162.728 150.281  1.00  0.00     0.053 C 
BRANCH  21  22
ATOM     22  C   UNL     1     164.707 163.932 150.279  1.00  0.00     0.041 C 
ATOM     23  O   UNL     1     164.750 164.689 151.284  1.00  0.00    -0.550 OA
ATOM     24  O   UNL     1     165.524 164.193 149.186  1.00  0.00    -0.550 OA
ENDBRANCH  21  22
ENDBRANCH  20  21
ENDBRANCH  19  20
ENDBRANCH  18  19
ENDBRANCH  17  18
ENDBRANCH  16  17
ENDBRANCH  15  16
ENDBRANCH  14  15
ENDBRANCH  13  14
ENDBRANCH   1  13
TORSDOF 20
ENDMDL
MODEL 6
REMARK VINA RESULT:    -5.186      4.360      8.698
REMARK INTER + INTRA:         -14.118
REMARK INTER:                 -12.006
REMARK INTRA:                  -2.112
REMARK UNBOUND:                -2.868
REMARK SMILES CCCCCCCCCCCCCCCCCCCCCC(=O)[O-]
REMARK SMILES IDX 12 1 11 2 10 3 9 4 8 5 7 6 6 7 5 8 4 9 3 10 2 11 1 12 13 13
REMARK SMILES IDX 14 14 15 15 16 16 17 17 18 18 19 19 20 20 21 21 22 22 23 23
REMARK SMILES IDX 24 24
REMARK H PARENT
REMARK Flexibility Score: inf
ROOT
ATOM      1  C   UNL     1     160.550 159.980 151.928  1.00  0.00     0.000 C 
ENDROOT
BRANCH   1   2
ATOM      2  C   UNL     1     160.760 158.577 152.527  1.00  0.00     0.000 C 
BRANCH   2   3
ATOM      3  C   UNL     1     160.410 157.450 151.544  1.00  0.00     0.000 C 
BRANCH   3   4
ATOM      4  C   UNL     1     160.711 157.824 150.081  1.00  0.00    -0.000 C 
BRANCH   4   5
ATOM      5  C   UNL     1     159.589 157.390 149.124  1.00  0.00    -0.000 C 
BRANCH   5   6
ATOM      6  C   UNL     1     158.186 157.597 149.724  1.00  0.00    -0.000 C 
BRANCH   6   7
ATOM      7  C   UNL     1     157.281 156.361 149.542  1.00  0.00    -0.000 C 
BRANCH   7   8
ATOM      8  C   UNL     1     155.898 156.501 150.203  1.00  0.00    -0.000 C 
BRANCH   8   9
ATOM      9  C   UNL     1     154.872 155.489 149.667  1.00  0.00    -0.000 C 
BRANCH   9  10
ATOM     10  C   UNL     1     154.251 154.635 150.793  1.00  0.00    -0.000 C 
BRANCH  10  11
ATOM     11  C   UNL     1     155.191 153.541 151.326  1.00  0.00    -0.003 C 
ATOM     12  C   UNL     1     155.983 152.840 150.224  1.00  0.00     0.004 C 
ENDBRANCH  10  11
ENDBRANCH   9  10
ENDBRANCH   8   9
ENDBRANCH   7   8
ENDBRANCH   6   7
ENDBRANCH   5   6
ENDBRANCH   4   5
ENDBRANCH   3   4
ENDBRANCH   2   3
ENDBRANCH   1   2
BRANCH   1  13
ATOM     13  C   UNL     1     159.088 160.468 152.044  1.00  0.00     0.000 C 
BRANCH  13  14
ATOM     14  C   UNL     1     158.902 161.962 151.720  1.00  0.00     0.000 C 
BRANCH  14  15
ATOM     15  C   UNL     1     158.597 162.265 150.242  1.00  0.00     0.000 C 
BRANCH  15  16
ATOM     16  C   UNL     1     158.654 161.017 149.331  1.00  0.00     0.000 C 
BRANCH  16  17
ATOM     17  C   UNL     1     159.711 161.147 148.222  1.00  0.00     0.000 C 
BRANCH  17  18
ATOM     18  C   UNL     1     160.641 162.354 148.424  1.00  0.00     0.000 C 
BRANCH  18  19
ATOM     19  C   UNL     1     161.814 162.039 149.368  1.00  0.00     0.000 C 
BRANCH  19  20
ATOM     20  C   UNL     1     162.643 163.286 149.718  1.00  0.00     0.006 C 
BRANCH  20  21
ATOM     21  C   UNL     1     164.088 162.948 150.104  1.00  0.00     0.053 C 
BRANCH  21  22
ATOM     22  C   UNL     1     164.847 164.194 150.432  1.00  0.00     0.041 C 
ATOM     23  O   UNL     1     164.830 164.656 151.603  1.00  0.00    -0.550 OA
ATOM     24  O   UNL     1     165.613 164.819 149.456  1.00  0.00    -0.550 OA
ENDBRANCH  21  22
ENDBRANCH  20  21
ENDBRANCH  19  20
ENDBRANCH  18  19
ENDBRANCH  17  18
ENDBRANCH  16  17
ENDBRANCH  15  16
ENDBRANCH  14  15
ENDBRANCH  13  14
ENDBRANCH   1  13
TORSDOF 20
ENDMDL
MODEL 7
REMARK VINA RESULT:    -5.094      2.910      7.866
REMARK INTER + INTRA:         -13.918
REMARK INTER:                 -11.337
REMARK INTRA:                  -2.581
REMARK UNBOUND:                -2.868
REMARK SMILES CCCCCCCCCCCCCCCCCCCCCC(=O)[O-]
REMARK SMILES IDX 12 1 11 2 10 3 9 4 8 5 7 6 6 7 5 8 4 9 3 10 2 11 1 12 13 13
REMARK SMILES IDX 14 14 15 15 16 16 17 17 18 18 19 19 20 20 21 21 22 22 23 23
REMARK SMILES IDX 24 24
REMARK H PARENT
REMARK Flexibility Score: inf
ROOT
ATOM      1  C   UNL     1     160.356 158.535 148.970  1.00  0.00     0.000 C 
ENDROOT
BRANCH   1   2
ATOM      2  C   UNL     1     160.039 157.071 149.324  1.00  0.00     0.000 C 
BRANCH   2   3
ATOM      3  C   UNL     1     158.896 156.487 148.480  1.00  0.00     0.000 C 
BRANCH   3   4
ATOM      4  C   UNL     1     157.713 156.003 149.338  1.00  0.00    -0.000 C 
BRANCH   4   5
ATOM      5  C   UNL     1     156.927 157.167 149.962  1.00  0.00    -0.000 C 
BRANCH   5   6
ATOM      6  C   UNL     1     155.610 156.710 150.615  1.00  0.00    -0.000 C 
BRANCH   6   7
ATOM      7  C   UNL     1     154.600 156.167 149.583  1.00  0.00    -0.000 C 
BRANCH   7   8
ATOM      8  C   UNL     1     154.239 154.685 149.787  1.00  0.00    -0.000 C 
BRANCH   8   9
ATOM      9  C   UNL     1     154.584 154.172 151.195  1.00  0.00    -0.000 C 
BRANCH   9  10
ATOM     10  C   UNL     1     155.648 153.056 151.165  1.00  0.00    -0.000 C 
BRANCH  10  11
ATOM     11  C   UNL     1     156.100 152.672 149.746  1.00  0.00    -0.003 C 
ATOM     12  C   UNL     1     156.691 151.266 149.664  1.00  0.00     0.004 C 
ENDBRANCH  10  11
ENDBRANCH   9  10
ENDBRANCH   8   9
ENDBRANCH   7   8
ENDBRANCH   6   7
ENDBRANCH   5   6
ENDBRANCH   4   5
ENDBRANCH   3   4
ENDBRANCH   2   3
ENDBRANCH   1   2
BRANCH   1  13
ATOM     13  C   UNL     1     159.778 158.960 147.600  1.00  0.00     0.000 C 
BRANCH  13  14
ATOM     14  C   UNL     1     159.447 160.460 147.501  1.00  0.00     0.000 C 
BRANCH  14  15
ATOM     15  C   UNL     1     160.553 161.397 148.020  1.00  0.00     0.000 C 
BRANCH  15  16
ATOM     16  C   UNL     1     160.055 162.419 149.068  1.00  0.00     0.000 C 
BRANCH  16  17
ATOM     17  C   UNL     1     160.251 161.923 150.510  1.00  0.00     0.000 C 
BRANCH  17  18
ATOM     18  C   UNL     1     158.941 161.452 151.162  1.00  0.00     0.000 C 
BRANCH  18  19
ATOM     19  C   UNL     1     159.113 160.136 151.940  1.00  0.00     0.000 C 
BRANCH  19  20
ATOM     20  C   UNL     1     160.570 159.883 152.360  1.00  0.00     0.006 C 
BRANCH  20  21
ATOM     21  C   UNL     1     160.682 159.207 153.732  1.00  0.00     0.053 C 
BRANCH  21  22
ATOM     22  C   UNL     1     161.489 157.952 153.631  1.00  0.00     0.041 C 
ATOM     23  O   UNL     1     161.338 157.178 152.649  1.00  0.00    -0.550 OA
ATOM     24  O   UNL     1     162.445 157.660 154.596  1.00  0.00    -0.550 OA
ENDBRANCH  21  22
ENDBRANCH  20  21
ENDBRANCH  19  20
ENDBRANCH  18  19
ENDBRANCH  17  18
ENDBRANCH  16  17
ENDBRANCH  15  16
ENDBRANCH  14  15
ENDBRANCH  13  14
ENDBRANCH   1  13
TORSDOF 20
ENDMDL
MODEL 8
REMARK VINA RESULT:    -5.082      2.040      4.417
REMARK INTER + INTRA:         -13.891
REMARK INTER:                 -11.366
REMARK INTRA:                  -2.524
REMARK UNBOUND:                -2.868
REMARK SMILES CCCCCCCCCCCCCCCCCCCCCC(=O)[O-]
REMARK SMILES IDX 12 1 11 2 10 3 9 4 8 5 7 6 6 7 5 8 4 9 3 10 2 11 1 12 13 13
REMARK SMILES IDX 14 14 15 15 16 16 17 17 18 18 19 19 20 20 21 21 22 22 23 23
REMARK SMILES IDX 24 24
REMARK H PARENT
REMARK Flexibility Score: inf
ROOT
ATOM      1  C   UNL     1     159.514 159.252 147.134  1.00  0.00     0.000 C 
ENDROOT
BRANCH   1   2
ATOM      2  C   UNL     1     160.285 160.527 147.522  1.00  0.00     0.000 C 
BRANCH   2   3
ATOM      3  C   UNL     1     161.030 160.391 148.858  1.00  0.00     0.000 C 
BRANCH   3   4
ATOM      4  C   UNL     1     161.303 161.750 149.527  1.00  0.00    -0.000 C 
BRANCH   4   5
ATOM      5  C   UNL     1     160.052 162.643 149.570  1.00  0.00    -0.000 C 
BRANCH   5   6
ATOM      6  C   UNL     1     158.871 161.971 150.294  1.00  0.00    -0.000 C 
BRANCH   6   7
ATOM      7  C   UNL     1     158.906 162.207 151.818  1.00  0.00    -0.000 C 
BRANCH   7   8
ATOM      8  C   UNL     1     158.842 160.913 152.649  1.00  0.00    -0.000 C 
BRANCH   8   9
ATOM      9  C   UNL     1     158.962 159.644 151.790  1.00  0.00    -0.000 C 
BRANCH   9  10
ATOM     10  C   UNL     1     160.152 158.759 152.217  1.00  0.00    -0.000 C 
BRANCH  10  11
ATOM     11  C   UNL     1     161.131 159.462 153.172  1.00  0.00    -0.003 C 
ATOM     12  C   UNL     1     161.841 158.497 154.120  1.00  0.00     0.004 C 
ENDBRANCH  10  11
ENDBRANCH   9  10
ENDBRANCH   8   9
ENDBRANCH   7   8
ENDBRANCH   6   7
ENDBRANCH   5   6
ENDBRANCH   4   5
ENDBRANCH   3   4
ENDBRANCH   2   3
ENDBRANCH   1   2
BRANCH   1  13
ATOM     13  C   UNL     1     158.866 158.551 148.350  1.00  0.00     0.000 C 
BRANCH  13  14
ATOM     14  C   UNL     1     159.046 157.022 148.357  1.00  0.00     0.000 C 
BRANCH  14  15
ATOM     15  C   UNL     1     157.961 156.251 149.129  1.00  0.00     0.000 C 
BRANCH  15  16
ATOM     16  C   UNL     1     157.166 157.131 150.122  1.00  0.00     0.000 C 
BRANCH  16  17
ATOM     17  C   UNL     1     155.654 156.860 150.065  1.00  0.00     0.000 C 
BRANCH  17  18
ATOM     18  C   UNL     1     155.320 155.369 149.897  1.00  0.00     0.000 C 
BRANCH  18  19
ATOM     19  C   UNL     1     155.010 154.682 151.238  1.00  0.00     0.000 C 
BRANCH  19  20
ATOM     20  C   UNL     1     155.452 153.211 151.265  1.00  0.00     0.006 C 
BRANCH  20  21
ATOM     21  C   UNL     1     156.197 152.793 149.992  1.00  0.00     0.053 C 
BRANCH  21  22
ATOM     22  C   UNL     1     157.028 151.575 150.247  1.00  0.00     0.041 C 
ATOM     23  O   UNL     1     157.220 150.735 149.329  1.00  0.00    -0.550 OA
ATOM     24  O   UNL     1     157.630 151.392 151.485  1.00  0.00    -0.550 OA
ENDBRANCH  21  22
ENDBRANCH  20  21
ENDBRANCH  19  20
ENDBRANCH  18  19
ENDBRANCH  17  18
ENDBRANCH  16  17
ENDBRANCH  15  16
ENDBRANCH  14  15
ENDBRANCH  13  14
ENDBRANCH   1  13
TORSDOF 20
ENDMDL
MODEL 9
REMARK VINA RESULT:    -5.003      4.834      8.854
REMARK INTER + INTRA:         -13.720
REMARK INTER:                 -11.118
REMARK INTRA:                  -2.602
REMARK UNBOUND:                -2.868
REMARK SMILES CCCCCCCCCCCCCCCCCCCCCC(=O)[O-]
REMARK SMILES IDX 12 1 11 2 10 3 9 4 8 5 7 6 6 7 5 8 4 9 3 10 2 11 1 12 13 13
REMARK SMILES IDX 14 14 15 15 16 16 17 17 18 18 19 19 20 20 21 21 22 22 23 23
REMARK SMILES IDX 24 24
REMARK H PARENT
REMARK Flexibility Score: inf
ROOT
ATOM      1  C   UNL     1     158.838 161.336 149.694  1.00  0.00     0.000 C 
ENDROOT
BRANCH   1   2
ATOM      2  C   UNL     1     158.689 162.449 150.746  1.00  0.00     0.000 C 
BRANCH   2   3
ATOM      3  C   UNL     1     158.822 161.931 152.186  1.00  0.00     0.000 C 
BRANCH   3   4
ATOM      4  C   UNL     1     158.924 160.397 152.258  1.00  0.00    -0.000 C 
BRANCH   4   5
ATOM      5  C   UNL     1     160.245 159.928 152.890  1.00  0.00    -0.000 C 
BRANCH   5   6
ATOM      6  C   UNL     1     160.827 158.686 152.191  1.00  0.00    -0.000 C 
BRANCH   6   7
ATOM      7  C   UNL     1     159.820 158.030 151.223  1.00  0.00    -0.000 C 
BRANCH   7   8
ATOM      8  C   UNL     1     160.430 157.633 149.867  1.00  0.00    -0.000 C 
BRANCH   8   9
ATOM      9  C   UNL     1     159.409 157.667 148.718  1.00  0.00    -0.000 C 
BRANCH   9  10
ATOM     10  C   UNL     1     157.957 157.775 149.230  1.00  0.00    -0.000 C 
BRANCH  10  11
ATOM     11  C   UNL     1     157.319 156.416 149.561  1.00  0.00    -0.003 C 
ATOM     12  C   UNL     1     155.883 156.536 150.071  1.00  0.00     0.004 C 
ENDBRANCH  10  11
ENDBRANCH   9  10
ENDBRANCH   8   9
ENDBRANCH   7   8
ENDBRANCH   6   7
ENDBRANCH   5   6
ENDBRANCH   4   5
ENDBRANCH   3   4
ENDBRANCH   2   3
ENDBRANCH   1   2
BRANCH   1  13
ATOM     13  C   UNL     1     160.228 161.335 149.015  1.00  0.00     0.000 C 
BRANCH  13  14
ATOM     14  C   UNL     1     160.692 162.725 148.544  1.00  0.00     0.000 C 
BRANCH  14  15
ATOM     15  C   UNL     1     161.884 163.303 149.328  1.00  0.00     0.000 C 
BRANCH  15  16
ATOM     16  C   UNL     1     162.683 162.238 150.113  1.00  0.00     0.000 C 
BRANCH  16  17
ATOM     17  C   UNL     1     164.188 162.549 150.160  1.00  0.00     0.000 C 
BRANCH  17  18
ATOM     18  C   UNL     1     164.514 163.983 149.710  1.00  0.00     0.000 C 
BRANCH  18  19
ATOM     19  C   UNL     1     165.232 164.792 150.804  1.00  0.00     0.000 C 
BRANCH  19  20
ATOM     20  C   UNL     1     164.389 165.970 151.317  1.00  0.00     0.006 C 
BRANCH  20  21
ATOM     21  C   UNL     1     163.509 166.589 150.224  1.00  0.00     0.053 C 
BRANCH  21  22
ATOM     22  C   UNL     1     162.894 167.864 150.708  1.00  0.00     0.041 C 
ATOM     23  O   UNL     1     163.596 168.717 151.312  1.00  0.00    -0.550 OA
ATOM     24  O   UNL     1     161.556 168.132 150.450  1.00  0.00    -0.550 OA
ENDBRANCH  21  22
ENDBRANCH  20  21
ENDBRANCH  19  20
ENDBRANCH  18  19
ENDBRANCH  17  18
ENDBRANCH  16  17
ENDBRANCH  15  16
ENDBRANCH  14  15
ENDBRANCH  13  14
ENDBRANCH   1  13
TORSDOF 20
ENDMDL
