MODEL 1
REMARK VINA RESULT:    -4.823      0.000      0.000
REMARK INTER + INTRA:          -6.071
REMARK INTER:                  -6.797
REMARK INTRA:                   0.726
REMARK UNBOUND:                 0.726
REMARK SMILES CC1=CCC(=C(C)C)C(=O)CC(C)=CCC1
REMARK SMILES IDX 12 1 14 2 13 3 15 4 16 5 2 6 1 7 3 8 11 10 9 11 10 12 5 13
REMARK SMILES IDX 6 14 7 15 8 16 4 17
REMARK H PARENT
REMARK Flexibility Score: 60.00
ROOT
ATOM      1  C   UNL     1     108.159  49.600  64.464  1.00  0.00    -0.070 C 
ATOM      2  C   UNL     1     108.024  48.570  65.340  1.00  0.00    -0.027 C 
ATOM      3  C   UNL     1     106.894  50.174  63.872  1.00  0.00     0.039 C 
ENDROOT
BRANCH   2   4
ATOM      4  C   UNL     1     109.148  47.783  65.970  1.00  0.00     0.032 C 
BRANCH   4   5
ATOM      5  C   UNL     1     110.191  47.297  64.956  1.00  0.00     0.034 C 
BRANCH   5   6
ATOM      6  C   UNL     1     109.545  46.378  63.938  1.00  0.00    -0.077 C 
ATOM      7  C   UNL     1     108.766  45.190  64.440  1.00  0.00     0.039 C 
ATOM      8  C   UNL     1     109.565  46.612  62.604  1.00  0.00    -0.023 CG0
ATOM      9  G   UNL     1     110.301  47.737  61.917  1.00  0.00     0.000 G0
ENDBRANCH   5   6
ENDBRANCH   4   5
ENDBRANCH   2   4
BRANCH   1  10
ATOM     10  C   UNL     1     109.488  50.258  64.105  1.00  0.00     0.111 C 
BRANCH  10  11
ATOM     11  C   UNL     1     109.828  50.191  62.637  1.00  0.00     0.163 C 
ATOM     12  O   UNL     1     110.481  51.151  62.145  1.00  0.00    -0.294 OA
BRANCH  11  13
ATOM     13  C   UNL     1     109.475  49.013  61.776  1.00  0.00    -0.002 C 
ATOM     14  C   UNL     1     108.402  49.064  60.927  1.00  0.00    -0.069 C 
ATOM     15  C   UNL     1     107.967  47.859  60.121  1.00  0.00     0.039 C 
ATOM     16  C   UNL     1     107.620  50.341  60.708  1.00  0.00     0.039 C 
BRANCH  13  17
ATOM     17  C   UNL     1     110.302  47.735  61.905  1.00  0.00     0.066 CG0
ATOM     18  G   UNL     1     109.544  46.633  62.607  1.00  0.00     0.000 G0
ENDBRANCH  13  17
ENDBRANCH  11  13
ENDBRANCH  10  11
ENDBRANCH   1  10
TORSDOF 0
ENDMDL
MODEL 2
REMARK VINA RESULT:    -4.368      1.575      3.139
REMARK INTER + INTRA:          -5.429
REMARK INTER:                  -5.862
REMARK INTRA:                   0.433
REMARK UNBOUND:                 0.726
REMARK SMILES CC1=CCC(=C(C)C)C(=O)CC(C)=CCC1
REMARK SMILES IDX 12 1 14 2 13 3 15 4 16 5 2 6 1 7 3 8 11 10 9 11 10 12 5 13
REMARK SMILES IDX 6 14 7 15 8 16 4 17
REMARK H PARENT
REMARK Flexibility Score: 60.00
ROOT
ATOM      1  C   UNL     1     109.285  47.936  61.303  1.00  0.00    -0.070 C 
ATOM      2  C   UNL     1     109.067  46.824  62.053  1.00  0.00    -0.027 C 
ATOM      3  C   UNL     1     108.534  48.048  59.999  1.00  0.00     0.039 C 
ENDROOT
BRANCH   2   4
ATOM      4  C   UNL     1     109.780  46.458  63.332  1.00  0.00     0.032 C 
BRANCH   4   5
ATOM      5  C   UNL     1     108.844  46.371  64.546  1.00  0.00     0.034 C 
BRANCH   5   6
ATOM      6  C   UNL     1     109.006  47.597  65.421  1.00  0.00    -0.077 C 
ATOM      7  C   UNL     1     109.935  47.513  66.605  1.00  0.00     0.039 C 
ATOM      8  C   UNL     1     108.420  48.788  65.153  1.00  0.00    -0.023 CG0
ATOM      9  G   UNL     1     107.451  49.060  64.027  1.00  0.00     0.000 G0
ENDBRANCH   5   6
ENDBRANCH   4   5
ENDBRANCH   2   4
BRANCH   1  10
ATOM     10  C   UNL     1     110.171  49.103  61.729  1.00  0.00     0.111 C 
BRANCH  10  11
ATOM     11  C   UNL     1     109.537  50.013  62.751  1.00  0.00     0.163 C 
ATOM     12  O   UNL     1     110.294  50.807  63.375  1.00  0.00    -0.294 OA
BRANCH  11  13
ATOM     13  C   UNL     1     108.058  50.045  63.002  1.00  0.00    -0.002 C 
ATOM     14  C   UNL     1     107.261  50.959  62.365  1.00  0.00    -0.069 C 
ATOM     15  C   UNL     1     105.783  51.077  62.671  1.00  0.00     0.039 C 
ATOM     16  C   UNL     1     107.800  51.869  61.283  1.00  0.00     0.039 C 
BRANCH  13  17
ATOM     17  C   UNL     1     107.464  49.076  64.023  1.00  0.00     0.066 CG0
ATOM     18  G   UNL     1     108.417  48.790  65.159  1.00  0.00     0.000 G0
ENDBRANCH  13  17
ENDBRANCH  11  13
ENDBRANCH  10  11
ENDBRANCH   1  10
TORSDOF 0
ENDMDL
MODEL 3
REMARK VINA RESULT:    -4.101      1.562      2.190
REMARK INTER + INTRA:          -5.053
REMARK INTER:                  -6.495
REMARK INTRA:                   1.442
REMARK UNBOUND:                 0.726
REMARK SMILES CC1=CCC(=C(C)C)C(=O)CC(C)=CCC1
REMARK SMILES IDX 12 1 14 2 13 3 15 4 16 5 2 6 1 7 3 8 11 10 9 11 10 12 5 13
REMARK SMILES IDX 6 14 7 15 8 16 4 17
REMARK H PARENT
REMARK Flexibility Score: 60.00
ROOT
ATOM      1  C   UNL     1     106.799  49.860  63.447  1.00  0.00    -0.070 C 
ATOM      2  C   UNL     1     107.464  49.627  64.609  1.00  0.00    -0.027 C 
ATOM      3  C   UNL     1     106.304  51.265  63.204  1.00  0.00     0.039 C 
ENDROOT
BRANCH   2   4
ATOM      4  C   UNL     1     107.955  48.287  65.101  1.00  0.00     0.032 C 
BRANCH   4   5
ATOM      5  C   UNL     1     109.461  48.078  64.894  1.00  0.00     0.034 C 
BRANCH   5   6
ATOM      6  C   UNL     1     109.704  47.090  63.771  1.00  0.00    -0.077 C 
ATOM      7  C   UNL     1     109.500  45.623  64.053  1.00  0.00     0.039 C 
ATOM      8  C   UNL     1     110.019  47.460  62.507  1.00  0.00    -0.023 CG0
ATOM      9  G   UNL     1     110.277  48.873  62.041  1.00  0.00     0.000 G0
ENDBRANCH   5   6
ENDBRANCH   4   5
ENDBRANCH   2   4
BRANCH   1  10
ATOM     10  C   UNL     1     106.594  48.822  62.348  1.00  0.00     0.111 C 
BRANCH  10  11
ATOM     11  C   UNL     1     107.749  48.711  61.385  1.00  0.00     0.163 C 
ATOM     12  O   UNL     1     107.625  47.918  60.412  1.00  0.00    -0.294 OA
BRANCH  11  13
ATOM     13  C   UNL     1     108.992  49.543  61.511  1.00  0.00    -0.002 C 
ATOM     14  C   UNL     1     108.997  50.856  61.119  1.00  0.00    -0.069 C 
ATOM     15  C   UNL     1     110.261  51.689  61.145  1.00  0.00     0.039 C 
ATOM     16  C   UNL     1     107.732  51.563  60.687  1.00  0.00     0.039 C 
BRANCH  13  17
ATOM     17  C   UNL     1     110.268  48.884  62.031  1.00  0.00     0.066 CG0
ATOM     18  G   UNL     1     110.028  47.469  62.502  1.00  0.00     0.000 G0
ENDBRANCH  13  17
ENDBRANCH  11  13
ENDBRANCH  10  11
ENDBRANCH   1  10
TORSDOF 0
ENDMDL
MODEL 4
REMARK VINA RESULT:    -3.905      2.115      3.990
REMARK INTER + INTRA:          -4.777
REMARK INTER:                  -6.191
REMARK INTRA:                   1.414
REMARK UNBOUND:                 0.726
REMARK SMILES CC1=CCC(=C(C)C)C(=O)CC(C)=CCC1
REMARK SMILES IDX 12 1 14 2 13 3 15 4 16 5 2 6 1 7 3 8 11 10 9 11 10 12 5 13
REMARK SMILES IDX 6 14 7 15 8 16 4 17
REMARK H PARENT
REMARK Flexibility Score: 60.00
ROOT
ATOM      1  C   UNL     1     109.568  47.451  63.767  1.00  0.00    -0.070 C 
ATOM      2  C   UNL     1     110.156  47.563  62.546  1.00  0.00    -0.027 C 
ATOM      3  C   UNL     1     109.088  46.081  64.179  1.00  0.00     0.039 C 
ENDROOT
BRANCH   2   4
ATOM      4  C   UNL     1     110.614  48.844  61.893  1.00  0.00     0.032 C 
BRANCH   4   5
ATOM      5  C   UNL     1     109.503  49.560  61.113  1.00  0.00     0.034 C 
BRANCH   5   6
ATOM      6  C   UNL     1     108.283  48.667  60.999  1.00  0.00    -0.077 C 
ATOM      7  C   UNL     1     108.392  47.411  60.173  1.00  0.00     0.039 C 
ATOM      8  C   UNL     1     107.126  48.897  61.663  1.00  0.00    -0.023 CG0
ATOM      9  G   UNL     1     106.827  50.103  62.522  1.00  0.00     0.000 G0
ENDBRANCH   5   6
ENDBRANCH   4   5
ENDBRANCH   2   4
BRANCH   1  10
ATOM     10  C   UNL     1     109.437  48.594  64.769  1.00  0.00     0.111 C 
BRANCH  10  11
ATOM     11  C   UNL     1     108.153  49.375  64.642  1.00  0.00     0.163 C 
ATOM     12  O   UNL     1     107.275  49.204  65.532  1.00  0.00    -0.294 OA
BRANCH  11  13
ATOM     13  C   UNL     1     107.915  50.374  63.547  1.00  0.00    -0.002 C 
ATOM     14  C   UNL     1     108.637  51.537  63.494  1.00  0.00    -0.069 C 
ATOM     15  C   UNL     1     108.351  52.604  62.459  1.00  0.00     0.039 C 
ATOM     16  C   UNL     1     109.793  51.801  64.433  1.00  0.00     0.039 C 
BRANCH  13  17
ATOM     17  C   UNL     1     106.815  50.096  62.525  1.00  0.00     0.066 CG0
ATOM     18  G   UNL     1     107.132  48.903  61.655  1.00  0.00     0.000 G0
ENDBRANCH  13  17
ENDBRANCH  11  13
ENDBRANCH  10  11
ENDBRANCH   1  10
TORSDOF 0
ENDMDL
MODEL 5
REMARK VINA RESULT:    -3.611      2.001      4.539
REMARK INTER + INTRA:          -4.363
REMARK INTER:                  -5.313
REMARK INTRA:                   0.950
REMARK UNBOUND:                 0.726
REMARK SMILES CC1=CCC(=C(C)C)C(=O)CC(C)=CCC1
REMARK SMILES IDX 12 1 14 2 13 3 15 4 16 5 2 6 1 7 3 8 11 10 9 11 10 12 5 13
REMARK SMILES IDX 6 14 7 15 8 16 4 17
REMARK H PARENT
REMARK Flexibility Score: 60.00
ROOT
ATOM      1  C   UNL     1     107.330  49.435  61.574  1.00  0.00    -0.070 C 
ATOM      2  C   UNL     1     107.212  50.783  61.457  1.00  0.00    -0.027 C 
ATOM      3  C   UNL     1     106.303  48.722  62.420  1.00  0.00     0.039 C 
ENDROOT
BRANCH   2   4
ATOM      4  C   UNL     1     108.178  51.704  60.751  1.00  0.00     0.032 C 
BRANCH   4   5
ATOM      5  C   UNL     1     109.451  51.986  61.560  1.00  0.00     0.034 C 
BRANCH   5   6
ATOM      6  C   UNL     1     109.177  51.826  63.042  1.00  0.00    -0.077 C 
ATOM      7  C   UNL     1     108.341  52.875  63.731  1.00  0.00     0.039 C 
ATOM      8  C   UNL     1     109.576  50.752  63.764  1.00  0.00    -0.023 CG0
ATOM      9  G   UNL     1     110.427  49.614  63.253  1.00  0.00     0.000 G0
ENDBRANCH   5   6
ENDBRANCH   4   5
ENDBRANCH   2   4
BRANCH   1  10
ATOM     10  C   UNL     1     108.377  48.594  60.849  1.00  0.00     0.111 C 
BRANCH  10  11
ATOM     11  C   UNL     1     109.288  47.821  61.769  1.00  0.00     0.163 C 
ATOM     12  O   UNL     1     109.782  46.745  61.333  1.00  0.00    -0.294 OA
BRANCH  11  13
ATOM     13  C   UNL     1     109.665  48.311  63.136  1.00  0.00    -0.002 C 
ATOM     14  C   UNL     1     109.295  47.614  64.256  1.00  0.00    -0.069 C 
ATOM     15  C   UNL     1     109.578  48.136  65.648  1.00  0.00     0.039 C 
ATOM     16  C   UNL     1     108.627  46.260  64.166  1.00  0.00     0.039 C 
BRANCH  13  17
ATOM     17  C   UNL     1     110.422  49.632  63.259  1.00  0.00     0.066 CG0
ATOM     18  G   UNL     1     109.545  50.746  63.780  1.00  0.00     0.000 G0
ENDBRANCH  13  17
ENDBRANCH  11  13
ENDBRANCH  10  11
ENDBRANCH   1  10
TORSDOF 0
ENDMDL
MODEL 6
REMARK VINA RESULT:    -3.545      2.196      3.803
REMARK INTER + INTRA:          -4.270
REMARK INTER:                  -4.853
REMARK INTRA:                   0.583
REMARK UNBOUND:                 0.726
REMARK SMILES CC1=CCC(=C(C)C)C(=O)CC(C)=CCC1
REMARK SMILES IDX 12 1 14 2 13 3 15 4 16 5 2 6 1 7 3 8 11 10 9 11 10 12 5 13
REMARK SMILES IDX 6 14 7 15 8 16 4 17
REMARK H PARENT
REMARK Flexibility Score: 60.00
ROOT
ATOM      1  C   UNL     1     109.817  48.828  61.608  1.00  0.00    -0.070 C 
ATOM      2  C   UNL     1     110.232  47.845  62.450  1.00  0.00    -0.027 C 
ATOM      3  C   UNL     1     110.861  49.798  61.111  1.00  0.00     0.039 C 
ENDROOT
BRANCH   2   4
ATOM      4  C   UNL     1     109.349  46.836  63.144  1.00  0.00     0.032 C 
BRANCH   4   5
ATOM      5  C   UNL     1     108.093  47.456  63.770  1.00  0.00     0.034 C 
BRANCH   5   6
ATOM      6  C   UNL     1     108.481  48.492  64.806  1.00  0.00    -0.077 C 
ATOM      7  C   UNL     1     109.435  48.087  65.900  1.00  0.00     0.039 C 
ATOM      8  C   UNL     1     108.076  49.783  64.758  1.00  0.00    -0.023 CG0
ATOM      9  G   UNL     1     107.115  50.369  63.751  1.00  0.00     0.000 G0
ENDBRANCH   5   6
ENDBRANCH   4   5
ENDBRANCH   2   4
BRANCH   1  10
ATOM     10  C   UNL     1     108.393  48.964  61.076  1.00  0.00     0.111 C 
BRANCH  10  11
ATOM     11  C   UNL     1     107.800  50.339  61.257  1.00  0.00     0.163 C 
ATOM     12  O   UNL     1     107.249  50.873  60.256  1.00  0.00    -0.294 OA
BRANCH  11  13
ATOM     13  C   UNL     1     107.792  51.051  62.578  1.00  0.00    -0.002 C 
ATOM     14  C   UNL     1     108.435  52.251  62.729  1.00  0.00    -0.069 C 
ATOM     15  C   UNL     1     108.524  52.942  64.073  1.00  0.00     0.039 C 
ATOM     16  C   UNL     1     109.050  52.979  61.554  1.00  0.00     0.039 C 
BRANCH  13  17
ATOM     17  C   UNL     1     107.101  50.386  63.766  1.00  0.00     0.066 CG0
ATOM     18  G   UNL     1     108.088  49.796  64.745  1.00  0.00     0.000 G0
ENDBRANCH  13  17
ENDBRANCH  11  13
ENDBRANCH  10  11
ENDBRANCH   1  10
TORSDOF 0
ENDMDL
MODEL 7
REMARK VINA RESULT:    -3.493      1.789      3.372
REMARK INTER + INTRA:          -4.197
REMARK INTER:                  -4.960
REMARK INTRA:                   0.763
REMARK UNBOUND:                 0.726
REMARK SMILES CC1=CCC(=C(C)C)C(=O)CC(C)=CCC1
REMARK SMILES IDX 12 1 14 2 13 3 15 4 16 5 2 6 1 7 3 8 11 10 9 11 10 12 5 13
REMARK SMILES IDX 6 14 7 15 8 16 4 17
REMARK H PARENT
REMARK Flexibility Score: 60.00
ROOT
ATOM      1  C   UNL     1     107.058  49.965  61.747  1.00  0.00    -0.070 C 
ATOM      2  C   UNL     1     107.325  48.637  61.641  1.00  0.00    -0.027 C 
ATOM      3  C   UNL     1     106.282  50.419  62.959  1.00  0.00     0.039 C 
ENDROOT
BRANCH   2   4
ATOM      4  C   UNL     1     107.992  47.953  60.472  1.00  0.00     0.032 C 
BRANCH   4   5
ATOM      5  C   UNL     1     109.369  47.368  60.816  1.00  0.00     0.034 C 
BRANCH   5   6
ATOM      6  C   UNL     1     109.676  47.578  62.285  1.00  0.00    -0.077 C 
ATOM      7  C   UNL     1     109.396  46.449  63.243  1.00  0.00     0.039 C 
ATOM      8  C   UNL     1     110.263  48.698  62.771  1.00  0.00    -0.023 CG0
ATOM      9  G   UNL     1     110.604  49.933  61.971  1.00  0.00     0.000 G0
ENDBRANCH   5   6
ENDBRANCH   4   5
ENDBRANCH   2   4
BRANCH   1  10
ATOM     10  C   UNL     1     107.555  51.026  60.768  1.00  0.00     0.111 C 
BRANCH  10  11
ATOM     11  C   UNL     1     108.863  51.662  61.167  1.00  0.00     0.163 C 
ATOM     12  O   UNL     1     109.204  52.720  60.569  1.00  0.00    -0.294 OA
BRANCH  11  13
ATOM     13  C   UNL     1     109.725  51.122  62.271  1.00  0.00    -0.002 C 
ATOM     14  C   UNL     1     109.735  51.717  63.504  1.00  0.00    -0.069 C 
ATOM     15  C   UNL     1     110.666  51.253  64.604  1.00  0.00     0.039 C 
ATOM     16  C   UNL     1     108.784  52.840  63.855  1.00  0.00     0.039 C 
BRANCH  13  17
ATOM     17  C   UNL     1     110.633  49.929  61.977  1.00  0.00     0.066 CG0
ATOM     18  G   UNL     1     110.247  48.708  62.777  1.00  0.00     0.000 G0
ENDBRANCH  13  17
ENDBRANCH  11  13
ENDBRANCH  10  11
ENDBRANCH   1  10
TORSDOF 0
ENDMDL
MODEL 8
REMARK VINA RESULT:    -3.372      1.472      3.518
REMARK INTER + INTRA:          -4.026
REMARK INTER:                  -5.771
REMARK INTRA:                   1.745
REMARK UNBOUND:                 0.726
REMARK SMILES CC1=CCC(=C(C)C)C(=O)CC(C)=CCC1
REMARK SMILES IDX 12 1 14 2 13 3 15 4 16 5 2 6 1 7 3 8 11 10 9 11 10 12 5 13
REMARK SMILES IDX 6 14 7 15 8 16 4 17
REMARK H PARENT
REMARK Flexibility Score: 60.00
ROOT
ATOM      1  C   UNL     1     107.824  51.789  61.190  1.00  0.00    -0.070 C 
ATOM      2  C   UNL     1     107.066  50.680  60.988  1.00  0.00    -0.027 C 
ATOM      3  C   UNL     1     107.187  53.125  60.894  1.00  0.00     0.039 C 
ENDROOT
BRANCH   2   4
ATOM      4  C   UNL     1     107.529  49.249  61.121  1.00  0.00     0.032 C 
BRANCH   4   5
ATOM      5  C   UNL     1     109.007  49.052  60.757  1.00  0.00     0.034 C 
BRANCH   5   6
ATOM      6  C   UNL     1     109.571  47.850  61.488  1.00  0.00    -0.077 C 
ATOM      7  C   UNL     1     109.311  46.479  60.918  1.00  0.00     0.039 C 
ATOM      8  C   UNL     1     110.362  47.947  62.583  1.00  0.00    -0.023 CG0
ATOM      9  G   UNL     1     110.720  49.227  63.301  1.00  0.00     0.000 G0
ENDBRANCH   5   6
ENDBRANCH   4   5
ENDBRANCH   2   4
BRANCH   1  10
ATOM     10  C   UNL     1     109.237  51.775  61.766  1.00  0.00     0.111 C 
BRANCH  10  11
ATOM     11  C   UNL     1     109.299  51.423  63.231  1.00  0.00     0.163 C 
ATOM     12  O   UNL     1     109.155  52.360  64.063  1.00  0.00    -0.294 OA
BRANCH  11  13
ATOM     13  C   UNL     1     109.461  50.013  63.720  1.00  0.00    -0.002 C 
ATOM     14  C   UNL     1     108.536  49.454  64.561  1.00  0.00    -0.069 C 
ATOM     15  C   UNL     1     108.725  48.071  65.145  1.00  0.00     0.039 C 
ATOM     16  C   UNL     1     107.248  50.165  64.914  1.00  0.00     0.039 C 
BRANCH  13  17
ATOM     17  C   UNL     1     110.707  49.232  63.308  1.00  0.00     0.066 CG0
ATOM     18  G   UNL     1     110.365  47.944  62.598  1.00  0.00     0.000 G0
ENDBRANCH  13  17
ENDBRANCH  11  13
ENDBRANCH  10  11
ENDBRANCH   1  10
TORSDOF 0
ENDMDL
MODEL 9
REMARK VINA RESULT:    -3.358      2.210      3.582
REMARK INTER + INTRA:          -4.007
REMARK INTER:                  -4.790
REMARK INTRA:                   0.783
REMARK UNBOUND:                 0.726
REMARK SMILES CC1=CCC(=C(C)C)C(=O)CC(C)=CCC1
REMARK SMILES IDX 12 1 14 2 13 3 15 4 16 5 2 6 1 7 3 8 11 10 9 11 10 12 5 13
REMARK SMILES IDX 6 14 7 15 8 16 4 17
REMARK H PARENT
REMARK Flexibility Score: 60.00
ROOT
ATOM      1  C   UNL     1     107.930  48.464  61.117  1.00  0.00    -0.070 C 
ATOM      2  C   UNL     1     108.971  47.606  61.275  1.00  0.00    -0.027 C 
ATOM      3  C   UNL     1     107.670  48.986  59.724  1.00  0.00     0.039 C 
ENDROOT
BRANCH   2   4
ATOM      4  C   UNL     1     109.471  47.044  62.584  1.00  0.00     0.032 C 
BRANCH   4   5
ATOM      5  C   UNL     1     110.335  48.033  63.379  1.00  0.00     0.034 C 
BRANCH   5   6
ATOM      6  C   UNL     1     109.496  48.739  64.425  1.00  0.00    -0.077 C 
ATOM      7  C   UNL     1     109.118  47.978  65.671  1.00  0.00     0.039 C 
ATOM      8  C   UNL     1     109.132  50.040  64.337  1.00  0.00    -0.023 CG0
ATOM      9  G   UNL     1     109.404  50.954  63.165  1.00  0.00     0.000 G0
ENDBRANCH   5   6
ENDBRANCH   4   5
ENDBRANCH   2   4
BRANCH   1  10
ATOM     10  C   UNL     1     106.968  48.868  62.230  1.00  0.00     0.111 C 
BRANCH  10  11
ATOM     11  C   UNL     1     106.943  50.349  62.513  1.00  0.00     0.163 C 
ATOM     12  O   UNL     1     105.873  50.838  62.969  1.00  0.00    -0.294 OA
BRANCH  11  13
ATOM     13  C   UNL     1     108.145  51.229  62.330  1.00  0.00    -0.002 C 
ATOM     14  C   UNL     1     108.140  52.235  61.401  1.00  0.00    -0.069 C 
ATOM     15  C   UNL     1     109.371  53.073  61.129  1.00  0.00     0.039 C 
ATOM     16  C   UNL     1     106.892  52.599  60.628  1.00  0.00     0.039 C 
BRANCH  13  17
ATOM     17  C   UNL     1     109.395  50.947  63.162  1.00  0.00     0.066 CG0
ATOM     18  G   UNL     1     109.108  50.037  64.333  1.00  0.00     0.000 G0
ENDBRANCH  13  17
ENDBRANCH  11  13
ENDBRANCH  10  11
ENDBRANCH   1  10
TORSDOF 0
ENDMDL
