MODEL 1
REMARK VINA RESULT:    -6.396      0.000      0.000
REMARK INTER + INTRA:         -11.371
REMARK INTER:                  -9.762
REMARK INTRA:                  -1.609
REMARK UNBOUND:                -1.609
REMARK SMILES CC(=O)CCC=C(C)CCC=C(C)CCC=C(C)C
REMARK SMILES IDX 10 1 11 2 12 3 13 4 14 5 15 6 16 7 18 8 17 9 19 10 9 11 7 12
REMARK SMILES IDX 6 13 8 14 5 15 4 16 2 17 3 18 1 19
REMARK H PARENT
REMARK Flexibility Score: inf
ROOT
ATOM      1  C   UNL     1      -7.831  34.783  22.321  1.00  0.00     0.032 C 
ENDROOT
BRANCH   1   2
ATOM      2  C   UNL     1      -8.663  33.643  21.786  1.00  0.00    -0.028 C 
ATOM      3  C   UNL     1      -8.368  32.932  20.674  1.00  0.00    -0.077 C 
ATOM      4  C   UNL     1      -7.111  33.183  19.875  1.00  0.00     0.039 C 
BRANCH   3   5
ATOM      5  C   UNL     1      -9.309  31.830  20.238  1.00  0.00     0.034 C 
BRANCH   5   6
ATOM      6  C   UNL     1      -9.374  30.696  21.268  1.00  0.00     0.032 C 
BRANCH   6   7
ATOM      7  C   UNL     1      -8.026  30.472  21.915  1.00  0.00    -0.028 C 
ATOM      8  C   UNL     1      -8.909  28.875  23.634  1.00  0.00     0.039 C 
ATOM      9  C   UNL     1      -7.806  29.682  22.990  1.00  0.00    -0.080 C 
ATOM     10  C   UNL     1      -6.411  29.613  23.554  1.00  0.00     0.039 C 
ENDBRANCH   6   7
ENDBRANCH   5   6
ENDBRANCH   3   5
ENDBRANCH   1   2
BRANCH   1  11
ATOM     11  C   UNL     1      -7.322  34.504  23.743  1.00  0.00     0.034 C 
BRANCH  11  12
ATOM     12  C   UNL     1      -8.407  34.708  24.786  1.00  0.00    -0.077 C 
ATOM     13  C   UNL     1      -8.881  33.703  25.555  1.00  0.00    -0.028 C 
ATOM     14  C   UNL     1      -9.000  36.084  24.959  1.00  0.00     0.039 C 
BRANCH  13  15
ATOM     15  C   UNL     1      -8.355  32.288  25.507  1.00  0.00     0.035 C 
BRANCH  15  16
ATOM     16  C   UNL     1      -9.313  31.317  26.204  1.00  0.00     0.079 C 
BRANCH  16  17
ATOM     17  C   UNL     1      -8.565  30.412  27.146  1.00  0.00     0.130 C 
ATOM     18  O   UNL     1      -7.521  29.889  26.783  1.00  0.00    -0.300 OA
ATOM     19  C   UNL     1      -9.102  30.131  28.515  1.00  0.00     0.087 C 
ENDBRANCH  16  17
ENDBRANCH  15  16
ENDBRANCH  13  15
ENDBRANCH  11  12
ENDBRANCH   1  11
TORSDOF 9
ENDMDL
MODEL 2
REMARK VINA RESULT:    -6.305      1.467      4.935
REMARK INTER + INTRA:         -11.232
REMARK INTER:                  -9.570
REMARK INTRA:                  -1.662
REMARK UNBOUND:                -1.609
REMARK SMILES CC(=O)CCC=C(C)CCC=C(C)CCC=C(C)C
REMARK SMILES IDX 10 1 11 2 12 3 13 4 14 5 15 6 16 7 18 8 17 9 19 10 9 11 7 12
REMARK SMILES IDX 6 13 8 14 5 15 4 16 2 17 3 18 1 19
REMARK H PARENT
REMARK Flexibility Score: inf
ROOT
ATOM      1  C   UNL     1      -8.968  31.172  21.526  1.00  0.00     0.032 C 
ENDROOT
BRANCH   1   2
ATOM      2  C   UNL     1      -8.966  30.952  23.019  1.00  0.00    -0.028 C 
ATOM      3  C   UNL     1      -7.951  30.387  23.712  1.00  0.00    -0.077 C 
ATOM      4  C   UNL     1      -6.664  29.966  23.044  1.00  0.00     0.039 C 
BRANCH   3   5
ATOM      5  C   UNL     1      -8.097  30.204  25.207  1.00  0.00     0.034 C 
BRANCH   5   6
ATOM      6  C   UNL     1      -9.313  30.959  25.758  1.00  0.00     0.032 C 
BRANCH   6   7
ATOM      7  C   UNL     1      -9.833  30.305  27.018  1.00  0.00    -0.028 C 
ATOM      8  C   UNL     1      -8.606  31.859  28.555  1.00  0.00     0.039 C 
ATOM      9  C   UNL     1      -9.505  30.678  28.275  1.00  0.00    -0.080 C 
ATOM     10  C   UNL     1     -10.063  29.883  29.427  1.00  0.00     0.039 C 
ENDBRANCH   6   7
ENDBRANCH   5   6
ENDBRANCH   3   5
ENDBRANCH   1   2
BRANCH   1  11
ATOM     11  C   UNL     1      -9.242  32.639  21.163  1.00  0.00     0.034 C 
BRANCH  11  12
ATOM     12  C   UNL     1      -7.962  33.403  20.873  1.00  0.00    -0.077 C 
ATOM     13  C   UNL     1      -7.540  34.439  21.631  1.00  0.00    -0.028 C 
ATOM     14  C   UNL     1      -7.134  33.007  19.677  1.00  0.00     0.039 C 
BRANCH  13  15
ATOM     15  C   UNL     1      -8.257  34.918  22.873  1.00  0.00     0.035 C 
BRANCH  15  16
ATOM     16  C   UNL     1      -7.693  34.249  24.129  1.00  0.00     0.079 C 
BRANCH  16  17
ATOM     17  C   UNL     1      -8.182  34.946  25.371  1.00  0.00     0.130 C 
ATOM     18  O   UNL     1      -7.861  34.520  26.471  1.00  0.00    -0.300 OA
ATOM     19  C   UNL     1      -9.077  36.142  25.267  1.00  0.00     0.087 C 
ENDBRANCH  16  17
ENDBRANCH  15  16
ENDBRANCH  13  15
ENDBRANCH  11  12
ENDBRANCH   1  11
TORSDOF 9
ENDMDL
MODEL 3
REMARK VINA RESULT:    -6.173      1.530      4.667
REMARK INTER + INTRA:         -11.029
REMARK INTER:                  -9.189
REMARK INTRA:                  -1.841
REMARK UNBOUND:                -1.609
REMARK SMILES CC(=O)CCC=C(C)CCC=C(C)CCC=C(C)C
REMARK SMILES IDX 10 1 11 2 12 3 13 4 14 5 15 6 16 7 18 8 17 9 19 10 9 11 7 12
REMARK SMILES IDX 6 13 8 14 5 15 4 16 2 17 3 18 1 19
REMARK H PARENT
REMARK Flexibility Score: inf
ROOT
ATOM      1  C   UNL     1      -8.959  29.179  25.171  1.00  0.00     0.032 C 
ENDROOT
BRANCH   1   2
ATOM      2  C   UNL     1      -9.134  29.594  23.729  1.00  0.00    -0.028 C 
ATOM      3  C   UNL     1      -8.149  30.090  22.947  1.00  0.00    -0.077 C 
ATOM      4  C   UNL     1      -6.727  30.223  23.440  1.00  0.00     0.039 C 
BRANCH   3   5
ATOM      5  C   UNL     1      -8.474  30.490  21.524  1.00  0.00     0.034 C 
BRANCH   5   6
ATOM      6  C   UNL     1      -9.530  31.601  21.472  1.00  0.00     0.032 C 
BRANCH   6   7
ATOM      7  C   UNL     1      -8.947  32.926  21.906  1.00  0.00    -0.028 C 
ATOM      8  C   UNL     1      -7.439  33.126  19.913  1.00  0.00     0.039 C 
ATOM      9  C   UNL     1      -7.992  33.607  21.234  1.00  0.00    -0.080 C 
ATOM     10  C   UNL     1      -7.471  34.889  21.832  1.00  0.00     0.039 C 
ENDBRANCH   6   7
ENDBRANCH   5   6
ENDBRANCH   3   5
ENDBRANCH   1   2
BRANCH   1  11
ATOM     11  C   UNL     1     -10.070  29.744  26.068  1.00  0.00     0.034 C 
BRANCH  11  12
ATOM     12  C   UNL     1      -9.517  30.641  27.162  1.00  0.00    -0.077 C 
ATOM     13  C   UNL     1      -9.206  31.940  26.956  1.00  0.00    -0.028 C 
ATOM     14  C   UNL     1      -9.280  30.056  28.532  1.00  0.00     0.039 C 
BRANCH  13  15
ATOM     15  C   UNL     1      -9.422  32.658  25.645  1.00  0.00     0.035 C 
BRANCH  15  16
ATOM     16  C   UNL     1      -8.212  33.523  25.282  1.00  0.00     0.079 C 
BRANCH  16  17
ATOM     17  C   UNL     1      -8.424  34.949  25.715  1.00  0.00     0.130 C 
ATOM     18  O   UNL     1      -8.065  35.304  26.828  1.00  0.00    -0.300 OA
ATOM     19  C   UNL     1      -9.093  35.928  24.801  1.00  0.00     0.087 C 
ENDBRANCH  16  17
ENDBRANCH  15  16
ENDBRANCH  13  15
ENDBRANCH  11  12
ENDBRANCH   1  11
TORSDOF 9
ENDMDL
MODEL 4
REMARK VINA RESULT:    -6.164      1.493      4.671
REMARK INTER + INTRA:         -11.017
REMARK INTER:                  -9.440
REMARK INTRA:                  -1.577
REMARK UNBOUND:                -1.609
REMARK SMILES CC(=O)CCC=C(C)CCC=C(C)CCC=C(C)C
REMARK SMILES IDX 10 1 11 2 12 3 13 4 14 5 15 6 16 7 18 8 17 9 19 10 9 11 7 12
REMARK SMILES IDX 6 13 8 14 5 15 4 16 2 17 3 18 1 19
REMARK H PARENT
REMARK Flexibility Score: inf
ROOT
ATOM      1  C   UNL     1      -8.234  33.287  27.197  1.00  0.00     0.032 C 
ENDROOT
BRANCH   1   2
ATOM      2  C   UNL     1      -8.266  33.541  25.709  1.00  0.00    -0.028 C 
ATOM      3  C   UNL     1      -8.438  34.757  25.141  1.00  0.00    -0.077 C 
ATOM      4  C   UNL     1      -8.558  36.016  25.967  1.00  0.00     0.039 C 
BRANCH   3   5
ATOM      5  C   UNL     1      -8.477  34.861  23.632  1.00  0.00     0.034 C 
BRANCH   5   6
ATOM      6  C   UNL     1      -7.643  33.762  22.963  1.00  0.00     0.032 C 
BRANCH   6   7
ATOM      7  C   UNL     1      -8.529  32.760  22.258  1.00  0.00    -0.028 C 
ATOM      8  C   UNL     1      -7.519  33.173  20.002  1.00  0.00     0.039 C 
ATOM      9  C   UNL     1      -8.505  32.505  20.931  1.00  0.00    -0.080 C 
ATOM     10  C   UNL     1      -9.498  31.518  20.373  1.00  0.00     0.039 C 
ENDBRANCH   6   7
ENDBRANCH   5   6
ENDBRANCH   3   5
ENDBRANCH   1   2
BRANCH   1  11
ATOM     11  C   UNL     1      -7.594  31.931  27.533  1.00  0.00     0.034 C 
BRANCH  11  12
ATOM     12  C   UNL     1      -8.635  30.882  27.881  1.00  0.00    -0.077 C 
ATOM     13  C   UNL     1      -8.878  29.806  27.100  1.00  0.00    -0.028 C 
ATOM     14  C   UNL     1      -9.450  31.054  29.138  1.00  0.00     0.039 C 
BRANCH  13  15
ATOM     15  C   UNL     1      -8.115  29.496  25.834  1.00  0.00     0.035 C 
BRANCH  15  16
ATOM     16  C   UNL     1      -9.029  29.559  24.607  1.00  0.00     0.079 C 
BRANCH  16  17
ATOM     17  C   UNL     1      -8.242  29.346  23.342  1.00  0.00     0.130 C 
ATOM     18  O   UNL     1      -8.795  28.886  22.354  1.00  0.00    -0.300 OA
ATOM     19  C   UNL     1      -6.781  29.671  23.293  1.00  0.00     0.087 C 
ENDBRANCH  16  17
ENDBRANCH  15  16
ENDBRANCH  13  15
ENDBRANCH  11  12
ENDBRANCH   1  11
TORSDOF 9
ENDMDL
MODEL 5
REMARK VINA RESULT:    -6.157      1.089      4.753
REMARK INTER + INTRA:         -11.006
REMARK INTER:                  -9.466
REMARK INTRA:                  -1.539
REMARK UNBOUND:                -1.609
REMARK SMILES CC(=O)CCC=C(C)CCC=C(C)CCC=C(C)C
REMARK SMILES IDX 10 1 11 2 12 3 13 4 14 5 15 6 16 7 18 8 17 9 19 10 9 11 7 12
REMARK SMILES IDX 6 13 8 14 5 15 4 16 2 17 3 18 1 19
REMARK H PARENT
REMARK Flexibility Score: inf
ROOT
ATOM      1  C   UNL     1      -7.584  34.537  22.814  1.00  0.00     0.032 C 
ENDROOT
BRANCH   1   2
ATOM      2  C   UNL     1      -7.848  33.726  24.060  1.00  0.00    -0.028 C 
ATOM      3  C   UNL     1      -8.310  34.236  25.224  1.00  0.00    -0.077 C 
ATOM      4  C   UNL     1      -8.673  35.695  25.371  1.00  0.00     0.039 C 
BRANCH   3   5
ATOM      5  C   UNL     1      -8.504  33.308  26.405  1.00  0.00     0.034 C 
BRANCH   5   6
ATOM      6  C   UNL     1      -9.346  32.082  26.034  1.00  0.00     0.032 C 
BRANCH   6   7
ATOM      7  C   UNL     1      -9.748  31.306  27.268  1.00  0.00    -0.028 C 
ATOM      8  C   UNL     1      -7.840  29.689  27.101  1.00  0.00     0.039 C 
ATOM      9  C   UNL     1      -9.101  30.218  27.742  1.00  0.00    -0.080 C 
ATOM     10  C   UNL     1      -9.666  29.519  28.952  1.00  0.00     0.039 C 
ENDBRANCH   6   7
ENDBRANCH   5   6
ENDBRANCH   3   5
ENDBRANCH   1   2
BRANCH   1  11
ATOM     11  C   UNL     1      -8.555  34.177  21.680  1.00  0.00     0.034 C 
BRANCH  11  12
ATOM     12  C   UNL     1      -7.936  33.214  20.683  1.00  0.00    -0.077 C 
ATOM     13  C   UNL     1      -8.170  31.883  20.709  1.00  0.00    -0.028 C 
ATOM     14  C   UNL     1      -7.000  33.756  19.632  1.00  0.00     0.039 C 
BRANCH  13  15
ATOM     15  C   UNL     1      -9.108  31.214  21.687  1.00  0.00     0.035 C 
BRANCH  15  16
ATOM     16  C   UNL     1      -8.784  29.724  21.833  1.00  0.00     0.079 C 
BRANCH  16  17
ATOM     17  C   UNL     1      -8.225  29.431  23.199  1.00  0.00     0.130 C 
ATOM     18  O   UNL     1      -8.924  28.875  24.034  1.00  0.00    -0.300 OA
ATOM     19  C   UNL     1      -6.826  29.835  23.550  1.00  0.00     0.087 C 
ENDBRANCH  16  17
ENDBRANCH  15  16
ENDBRANCH  13  15
ENDBRANCH  11  12
ENDBRANCH   1  11
TORSDOF 9
ENDMDL
MODEL 6
REMARK VINA RESULT:    -6.109      1.165      4.094
REMARK INTER + INTRA:         -10.933
REMARK INTER:                  -9.148
REMARK INTRA:                  -1.785
REMARK UNBOUND:                -1.609
REMARK SMILES CC(=O)CCC=C(C)CCC=C(C)CCC=C(C)C
REMARK SMILES IDX 10 1 11 2 12 3 13 4 14 5 15 6 16 7 18 8 17 9 19 10 9 11 7 12
REMARK SMILES IDX 6 13 8 14 5 15 4 16 2 17 3 18 1 19
REMARK H PARENT
REMARK Flexibility Score: inf
ROOT
ATOM      1  C   UNL     1      -8.979  30.459  21.490  1.00  0.00     0.032 C 
ENDROOT
BRANCH   1   2
ATOM      2  C   UNL     1      -9.052  31.920  21.861  1.00  0.00    -0.028 C 
ATOM      3  C   UNL     1      -8.335  32.901  21.266  1.00  0.00    -0.077 C 
ATOM      4  C   UNL     1      -7.413  32.623  20.102  1.00  0.00     0.039 C 
BRANCH   3   5
ATOM      5  C   UNL     1      -8.488  34.324  21.759  1.00  0.00     0.034 C 
BRANCH   5   6
ATOM      6  C   UNL     1      -7.343  34.728  22.695  1.00  0.00     0.032 C 
BRANCH   6   7
ATOM      7  C   UNL     1      -7.536  34.139  24.074  1.00  0.00    -0.028 C 
ATOM      8  C   UNL     1      -8.993  36.015  24.876  1.00  0.00     0.039 C 
ATOM      9  C   UNL     1      -8.248  34.715  25.069  1.00  0.00    -0.080 C 
ATOM     10  C   UNL     1      -8.293  34.027  26.409  1.00  0.00     0.039 C 
ENDBRANCH   6   7
ENDBRANCH   5   6
ENDBRANCH   3   5
ENDBRANCH   1   2
BRANCH   1  11
ATOM     11  C   UNL     1      -8.960  29.553  22.731  1.00  0.00     0.034 C 
BRANCH  11  12
ATOM     12  C   UNL     1      -7.909  29.989  23.737  1.00  0.00    -0.077 C 
ATOM     13  C   UNL     1      -8.224  30.502  24.948  1.00  0.00    -0.028 C 
ATOM     14  C   UNL     1      -6.453  29.870  23.367  1.00  0.00     0.039 C 
BRANCH  13  15
ATOM     15  C   UNL     1      -9.639  30.647  25.457  1.00  0.00     0.035 C 
BRANCH  15  16
ATOM     16  C   UNL     1      -9.971  29.563  26.486  1.00  0.00     0.079 C 
BRANCH  16  17
ATOM     17  C   UNL     1      -9.818  30.091  27.887  1.00  0.00     0.130 C 
ATOM     18  O   UNL     1      -9.559  31.272  28.065  1.00  0.00    -0.300 OA
ATOM     19  C   UNL     1      -9.958  29.174  29.064  1.00  0.00     0.087 C 
ENDBRANCH  16  17
ENDBRANCH  15  16
ENDBRANCH  13  15
ENDBRANCH  11  12
ENDBRANCH   1  11
TORSDOF 9
ENDMDL
MODEL 7
REMARK VINA RESULT:    -6.010      2.017      6.211
REMARK INTER + INTRA:         -10.781
REMARK INTER:                  -9.042
REMARK INTRA:                  -1.739
REMARK UNBOUND:                -1.609
REMARK SMILES CC(=O)CCC=C(C)CCC=C(C)CCC=C(C)C
REMARK SMILES IDX 10 1 11 2 12 3 13 4 14 5 15 6 16 7 18 8 17 9 19 10 9 11 7 12
REMARK SMILES IDX 6 13 8 14 5 15 4 16 2 17 3 18 1 19
REMARK H PARENT
REMARK Flexibility Score: inf
ROOT
ATOM      1  C   UNL     1      -8.471  29.154  26.109  1.00  0.00     0.032 C 
ENDROOT
BRANCH   1   2
ATOM      2  C   UNL     1      -7.881  30.426  26.669  1.00  0.00    -0.028 C 
ATOM      3  C   UNL     1      -8.603  31.496  27.071  1.00  0.00    -0.077 C 
ATOM      4  C   UNL     1     -10.113  31.495  27.052  1.00  0.00     0.039 C 
BRANCH   3   5
ATOM      5  C   UNL     1      -7.876  32.719  27.588  1.00  0.00     0.034 C 
BRANCH   5   6
ATOM      6  C   UNL     1      -8.317  33.995  26.861  1.00  0.00     0.032 C 
BRANCH   6   7
ATOM      7  C   UNL     1      -7.742  34.049  25.464  1.00  0.00    -0.028 C 
ATOM      8  C   UNL     1      -9.080  36.059  24.790  1.00  0.00     0.039 C 
ATOM      9  C   UNL     1      -8.093  34.949  24.518  1.00  0.00    -0.080 C 
ATOM     10  C   UNL     1      -7.470  34.831  23.151  1.00  0.00     0.039 C 
ENDBRANCH   6   7
ENDBRANCH   5   6
ENDBRANCH   3   5
ENDBRANCH   1   2
BRANCH   1  11
ATOM     11  C   UNL     1      -9.000  29.348  24.680  1.00  0.00     0.034 C 
BRANCH  11  12
ATOM     12  C   UNL     1      -8.025  30.125  23.813  1.00  0.00    -0.077 C 
ATOM     13  C   UNL     1      -8.367  31.261  23.165  1.00  0.00    -0.028 C 
ATOM     14  C   UNL     1      -6.622  29.600  23.647  1.00  0.00     0.039 C 
BRANCH  13  15
ATOM     15  C   UNL     1      -9.726  31.912  23.270  1.00  0.00     0.035 C 
BRANCH  15  16
ATOM     16  C   UNL     1     -10.120  32.586  21.953  1.00  0.00     0.079 C 
BRANCH  16  17
ATOM     17  C   UNL     1      -9.384  31.967  20.795  1.00  0.00     0.130 C 
ATOM     18  O   UNL     1      -9.795  30.926  20.302  1.00  0.00    -0.300 OA
ATOM     19  C   UNL     1      -8.140  32.604  20.259  1.00  0.00     0.087 C 
ENDBRANCH  16  17
ENDBRANCH  15  16
ENDBRANCH  13  15
ENDBRANCH  11  12
ENDBRANCH   1  11
TORSDOF 9
ENDMDL
MODEL 8
REMARK VINA RESULT:    -5.430     17.076     19.104
REMARK INTER + INTRA:          -9.896
REMARK INTER:                  -8.412
REMARK INTRA:                  -1.484
REMARK UNBOUND:                -1.609
REMARK SMILES CC(=O)CCC=C(C)CCC=C(C)CCC=C(C)C
REMARK SMILES IDX 10 1 11 2 12 3 13 4 14 5 15 6 16 7 18 8 17 9 19 10 9 11 7 12
REMARK SMILES IDX 6 13 8 14 5 15 4 16 2 17 3 18 1 19
REMARK H PARENT
REMARK Flexibility Score: inf
ROOT
ATOM      1  C   UNL     1       3.000  47.619  18.788  1.00  0.00     0.032 C 
ENDROOT
BRANCH   1   2
ATOM      2  C   UNL     1       2.581  47.788  17.347  1.00  0.00    -0.028 C 
ATOM      3  C   UNL     1       3.262  47.299  16.286  1.00  0.00    -0.077 C 
ATOM      4  C   UNL     1       4.510  46.464  16.452  1.00  0.00     0.039 C 
BRANCH   3   5
ATOM      5  C   UNL     1       2.738  47.568  14.891  1.00  0.00     0.034 C 
BRANCH   5   6
ATOM      6  C   UNL     1       1.314  47.032  14.705  1.00  0.00     0.032 C 
BRANCH   6   7
ATOM      7  C   UNL     1       1.279  45.526  14.834  1.00  0.00    -0.028 C 
ATOM      8  C   UNL     1      -1.085  45.325  14.026  1.00  0.00     0.039 C 
ATOM      9  C   UNL     1       0.206  44.751  14.560  1.00  0.00    -0.080 C 
ATOM     10  C   UNL     1       0.314  43.267  14.799  1.00  0.00     0.039 C 
ENDBRANCH   6   7
ENDBRANCH   5   6
ENDBRANCH   3   5
ENDBRANCH   1   2
BRANCH   1  11
ATOM     11  C   UNL     1       2.399  48.707  19.691  1.00  0.00     0.034 C 
BRANCH  11  12
ATOM     12  C   UNL     1       2.136  48.197  21.097  1.00  0.00    -0.077 C 
ATOM     13  C   UNL     1       0.909  48.215  21.664  1.00  0.00    -0.028 C 
ATOM     14  C   UNL     1       3.292  47.670  21.908  1.00  0.00     0.039 C 
BRANCH  13  15
ATOM     15  C   UNL     1      -0.338  48.686  20.953  1.00  0.00     0.035 C 
BRANCH  15  16
ATOM     16  C   UNL     1      -1.032  47.530  20.227  1.00  0.00     0.079 C 
BRANCH  16  17
ATOM     17  C   UNL     1      -1.700  48.013  18.968  1.00  0.00     0.130 C 
ATOM     18  O   UNL     1      -2.732  48.663  19.041  1.00  0.00    -0.300 OA
ATOM     19  C   UNL     1      -1.122  47.682  17.627  1.00  0.00     0.087 C 
ENDBRANCH  16  17
ENDBRANCH  15  16
ENDBRANCH  13  15
ENDBRANCH  11  12
ENDBRANCH   1  11
TORSDOF 9
ENDMDL
MODEL 9
REMARK VINA RESULT:    -5.405     17.912     19.337
REMARK INTER + INTRA:          -9.858
REMARK INTER:                  -8.303
REMARK INTRA:                  -1.556
REMARK UNBOUND:                -1.609
REMARK SMILES CC(=O)CCC=C(C)CCC=C(C)CCC=C(C)C
REMARK SMILES IDX 10 1 11 2 12 3 13 4 14 5 15 6 16 7 18 8 17 9 19 10 9 11 7 12
REMARK SMILES IDX 6 13 8 14 5 15 4 16 2 17 3 18 1 19
REMARK H PARENT
REMARK Flexibility Score: inf
ROOT
ATOM      1  C   UNL     1       2.088  47.346  14.358  1.00  0.00     0.032 C 
ENDROOT
BRANCH   1   2
ATOM      2  C   UNL     1       0.611  47.058  14.243  1.00  0.00    -0.028 C 
ATOM      3  C   UNL     1       0.047  45.844  14.435  1.00  0.00    -0.077 C 
ATOM      4  C   UNL     1       0.860  44.642  14.854  1.00  0.00     0.039 C 
BRANCH   3   5
ATOM      5  C   UNL     1      -1.449  45.694  14.259  1.00  0.00     0.034 C 
BRANCH   5   6
ATOM      6  C   UNL     1      -1.872  45.879  12.797  1.00  0.00     0.032 C 
BRANCH   6   7
ATOM      7  C   UNL     1      -3.168  46.653  12.700  1.00  0.00    -0.028 C 
ATOM      8  C   UNL     1      -3.871  45.570  10.552  1.00  0.00     0.039 C 
ATOM      9  C   UNL     1      -4.058  46.546  11.689  1.00  0.00    -0.080 C 
ATOM     10  C   UNL     1      -5.276  47.434  11.710  1.00  0.00     0.039 C 
ENDBRANCH   6   7
ENDBRANCH   5   6
ENDBRANCH   3   5
ENDBRANCH   1   2
BRANCH   1  11
ATOM     11  C   UNL     1       2.406  48.236  15.569  1.00  0.00     0.034 C 
BRANCH  11  12
ATOM     12  C   UNL     1       3.116  47.467  16.669  1.00  0.00    -0.077 C 
ATOM     13  C   UNL     1       2.706  47.485  17.957  1.00  0.00    -0.028 C 
ATOM     14  C   UNL     1       4.345  46.666  16.320  1.00  0.00     0.039 C 
BRANCH  13  15
ATOM     15  C   UNL     1       1.476  48.220  18.437  1.00  0.00     0.035 C 
BRANCH  15  16
ATOM     16  C   UNL     1       0.484  47.261  19.102  1.00  0.00     0.079 C 
BRANCH  16  17
ATOM     17  C   UNL     1      -0.927  47.575  18.682  1.00  0.00     0.130 C 
ATOM     18  O   UNL     1      -1.843  47.435  19.479  1.00  0.00    -0.300 OA
ATOM     19  C   UNL     1      -1.219  48.038  17.287  1.00  0.00     0.087 C 
ENDBRANCH  16  17
ENDBRANCH  15  16
ENDBRANCH  13  15
ENDBRANCH  11  12
ENDBRANCH   1  11
TORSDOF 9
ENDMDL
