MODEL 1
REMARK VINA RESULT:    -1.993      0.000      0.000
REMARK INTER + INTRA:          -1.993
REMARK INTER:                  -1.993
REMARK INTRA:                   0.000
REMARK UNBOUND:                 0.000
REMARK SMILES CC(=O)[O-]
REMARK SMILES IDX 1 1 2 2 3 3 4 4
REMARK H PARENT
REMARK Flexibility Score: inf
ROOT
ATOM      1  C   UNL     1      23.174   9.809  27.571  1.00  0.00     0.063 C 
ATOM      2  C   UNL     1      24.660   9.812  27.677  1.00  0.00     0.038 C 
ATOM      3  O   UNL     1      25.367  10.038  26.661  1.00  0.00    -0.550 OA
ATOM      4  O   UNL     1      25.270   9.619  28.911  1.00  0.00    -0.550 OA
ENDROOT
TORSDOF 0
ENDMDL
MODEL 2
REMARK VINA RESULT:    -1.992      0.247      1.634
REMARK INTER + INTRA:          -1.992
REMARK INTER:                  -1.992
REMARK INTRA:                   0.000
REMARK UNBOUND:                 0.000
REMARK SMILES CC(=O)[O-]
REMARK SMILES IDX 1 1 2 2 3 3 4 4
REMARK H PARENT
REMARK Flexibility Score: inf
ROOT
ATOM      1  C   UNL     1      23.307   9.826  27.418  1.00  0.00     0.063 C 
ATOM      2  C   UNL     1      24.791   9.814  27.558  1.00  0.00     0.038 C 
ATOM      3  O   UNL     1      25.318   9.651  28.689  1.00  0.00    -0.550 OA
ATOM      4  O   UNL     1      25.598   9.929  26.433  1.00  0.00    -0.550 OA
ENDROOT
TORSDOF 0
ENDMDL
MODEL 3
REMARK VINA RESULT:    -1.972      1.788      2.198
REMARK INTER + INTRA:          -1.972
REMARK INTER:                  -1.972
REMARK INTRA:                   0.000
REMARK UNBOUND:                 0.000
REMARK SMILES CC(=O)[O-]
REMARK SMILES IDX 1 1 2 2 3 3 4 4
REMARK H PARENT
REMARK Flexibility Score: inf
ROOT
ATOM      1  C   UNL     1      24.864   9.858  27.551  1.00  0.00     0.063 C 
ATOM      2  C   UNL     1      25.318   9.127  28.767  1.00  0.00     0.038 C 
ATOM      3  O   UNL     1      25.048   9.574  29.912  1.00  0.00    -0.550 OA
ATOM      4  O   UNL     1      25.994   7.919  28.641  1.00  0.00    -0.550 OA
ENDROOT
TORSDOF 0
ENDMDL
MODEL 4
REMARK VINA RESULT:    -1.959      3.439      3.825
REMARK INTER + INTRA:          -1.959
REMARK INTER:                  -1.959
REMARK INTRA:                   0.000
REMARK UNBOUND:                 0.000
REMARK SMILES CC(=O)[O-]
REMARK SMILES IDX 1 1 2 2 3 3 4 4
REMARK H PARENT
REMARK Flexibility Score: inf
ROOT
ATOM      1  C   UNL     1      25.404   6.355  26.805  1.00  0.00     0.063 C 
ATOM      2  C   UNL     1      26.635   7.083  27.224  1.00  0.00     0.038 C 
ATOM      3  O   UNL     1      26.748   7.507  28.403  1.00  0.00    -0.550 OA
ATOM      4  O   UNL     1      27.685   7.249  26.329  1.00  0.00    -0.550 OA
ENDROOT
TORSDOF 0
ENDMDL
MODEL 5
REMARK VINA RESULT:    -1.893      1.578      2.571
REMARK INTER + INTRA:          -1.893
REMARK INTER:                  -1.893
REMARK INTRA:                   0.000
REMARK UNBOUND:                 0.000
REMARK SMILES CC(=O)[O-]
REMARK SMILES IDX 1 1 2 2 3 3 4 4
REMARK H PARENT
REMARK Flexibility Score: inf
ROOT
ATOM      1  C   UNL     1      25.991   7.879  28.303  1.00  0.00     0.063 C 
ATOM      2  C   UNL     1      25.317   9.164  28.643  1.00  0.00     0.038 C 
ATOM      3  O   UNL     1      25.065   9.448  29.842  1.00  0.00    -0.550 OA
ATOM      4  O   UNL     1      25.012  10.077  27.640  1.00  0.00    -0.550 OA
ENDROOT
TORSDOF 0
ENDMDL
MODEL 6
REMARK VINA RESULT:    -1.871      2.065      2.291
REMARK INTER + INTRA:          -1.871
REMARK INTER:                  -1.871
REMARK INTRA:                   0.000
REMARK UNBOUND:                 0.000
REMARK SMILES CC(=O)[O-]
REMARK SMILES IDX 1 1 2 2 3 3 4 4
REMARK H PARENT
REMARK Flexibility Score: inf
ROOT
ATOM      1  C   UNL     1      24.880   9.715  27.239  1.00  0.00     0.063 C 
ATOM      2  C   UNL     1      23.528   9.290  27.699  1.00  0.00     0.038 C 
ATOM      3  O   UNL     1      22.587  10.124  27.753  1.00  0.00    -0.550 OA
ATOM      4  O   UNL     1      23.288   7.960  28.020  1.00  0.00    -0.550 OA
ENDROOT
TORSDOF 0
ENDMDL
MODEL 7
REMARK VINA RESULT:    -1.821      9.965     10.507
REMARK INTER + INTRA:          -1.821
REMARK INTER:                  -1.821
REMARK INTRA:                   0.000
REMARK UNBOUND:                 0.000
REMARK SMILES CC(=O)[O-]
REMARK SMILES IDX 1 1 2 2 3 3 4 4
REMARK H PARENT
REMARK Flexibility Score: inf
ROOT
ATOM      1  C   UNL     1      22.653   9.366  38.989  1.00  0.00     0.063 C 
ATOM      2  C   UNL     1      21.987   9.485  37.660  1.00  0.00     0.038 C 
ATOM      3  O   UNL     1      22.620   9.204  36.609  1.00  0.00    -0.550 OA
ATOM      4  O   UNL     1      20.650   9.853  37.582  1.00  0.00    -0.550 OA
ENDROOT
TORSDOF 0
ENDMDL
MODEL 8
REMARK VINA RESULT:    -1.808      2.258      2.653
REMARK INTER + INTRA:          -1.808
REMARK INTER:                  -1.808
REMARK INTRA:                   0.000
REMARK UNBOUND:                 0.000
REMARK SMILES CC(=O)[O-]
REMARK SMILES IDX 1 1 2 2 3 3 4 4
REMARK H PARENT
REMARK Flexibility Score: inf
ROOT
ATOM      1  C   UNL     1      26.545   6.896  27.401  1.00  0.00     0.063 C 
ATOM      2  C   UNL     1      25.831   8.078  27.961  1.00  0.00     0.038 C 
ATOM      3  O   UNL     1      25.476   9.019  27.204  1.00  0.00    -0.550 OA
ATOM      4  O   UNL     1      25.507   8.120  29.311  1.00  0.00    -0.550 OA
ENDROOT
TORSDOF 0
ENDMDL
MODEL 9
REMARK VINA RESULT:    -1.760      2.712      3.232
REMARK INTER + INTRA:          -1.760
REMARK INTER:                  -1.760
REMARK INTRA:                   0.000
REMARK UNBOUND:                 0.000
REMARK SMILES CC(=O)[O-]
REMARK SMILES IDX 1 1 2 2 3 3 4 4
REMARK H PARENT
REMARK Flexibility Score: inf
ROOT
ATOM      1  C   UNL     1      26.545   7.203  27.339  1.00  0.00     0.063 C 
ATOM      2  C   UNL     1      26.305   8.127  26.195  1.00  0.00     0.038 C 
ATOM      3  O   UNL     1      26.545   7.752  25.018  1.00  0.00    -0.550 OA
ATOM      4  O   UNL     1      25.763   9.387  26.419  1.00  0.00    -0.550 OA
ENDROOT
TORSDOF 0
ENDMDL
