MODEL 1
REMARK VINA RESULT:    -3.798      0.000      0.000
REMARK INTER + INTRA:          -4.250
REMARK INTER:                  -4.242
REMARK INTRA:                  -0.007
REMARK UNBOUND:                -0.007
REMARK SMILES CCCC(=O)[O-]
REMARK SMILES IDX 3 1 4 2 5 3 6 4 2 5 1 6
REMARK H PARENT
REMARK Flexibility Score: inf
ROOT
ATOM      1  C   UNL     1      20.988   9.130  12.828  1.00  0.00     0.052 C 
ENDROOT
BRANCH   1   2
ATOM      2  C   UNL     1      21.560  10.226  11.986  1.00  0.00     0.041 C 
ATOM      3  O   UNL     1      20.848  10.796  11.118  1.00  0.00    -0.550 OA
ATOM      4  O   UNL     1      22.866  10.653  12.192  1.00  0.00    -0.550 OA
ENDBRANCH   1   2
BRANCH   1   5
ATOM      5  C   UNL     1      19.620   9.538  13.381  1.00  0.00     0.003 C 
ATOM      6  C   UNL     1      19.173   8.594  14.493  1.00  0.00     0.004 C 
ENDBRANCH   1   5
TORSDOF 2
ENDMDL
MODEL 2
REMARK VINA RESULT:    -3.773      0.091      1.325
REMARK INTER + INTRA:          -4.221
REMARK INTER:                  -4.214
REMARK INTRA:                  -0.007
REMARK UNBOUND:                -0.007
REMARK SMILES CCCC(=O)[O-]
REMARK SMILES IDX 3 1 4 2 5 3 6 4 2 5 1 6
REMARK H PARENT
REMARK Flexibility Score: inf
ROOT
ATOM      1  C   UNL     1      21.066   9.166  12.952  1.00  0.00     0.052 C 
ENDROOT
BRANCH   1   2
ATOM      2  C   UNL     1      21.611  10.238  12.063  1.00  0.00     0.041 C 
ATOM      3  O   UNL     1      22.820  10.578  12.148  1.00  0.00    -0.550 OA
ATOM      4  O   UNL     1      20.796  10.828  11.105  1.00  0.00    -0.550 OA
ENDBRANCH   1   2
BRANCH   1   5
ATOM      5  C   UNL     1      19.624   9.485  13.355  1.00  0.00     0.003 C 
ATOM      6  C   UNL     1      19.153   8.575  14.484  1.00  0.00     0.004 C 
ENDBRANCH   1   5
TORSDOF 2
ENDMDL
MODEL 3
REMARK VINA RESULT:    -3.752     13.467     13.819
REMARK INTER + INTRA:          -4.198
REMARK INTER:                  -4.182
REMARK INTRA:                  -0.017
REMARK UNBOUND:                -0.007
REMARK SMILES CCCC(=O)[O-]
REMARK SMILES IDX 3 1 4 2 5 3 6 4 2 5 1 6
REMARK H PARENT
REMARK Flexibility Score: inf
ROOT
ATOM      1  C   UNL     1      10.445  10.434   4.701  1.00  0.00     0.052 C 
ENDROOT
BRANCH   1   2
ATOM      2  C   UNL     1       9.476   9.362   5.089  1.00  0.00     0.041 C 
ATOM      3  O   UNL     1       9.627   8.187   4.663  1.00  0.00    -0.550 OA
ATOM      4  O   UNL     1       8.433   9.649   5.961  1.00  0.00    -0.550 OA
ENDBRANCH   1   2
BRANCH   1   5
ATOM      5  C   UNL     1       9.794  11.814   4.824  1.00  0.00     0.003 C 
ATOM      6  C   UNL     1      10.828  12.882   5.166  1.00  0.00     0.004 C 
ENDBRANCH   1   5
TORSDOF 2
ENDMDL
MODEL 4
REMARK VINA RESULT:    -3.616      2.609      3.406
REMARK INTER + INTRA:          -4.046
REMARK INTER:                  -4.012
REMARK INTRA:                  -0.034
REMARK UNBOUND:                -0.007
REMARK SMILES CCCC(=O)[O-]
REMARK SMILES IDX 3 1 4 2 5 3 6 4 2 5 1 6
REMARK H PARENT
REMARK Flexibility Score: inf
ROOT
ATOM      1  C   UNL     1      20.531   7.963  13.276  1.00  0.00     0.052 C 
ENDROOT
BRANCH   1   2
ATOM      2  C   UNL     1      19.490   8.791  13.961  1.00  0.00     0.041 C 
ATOM      3  O   UNL     1      19.129   9.891  13.466  1.00  0.00    -0.550 OA
ATOM      4  O   UNL     1      18.883   8.326  15.121  1.00  0.00    -0.550 OA
ENDBRANCH   1   2
BRANCH   1   5
ATOM      5  C   UNL     1      21.475   8.853  12.464  1.00  0.00     0.003 C 
ATOM      6  C   UNL     1      22.596   9.408  13.338  1.00  0.00     0.004 C 
ENDBRANCH   1   5
TORSDOF 2
ENDMDL
MODEL 5
REMARK VINA RESULT:    -3.610      2.420      3.551
REMARK INTER + INTRA:          -4.039
REMARK INTER:                  -4.023
REMARK INTRA:                  -0.016
REMARK UNBOUND:                -0.007
REMARK SMILES CCCC(=O)[O-]
REMARK SMILES IDX 3 1 4 2 5 3 6 4 2 5 1 6
REMARK H PARENT
REMARK Flexibility Score: inf
ROOT
ATOM      1  C   UNL     1      20.239  10.122  12.639  1.00  0.00     0.052 C 
ENDROOT
BRANCH   1   2
ATOM      2  C   UNL     1      20.079   8.850  13.410  1.00  0.00     0.041 C 
ATOM      3  O   UNL     1      20.845   7.875  13.190  1.00  0.00    -0.550 OA
ATOM      4  O   UNL     1      19.116   8.756  14.407  1.00  0.00    -0.550 OA
ENDBRANCH   1   2
BRANCH   1   5
ATOM      5  C   UNL     1      21.570  10.128  11.885  1.00  0.00     0.003 C 
ATOM      6  C   UNL     1      21.534  11.100  10.710  1.00  0.00     0.004 C 
ENDBRANCH   1   5
TORSDOF 2
ENDMDL
MODEL 6
REMARK VINA RESULT:    -3.584     12.992     13.710
REMARK INTER + INTRA:          -4.010
REMARK INTER:                  -4.002
REMARK INTRA:                  -0.008
REMARK UNBOUND:                -0.007
REMARK SMILES CCCC(=O)[O-]
REMARK SMILES IDX 3 1 4 2 5 3 6 4 2 5 1 6
REMARK H PARENT
REMARK Flexibility Score: inf
ROOT
ATOM      1  C   UNL     1       9.404  11.095   4.945  1.00  0.00     0.052 C 
ENDROOT
BRANCH   1   2
ATOM      2  C   UNL     1      10.002  12.442   4.690  1.00  0.00     0.041 C 
ATOM      3  O   UNL     1      11.123  12.740   5.178  1.00  0.00    -0.550 OA
ATOM      4  O   UNL     1       9.343  13.353   3.874  1.00  0.00    -0.550 OA
ENDBRANCH   1   2
BRANCH   1   5
ATOM      5  C   UNL     1      10.443   9.995   4.714  1.00  0.00     0.003 C 
ATOM      6  C   UNL     1       9.796   8.614   4.724  1.00  0.00     0.004 C 
ENDBRANCH   1   5
TORSDOF 2
ENDMDL
MODEL 7
REMARK VINA RESULT:    -3.308      1.984      2.987
REMARK INTER + INTRA:          -3.702
REMARK INTER:                  -3.648
REMARK INTRA:                  -0.054
REMARK UNBOUND:                -0.007
REMARK SMILES CCCC(=O)[O-]
REMARK SMILES IDX 3 1 4 2 5 3 6 4 2 5 1 6
REMARK H PARENT
REMARK Flexibility Score: inf
ROOT
ATOM      1  C   UNL     1      22.218   9.264  12.197  1.00  0.00     0.052 C 
ENDROOT
BRANCH   1   2
ATOM      2  C   UNL     1      21.038  10.165  12.009  1.00  0.00     0.041 C 
ATOM      3  O   UNL     1      20.957  10.898  10.989  1.00  0.00    -0.550 OA
ATOM      4  O   UNL     1      20.004  10.160  12.937  1.00  0.00    -0.550 OA
ENDBRANCH   1   2
BRANCH   1   5
ATOM      5  C   UNL     1      23.056   9.720  13.393  1.00  0.00     0.003 C 
ATOM      6  C   UNL     1      23.977  10.875  13.012  1.00  0.00     0.004 C 
ENDBRANCH   1   5
TORSDOF 2
ENDMDL
MODEL 8
REMARK VINA RESULT:    -3.181      2.661      3.207
REMARK INTER + INTRA:          -3.560
REMARK INTER:                  -3.523
REMARK INTRA:                  -0.038
REMARK UNBOUND:                -0.007
REMARK SMILES CCCC(=O)[O-]
REMARK SMILES IDX 3 1 4 2 5 3 6 4 2 5 1 6
REMARK H PARENT
REMARK Flexibility Score: inf
ROOT
ATOM      1  C   UNL     1      22.745  10.490  12.502  1.00  0.00     0.052 C 
ENDROOT
BRANCH   1   2
ATOM      2  C   UNL     1      23.281   9.222  13.088  1.00  0.00     0.041 C 
ATOM      3  O   UNL     1      22.745   8.118  12.807  1.00  0.00    -0.550 OA
ATOM      4  O   UNL     1      24.404   9.254  13.906  1.00  0.00    -0.550 OA
ENDBRANCH   1   2
BRANCH   1   5
ATOM      5  C   UNL     1      21.347  10.263  11.922  1.00  0.00     0.003 C 
ATOM      6  C   UNL     1      21.324  10.532  10.420  1.00  0.00     0.004 C 
ENDBRANCH   1   5
TORSDOF 2
ENDMDL
MODEL 9
REMARK VINA RESULT:    -2.968     17.110     17.719
REMARK INTER + INTRA:          -3.323
REMARK INTER:                  -3.262
REMARK INTRA:                  -0.061
REMARK UNBOUND:                -0.007
REMARK SMILES CCCC(=O)[O-]
REMARK SMILES IDX 3 1 4 2 5 3 6 4 2 5 1 6
REMARK H PARENT
REMARK Flexibility Score: inf
ROOT
ATOM      1  C   UNL     1      24.364  26.687   7.439  1.00  0.00     0.052 C 
ENDROOT
BRANCH   1   2
ATOM      2  C   UNL     1      24.927  26.395   8.794  1.00  0.00     0.041 C 
ATOM      3  O   UNL     1      25.867  27.095   9.254  1.00  0.00    -0.550 OA
ATOM      4  O   UNL     1      24.380  25.381   9.571  1.00  0.00    -0.550 OA
ENDBRANCH   1   2
BRANCH   1   5
ATOM      5  C   UNL     1      24.619  25.513   6.489  1.00  0.00     0.003 C 
ATOM      6  C   UNL     1      26.076  25.474   6.040  1.00  0.00     0.004 C 
ENDBRANCH   1   5
TORSDOF 2
ENDMDL
