MODEL 1
REMARK VINA RESULT:    -6.898      0.000      0.000
REMARK INTER + INTRA:         -13.944
REMARK INTER:                 -12.544
REMARK INTRA:                  -1.400
REMARK UNBOUND:                -1.400
REMARK SMILES CCCCCC=CCC=CCCCCCCCC(=O)[O-]
REMARK SMILES IDX 11 1 12 2 13 3 14 4 15 5 16 6 17 7 18 8 19 9 20 10 10 11
REMARK SMILES IDX 9 12 8 13 7 14 6 15 5 16 4 17 3 18 2 19 1 20
REMARK H PARENT
REMARK Flexibility Score: inf
ROOT
ATOM      1  C   UNL     1     131.777 125.862 126.141  1.00  0.00     0.027 C 
ENDROOT
BRANCH   1   2
ATOM      2  C   UNL     1     131.580 126.568 124.792  1.00  0.00     0.004 C 
BRANCH   2   3
ATOM      3  C   UNL     1     130.784 127.875 124.923  1.00  0.00     0.000 C 
BRANCH   3   4
ATOM      4  C   UNL     1     129.642 127.979 123.895  1.00  0.00     0.000 C 
BRANCH   4   5
ATOM      5  C   UNL     1     128.684 126.778 123.953  1.00  0.00     0.000 C 
BRANCH   5   6
ATOM      6  C   UNL     1     127.336 127.064 123.271  1.00  0.00     0.006 C 
BRANCH   6   7
ATOM      7  C   UNL     1     127.474 128.062 122.113  1.00  0.00     0.053 C 
BRANCH   7   8
ATOM      8  C   UNL     1     126.397 129.102 122.143  1.00  0.00     0.041 C 
ATOM      9  O   UNL     1     125.235 128.801 122.517  1.00  0.00    -0.550 OA
ATOM     10  O   UNL     1     126.671 130.398 121.727  1.00  0.00    -0.550 OA
ENDBRANCH   7   8
ENDBRANCH   6   7
ENDBRANCH   5   6
ENDBRANCH   4   5
ENDBRANCH   3   4
ENDBRANCH   2   3
ENDBRANCH   1   2
BRANCH   1  11
ATOM     11  C   UNL     1     130.504 125.214 126.609  1.00  0.00    -0.031 C 
ATOM     12  C   UNL     1     130.081 124.048 126.098  1.00  0.00    -0.027 C 
BRANCH  12  13
ATOM     13  C   UNL     1     128.796 123.411 126.548  1.00  0.00     0.054 C 
BRANCH  13  14
ATOM     14  C   UNL     1     127.872 124.423 127.178  1.00  0.00    -0.027 C 
ATOM     15  C   UNL     1     127.131 124.187 128.275  1.00  0.00    -0.031 C 
BRANCH  15  16
ATOM     16  C   UNL     1     127.134 122.871 129.012  1.00  0.00     0.027 C 
BRANCH  16  17
ATOM     17  C   UNL     1     128.330 122.774 129.969  1.00  0.00     0.004 C 
BRANCH  17  18
ATOM     18  C   UNL     1     128.974 124.141 130.250  1.00  0.00     0.000 C 
BRANCH  18  19
ATOM     19  C   UNL     1     129.073 124.447 131.751  1.00  0.00    -0.003 C 
ATOM     20  C   UNL     1     128.482 123.312 132.582  1.00  0.00     0.004 C 
ENDBRANCH  18  19
ENDBRANCH  17  18
ENDBRANCH  16  17
ENDBRANCH  15  16
ENDBRANCH  13  14
ENDBRANCH  12  13
ENDBRANCH   1  11
TORSDOF 14
ENDMDL
MODEL 2
REMARK VINA RESULT:    -6.707      3.751      7.760
REMARK INTER + INTRA:         -13.595
REMARK INTER:                 -11.905
REMARK INTRA:                  -1.691
REMARK UNBOUND:                -1.400
REMARK SMILES CCCCCC=CCC=CCCCCCCCC(=O)[O-]
REMARK SMILES IDX 11 1 12 2 13 3 14 4 15 5 16 6 17 7 18 8 19 9 20 10 10 11
REMARK SMILES IDX 9 12 8 13 7 14 6 15 5 16 4 17 3 18 2 19 1 20
REMARK H PARENT
REMARK Flexibility Score: inf
ROOT
ATOM      1  C   UNL     1     129.764 123.367 126.432  1.00  0.00     0.027 C 
ENDROOT
BRANCH   1   2
ATOM      2  C   UNL     1     128.244 123.589 126.404  1.00  0.00     0.004 C 
BRANCH   2   3
ATOM      3  C   UNL     1     127.838 124.951 126.987  1.00  0.00     0.000 C 
BRANCH   3   4
ATOM      4  C   UNL     1     127.158 124.828 128.362  1.00  0.00     0.000 C 
BRANCH   4   5
ATOM      5  C   UNL     1     126.983 123.367 128.806  1.00  0.00     0.000 C 
BRANCH   5   6
ATOM      6  C   UNL     1     128.042 122.929 129.832  1.00  0.00     0.006 C 
BRANCH   6   7
ATOM      7  C   UNL     1     128.953 124.090 130.253  1.00  0.00     0.053 C 
BRANCH   7   8
ATOM      8  C   UNL     1     128.980 124.268 131.740  1.00  0.00     0.041 C 
ATOM      9  O   UNL     1     129.604 125.231 132.252  1.00  0.00    -0.550 OA
ATOM     10  O   UNL     1     128.338 123.350 132.560  1.00  0.00    -0.550 OA
ENDBRANCH   7   8
ENDBRANCH   6   7
ENDBRANCH   5   6
ENDBRANCH   4   5
ENDBRANCH   3   4
ENDBRANCH   2   3
ENDBRANCH   1   2
BRANCH   1  11
ATOM     11  C   UNL     1     130.505 124.674 126.479  1.00  0.00    -0.031 C 
ATOM     12  C   UNL     1     131.225 125.110 125.434  1.00  0.00    -0.027 C 
BRANCH  12  13
ATOM     13  C   UNL     1     131.985 126.406 125.488  1.00  0.00     0.054 C 
BRANCH  13  14
ATOM     14  C   UNL     1     131.152 127.506 126.098  1.00  0.00    -0.027 C 
ATOM     15  C   UNL     1     130.139 128.124 125.465  1.00  0.00    -0.031 C 
BRANCH  15  16
ATOM     16  C   UNL     1     129.713 127.790 124.057  1.00  0.00     0.027 C 
BRANCH  16  17
ATOM     17  C   UNL     1     128.352 127.080 124.044  1.00  0.00     0.004 C 
BRANCH  17  18
ATOM     18  C   UNL     1     127.646 127.178 122.682  1.00  0.00     0.000 C 
BRANCH  18  19
ATOM     19  C   UNL     1     126.453 128.143 122.706  1.00  0.00    -0.003 C 
ATOM     20  C   UNL     1     126.715 129.361 121.825  1.00  0.00     0.004 C 
ENDBRANCH  18  19
ENDBRANCH  17  18
ENDBRANCH  16  17
ENDBRANCH  15  16
ENDBRANCH  13  14
ENDBRANCH  12  13
ENDBRANCH   1  11
TORSDOF 14
ENDMDL
MODEL 3
REMARK VINA RESULT:    -6.486      3.509      7.936
REMARK INTER + INTRA:         -13.193
REMARK INTER:                 -11.893
REMARK INTRA:                  -1.301
REMARK UNBOUND:                -1.400
REMARK SMILES CCCCCC=CCC=CCCCCCCCC(=O)[O-]
REMARK SMILES IDX 11 1 12 2 13 3 14 4 15 5 16 6 17 7 18 8 19 9 20 10 10 11
REMARK SMILES IDX 9 12 8 13 7 14 6 15 5 16 4 17 3 18 2 19 1 20
REMARK H PARENT
REMARK Flexibility Score: inf
ROOT
ATOM      1  C   UNL     1     131.158 127.058 126.878  1.00  0.00     0.027 C 
ENDROOT
BRANCH   1   2
ATOM      2  C   UNL     1     131.660 125.614 126.724  1.00  0.00     0.004 C 
BRANCH   2   3
ATOM      3  C   UNL     1     130.744 124.765 125.829  1.00  0.00     0.000 C 
BRANCH   3   4
ATOM      4  C   UNL     1     129.898 123.760 126.632  1.00  0.00     0.000 C 
BRANCH   4   5
ATOM      5  C   UNL     1     128.406 124.129 126.653  1.00  0.00     0.000 C 
BRANCH   5   6
ATOM      6  C   UNL     1     127.901 124.468 128.066  1.00  0.00     0.006 C 
BRANCH   6   7
ATOM      7  C   UNL     1     128.126 123.313 129.051  1.00  0.00     0.053 C 
BRANCH   7   8
ATOM      8  C   UNL     1     128.659 123.797 130.365  1.00  0.00     0.041 C 
ATOM      9  O   UNL     1     129.335 124.856 130.423  1.00  0.00    -0.550 OA
ATOM     10  O   UNL     1     128.433 123.062 131.520  1.00  0.00    -0.550 OA
ENDBRANCH   7   8
ENDBRANCH   6   7
ENDBRANCH   5   6
ENDBRANCH   4   5
ENDBRANCH   3   4
ENDBRANCH   2   3
ENDBRANCH   1   2
BRANCH   1  11
ATOM     11  C   UNL     1     130.044 127.353 125.913  1.00  0.00    -0.031 C 
ATOM     12  C   UNL     1     130.291 127.680 124.635  1.00  0.00    -0.027 C 
BRANCH  12  13
ATOM     13  C   UNL     1     129.180 127.998 123.675  1.00  0.00     0.054 C 
BRANCH  13  14
ATOM     14  C   UNL     1     128.173 126.877 123.610  1.00  0.00    -0.027 C 
ATOM     15  C   UNL     1     127.123 126.854 122.769  1.00  0.00    -0.031 C 
BRANCH  15  16
ATOM     16  C   UNL     1     126.824 127.957 121.785  1.00  0.00     0.027 C 
BRANCH  16  17
ATOM     17  C   UNL     1     125.501 128.658 122.124  1.00  0.00     0.004 C 
BRANCH  17  18
ATOM     18  C   UNL     1     125.693 130.140 122.485  1.00  0.00     0.000 C 
BRANCH  18  19
ATOM     19  C   UNL     1     126.794 130.810 121.653  1.00  0.00    -0.003 C 
ATOM     20  C   UNL     1     126.482 132.285 121.415  1.00  0.00     0.004 C 
ENDBRANCH  18  19
ENDBRANCH  17  18
ENDBRANCH  16  17
ENDBRANCH  15  16
ENDBRANCH  13  14
ENDBRANCH  12  13
ENDBRANCH   1  11
TORSDOF 14
ENDMDL
MODEL 4
REMARK VINA RESULT:    -6.313      4.760      8.816
REMARK INTER + INTRA:         -12.880
REMARK INTER:                 -11.975
REMARK INTRA:                  -0.905
REMARK UNBOUND:                -1.400
REMARK SMILES CCCCCC=CCC=CCCCCCCCC(=O)[O-]
REMARK SMILES IDX 11 1 12 2 13 3 14 4 15 5 16 6 17 7 18 8 19 9 20 10 10 11
REMARK SMILES IDX 9 12 8 13 7 14 6 15 5 16 4 17 3 18 2 19 1 20
REMARK H PARENT
REMARK Flexibility Score: inf
ROOT
ATOM      1  C   UNL     1     128.639 127.130 123.553  1.00  0.00     0.027 C 
ENDROOT
BRANCH   1   2
ATOM      2  C   UNL     1     128.669 126.576 124.985  1.00  0.00     0.004 C 
BRANCH   2   3
ATOM      3  C   UNL     1     130.073 126.631 125.607  1.00  0.00     0.000 C 
BRANCH   3   4
ATOM      4  C   UNL     1     130.326 125.483 126.601  1.00  0.00     0.000 C 
BRANCH   4   5
ATOM      5  C   UNL     1     129.550 124.206 126.238  1.00  0.00     0.000 C 
BRANCH   5   6
ATOM      6  C   UNL     1     128.880 123.555 127.460  1.00  0.00     0.006 C 
BRANCH   6   7
ATOM      7  C   UNL     1     129.048 124.399 128.730  1.00  0.00     0.053 C 
BRANCH   7   8
ATOM      8  C   UNL     1     128.710 123.622 129.965  1.00  0.00     0.041 C 
ATOM      9  O   UNL     1     128.783 124.165 131.096  1.00  0.00    -0.550 OA
ATOM     10  O   UNL     1     128.343 122.286 129.866  1.00  0.00    -0.550 OA
ENDBRANCH   7   8
ENDBRANCH   6   7
ENDBRANCH   5   6
ENDBRANCH   4   5
ENDBRANCH   3   4
ENDBRANCH   2   3
ENDBRANCH   1   2
BRANCH   1  11
ATOM     11  C   UNL     1     127.247 127.098 122.987  1.00  0.00    -0.031 C 
ATOM     12  C   UNL     1     126.574 128.227 122.713  1.00  0.00    -0.027 C 
BRANCH  12  13
ATOM     13  C   UNL     1     125.174 128.197 122.168  1.00  0.00     0.054 C 
BRANCH  13  14
ATOM     14  C   UNL     1     124.794 126.813 121.707  1.00  0.00    -0.027 C 
ATOM     15  C   UNL     1     123.530 126.419 121.466  1.00  0.00    -0.031 C 
BRANCH  15  16
ATOM     16  C   UNL     1     122.333 127.321 121.632  1.00  0.00     0.027 C 
BRANCH  16  17
ATOM     17  C   UNL     1     121.351 126.753 122.665  1.00  0.00     0.004 C 
BRANCH  17  18
ATOM     18  C   UNL     1     120.000 127.487 122.664  1.00  0.00     0.000 C 
BRANCH  18  19
ATOM     19  C   UNL     1     119.552 127.891 121.253  1.00  0.00    -0.003 C 
ATOM     20  C   UNL     1     118.712 129.165 121.287  1.00  0.00     0.004 C 
ENDBRANCH  18  19
ENDBRANCH  17  18
ENDBRANCH  16  17
ENDBRANCH  15  16
ENDBRANCH  13  14
ENDBRANCH  12  13
ENDBRANCH   1  11
TORSDOF 14
ENDMDL
MODEL 5
REMARK VINA RESULT:    -6.239      3.833      7.812
REMARK INTER + INTRA:         -12.745
REMARK INTER:                 -11.463
REMARK INTRA:                  -1.282
REMARK UNBOUND:                -1.400
REMARK SMILES CCCCCC=CCC=CCCCCCCCC(=O)[O-]
REMARK SMILES IDX 11 1 12 2 13 3 14 4 15 5 16 6 17 7 18 8 19 9 20 10 10 11
REMARK SMILES IDX 9 12 8 13 7 14 6 15 5 16 4 17 3 18 2 19 1 20
REMARK H PARENT
REMARK Flexibility Score: inf
ROOT
ATOM      1  C   UNL     1     130.796 127.676 125.053  1.00  0.00     0.027 C 
ENDROOT
BRANCH   1   2
ATOM      2  C   UNL     1     130.152 127.725 126.447  1.00  0.00     0.004 C 
BRANCH   2   3
ATOM      3  C   UNL     1     130.633 126.584 127.357  1.00  0.00     0.000 C 
BRANCH   3   4
ATOM      4  C   UNL     1     131.099 125.350 126.564  1.00  0.00     0.000 C 
BRANCH   4   5
ATOM      5  C   UNL     1     129.991 124.297 126.403  1.00  0.00     0.000 C 
BRANCH   5   6
ATOM      6  C   UNL     1     128.678 124.713 127.087  1.00  0.00     0.006 C 
BRANCH   6   7
ATOM      7  C   UNL     1     128.060 123.566 127.899  1.00  0.00     0.053 C 
BRANCH   7   8
ATOM      8  C   UNL     1     128.571 123.541 129.306  1.00  0.00     0.041 C 
ATOM      9  O   UNL     1     129.040 124.584 129.829  1.00  0.00    -0.550 OA
ATOM     10  O   UNL     1     128.557 122.356 130.030  1.00  0.00    -0.550 OA
ENDBRANCH   7   8
ENDBRANCH   6   7
ENDBRANCH   5   6
ENDBRANCH   4   5
ENDBRANCH   3   4
ENDBRANCH   2   3
ENDBRANCH   1   2
BRANCH   1  11
ATOM     11  C   UNL     1     129.755 127.562 123.976  1.00  0.00    -0.031 C 
ATOM     12  C   UNL     1     128.534 127.065 124.229  1.00  0.00    -0.027 C 
BRANCH  12  13
ATOM     13  C   UNL     1     127.499 126.929 123.148  1.00  0.00     0.054 C 
BRANCH  13  14
ATOM     14  C   UNL     1     127.436 128.167 122.289  1.00  0.00    -0.027 C 
ATOM     15  C   UNL     1     126.305 128.847 122.030  1.00  0.00    -0.031 C 
BRANCH  15  16
ATOM     16  C   UNL     1     124.954 128.448 122.568  1.00  0.00     0.027 C 
BRANCH  16  17
ATOM     17  C   UNL     1     124.358 127.286 121.762  1.00  0.00     0.004 C 
BRANCH  17  18
ATOM     18  C   UNL     1     122.864 127.482 121.457  1.00  0.00     0.000 C 
BRANCH  18  19
ATOM     19  C   UNL     1     121.960 126.693 122.413  1.00  0.00    -0.003 C 
ATOM     20  C   UNL     1     120.522 127.202 122.355  1.00  0.00     0.004 C 
ENDBRANCH  18  19
ENDBRANCH  17  18
ENDBRANCH  16  17
ENDBRANCH  15  16
ENDBRANCH  13  14
ENDBRANCH  12  13
ENDBRANCH   1  11
TORSDOF 14
ENDMDL
MODEL 6
REMARK VINA RESULT:    -6.236      3.986      6.147
REMARK INTER + INTRA:         -12.740
REMARK INTER:                 -12.034
REMARK INTRA:                  -0.705
REMARK UNBOUND:                -1.400
REMARK SMILES CCCCCC=CCC=CCCCCCCCC(=O)[O-]
REMARK SMILES IDX 11 1 12 2 13 3 14 4 15 5 16 6 17 7 18 8 19 9 20 10 10 11
REMARK SMILES IDX 9 12 8 13 7 14 6 15 5 16 4 17 3 18 2 19 1 20
REMARK H PARENT
REMARK Flexibility Score: inf
ROOT
ATOM      1  C   UNL     1     126.381 127.801 121.843  1.00  0.00     0.027 C 
ENDROOT
BRANCH   1   2
ATOM      2  C   UNL     1     124.908 128.135 122.121  1.00  0.00     0.004 C 
BRANCH   2   3
ATOM      3  C   UNL     1     123.954 127.027 121.651  1.00  0.00     0.000 C 
BRANCH   3   4
ATOM      4  C   UNL     1     122.484 127.481 121.625  1.00  0.00     0.000 C 
BRANCH   4   5
ATOM      5  C   UNL     1     121.591 126.648 122.558  1.00  0.00     0.000 C 
BRANCH   5   6
ATOM      6  C   UNL     1     120.139 127.154 122.595  1.00  0.00     0.006 C 
BRANCH   6   7
ATOM      7  C   UNL     1     119.802 128.033 121.383  1.00  0.00     0.053 C 
BRANCH   7   8
ATOM      8  C   UNL     1     118.782 129.077 121.718  1.00  0.00     0.041 C 
ATOM      9  O   UNL     1     118.872 129.731 122.788  1.00  0.00    -0.550 OA
ATOM     10  O   UNL     1     117.715 129.306 120.859  1.00  0.00    -0.550 OA
ENDBRANCH   7   8
ENDBRANCH   6   7
ENDBRANCH   5   6
ENDBRANCH   4   5
ENDBRANCH   3   4
ENDBRANCH   2   3
ENDBRANCH   1   2
BRANCH   1  11
ATOM     11  C   UNL     1     127.030 127.162 123.039  1.00  0.00    -0.031 C 
ATOM     12  C   UNL     1     128.319 127.381 123.339  1.00  0.00    -0.027 C 
BRANCH  12  13
ATOM     13  C   UNL     1     128.975 126.725 124.521  1.00  0.00     0.054 C 
BRANCH  13  14
ATOM     14  C   UNL     1     130.459 126.565 124.307  1.00  0.00    -0.027 C 
ATOM     15  C   UNL     1     131.284 125.948 125.172  1.00  0.00    -0.031 C 
BRANCH  15  16
ATOM     16  C   UNL     1     130.819 125.339 126.471  1.00  0.00     0.027 C 
BRANCH  16  17
ATOM     17  C   UNL     1     130.263 123.925 126.253  1.00  0.00     0.004 C 
BRANCH  17  18
ATOM     18  C   UNL     1     129.023 123.637 127.114  1.00  0.00     0.000 C 
BRANCH  18  19
ATOM     19  C   UNL     1     129.118 124.266 128.511  1.00  0.00    -0.003 C 
ATOM     20  C   UNL     1     128.467 123.371 129.561  1.00  0.00     0.004 C 
ENDBRANCH  18  19
ENDBRANCH  17  18
ENDBRANCH  16  17
ENDBRANCH  15  16
ENDBRANCH  13  14
ENDBRANCH  12  13
ENDBRANCH   1  11
TORSDOF 14
ENDMDL
MODEL 7
REMARK VINA RESULT:    -6.092      3.204      5.071
REMARK INTER + INTRA:         -12.478
REMARK INTER:                 -11.532
REMARK INTRA:                  -0.946
REMARK UNBOUND:                -1.400
REMARK SMILES CCCCCC=CCC=CCCCCCCCC(=O)[O-]
REMARK SMILES IDX 11 1 12 2 13 3 14 4 15 5 16 6 17 7 18 8 19 9 20 10 10 11
REMARK SMILES IDX 9 12 8 13 7 14 6 15 5 16 4 17 3 18 2 19 1 20
REMARK H PARENT
REMARK Flexibility Score: inf
ROOT
ATOM      1  C   UNL     1     127.544 127.133 123.710  1.00  0.00     0.027 C 
ENDROOT
BRANCH   1   2
ATOM      2  C   UNL     1     127.196 127.827 122.384  1.00  0.00     0.004 C 
BRANCH   2   3
ATOM      3  C   UNL     1     126.070 127.111 121.623  1.00  0.00     0.000 C 
BRANCH   3   4
ATOM      4  C   UNL     1     124.691 127.751 121.867  1.00  0.00     0.000 C 
BRANCH   4   5
ATOM      5  C   UNL     1     123.535 126.757 121.667  1.00  0.00     0.000 C 
BRANCH   5   6
ATOM      6  C   UNL     1     122.170 127.455 121.544  1.00  0.00     0.006 C 
BRANCH   6   7
ATOM      7  C   UNL     1     121.152 126.916 122.558  1.00  0.00     0.053 C 
BRANCH   7   8
ATOM      8  C   UNL     1     119.831 127.613 122.446  1.00  0.00     0.041 C 
ATOM      9  O   UNL     1     119.239 127.674 121.338  1.00  0.00    -0.550 OA
ATOM     10  O   UNL     1     119.269 128.220 123.560  1.00  0.00    -0.550 OA
ENDBRANCH   7   8
ENDBRANCH   6   7
ENDBRANCH   5   6
ENDBRANCH   4   5
ENDBRANCH   3   4
ENDBRANCH   2   3
ENDBRANCH   1   2
BRANCH   1  11
ATOM     11  C   UNL     1     128.997 126.752 123.761  1.00  0.00    -0.031 C 
ATOM     12  C   UNL     1     129.845 127.332 124.624  1.00  0.00    -0.027 C 
BRANCH  12  13
ATOM     13  C   UNL     1     131.303 126.968 124.661  1.00  0.00     0.054 C 
BRANCH  13  14
ATOM     14  C   UNL     1     131.756 126.657 126.066  1.00  0.00    -0.027 C 
ATOM     15  C   UNL     1     131.459 125.520 126.719  1.00  0.00    -0.031 C 
BRANCH  15  16
ATOM     16  C   UNL     1     130.628 124.412 126.122  1.00  0.00     0.027 C 
BRANCH  16  17
ATOM     17  C   UNL     1     129.341 124.188 126.927  1.00  0.00     0.004 C 
BRANCH  17  18
ATOM     18  C   UNL     1     129.135 125.249 128.021  1.00  0.00     0.000 C 
BRANCH  18  19
ATOM     19  C   UNL     1     129.022 124.634 129.422  1.00  0.00    -0.003 C 
ATOM     20  C   UNL     1     128.575 123.177 129.349  1.00  0.00     0.004 C 
ENDBRANCH  18  19
ENDBRANCH  17  18
ENDBRANCH  16  17
ENDBRANCH  15  16
ENDBRANCH  13  14
ENDBRANCH  12  13
ENDBRANCH   1  11
TORSDOF 14
ENDMDL
MODEL 8
REMARK VINA RESULT:    -5.831      4.615      8.824
REMARK INTER + INTRA:         -12.003
REMARK INTER:                 -11.092
REMARK INTRA:                  -0.911
REMARK UNBOUND:                -1.400
REMARK SMILES CCCCCC=CCC=CCCCCCCCC(=O)[O-]
REMARK SMILES IDX 11 1 12 2 13 3 14 4 15 5 16 6 17 7 18 8 19 9 20 10 10 11
REMARK SMILES IDX 9 12 8 13 7 14 6 15 5 16 4 17 3 18 2 19 1 20
REMARK H PARENT
REMARK Flexibility Score: inf
ROOT
ATOM      1  C   UNL     1     127.910 128.423 122.313  1.00  0.00     0.027 C 
ENDROOT
BRANCH   1   2
ATOM      2  C   UNL     1     128.077 127.205 123.234  1.00  0.00     0.004 C 
BRANCH   2   3
ATOM      3  C   UNL     1     129.269 127.352 124.192  1.00  0.00     0.000 C 
BRANCH   3   4
ATOM      4  C   UNL     1     130.249 126.168 124.105  1.00  0.00     0.000 C 
BRANCH   4   5
ATOM      5  C   UNL     1     131.586 126.455 124.807  1.00  0.00     0.000 C 
BRANCH   5   6
ATOM      6  C   UNL     1     131.614 125.945 126.257  1.00  0.00     0.006 C 
BRANCH   6   7
ATOM      7  C   UNL     1     130.571 124.847 126.504  1.00  0.00     0.053 C 
BRANCH   7   8
ATOM      8  C   UNL     1     129.595 125.235 127.571  1.00  0.00     0.041 C 
ATOM      9  O   UNL     1     129.027 126.356 127.534  1.00  0.00    -0.550 OA
ATOM     10  O   UNL     1     129.335 124.368 128.624  1.00  0.00    -0.550 OA
ENDBRANCH   7   8
ENDBRANCH   6   7
ENDBRANCH   5   6
ENDBRANCH   4   5
ENDBRANCH   3   4
ENDBRANCH   2   3
ENDBRANCH   1   2
BRANCH   1  11
ATOM     11  C   UNL     1     126.458 128.738 122.085  1.00  0.00    -0.031 C 
ATOM     12  C   UNL     1     125.487 127.912 122.502  1.00  0.00    -0.027 C 
BRANCH  12  13
ATOM     13  C   UNL     1     124.035 128.216 122.255  1.00  0.00     0.054 C 
BRANCH  13  14
ATOM     14  C   UNL     1     123.371 127.115 121.468  1.00  0.00    -0.027 C 
ATOM     15  C   UNL     1     122.133 126.651 121.717  1.00  0.00    -0.031 C 
BRANCH  15  16
ATOM     16  C   UNL     1     121.256 127.179 122.824  1.00  0.00     0.027 C 
BRANCH  16  17
ATOM     17  C   UNL     1     119.799 127.318 122.359  1.00  0.00     0.004 C 
BRANCH  17  18
ATOM     18  C   UNL     1     119.665 128.154 121.076  1.00  0.00     0.000 C 
BRANCH  18  19
ATOM     19  C   UNL     1     118.394 129.014 121.065  1.00  0.00    -0.003 C 
ATOM     20  C   UNL     1     118.457 130.100 122.135  1.00  0.00     0.004 C 
ENDBRANCH  18  19
ENDBRANCH  17  18
ENDBRANCH  16  17
ENDBRANCH  15  16
ENDBRANCH  13  14
ENDBRANCH  12  13
ENDBRANCH   1  11
TORSDOF 14
ENDMDL
MODEL 9
REMARK VINA RESULT:    -5.199      9.815     12.331
REMARK INTER + INTRA:         -10.854
REMARK INTER:                  -8.385
REMARK INTRA:                  -2.469
REMARK UNBOUND:                -1.400
REMARK SMILES CCCCCC=CCC=CCCCCCCCC(=O)[O-]
REMARK SMILES IDX 11 1 12 2 13 3 14 4 15 5 16 6 17 7 18 8 19 9 20 10 10 11
REMARK SMILES IDX 9 12 8 13 7 14 6 15 5 16 4 17 3 18 2 19 1 20
REMARK H PARENT
REMARK Flexibility Score: inf
ROOT
ATOM      1  C   UNL     1     119.858 123.999 131.945  1.00  0.00     0.027 C 
ENDROOT
BRANCH   1   2
ATOM      2  C   UNL     1     119.281 124.325 133.331  1.00  0.00     0.004 C 
BRANCH   2   3
ATOM      3  C   UNL     1     118.030 123.496 133.657  1.00  0.00     0.000 C 
BRANCH   3   4
ATOM      4  C   UNL     1     116.810 124.372 133.996  1.00  0.00     0.000 C 
BRANCH   4   5
ATOM      5  C   UNL     1     116.884 125.763 133.346  1.00  0.00     0.000 C 
BRANCH   5   6
ATOM      6  C   UNL     1     115.819 125.962 132.254  1.00  0.00     0.006 C 
BRANCH   6   7
ATOM      7  C   UNL     1     116.377 126.705 131.032  1.00  0.00     0.053 C 
BRANCH   7   8
ATOM      8  C   UNL     1     116.103 128.175 131.101  1.00  0.00     0.041 C 
ATOM      9  O   UNL     1     115.064 128.652 130.577  1.00  0.00    -0.550 OA
ATOM     10  O   UNL     1     117.012 129.023 131.719  1.00  0.00    -0.550 OA
ENDBRANCH   7   8
ENDBRANCH   6   7
ENDBRANCH   5   6
ENDBRANCH   4   5
ENDBRANCH   3   4
ENDBRANCH   2   3
ENDBRANCH   1   2
BRANCH   1  11
ATOM     11  C   UNL     1     119.717 125.165 131.007  1.00  0.00    -0.031 C 
ATOM     12  C   UNL     1     120.287 126.351 131.271  1.00  0.00    -0.027 C 
BRANCH  12  13
ATOM     13  C   UNL     1     120.128 127.524 130.345  1.00  0.00     0.054 C 
BRANCH  13  14
ATOM     14  C   UNL     1     121.414 127.828 129.618  1.00  0.00    -0.027 C 
ATOM     15  C   UNL     1     122.379 128.633 130.097  1.00  0.00    -0.031 C 
BRANCH  15  16
ATOM     16  C   UNL     1     122.289 129.335 131.429  1.00  0.00     0.027 C 
BRANCH  16  17
ATOM     17  C   UNL     1     122.916 128.488 132.545  1.00  0.00     0.004 C 
BRANCH  17  18
ATOM     18  C   UNL     1     122.135 128.579 133.866  1.00  0.00     0.000 C 
BRANCH  18  19
ATOM     19  C   UNL     1     120.778 129.275 133.700  1.00  0.00    -0.003 C 
ATOM     20  C   UNL     1     119.637 128.372 134.160  1.00  0.00     0.004 C 
ENDBRANCH  18  19
ENDBRANCH  17  18
ENDBRANCH  16  17
ENDBRANCH  15  16
ENDBRANCH  13  14
ENDBRANCH  12  13
ENDBRANCH   1  11
TORSDOF 14
ENDMDL
