MODEL 1
REMARK VINA RESULT:    -5.047      0.000      0.000
REMARK INTER + INTRA:          -6.241
REMARK INTER:                  -6.079
REMARK INTRA:                  -0.162
REMARK UNBOUND:                -0.162
REMARK SMILES O=c1ccn([C@H]2O[C@@H](CO)[C@@H](O)[C@H]2O)c(=O)[nH]1
REMARK SMILES IDX 6 1 13 2 11 3 8 4 7 5 5 6 3 7 4 8 2 9 17 10 1 11 15 12 16 14
REMARK SMILES IDX 14 15 12 17 9 19 10 20
REMARK H PARENT 17 13 14 16 12 18 10 21
REMARK Flexibility Score: inf
ROOT
ATOM      1  C   UNL     1      27.718   5.227 -12.722  1.00  0.00     0.255 C 
ATOM      2  C   UNL     1      28.323   3.955 -12.106  1.00  0.00     0.196 C 
ATOM      3  C   UNL     1      27.310   2.885 -12.436  1.00  0.00     0.179 C 
ATOM      4  C   UNL     1      26.030   3.709 -12.566  1.00  0.00     0.178 C 
ATOM      5  O   UNL     1      26.372   4.974 -13.084  1.00  0.00    -0.347 OA
ENDROOT
BRANCH   1   6
ATOM      6  N   UNL     1      28.485   5.696 -13.898  1.00  0.00    -0.271 N 
ATOM      7  C   UNL     1      28.812   5.751 -16.276  1.00  0.00     0.090 A 
ATOM      8  C   UNL     1      28.085   5.345 -15.160  1.00  0.00     0.099 A 
ATOM      9  C   UNL     1      29.959   6.511 -16.082  1.00  0.00     0.253 A 
ATOM     10  N   UNL     1      30.352   6.834 -14.824  1.00  0.00    -0.274 N 
ATOM     11  O   UNL     1      30.637   6.894 -17.075  1.00  0.00    -0.269 OA
ATOM     12  C   UNL     1      29.636   6.430 -13.737  1.00  0.00     0.330 A 
ATOM     13  H   UNL     1      31.222   7.398 -14.685  1.00  0.00     0.175 HD
ATOM     14  O   UNL     1      30.047   6.734 -12.584  1.00  0.00    -0.248 OA
ENDBRANCH   1   6
BRANCH   2  15
ATOM     15  O   UNL     1      29.598   3.660 -12.622  1.00  0.00    -0.386 OA
ATOM     16  H   UNL     1      30.203   3.569 -11.840  1.00  0.00     0.211 HD
ENDBRANCH   2  15
BRANCH   3  17
ATOM     17  O   UNL     1      27.645   2.255 -13.650  1.00  0.00    -0.387 OA
ATOM     18  H   UNL     1      27.581   1.277 -13.492  1.00  0.00     0.211 HD
ENDBRANCH   3  17
BRANCH   4  19
ATOM     19  C   UNL     1      24.960   3.049 -13.443  1.00  0.00     0.191 C 
BRANCH  19  20
ATOM     20  O   UNL     1      23.872   2.669 -12.647  1.00  0.00    -0.394 OA
ATOM     21  H   UNL     1      23.496   1.852 -13.067  1.00  0.00     0.210 HD
ENDBRANCH  19  20
ENDBRANCH   4  19
TORSDOF 5
ENDMDL
MODEL 2
REMARK VINA RESULT:    -5.024      1.662      3.151
REMARK INTER + INTRA:          -6.213
REMARK INTER:                  -5.832
REMARK INTRA:                  -0.382
REMARK UNBOUND:                -0.162
REMARK SMILES O=c1ccn([C@H]2O[C@@H](CO)[C@@H](O)[C@H]2O)c(=O)[nH]1
REMARK SMILES IDX 6 1 13 2 11 3 8 4 7 5 5 6 3 7 4 8 2 9 17 10 1 11 15 12 16 14
REMARK SMILES IDX 14 15 12 17 9 19 10 20
REMARK H PARENT 17 13 14 16 12 18 10 21
REMARK Flexibility Score: inf
ROOT
ATOM      1  C   UNL     1      27.290   3.641 -14.125  1.00  0.00     0.255 C 
ATOM      2  C   UNL     1      25.935   4.307 -14.415  1.00  0.00     0.196 C 
ATOM      3  C   UNL     1      24.985   3.599 -13.479  1.00  0.00     0.179 C 
ATOM      4  C   UNL     1      25.689   2.257 -13.291  1.00  0.00     0.178 C 
ATOM      5  O   UNL     1      27.080   2.478 -13.346  1.00  0.00    -0.347 OA
ENDROOT
BRANCH   1   6
ATOM      6  N   UNL     1      28.225   4.558 -13.435  1.00  0.00    -0.271 N 
ATOM      7  C   UNL     1      29.164   5.421 -11.401  1.00  0.00     0.090 A 
ATOM      8  C   UNL     1      28.313   4.545 -12.068  1.00  0.00     0.099 A 
ATOM      9  C   UNL     1      29.914   6.320 -12.149  1.00  0.00     0.253 A 
ATOM     10  N   UNL     1      29.801   6.333 -13.502  1.00  0.00    -0.274 N 
ATOM     11  O   UNL     1      30.694   7.125 -11.571  1.00  0.00    -0.269 OA
ATOM     12  C   UNL     1      28.964   5.473 -14.147  1.00  0.00     0.330 A 
ATOM     13  H   UNL     1      30.361   7.019 -14.058  1.00  0.00     0.175 HD
ATOM     14  O   UNL     1      28.873   5.533 -15.404  1.00  0.00    -0.248 OA
ENDBRANCH   1   6
BRANCH   2  15
ATOM     15  O   UNL     1      25.959   5.697 -14.200  1.00  0.00    -0.386 OA
ATOM     16  H   UNL     1      26.036   5.828 -13.218  1.00  0.00     0.211 HD
ENDBRANCH   2  15
BRANCH   3  17
ATOM     17  O   UNL     1      24.882   4.304 -12.265  1.00  0.00    -0.387 OA
ATOM     18  H   UNL     1      25.055   3.650 -11.538  1.00  0.00     0.211 HD
ENDBRANCH   3  17
BRANCH   4  19
ATOM     19  C   UNL     1      25.317   1.544 -11.985  1.00  0.00     0.191 C 
BRANCH  19  20
ATOM     20  O   UNL     1      23.923   1.487 -11.864  1.00  0.00    -0.394 OA
ATOM     21  H   UNL     1      23.708   1.876 -10.977  1.00  0.00     0.210 HD
ENDBRANCH  19  20
ENDBRANCH   4  19
TORSDOF 5
ENDMDL
MODEL 3
REMARK VINA RESULT:    -4.881      2.077      5.056
REMARK INTER + INTRA:          -6.041
REMARK INTER:                  -5.592
REMARK INTRA:                  -0.449
REMARK UNBOUND:                -0.162
REMARK SMILES O=c1ccn([C@H]2O[C@@H](CO)[C@@H](O)[C@H]2O)c(=O)[nH]1
REMARK SMILES IDX 6 1 13 2 11 3 8 4 7 5 5 6 3 7 4 8 2 9 17 10 1 11 15 12 16 14
REMARK SMILES IDX 14 15 12 17 9 19 10 20
REMARK H PARENT 17 13 14 16 12 18 10 21
REMARK Flexibility Score: inf
ROOT
ATOM      1  C   UNL     1      28.972   4.183 -13.051  1.00  0.00     0.255 C 
ATOM      2  C   UNL     1      29.192   5.161 -11.886  1.00  0.00     0.196 C 
ATOM      3  C   UNL     1      29.305   6.504 -12.567  1.00  0.00     0.179 C 
ATOM      4  C   UNL     1      29.802   6.099 -13.954  1.00  0.00     0.178 C 
ATOM      5  O   UNL     1      29.243   4.846 -14.273  1.00  0.00    -0.347 OA
ENDROOT
BRANCH   1   6
ATOM      6  N   UNL     1      27.600   3.629 -13.062  1.00  0.00    -0.271 N 
ATOM      7  C   UNL     1      25.330   3.720 -13.840  1.00  0.00     0.090 A 
ATOM      8  C   UNL     1      26.634   4.209 -13.841  1.00  0.00     0.099 A 
ATOM      9  C   UNL     1      25.025   2.639 -13.023  1.00  0.00     0.253 A 
ATOM     10  N   UNL     1      25.990   2.088 -12.243  1.00  0.00    -0.274 N 
ATOM     11  O   UNL     1      23.853   2.175 -13.003  1.00  0.00    -0.269 OA
ATOM     12  C   UNL     1      27.263   2.574 -12.248  1.00  0.00     0.330 A 
ATOM     13  H   UNL     1      25.751   1.280 -11.623  1.00  0.00     0.175 HD
ATOM     14  O   UNL     1      28.125   2.046 -11.492  1.00  0.00    -0.248 OA
ENDBRANCH   1   6
BRANCH   2  15
ATOM     15  O   UNL     1      28.146   5.126 -10.947  1.00  0.00    -0.386 OA
ATOM     16  H   UNL     1      27.489   5.814 -11.232  1.00  0.00     0.211 HD
ENDBRANCH   2  15
BRANCH   3  17
ATOM     17  O   UNL     1      28.043   7.125 -12.631  1.00  0.00    -0.387 OA
ATOM     18  H   UNL     1      27.917   7.605 -11.771  1.00  0.00     0.211 HD
ENDBRANCH   3  17
BRANCH   4  19
ATOM     19  C   UNL     1      29.471   7.121 -15.048  1.00  0.00     0.191 C 
BRANCH  19  20
ATOM     20  O   UNL     1      28.230   6.811 -15.619  1.00  0.00    -0.394 OA
ATOM     21  H   UNL     1      28.079   5.847 -15.441  1.00  0.00     0.210 HD
ENDBRANCH  19  20
ENDBRANCH   4  19
TORSDOF 5
ENDMDL
MODEL 4
REMARK VINA RESULT:    -4.780      2.158      5.171
REMARK INTER + INTRA:          -5.920
REMARK INTER:                  -5.549
REMARK INTRA:                  -0.371
REMARK UNBOUND:                -0.162
REMARK SMILES O=c1ccn([C@H]2O[C@@H](CO)[C@@H](O)[C@H]2O)c(=O)[nH]1
REMARK SMILES IDX 6 1 13 2 11 3 8 4 7 5 5 6 3 7 4 8 2 9 17 10 1 11 15 12 16 14
REMARK SMILES IDX 14 15 12 17 9 19 10 20
REMARK H PARENT 17 13 14 16 12 18 10 21
REMARK Flexibility Score: inf
ROOT
ATOM      1  C   UNL     1      28.058   5.594 -14.155  1.00  0.00     0.255 C 
ATOM      2  C   UNL     1      27.681   6.377 -15.424  1.00  0.00     0.196 C 
ATOM      3  C   UNL     1      28.516   5.727 -16.501  1.00  0.00     0.179 C 
ATOM      4  C   UNL     1      29.686   5.177 -15.688  1.00  0.00     0.178 C 
ATOM      5  O   UNL     1      29.202   4.804 -14.419  1.00  0.00    -0.347 OA
ENDROOT
BRANCH   1   6
ATOM      6  N   UNL     1      26.946   4.742 -13.676  1.00  0.00    -0.271 N 
ATOM      7  C   UNL     1      25.787   2.640 -13.690  1.00  0.00     0.090 A 
ATOM      8  C   UNL     1      26.843   3.446 -14.106  1.00  0.00     0.099 A 
ATOM      9  C   UNL     1      24.831   3.182 -12.838  1.00  0.00     0.253 A 
ATOM     10  N   UNL     1      24.938   4.474 -12.438  1.00  0.00    -0.274 N 
ATOM     11  O   UNL     1      23.864   2.475 -12.445  1.00  0.00    -0.269 OA
ATOM     12  C   UNL     1      25.974   5.257 -12.851  1.00  0.00     0.330 A 
ATOM     13  H   UNL     1      24.210   4.879 -11.804  1.00  0.00     0.175 HD
ATOM     14  O   UNL     1      26.024   6.459 -12.472  1.00  0.00    -0.248 OA
ENDBRANCH   1   6
BRANCH   2  15
ATOM     15  O   UNL     1      26.305   6.317 -15.707  1.00  0.00    -0.386 OA
ATOM     16  H   UNL     1      25.914   5.666 -15.067  1.00  0.00     0.211 HD
ENDBRANCH   2  15
BRANCH   3  17
ATOM     17  O   UNL     1      27.789   4.695 -17.125  1.00  0.00    -0.387 OA
ATOM     18  H   UNL     1      27.446   5.063 -17.980  1.00  0.00     0.211 HD
ENDBRANCH   3  17
BRANCH   4  19
ATOM     19  C   UNL     1      30.396   3.992 -16.354  1.00  0.00     0.191 C 
BRANCH  19  20
ATOM     20  O   UNL     1      30.009   2.802 -15.728  1.00  0.00    -0.394 OA
ATOM     21  H   UNL     1      29.893   3.021 -14.767  1.00  0.00     0.210 HD
ENDBRANCH  19  20
ENDBRANCH   4  19
TORSDOF 5
ENDMDL
MODEL 5
REMARK VINA RESULT:    -4.766      2.363      5.247
REMARK INTER + INTRA:          -5.903
REMARK INTER:                  -5.443
REMARK INTRA:                  -0.460
REMARK UNBOUND:                -0.162
REMARK SMILES O=c1ccn([C@H]2O[C@@H](CO)[C@@H](O)[C@H]2O)c(=O)[nH]1
REMARK SMILES IDX 6 1 13 2 11 3 8 4 7 5 5 6 3 7 4 8 2 9 17 10 1 11 15 12 16 14
REMARK SMILES IDX 14 15 12 17 9 19 10 20
REMARK H PARENT 17 13 14 16 12 18 10 21
REMARK Flexibility Score: inf
ROOT
ATOM      1  C   UNL     1      26.732   3.994 -14.055  1.00  0.00     0.255 C 
ATOM      2  C   UNL     1      27.741   2.973 -13.504  1.00  0.00     0.196 C 
ATOM      3  C   UNL     1      29.076   3.648 -13.711  1.00  0.00     0.179 C 
ATOM      4  C   UNL     1      28.769   4.574 -14.886  1.00  0.00     0.178 C 
ATOM      5  O   UNL     1      27.428   4.993 -14.777  1.00  0.00    -0.347 OA
ENDROOT
BRANCH   1   6
ATOM      6  N   UNL     1      25.919   4.609 -12.982  1.00  0.00    -0.271 N 
ATOM      7  C   UNL     1      25.572   6.378 -11.396  1.00  0.00     0.090 A 
ATOM      8  C   UNL     1      26.307   5.800 -12.427  1.00  0.00     0.099 A 
ATOM      9  C   UNL     1      24.443   5.715 -10.931  1.00  0.00     0.253 A 
ATOM     10  N   UNL     1      24.083   4.526 -11.479  1.00  0.00    -0.274 N 
ATOM     11  O   UNL     1      23.757   6.215  -9.998  1.00  0.00    -0.269 OA
ATOM     12  C   UNL     1      24.810   3.966 -12.486  1.00  0.00     0.330 A 
ATOM     13  H   UNL     1      23.237   4.027 -11.117  1.00  0.00     0.175 HD
ATOM     14  O   UNL     1      24.453   2.850 -12.953  1.00  0.00    -0.248 OA
ENDBRANCH   1   6
BRANCH   2  15
ATOM     15  O   UNL     1      27.506   2.657 -12.154  1.00  0.00    -0.386 OA
ATOM     16  H   UNL     1      27.525   1.666 -12.090  1.00  0.00     0.211 HD
ENDBRANCH   2  15
BRANCH   3  17
ATOM     17  O   UNL     1      29.437   4.374 -12.561  1.00  0.00    -0.387 OA
ATOM     18  H   UNL     1      28.938   5.232 -12.595  1.00  0.00     0.211 HD
ENDBRANCH   3  17
BRANCH   4  19
ATOM     19  C   UNL     1      29.700   5.789 -14.971  1.00  0.00     0.191 C 
BRANCH  19  20
ATOM     20  O   UNL     1      29.201   6.818 -14.163  1.00  0.00    -0.394 OA
ATOM     21  H   UNL     1      28.322   7.070 -14.548  1.00  0.00     0.210 HD
ENDBRANCH  19  20
ENDBRANCH   4  19
TORSDOF 5
ENDMDL
MODEL 6
REMARK VINA RESULT:    -4.726      2.251      4.770
REMARK INTER + INTRA:          -5.855
REMARK INTER:                  -5.494
REMARK INTRA:                  -0.361
REMARK UNBOUND:                -0.162
REMARK SMILES O=c1ccn([C@H]2O[C@@H](CO)[C@@H](O)[C@H]2O)c(=O)[nH]1
REMARK SMILES IDX 6 1 13 2 11 3 8 4 7 5 5 6 3 7 4 8 2 9 17 10 1 11 15 12 16 14
REMARK SMILES IDX 14 15 12 17 9 19 10 20
REMARK H PARENT 17 13 14 16 12 18 10 21
REMARK Flexibility Score: inf
ROOT
ATOM      1  C   UNL     1      27.460   4.389 -15.153  1.00  0.00     0.255 C 
ATOM      2  C   UNL     1      27.736   2.885 -14.993  1.00  0.00     0.196 C 
ATOM      3  C   UNL     1      29.152   2.730 -15.492  1.00  0.00     0.179 C 
ATOM      4  C   UNL     1      29.268   3.915 -16.449  1.00  0.00     0.178 C 
ATOM      5  O   UNL     1      28.482   4.968 -15.942  1.00  0.00    -0.347 OA
ENDROOT
BRANCH   1   6
ATOM      6  N   UNL     1      27.366   5.080 -13.847  1.00  0.00    -0.271 N 
ATOM      7  C   UNL     1      28.391   6.374 -12.105  1.00  0.00     0.090 A 
ATOM      8  C   UNL     1      28.452   5.745 -13.345  1.00  0.00     0.099 A 
ATOM      9  C   UNL     1      27.208   6.303 -11.380  1.00  0.00     0.253 A 
ATOM     10  N   UNL     1      26.147   5.623 -11.884  1.00  0.00    -0.274 N 
ATOM     11  O   UNL     1      27.124   6.864 -10.254  1.00  0.00    -0.269 OA
ATOM     12  C   UNL     1      26.215   5.008 -13.097  1.00  0.00     0.330 A 
ATOM     13  H   UNL     1      25.262   5.565 -11.328  1.00  0.00     0.175 HD
ATOM     14  O   UNL     1      25.213   4.369 -13.519  1.00  0.00    -0.248 OA
ENDBRANCH   1   6
BRANCH   2  15
ATOM     15  O   UNL     1      27.587   2.447 -13.665  1.00  0.00    -0.386 OA
ATOM     16  H   UNL     1      26.826   1.810 -13.662  1.00  0.00     0.211 HD
ENDBRANCH   2  15
BRANCH   3  17
ATOM     17  O   UNL     1      30.060   2.840 -14.421  1.00  0.00    -0.387 OA
ATOM     18  H   UNL     1      29.518   2.907 -13.592  1.00  0.00     0.211 HD
ENDBRANCH   3  17
BRANCH   4  19
ATOM     19  C   UNL     1      30.709   4.388 -16.672  1.00  0.00     0.191 C 
BRANCH  19  20
ATOM     20  O   UNL     1      31.539   3.279 -16.881  1.00  0.00    -0.394 OA
ATOM     21  H   UNL     1      31.439   2.705 -16.079  1.00  0.00     0.210 HD
ENDBRANCH  19  20
ENDBRANCH   4  19
TORSDOF 5
ENDMDL
MODEL 7
REMARK VINA RESULT:    -4.664      2.267      4.505
REMARK INTER + INTRA:          -5.780
REMARK INTER:                  -5.647
REMARK INTRA:                  -0.133
REMARK UNBOUND:                -0.162
REMARK SMILES O=c1ccn([C@H]2O[C@@H](CO)[C@@H](O)[C@H]2O)c(=O)[nH]1
REMARK SMILES IDX 6 1 13 2 11 3 8 4 7 5 5 6 3 7 4 8 2 9 17 10 1 11 15 12 16 14
REMARK SMILES IDX 14 15 12 17 9 19 10 20
REMARK H PARENT 17 13 14 16 12 18 10 21
REMARK Flexibility Score: inf
ROOT
ATOM      1  C   UNL     1      29.229   5.026 -13.232  1.00  0.00     0.255 C 
ATOM      2  C   UNL     1      29.612   5.932 -14.413  1.00  0.00     0.196 C 
ATOM      3  C   UNL     1      29.354   5.065 -15.622  1.00  0.00     0.179 C 
ATOM      4  C   UNL     1      29.517   3.666 -15.033  1.00  0.00     0.178 C 
ATOM      5  O   UNL     1      29.073   3.697 -13.696  1.00  0.00    -0.347 OA
ENDROOT
BRANCH   1   6
ATOM      6  N   UNL     1      27.993   5.482 -12.558  1.00  0.00    -0.271 N 
ATOM      7  C   UNL     1      25.616   5.330 -12.255  1.00  0.00     0.090 A 
ATOM      8  C   UNL     1      26.793   4.893 -12.856  1.00  0.00     0.099 A 
ATOM      9  C   UNL     1      25.682   6.385 -11.353  1.00  0.00     0.253 A 
ATOM     10  N   UNL     1      26.877   6.970 -11.082  1.00  0.00    -0.274 N 
ATOM     11  O   UNL     1      24.632   6.801 -10.792  1.00  0.00    -0.269 OA
ATOM     12  C   UNL     1      28.024   6.538 -11.677  1.00  0.00     0.330 A 
ATOM     13  H   UNL     1      26.917   7.770 -10.409  1.00  0.00     0.175 HD
ATOM     14  O   UNL     1      29.110   7.123 -11.413  1.00  0.00    -0.248 OA
ENDBRANCH   1   6
BRANCH   2  15
ATOM     15  O   UNL     1      28.866   7.124 -14.443  1.00  0.00    -0.386 OA
ATOM     16  H   UNL     1      27.986   6.916 -14.033  1.00  0.00     0.211 HD
ENDBRANCH   2  15
BRANCH   3  17
ATOM     17  O   UNL     1      28.047   5.275 -16.101  1.00  0.00    -0.387 OA
ATOM     18  H   UNL     1      27.433   5.125 -15.336  1.00  0.00     0.211 HD
ENDBRANCH   3  17
BRANCH   4  19
ATOM     19  C   UNL     1      28.770   2.578 -15.814  1.00  0.00     0.191 C 
BRANCH  19  20
ATOM     20  O   UNL     1      29.628   1.497 -16.048  1.00  0.00    -0.394 OA
ATOM     21  H   UNL     1      29.930   1.583 -16.989  1.00  0.00     0.210 HD
ENDBRANCH  19  20
ENDBRANCH   4  19
TORSDOF 5
ENDMDL
MODEL 8
REMARK VINA RESULT:    -4.499      1.892      2.219
REMARK INTER + INTRA:          -5.581
REMARK INTER:                  -5.321
REMARK INTRA:                  -0.260
REMARK UNBOUND:                -0.162
REMARK SMILES O=c1ccn([C@H]2O[C@@H](CO)[C@@H](O)[C@H]2O)c(=O)[nH]1
REMARK SMILES IDX 6 1 13 2 11 3 8 4 7 5 5 6 3 7 4 8 2 9 17 10 1 11 15 12 16 14
REMARK SMILES IDX 14 15 12 17 9 19 10 20
REMARK H PARENT 17 13 14 16 12 18 10 21
REMARK Flexibility Score: inf
ROOT
ATOM      1  C   UNL     1      26.895   5.203 -14.706  1.00  0.00     0.255 C 
ATOM      2  C   UNL     1      27.129   5.496 -13.215  1.00  0.00     0.196 C 
ATOM      3  C   UNL     1      26.366   4.398 -12.515  1.00  0.00     0.179 C 
ATOM      4  C   UNL     1      25.303   4.055 -13.556  1.00  0.00     0.178 C 
ATOM      5  O   UNL     1      25.864   4.242 -14.835  1.00  0.00    -0.347 OA
ENDROOT
BRANCH   1   6
ATOM      6  N   UNL     1      28.124   4.731 -15.381  1.00  0.00    -0.271 N 
ATOM      7  C   UNL     1      29.516   2.925 -16.134  1.00  0.00     0.090 A 
ATOM      8  C   UNL     1      28.350   3.388 -15.530  1.00  0.00     0.099 A 
ATOM      9  C   UNL     1      30.452   3.853 -16.573  1.00  0.00     0.253 A 
ATOM     10  N   UNL     1      30.221   5.179 -16.401  1.00  0.00    -0.274 N 
ATOM     11  O   UNL     1      31.516   3.462 -17.125  1.00  0.00    -0.269 OA
ATOM     12  C   UNL     1      29.079   5.624 -15.806  1.00  0.00     0.330 A 
ATOM     13  H   UNL     1      30.935   5.872 -16.725  1.00  0.00     0.175 HD
ATOM     14  O   UNL     1      28.913   6.865 -15.647  1.00  0.00    -0.248 OA
ENDBRANCH   1   6
BRANCH   2  15
ATOM     15  O   UNL     1      28.494   5.499 -12.874  1.00  0.00    -0.386 OA
ATOM     16  H   UNL     1      28.569   6.008 -12.024  1.00  0.00     0.211 HD
ENDBRANCH   2  15
BRANCH   3  17
ATOM     17  O   UNL     1      27.213   3.302 -12.261  1.00  0.00    -0.387 OA
ATOM     18  H   UNL     1      27.934   3.333 -12.943  1.00  0.00     0.211 HD
ENDBRANCH   3  17
BRANCH   4  19
ATOM     19  C   UNL     1      24.747   2.632 -13.423  1.00  0.00     0.191 C 
BRANCH  19  20
ATOM     20  O   UNL     1      23.999   2.530 -12.245  1.00  0.00    -0.394 OA
ATOM     21  H   UNL     1      23.971   3.442 -11.856  1.00  0.00     0.210 HD
ENDBRANCH  19  20
ENDBRANCH   4  19
TORSDOF 5
ENDMDL
MODEL 9
REMARK VINA RESULT:    -4.459      2.038      5.442
REMARK INTER + INTRA:          -5.533
REMARK INTER:                  -5.178
REMARK INTRA:                  -0.355
REMARK UNBOUND:                -0.162
REMARK SMILES O=c1ccn([C@H]2O[C@@H](CO)[C@@H](O)[C@H]2O)c(=O)[nH]1
REMARK SMILES IDX 6 1 13 2 11 3 8 4 7 5 5 6 3 7 4 8 2 9 17 10 1 11 15 12 16 14
REMARK SMILES IDX 14 15 12 17 9 19 10 20
REMARK H PARENT 17 13 14 16 12 18 10 21
REMARK Flexibility Score: inf
ROOT
ATOM      1  C   UNL     1      27.141   5.456 -14.136  1.00  0.00     0.255 C 
ATOM      2  C   UNL     1      27.487   5.178 -15.608  1.00  0.00     0.196 C 
ATOM      3  C   UNL     1      28.887   5.726 -15.751  1.00  0.00     0.179 C 
ATOM      4  C   UNL     1      28.910   6.788 -14.653  1.00  0.00     0.178 C 
ATOM      5  O   UNL     1      28.103   6.339 -13.589  1.00  0.00    -0.347 OA
ENDROOT
BRANCH   1   6
ATOM      6  N   UNL     1      27.073   4.212 -13.335  1.00  0.00    -0.271 N 
ATOM      7  C   UNL     1      28.119   2.633 -11.861  1.00  0.00     0.090 A 
ATOM      8  C   UNL     1      28.154   3.815 -12.596  1.00  0.00     0.099 A 
ATOM      9  C   UNL     1      26.967   1.857 -11.904  1.00  0.00     0.253 A 
ATOM     10  N   UNL     1      25.911   2.256 -12.657  1.00  0.00    -0.274 N 
ATOM     11  O   UNL     1      26.907   0.782 -11.248  1.00  0.00    -0.269 OA
ATOM     12  C   UNL     1      25.955   3.413 -13.375  1.00  0.00     0.330 A 
ATOM     13  H   UNL     1      25.051   1.662 -12.692  1.00  0.00     0.175 HD
ATOM     14  O   UNL     1      24.959   3.737 -14.079  1.00  0.00    -0.248 OA
ENDBRANCH   1   6
BRANCH   2  15
ATOM     15  O   UNL     1      27.415   3.811 -15.931  1.00  0.00    -0.386 OA
ATOM     16  H   UNL     1      27.197   3.762 -16.898  1.00  0.00     0.211 HD
ENDBRANCH   2  15
BRANCH   3  17
ATOM     17  O   UNL     1      29.834   4.713 -15.510  1.00  0.00    -0.387 OA
ATOM     18  H   UNL     1      29.504   4.191 -14.733  1.00  0.00     0.211 HD
ENDBRANCH   3  17
BRANCH   4  19
ATOM     19  C   UNL     1      30.319   7.118 -14.146  1.00  0.00     0.191 C 
BRANCH  19  20
ATOM     20  O   UNL     1      31.215   7.125 -15.222  1.00  0.00    -0.394 OA
ATOM     21  H   UNL     1      31.928   6.475 -14.992  1.00  0.00     0.210 HD
ENDBRANCH  19  20
ENDBRANCH   4  19
TORSDOF 5
ENDMDL
