MODEL 1
REMARK VINA RESULT:    -4.975      0.000      0.000
REMARK INTER + INTRA:         -14.366
REMARK INTER:                 -11.374
REMARK INTRA:                  -2.992
REMARK UNBOUND:                -2.992
REMARK SMILES CCCCCCCCCCCCCCCCCCCCCCCC(=O)[O-]
REMARK SMILES IDX 13 1 14 2 15 3 16 4 17 5 18 6 19 7 20 8 21 9 22 10 23 11
REMARK SMILES IDX 24 12 25 13 26 14 12 15 11 16 10 17 9 18 8 19 7 20 6 21 5 22
REMARK SMILES IDX 4 23 3 24 2 25 1 26
REMARK H PARENT
REMARK Flexibility Score: inf
ROOT
ATOM      1  C   UNL     1     -23.232  -7.465  18.199  1.00  0.00     0.000 C 
ENDROOT
BRANCH   1   2
ATOM      2  C   UNL     1     -22.715  -6.043  17.918  1.00  0.00     0.000 C 
BRANCH   2   3
ATOM      3  C   UNL     1     -21.350  -6.041  17.213  1.00  0.00     0.000 C 
BRANCH   3   4
ATOM      4  C   UNL     1     -21.223  -4.928  16.164  1.00  0.00     0.000 C 
BRANCH   4   5
ATOM      5  C   UNL     1     -20.530  -5.450  14.897  1.00  0.00     0.000 C 
BRANCH   5   6
ATOM      6  C   UNL     1     -19.031  -5.110  14.862  1.00  0.00     0.000 C 
BRANCH   6   7
ATOM      7  C   UNL     1     -18.151  -6.349  14.614  1.00  0.00     0.000 C 
BRANCH   7   8
ATOM      8  C   UNL     1     -18.981  -7.592  14.228  1.00  0.00     0.000 C 
BRANCH   8   9
ATOM      9  C   UNL     1     -19.297  -8.524  15.413  1.00  0.00     0.000 C 
BRANCH   9  10
ATOM     10  C   UNL     1     -18.375  -8.362  16.631  1.00  0.00     0.006 C 
BRANCH  10  11
ATOM     11  C   UNL     1     -18.858  -9.154  17.854  1.00  0.00     0.053 C 
BRANCH  11  12
ATOM     12  C   UNL     1     -17.710  -9.835  18.529  1.00  0.00     0.041 C 
ATOM     13  O   UNL     1     -17.843 -11.001  18.987  1.00  0.00    -0.550 OA
ATOM     14  O   UNL     1     -16.486  -9.185  18.647  1.00  0.00    -0.550 OA
ENDBRANCH  11  12
ENDBRANCH  10  11
ENDBRANCH   9  10
ENDBRANCH   8   9
ENDBRANCH   7   8
ENDBRANCH   6   7
ENDBRANCH   5   6
ENDBRANCH   4   5
ENDBRANCH   3   4
ENDBRANCH   2   3
ENDBRANCH   1   2
BRANCH   1  15
ATOM     15  C   UNL     1     -22.435  -8.546  17.446  1.00  0.00     0.000 C 
BRANCH  15  16
ATOM     16  C   UNL     1     -23.241  -9.308  16.375  1.00  0.00     0.000 C 
BRANCH  16  17
ATOM     17  C   UNL     1     -22.904  -8.852  14.945  1.00  0.00     0.000 C 
BRANCH  17  18
ATOM     18  C   UNL     1     -23.664  -7.581  14.535  1.00  0.00    -0.000 C 
BRANCH  18  19
ATOM     19  C   UNL     1     -24.937  -7.356  15.370  1.00  0.00    -0.000 C 
BRANCH  19  20
ATOM     20  C   UNL     1     -26.135  -6.919  14.511  1.00  0.00    -0.000 C 
BRANCH  20  21
ATOM     21  C   UNL     1     -27.422  -6.746  15.336  1.00  0.00    -0.000 C 
BRANCH  21  22
ATOM     22  C   UNL     1     -27.279  -5.688  16.442  1.00  0.00    -0.000 C 
BRANCH  22  23
ATOM     23  C   UNL     1     -27.076  -6.309  17.833  1.00  0.00    -0.000 C 
BRANCH  23  24
ATOM     24  C   UNL     1     -26.877  -5.216  18.894  1.00  0.00    -0.000 C 
BRANCH  24  25
ATOM     25  C   UNL     1     -25.873  -5.624  19.983  1.00  0.00    -0.003 C 
ATOM     26  C   UNL     1     -26.231  -5.062  21.359  1.00  0.00     0.004 C 
ENDBRANCH  24  25
ENDBRANCH  23  24
ENDBRANCH  22  23
ENDBRANCH  21  22
ENDBRANCH  20  21
ENDBRANCH  19  20
ENDBRANCH  18  19
ENDBRANCH  17  18
ENDBRANCH  16  17
ENDBRANCH  15  16
ENDBRANCH   1  15
TORSDOF 22
ENDMDL
MODEL 2
REMARK VINA RESULT:    -4.929      0.714      3.408
REMARK INTER + INTRA:         -14.261
REMARK INTER:                 -11.092
REMARK INTRA:                  -3.169
REMARK UNBOUND:                -2.992
REMARK SMILES CCCCCCCCCCCCCCCCCCCCCCCC(=O)[O-]
REMARK SMILES IDX 13 1 14 2 15 3 16 4 17 5 18 6 19 7 20 8 21 9 22 10 23 11
REMARK SMILES IDX 24 12 25 13 26 14 12 15 11 16 10 17 9 18 8 19 7 20 6 21 5 22
REMARK SMILES IDX 4 23 3 24 2 25 1 26
REMARK H PARENT
REMARK Flexibility Score: inf
ROOT
ATOM      1  C   UNL     1     -23.287  -7.302  18.599  1.00  0.00     0.000 C 
ENDROOT
BRANCH   1   2
ATOM      2  C   UNL     1     -22.656  -5.990  18.100  1.00  0.00     0.000 C 
BRANCH   2   3
ATOM      3  C   UNL     1     -21.471  -6.231  17.150  1.00  0.00     0.000 C 
BRANCH   3   4
ATOM      4  C   UNL     1     -21.174  -5.022  16.252  1.00  0.00     0.000 C 
BRANCH   4   5
ATOM      5  C   UNL     1     -20.716  -5.478  14.859  1.00  0.00     0.000 C 
BRANCH   5   6
ATOM      6  C   UNL     1     -19.347  -4.898  14.468  1.00  0.00     0.000 C 
BRANCH   6   7
ATOM      7  C   UNL     1     -18.190  -5.874  14.753  1.00  0.00     0.000 C 
BRANCH   7   8
ATOM      8  C   UNL     1     -18.461  -7.287  14.192  1.00  0.00     0.000 C 
BRANCH   8   9
ATOM      9  C   UNL     1     -19.011  -8.277  15.237  1.00  0.00     0.000 C 
BRANCH   9  10
ATOM     10  C   UNL     1     -18.306  -8.240  16.602  1.00  0.00     0.006 C 
BRANCH  10  11
ATOM     11  C   UNL     1     -18.961  -9.167  17.635  1.00  0.00     0.053 C 
BRANCH  11  12
ATOM     12  C   UNL     1     -17.920  -9.897  18.424  1.00  0.00     0.041 C 
ATOM     13  O   UNL     1     -16.847  -9.320  18.746  1.00  0.00    -0.550 OA
ATOM     14  O   UNL     1     -18.137 -11.214  18.814  1.00  0.00    -0.550 OA
ENDBRANCH  11  12
ENDBRANCH  10  11
ENDBRANCH   9  10
ENDBRANCH   8   9
ENDBRANCH   7   8
ENDBRANCH   6   7
ENDBRANCH   5   6
ENDBRANCH   4   5
ENDBRANCH   3   4
ENDBRANCH   2   3
ENDBRANCH   1   2
BRANCH   1  15
ATOM     15  C   UNL     1     -24.803  -7.178  18.837  1.00  0.00     0.000 C 
BRANCH  15  16
ATOM     16  C   UNL     1     -25.213  -6.021  19.770  1.00  0.00     0.000 C 
BRANCH  16  17
ATOM     17  C   UNL     1     -26.490  -5.305  19.299  1.00  0.00     0.000 C 
BRANCH  17  18
ATOM     18  C   UNL     1     -27.084  -5.931  18.027  1.00  0.00    -0.000 C 
BRANCH  18  19
ATOM     19  C   UNL     1     -27.527  -4.876  16.997  1.00  0.00    -0.000 C 
BRANCH  19  20
ATOM     20  C   UNL     1     -27.522  -5.419  15.560  1.00  0.00    -0.000 C 
BRANCH  20  21
ATOM     21  C   UNL     1     -27.049  -6.880  15.481  1.00  0.00    -0.000 C 
BRANCH  21  22
ATOM     22  C   UNL     1     -25.827  -7.057  14.564  1.00  0.00    -0.000 C 
BRANCH  22  23
ATOM     23  C   UNL     1     -24.528  -7.302  15.348  1.00  0.00    -0.000 C 
BRANCH  23  24
ATOM     24  C   UNL     1     -23.500  -8.043  14.481  1.00  0.00    -0.000 C 
BRANCH  24  25
ATOM     25  C   UNL     1     -22.561  -8.934  15.309  1.00  0.00    -0.003 C 
ATOM     26  C   UNL     1     -23.315  -9.896  16.229  1.00  0.00     0.004 C 
ENDBRANCH  24  25
ENDBRANCH  23  24
ENDBRANCH  22  23
ENDBRANCH  21  22
ENDBRANCH  20  21
ENDBRANCH  19  20
ENDBRANCH  18  19
ENDBRANCH  17  18
ENDBRANCH  16  17
ENDBRANCH  15  16
ENDBRANCH   1  15
TORSDOF 22
ENDMDL
MODEL 3
REMARK VINA RESULT:    -4.854      0.987      5.667
REMARK INTER + INTRA:         -14.088
REMARK INTER:                 -10.835
REMARK INTRA:                  -3.253
REMARK UNBOUND:                -2.992
REMARK SMILES CCCCCCCCCCCCCCCCCCCCCCCC(=O)[O-]
REMARK SMILES IDX 13 1 14 2 15 3 16 4 17 5 18 6 19 7 20 8 21 9 22 10 23 11
REMARK SMILES IDX 24 12 25 13 26 14 12 15 11 16 10 17 9 18 8 19 7 20 6 21 5 22
REMARK SMILES IDX 4 23 3 24 2 25 1 26
REMARK H PARENT
REMARK Flexibility Score: inf
ROOT
ATOM      1  C   UNL     1     -26.994  -7.121  17.216  1.00  0.00     0.000 C 
ENDROOT
BRANCH   1   2
ATOM      2  C   UNL     1     -27.344  -6.566  15.823  1.00  0.00     0.000 C 
BRANCH   2   3
ATOM      3  C   UNL     1     -26.205  -6.761  14.809  1.00  0.00     0.000 C 
BRANCH   3   4
ATOM      4  C   UNL     1     -25.015  -7.536  15.392  1.00  0.00     0.000 C 
BRANCH   4   5
ATOM      5  C   UNL     1     -23.821  -7.506  14.428  1.00  0.00     0.000 C 
BRANCH   5   6
ATOM      6  C   UNL     1     -22.777  -8.588  14.748  1.00  0.00     0.000 C 
BRANCH   6   7
ATOM      7  C   UNL     1     -23.247  -9.553  15.852  1.00  0.00     0.000 C 
BRANCH   7   8
ATOM      8  C   UNL     1     -22.190  -9.734  16.963  1.00  0.00     0.000 C 
BRANCH   8   9
ATOM      9  C   UNL     1     -20.796  -9.192  16.592  1.00  0.00     0.000 C 
BRANCH   9  10
ATOM     10  C   UNL     1     -19.869  -8.915  17.786  1.00  0.00     0.006 C 
BRANCH  10  11
ATOM     11  C   UNL     1     -18.382  -8.973  17.410  1.00  0.00     0.053 C 
BRANCH  11  12
ATOM     12  C   UNL     1     -17.617  -9.786  18.406  1.00  0.00     0.041 C 
ATOM     13  O   UNL     1     -18.040 -10.920  18.758  1.00  0.00    -0.550 OA
ATOM     14  O   UNL     1     -16.431  -9.297  18.941  1.00  0.00    -0.550 OA
ENDBRANCH  11  12
ENDBRANCH  10  11
ENDBRANCH   9  10
ENDBRANCH   8   9
ENDBRANCH   7   8
ENDBRANCH   6   7
ENDBRANCH   5   6
ENDBRANCH   4   5
ENDBRANCH   3   4
ENDBRANCH   2   3
ENDBRANCH   1   2
BRANCH   1  15
ATOM     15  C   UNL     1     -27.050  -6.044  18.315  1.00  0.00     0.000 C 
BRANCH  15  16
ATOM     16  C   UNL     1     -25.674  -5.617  18.864  1.00  0.00     0.000 C 
BRANCH  16  17
ATOM     17  C   UNL     1     -24.837  -6.809  19.359  1.00  0.00     0.000 C 
BRANCH  17  18
ATOM     18  C   UNL     1     -23.629  -7.098  18.454  1.00  0.00    -0.000 C 
BRANCH  18  19
ATOM     19  C   UNL     1     -22.765  -5.850  18.201  1.00  0.00    -0.000 C 
BRANCH  19  20
ATOM     20  C   UNL     1     -21.793  -6.036  17.025  1.00  0.00    -0.000 C 
BRANCH  20  21
ATOM     21  C   UNL     1     -21.336  -4.698  16.419  1.00  0.00    -0.000 C 
BRANCH  21  22
ATOM     22  C   UNL     1     -20.586  -4.877  15.088  1.00  0.00    -0.000 C 
BRANCH  22  23
ATOM     23  C   UNL     1     -19.868  -6.232  14.990  1.00  0.00    -0.000 C 
BRANCH  23  24
ATOM     24  C   UNL     1     -18.352  -6.059  15.164  1.00  0.00    -0.000 C 
BRANCH  24  25
ATOM     25  C   UNL     1     -17.585  -6.193  13.839  1.00  0.00    -0.003 C 
ATOM     26  C   UNL     1     -16.925  -4.884  13.402  1.00  0.00     0.004 C 
ENDBRANCH  24  25
ENDBRANCH  23  24
ENDBRANCH  22  23
ENDBRANCH  21  22
ENDBRANCH  20  21
ENDBRANCH  19  20
ENDBRANCH  18  19
ENDBRANCH  17  18
ENDBRANCH  16  17
ENDBRANCH  15  16
ENDBRANCH   1  15
TORSDOF 22
ENDMDL
MODEL 4
REMARK VINA RESULT:    -4.575      2.099      6.843
REMARK INTER + INTRA:         -13.450
REMARK INTER:                 -10.518
REMARK INTRA:                  -2.932
REMARK UNBOUND:                -2.992
REMARK SMILES CCCCCCCCCCCCCCCCCCCCCCCC(=O)[O-]
REMARK SMILES IDX 13 1 14 2 15 3 16 4 17 5 18 6 19 7 20 8 21 9 22 10 23 11
REMARK SMILES IDX 24 12 25 13 26 14 12 15 11 16 10 17 9 18 8 19 7 20 6 21 5 22
REMARK SMILES IDX 4 23 3 24 2 25 1 26
REMARK H PARENT
REMARK Flexibility Score: inf
ROOT
ATOM      1  C   UNL     1     -23.735  -6.182  18.283  1.00  0.00     0.000 C 
ENDROOT
BRANCH   1   2
ATOM      2  C   UNL     1     -24.727  -6.717  19.331  1.00  0.00     0.000 C 
BRANCH   2   3
ATOM      3  C   UNL     1     -26.033  -5.908  19.372  1.00  0.00     0.000 C 
BRANCH   3   4
ATOM      4  C   UNL     1     -26.523  -5.498  17.976  1.00  0.00     0.000 C 
BRANCH   4   5
ATOM      5  C   UNL     1     -27.690  -6.388  17.525  1.00  0.00     0.000 C 
BRANCH   5   6
ATOM      6  C   UNL     1     -27.285  -7.374  16.417  1.00  0.00     0.000 C 
BRANCH   6   7
ATOM      7  C   UNL     1     -27.267  -6.721  15.023  1.00  0.00     0.000 C 
BRANCH   7   8
ATOM      8  C   UNL     1     -25.931  -6.950  14.283  1.00  0.00     0.000 C 
BRANCH   8   9
ATOM      9  C   UNL     1     -24.767  -7.352  15.209  1.00  0.00     0.000 C 
BRANCH   9  10
ATOM     10  C   UNL     1     -23.560  -7.983  14.498  1.00  0.00     0.006 C 
BRANCH  10  11
ATOM     11  C   UNL     1     -22.594  -8.678  15.467  1.00  0.00     0.053 C 
BRANCH  11  12
ATOM     12  C   UNL     1     -23.272  -9.816  16.162  1.00  0.00     0.041 C 
ATOM     13  O   UNL     1     -23.806  -9.643  17.290  1.00  0.00    -0.550 OA
ATOM     14  O   UNL     1     -23.323 -11.069  15.561  1.00  0.00    -0.550 OA
ENDBRANCH  11  12
ENDBRANCH  10  11
ENDBRANCH   9  10
ENDBRANCH   8   9
ENDBRANCH   7   8
ENDBRANCH   6   7
ENDBRANCH   5   6
ENDBRANCH   4   5
ENDBRANCH   3   4
ENDBRANCH   2   3
ENDBRANCH   1   2
BRANCH   1  15
ATOM     15  C   UNL     1     -22.372  -6.898  18.335  1.00  0.00     0.000 C 
BRANCH  15  16
ATOM     16  C   UNL     1     -21.308  -6.320  17.381  1.00  0.00     0.000 C 
BRANCH  16  17
ATOM     17  C   UNL     1     -21.654  -4.902  16.897  1.00  0.00     0.000 C 
BRANCH  17  18
ATOM     18  C   UNL     1     -21.043  -4.581  15.524  1.00  0.00    -0.000 C 
BRANCH  18  19
ATOM     19  C   UNL     1     -20.408  -5.813  14.855  1.00  0.00    -0.000 C 
BRANCH  19  20
ATOM     20  C   UNL     1     -18.875  -5.723  14.792  1.00  0.00    -0.000 C 
BRANCH  20  21
ATOM     21  C   UNL     1     -18.217  -7.073  14.459  1.00  0.00    -0.000 C 
BRANCH  21  22
ATOM     22  C   UNL     1     -18.764  -8.226  15.317  1.00  0.00    -0.000 C 
BRANCH  22  23
ATOM     23  C   UNL     1     -18.141  -8.267  16.721  1.00  0.00    -0.000 C 
BRANCH  23  24
ATOM     24  C   UNL     1     -18.878  -9.275  17.616  1.00  0.00    -0.000 C 
BRANCH  24  25
ATOM     25  C   UNL     1     -17.957  -9.921  18.662  1.00  0.00    -0.003 C 
ATOM     26  C   UNL     1     -16.604  -9.217  18.776  1.00  0.00     0.004 C 
ENDBRANCH  24  25
ENDBRANCH  23  24
ENDBRANCH  22  23
ENDBRANCH  21  22
ENDBRANCH  20  21
ENDBRANCH  19  20
ENDBRANCH  18  19
ENDBRANCH  17  18
ENDBRANCH  16  17
ENDBRANCH  15  16
ENDBRANCH   1  15
TORSDOF 22
ENDMDL
MODEL 5
REMARK VINA RESULT:    -4.541      1.388      2.153
REMARK INTER + INTRA:         -13.374
REMARK INTER:                 -10.645
REMARK INTRA:                  -2.729
REMARK UNBOUND:                -2.992
REMARK SMILES CCCCCCCCCCCCCCCCCCCCCCCC(=O)[O-]
REMARK SMILES IDX 13 1 14 2 15 3 16 4 17 5 18 6 19 7 20 8 21 9 22 10 23 11
REMARK SMILES IDX 24 12 25 13 26 14 12 15 11 16 10 17 9 18 8 19 7 20 6 21 5 22
REMARK SMILES IDX 4 23 3 24 2 25 1 26
REMARK H PARENT
REMARK Flexibility Score: inf
ROOT
ATOM      1  C   UNL     1     -21.716  -8.194  17.549  1.00  0.00     0.000 C 
ENDROOT
BRANCH   1   2
ATOM      2  C   UNL     1     -21.870  -6.784  18.146  1.00  0.00     0.000 C 
BRANCH   2   3
ATOM      3  C   UNL     1     -22.288  -5.742  17.096  1.00  0.00     0.000 C 
BRANCH   3   4
ATOM      4  C   UNL     1     -21.207  -4.680  16.849  1.00  0.00     0.000 C 
BRANCH   4   5
ATOM      5  C   UNL     1     -21.023  -4.430  15.345  1.00  0.00     0.000 C 
BRANCH   5   6
ATOM      6  C   UNL     1     -20.337  -5.607  14.632  1.00  0.00     0.000 C 
BRANCH   6   7
ATOM      7  C   UNL     1     -18.810  -5.431  14.539  1.00  0.00     0.000 C 
BRANCH   7   8
ATOM      8  C   UNL     1     -18.061  -6.780  14.565  1.00  0.00     0.000 C 
BRANCH   8   9
ATOM      9  C   UNL     1     -18.740  -7.855  15.435  1.00  0.00     0.000 C 
BRANCH   9  10
ATOM     10  C   UNL     1     -17.995  -8.207  16.732  1.00  0.00     0.006 C 
BRANCH  10  11
ATOM     11  C   UNL     1     -18.686  -9.321  17.531  1.00  0.00     0.053 C 
BRANCH  11  12
ATOM     12  C   UNL     1     -17.724  -9.964  18.479  1.00  0.00     0.041 C 
ATOM     13  O   UNL     1     -16.651  -9.381  18.788  1.00  0.00    -0.550 OA
ATOM     14  O   UNL     1     -18.015 -11.207  19.031  1.00  0.00    -0.550 OA
ENDBRANCH  11  12
ENDBRANCH  10  11
ENDBRANCH   9  10
ENDBRANCH   8   9
ENDBRANCH   7   8
ENDBRANCH   6   7
ENDBRANCH   5   6
ENDBRANCH   4   5
ENDBRANCH   3   4
ENDBRANCH   2   3
ENDBRANCH   1   2
BRANCH   1  15
ATOM     15  C   UNL     1     -22.225  -8.283  16.098  1.00  0.00     0.000 C 
BRANCH  15  16
ATOM     16  C   UNL     1     -23.215  -9.435  15.835  1.00  0.00     0.000 C 
BRANCH  16  17
ATOM     17  C   UNL     1     -23.857  -9.970  17.127  1.00  0.00     0.000 C 
BRANCH  17  18
ATOM     18  C   UNL     1     -25.234  -9.347  17.404  1.00  0.00    -0.000 C 
BRANCH  18  19
ATOM     19  C   UNL     1     -25.156  -8.129  18.342  1.00  0.00    -0.000 C 
BRANCH  19  20
ATOM     20  C   UNL     1     -25.764  -6.864  17.714  1.00  0.00    -0.000 C 
BRANCH  20  21
ATOM     21  C   UNL     1     -25.934  -5.723  18.732  1.00  0.00    -0.000 C 
BRANCH  21  22
ATOM     22  C   UNL     1     -27.405  -5.319  18.927  1.00  0.00    -0.000 C 
BRANCH  22  23
ATOM     23  C   UNL     1     -27.630  -4.504  20.211  1.00  0.00    -0.000 C 
BRANCH  23  24
ATOM     24  C   UNL     1     -26.687  -4.975  21.328  1.00  0.00    -0.000 C 
BRANCH  24  25
ATOM     25  C   UNL     1     -26.620  -3.986  22.502  1.00  0.00    -0.003 C 
ATOM     26  C   UNL     1     -27.054  -2.573  22.111  1.00  0.00     0.004 C 
ENDBRANCH  24  25
ENDBRANCH  23  24
ENDBRANCH  22  23
ENDBRANCH  21  22
ENDBRANCH  20  21
ENDBRANCH  19  20
ENDBRANCH  18  19
ENDBRANCH  17  18
ENDBRANCH  16  17
ENDBRANCH  15  16
ENDBRANCH   1  15
TORSDOF 22
ENDMDL
MODEL 6
REMARK VINA RESULT:    -4.529      3.250      7.565
REMARK INTER + INTRA:         -13.345
REMARK INTER:                 -10.167
REMARK INTRA:                  -3.178
REMARK UNBOUND:                -2.992
REMARK SMILES CCCCCCCCCCCCCCCCCCCCCCCC(=O)[O-]
REMARK SMILES IDX 13 1 14 2 15 3 16 4 17 5 18 6 19 7 20 8 21 9 22 10 23 11
REMARK SMILES IDX 24 12 25 13 26 14 12 15 11 16 10 17 9 18 8 19 7 20 6 21 5 22
REMARK SMILES IDX 4 23 3 24 2 25 1 26
REMARK H PARENT
REMARK Flexibility Score: inf
ROOT
ATOM      1  C   UNL     1     -24.038  -6.632  18.023  1.00  0.00     0.000 C 
ENDROOT
BRANCH   1   2
ATOM      2  C   UNL     1     -24.342  -8.101  18.363  1.00  0.00     0.000 C 
BRANCH   2   3
ATOM      3  C   UNL     1     -24.434  -8.989  17.112  1.00  0.00     0.000 C 
BRANCH   3   4
ATOM      4  C   UNL     1     -23.127  -9.019  16.306  1.00  0.00     0.000 C 
BRANCH   4   5
ATOM      5  C   UNL     1     -23.351  -8.478  14.887  1.00  0.00     0.000 C 
BRANCH   5   6
ATOM      6  C   UNL     1     -24.182  -7.185  14.873  1.00  0.00     0.000 C 
BRANCH   6   7
ATOM      7  C   UNL     1     -25.582  -7.391  14.263  1.00  0.00     0.000 C 
BRANCH   7   8
ATOM      8  C   UNL     1     -26.604  -6.355  14.778  1.00  0.00     0.000 C 
BRANCH   8   9
ATOM      9  C   UNL     1     -27.234  -6.722  16.136  1.00  0.00     0.000 C 
BRANCH   9  10
ATOM     10  C   UNL     1     -27.525  -5.529  17.060  1.00  0.00     0.006 C 
BRANCH  10  11
ATOM     11  C   UNL     1     -27.587  -5.926  18.541  1.00  0.00     0.053 C 
BRANCH  11  12
ATOM     12  C   UNL     1     -27.131  -4.796  19.410  1.00  0.00     0.041 C 
ATOM     13  O   UNL     1     -27.535  -3.623  19.190  1.00  0.00    -0.550 OA
ATOM     14  O   UNL     1     -26.267  -5.039  20.472  1.00  0.00    -0.550 OA
ENDBRANCH  11  12
ENDBRANCH  10  11
ENDBRANCH   9  10
ENDBRANCH   8   9
ENDBRANCH   7   8
ENDBRANCH   6   7
ENDBRANCH   5   6
ENDBRANCH   4   5
ENDBRANCH   3   4
ENDBRANCH   2   3
ENDBRANCH   1   2
BRANCH   1  15
ATOM     15  C   UNL     1     -22.633  -6.195  18.479  1.00  0.00     0.000 C 
BRANCH  15  16
ATOM     16  C   UNL     1     -21.576  -6.163  17.358  1.00  0.00     0.000 C 
BRANCH  16  17
ATOM     17  C   UNL     1     -21.354  -4.750  16.792  1.00  0.00     0.000 C 
BRANCH  17  18
ATOM     18  C   UNL     1     -21.210  -4.742  15.262  1.00  0.00    -0.000 C 
BRANCH  18  19
ATOM     19  C   UNL     1     -20.478  -5.986  14.729  1.00  0.00    -0.000 C 
BRANCH  19  20
ATOM     20  C   UNL     1     -18.957  -5.903  14.926  1.00  0.00    -0.000 C 
BRANCH  20  21
ATOM     21  C   UNL     1     -18.315  -7.281  15.166  1.00  0.00    -0.000 C 
BRANCH  21  22
ATOM     22  C   UNL     1     -19.349  -8.360  15.525  1.00  0.00    -0.000 C 
BRANCH  22  23
ATOM     23  C   UNL     1     -19.189  -8.881  16.962  1.00  0.00    -0.000 C 
BRANCH  23  24
ATOM     24  C   UNL     1     -17.749  -8.680  17.457  1.00  0.00    -0.000 C 
BRANCH  24  25
ATOM     25  C   UNL     1     -17.420  -9.545  18.684  1.00  0.00    -0.003 C 
ATOM     26  C   UNL     1     -18.038 -10.942  18.608  1.00  0.00     0.004 C 
ENDBRANCH  24  25
ENDBRANCH  23  24
ENDBRANCH  22  23
ENDBRANCH  21  22
ENDBRANCH  20  21
ENDBRANCH  19  20
ENDBRANCH  18  19
ENDBRANCH  17  18
ENDBRANCH  16  17
ENDBRANCH  15  16
ENDBRANCH   1  15
TORSDOF 22
ENDMDL
MODEL 7
REMARK VINA RESULT:    -4.525      4.115      8.743
REMARK INTER + INTRA:         -13.336
REMARK INTER:                 -10.988
REMARK INTRA:                  -2.348
REMARK UNBOUND:                -2.992
REMARK SMILES CCCCCCCCCCCCCCCCCCCCCCCC(=O)[O-]
REMARK SMILES IDX 13 1 14 2 15 3 16 4 17 5 18 6 19 7 20 8 21 9 22 10 23 11
REMARK SMILES IDX 24 12 25 13 26 14 12 15 11 16 10 17 9 18 8 19 7 20 6 21 5 22
REMARK SMILES IDX 4 23 3 24 2 25 1 26
REMARK H PARENT
REMARK Flexibility Score: inf
ROOT
ATOM      1  C   UNL     1     -24.393  -9.262  16.665  1.00  0.00     0.000 C 
ENDROOT
BRANCH   1   2
ATOM      2  C   UNL     1     -24.813  -8.409  17.875  1.00  0.00     0.000 C 
BRANCH   2   3
ATOM      3  C   UNL     1     -25.932  -7.412  17.533  1.00  0.00     0.000 C 
BRANCH   3   4
ATOM      4  C   UNL     1     -25.833  -6.108  18.338  1.00  0.00     0.000 C 
BRANCH   4   5
ATOM      5  C   UNL     1     -25.097  -6.342  19.665  1.00  0.00     0.000 C 
BRANCH   5   6
ATOM      6  C   UNL     1     -25.727  -5.566  20.834  1.00  0.00     0.000 C 
BRANCH   6   7
ATOM      7  C   UNL     1     -27.000  -4.806  20.419  1.00  0.00     0.000 C 
BRANCH   7   8
ATOM      8  C   UNL     1     -27.726  -4.173  21.625  1.00  0.00     0.000 C 
BRANCH   8   9
ATOM      9  C   UNL     1     -26.824  -3.967  22.858  1.00  0.00     0.000 C 
BRANCH   9  10
ATOM     10  C   UNL     1     -26.312  -2.531  23.055  1.00  0.00     0.006 C 
BRANCH  10  11
ATOM     11  C   UNL     1     -24.949  -2.476  23.757  1.00  0.00     0.053 C 
BRANCH  11  12
ATOM     12  C   UNL     1     -25.121  -2.427  25.242  1.00  0.00     0.041 C 
ATOM     13  O   UNL     1     -24.115  -2.469  26.000  1.00  0.00    -0.550 OA
ATOM     14  O   UNL     1     -26.394  -2.323  25.793  1.00  0.00    -0.550 OA
ENDBRANCH  11  12
ENDBRANCH  10  11
ENDBRANCH   9  10
ENDBRANCH   8   9
ENDBRANCH   7   8
ENDBRANCH   6   7
ENDBRANCH   5   6
ENDBRANCH   4   5
ENDBRANCH   3   4
ENDBRANCH   2   3
ENDBRANCH   1   2
BRANCH   1  15
ATOM     15  C   UNL     1     -22.943  -9.770  16.770  1.00  0.00     0.000 C 
BRANCH  15  16
ATOM     16  C   UNL     1     -21.876  -8.771  16.279  1.00  0.00     0.000 C 
BRANCH  16  17
ATOM     17  C   UNL     1     -20.965  -8.273  17.414  1.00  0.00     0.000 C 
BRANCH  17  18
ATOM     18  C   UNL     1     -21.511  -7.012  18.101  1.00  0.00    -0.000 C 
BRANCH  18  19
ATOM     19  C   UNL     1     -22.209  -6.056  17.116  1.00  0.00    -0.000 C 
BRANCH  19  20
ATOM     20  C   UNL     1     -21.272  -4.949  16.607  1.00  0.00    -0.000 C 
BRANCH  20  21
ATOM     21  C   UNL     1     -21.056  -5.010  15.085  1.00  0.00    -0.000 C 
BRANCH  21  22
ATOM     22  C   UNL     1     -20.034  -6.082  14.675  1.00  0.00    -0.000 C 
BRANCH  22  23
ATOM     23  C   UNL     1     -18.600  -5.725  15.096  1.00  0.00    -0.000 C 
BRANCH  23  24
ATOM     24  C   UNL     1     -17.592  -6.160  14.022  1.00  0.00    -0.000 C 
BRANCH  24  25
ATOM     25  C   UNL     1     -16.765  -4.986  13.476  1.00  0.00    -0.003 C 
ATOM     26  C   UNL     1     -17.634  -3.830  12.979  1.00  0.00     0.004 C 
ENDBRANCH  24  25
ENDBRANCH  23  24
ENDBRANCH  22  23
ENDBRANCH  21  22
ENDBRANCH  20  21
ENDBRANCH  19  20
ENDBRANCH  18  19
ENDBRANCH  17  18
ENDBRANCH  16  17
ENDBRANCH  15  16
ENDBRANCH   1  15
TORSDOF 22
ENDMDL
MODEL 8
REMARK VINA RESULT:    -4.445      3.389      7.790
REMARK INTER + INTRA:         -13.154
REMARK INTER:                 -10.374
REMARK INTRA:                  -2.779
REMARK UNBOUND:                -2.992
REMARK SMILES CCCCCCCCCCCCCCCCCCCCCCCC(=O)[O-]
REMARK SMILES IDX 13 1 14 2 15 3 16 4 17 5 18 6 19 7 20 8 21 9 22 10 23 11
REMARK SMILES IDX 24 12 25 13 26 14 12 15 11 16 10 17 9 18 8 19 7 20 6 21 5 22
REMARK SMILES IDX 4 23 3 24 2 25 1 26
REMARK H PARENT
REMARK Flexibility Score: inf
ROOT
ATOM      1  C   UNL     1     -24.035 -10.594  16.816  1.00  0.00     0.000 C 
ENDROOT
BRANCH   1   2
ATOM      2  C   UNL     1     -25.129  -9.770  17.518  1.00  0.00     0.000 C 
BRANCH   2   3
ATOM      3  C   UNL     1     -24.878  -8.256  17.423  1.00  0.00     0.000 C 
BRANCH   3   4
ATOM      4  C   UNL     1     -24.393  -7.649  18.748  1.00  0.00     0.000 C 
BRANCH   4   5
ATOM      5  C   UNL     1     -24.827  -6.181  18.865  1.00  0.00     0.000 C 
BRANCH   5   6
ATOM      6  C   UNL     1     -25.413  -5.847  20.246  1.00  0.00     0.000 C 
BRANCH   6   7
ATOM      7  C   UNL     1     -26.745  -5.080  20.153  1.00  0.00     0.000 C 
BRANCH   7   8
ATOM      8  C   UNL     1     -27.520  -5.404  18.858  1.00  0.00     0.000 C 
BRANCH   8   9
ATOM      9  C   UNL     1     -27.716  -4.190  17.929  1.00  0.00     0.000 C 
BRANCH   9  10
ATOM     10  C   UNL     1     -27.857  -4.530  16.437  1.00  0.00     0.006 C 
BRANCH  10  11
ATOM     11  C   UNL     1     -27.403  -5.958  16.106  1.00  0.00     0.053 C 
BRANCH  11  12
ATOM     12  C   UNL     1     -27.077  -6.085  14.651  1.00  0.00     0.041 C 
ATOM     13  O   UNL     1     -26.261  -6.960  14.257  1.00  0.00    -0.550 OA
ATOM     14  O   UNL     1     -27.682  -5.241  13.726  1.00  0.00    -0.550 OA
ENDBRANCH  11  12
ENDBRANCH  10  11
ENDBRANCH   9  10
ENDBRANCH   8   9
ENDBRANCH   7   8
ENDBRANCH   6   7
ENDBRANCH   5   6
ENDBRANCH   4   5
ENDBRANCH   3   4
ENDBRANCH   2   3
ENDBRANCH   1   2
BRANCH   1  15
ATOM     15  C   UNL     1     -22.840  -9.733  16.365  1.00  0.00     0.000 C 
BRANCH  15  16
ATOM     16  C   UNL     1     -22.906  -9.260  14.900  1.00  0.00     0.000 C 
BRANCH  16  17
ATOM     17  C   UNL     1     -22.049  -8.009  14.641  1.00  0.00     0.000 C 
BRANCH  17  18
ATOM     18  C   UNL     1     -22.650  -6.741  15.268  1.00  0.00    -0.000 C 
BRANCH  18  19
ATOM     19  C   UNL     1     -21.804  -6.197  16.433  1.00  0.00    -0.000 C 
BRANCH  19  20
ATOM     20  C   UNL     1     -20.947  -4.989  16.024  1.00  0.00    -0.000 C 
BRANCH  20  21
ATOM     21  C   UNL     1     -20.248  -5.191  14.669  1.00  0.00    -0.000 C 
BRANCH  21  22
ATOM     22  C   UNL     1     -18.782  -5.629  14.818  1.00  0.00    -0.000 C 
BRANCH  22  23
ATOM     23  C   UNL     1     -18.587  -7.134  14.577  1.00  0.00    -0.000 C 
BRANCH  23  24
ATOM     24  C   UNL     1     -18.078  -7.828  15.849  1.00  0.00    -0.000 C 
BRANCH  24  25
ATOM     25  C   UNL     1     -19.181  -8.612  16.578  1.00  0.00    -0.003 C 
ATOM     26  C   UNL     1     -18.642  -9.461  17.730  1.00  0.00     0.004 C 
ENDBRANCH  24  25
ENDBRANCH  23  24
ENDBRANCH  22  23
ENDBRANCH  21  22
ENDBRANCH  20  21
ENDBRANCH  19  20
ENDBRANCH  18  19
ENDBRANCH  17  18
ENDBRANCH  16  17
ENDBRANCH  15  16
ENDBRANCH   1  15
TORSDOF 22
ENDMDL
MODEL 9
REMARK VINA RESULT:    -4.445      3.592      7.432
REMARK INTER + INTRA:         -13.154
REMARK INTER:                  -9.809
REMARK INTRA:                  -3.345
REMARK UNBOUND:                -2.992
REMARK SMILES CCCCCCCCCCCCCCCCCCCCCCCC(=O)[O-]
REMARK SMILES IDX 13 1 14 2 15 3 16 4 17 5 18 6 19 7 20 8 21 9 22 10 23 11
REMARK SMILES IDX 24 12 25 13 26 14 12 15 11 16 10 17 9 18 8 19 7 20 6 21 5 22
REMARK SMILES IDX 4 23 3 24 2 25 1 26
REMARK H PARENT
REMARK Flexibility Score: inf
ROOT
ATOM      1  C   UNL     1     -22.333  -6.285  18.319  1.00  0.00     0.000 C 
ENDROOT
BRANCH   1   2
ATOM      2  C   UNL     1     -23.813  -6.110  17.936  1.00  0.00     0.000 C 
BRANCH   2   3
ATOM      3  C   UNL     1     -24.766  -6.733  18.969  1.00  0.00     0.000 C 
BRANCH   3   4
ATOM      4  C   UNL     1     -24.720  -8.268  18.971  1.00  0.00     0.000 C 
BRANCH   4   5
ATOM      5  C   UNL     1     -25.193  -8.827  17.621  1.00  0.00     0.000 C 
BRANCH   5   6
ATOM      6  C   UNL     1     -24.276  -9.941  17.091  1.00  0.00     0.000 C 
BRANCH   6   7
ATOM      7  C   UNL     1     -22.914  -9.406  16.613  1.00  0.00     0.000 C 
BRANCH   7   8
ATOM      8  C   UNL     1     -22.919  -9.042  15.112  1.00  0.00     0.000 C 
BRANCH   8   9
ATOM      9  C   UNL     1     -23.372  -7.599  14.822  1.00  0.00     0.000 C 
BRANCH   9  10
ATOM     10  C   UNL     1     -24.749  -7.472  14.151  1.00  0.00     0.006 C 
BRANCH  10  11
ATOM     11  C   UNL     1     -25.794  -6.808  15.057  1.00  0.00     0.053 C 
BRANCH  11  12
ATOM     12  C   UNL     1     -27.014  -6.439  14.273  1.00  0.00     0.041 C 
ATOM     13  O   UNL     1     -27.827  -5.590  14.727  1.00  0.00    -0.550 OA
ATOM     14  O   UNL     1     -27.249  -7.024  13.033  1.00  0.00    -0.550 OA
ENDBRANCH  11  12
ENDBRANCH  10  11
ENDBRANCH   9  10
ENDBRANCH   8   9
ENDBRANCH   7   8
ENDBRANCH   6   7
ENDBRANCH   5   6
ENDBRANCH   4   5
ENDBRANCH   3   4
ENDBRANCH   2   3
ENDBRANCH   1   2
BRANCH   1  15
ATOM     15  C   UNL     1     -21.378  -6.010  17.142  1.00  0.00     0.000 C 
BRANCH  15  16
ATOM     16  C   UNL     1     -21.340  -4.540  16.677  1.00  0.00     0.000 C 
BRANCH  16  17
ATOM     17  C   UNL     1     -21.182  -4.405  15.153  1.00  0.00     0.000 C 
BRANCH  17  18
ATOM     18  C   UNL     1     -20.376  -5.560  14.537  1.00  0.00    -0.000 C 
BRANCH  18  19
ATOM     19  C   UNL     1     -18.857  -5.325  14.605  1.00  0.00    -0.000 C 
BRANCH  19  20
ATOM     20  C   UNL     1     -18.052  -6.607  14.337  1.00  0.00    -0.000 C 
BRANCH  20  21
ATOM     21  C   UNL     1     -18.774  -7.873  14.826  1.00  0.00    -0.000 C 
BRANCH  21  22
ATOM     22  C   UNL     1     -18.340  -8.292  16.241  1.00  0.00    -0.000 C 
BRANCH  22  23
ATOM     23  C   UNL     1     -19.411  -9.122  16.968  1.00  0.00    -0.000 C 
BRANCH  23  24
ATOM     24  C   UNL     1     -19.048  -9.302  18.449  1.00  0.00    -0.000 C 
BRANCH  24  25
ATOM     25  C   UNL     1     -17.813 -10.193  18.652  1.00  0.00    -0.003 C 
ATOM     26  C   UNL     1     -16.553  -9.392  18.985  1.00  0.00     0.004 C 
ENDBRANCH  24  25
ENDBRANCH  23  24
ENDBRANCH  22  23
ENDBRANCH  21  22
ENDBRANCH  20  21
ENDBRANCH  19  20
ENDBRANCH  18  19
ENDBRANCH  17  18
ENDBRANCH  16  17
ENDBRANCH  15  16
ENDBRANCH   1  15
TORSDOF 22
ENDMDL
