MODEL 1
REMARK VINA RESULT:    -7.494      0.000      0.000
REMARK INTER + INTRA:         -10.961
REMARK INTER:                 -11.217
REMARK INTRA:                   0.256
REMARK UNBOUND:                 0.256
REMARK SMILES C[C@@]12C[C@@H](O)[C@H]3C[C@]1(O[C@@H]1O[C@@H](CO)[C@H](O)[C@@H](O)[C@H]1O)[C@@]3(COC(=O)c1ccccc1)C(=O)O2
REMARK SMILES IDX 1 1 2 2 3 3 4 4 6 5 7 6 8 7 21 8 32 9 33 10 34 11 9 12 10 13
REMARK SMILES IDX 19 14 11 15 17 16 12 17 15 18 20 19 18 21 13 23 14 24 16 26
REMARK SMILES IDX 5 28 22 30 23 31 24 32 25 33 26 34 27 35 31 36 28 37 30 38
REMARK SMILES IDX 29 39
REMARK H PARENT 20 20 18 22 14 25 16 27 5 29
REMARK Flexibility Score: inf
ROOT
ATOM      1  C   UNL     1     102.777  90.208 102.417  1.00  0.00     0.060 C 
ATOM      2  C   UNL     1     102.812  90.711 103.858  1.00  0.00     0.142 C 
ATOM      3  C   UNL     1     103.830  89.886 104.726  1.00  0.00     0.083 C 
ATOM      4  C   UNL     1     104.094  90.588 106.114  1.00  0.00     0.123 C 
ATOM      5  C   UNL     1     103.888  92.135 106.003  1.00  0.00     0.045 C 
ATOM      6  C   UNL     1     104.485  92.578 104.666  1.00  0.00     0.049 C 
ATOM      7  C   UNL     1     103.107  92.264 104.043  1.00  0.00     0.131 C 
ATOM      8  C   UNL     1     102.476  92.471 105.437  1.00  0.00     0.140 C 
ATOM      9  C   UNL     1     101.398  91.441 105.478  1.00  0.00     0.319 C 
ATOM     10  O   UNL     1     100.491  91.365 106.349  1.00  0.00    -0.251 OA
ATOM     11  O   UNL     1     101.547  90.521 104.468  1.00  0.00    -0.456 OA
ENDROOT
BRANCH   7  12
ATOM     12  O   UNL     1     102.560  93.174 103.096  1.00  0.00    -0.338 OA
BRANCH  12  13
ATOM     13  C   UNL     1     102.626  92.786 101.725  1.00  0.00     0.282 C 
ATOM     14  C   UNL     1     101.368  93.360 101.047  1.00  0.00     0.202 C 
ATOM     15  O   UNL     1     103.805  93.253 101.081  1.00  0.00    -0.341 OA
ATOM     16  C   UNL     1     101.338  93.028  99.545  1.00  0.00     0.179 C 
ATOM     17  C   UNL     1     103.896  92.877  99.712  1.00  0.00     0.178 C 
ATOM     18  C   UNL     1     102.684  93.375  98.881  1.00  0.00     0.177 C 
BRANCH  14  19
ATOM     19  O   UNL     1     100.225  92.844 101.680  1.00  0.00    -0.385 OA
ATOM     20  H   UNL     1      99.789  92.236 101.029  1.00  0.00     0.211 HD
ENDBRANCH  14  19
BRANCH  16  21
ATOM     21  O   UNL     1     101.052  91.666  99.345  1.00  0.00    -0.387 OA
ATOM     22  H   UNL     1     100.389  91.403 100.037  1.00  0.00     0.211 HD
ENDBRANCH  16  21
BRANCH  17  23
ATOM     23  C   UNL     1     104.207  91.375  99.531  1.00  0.00     0.191 C 
BRANCH  23  24
ATOM     24  O   UNL     1     103.710  90.908  98.304  1.00  0.00    -0.394 OA
ATOM     25  H   UNL     1     103.638  91.695  97.702  1.00  0.00     0.210 HD
ENDBRANCH  23  24
ENDBRANCH  17  23
BRANCH  18  26
ATOM     26  O   UNL     1     102.776  94.761  98.655  1.00  0.00    -0.387 OA
ATOM     27  H   UNL     1     103.650  95.074  99.004  1.00  0.00     0.211 HD
ENDBRANCH  18  26
ENDBRANCH  12  13
ENDBRANCH   7  12
BRANCH   4  28
ATOM     28  O   UNL     1     105.403  90.323 106.547  1.00  0.00    -0.393 OA
ATOM     29  H   UNL     1     105.814  91.201 106.756  1.00  0.00     0.210 HD
ENDBRANCH   4  28
BRANCH   8  30
ATOM     30  C   UNL     1     101.981  93.909 105.747  1.00  0.00     0.255 C 
BRANCH  30  31
ATOM     31  O   UNL     1     101.193  93.965 107.094  1.00  0.00    -0.461 OA
BRANCH  31  32
ATOM     32  C   UNL     1     101.879  93.918 108.379  1.00  0.00     0.338 C 
ATOM     33  O   UNL     1     100.850  93.807 107.670  1.00  0.00    -0.246 OA
BRANCH  32  34
ATOM     34  C   UNL     1     101.518  94.082 109.803  1.00  0.00     0.060 A 
ATOM     35  C   UNL     1     102.054  95.102 110.618  1.00  0.00     0.015 A 
ATOM     36  C   UNL     1     100.624  93.159 110.364  1.00  0.00     0.015 A 
ATOM     37  C   UNL     1     101.687  95.192 111.966  1.00  0.00     0.001 A 
ATOM     38  C   UNL     1     100.257  93.257 111.709  1.00  0.00     0.001 A 
ATOM     39  C   UNL     1     100.789  94.271 112.509  1.00  0.00     0.000 A 
ENDBRANCH  32  34
ENDBRANCH  31  32
ENDBRANCH  30  31
ENDBRANCH   8  30
TORSDOF 12
ENDMDL
MODEL 2
REMARK VINA RESULT:    -7.281      6.054     11.509
REMARK INTER + INTRA:         -10.643
REMARK INTER:                  -9.855
REMARK INTRA:                  -0.788
REMARK UNBOUND:                 0.256
REMARK SMILES C[C@@]12C[C@@H](O)[C@H]3C[C@]1(O[C@@H]1O[C@@H](CO)[C@H](O)[C@@H](O)[C@H]1O)[C@@]3(COC(=O)c1ccccc1)C(=O)O2
REMARK SMILES IDX 1 1 2 2 3 3 4 4 6 5 7 6 8 7 21 8 32 9 33 10 34 11 9 12 10 13
REMARK SMILES IDX 19 14 11 15 17 16 12 17 15 18 20 19 18 21 13 23 14 24 16 26
REMARK SMILES IDX 5 28 22 30 23 31 24 32 25 33 26 34 27 35 31 36 28 37 30 38
REMARK SMILES IDX 29 39
REMARK H PARENT 20 20 18 22 14 25 16 27 5 29
REMARK Flexibility Score: inf
ROOT
ATOM      1  C   UNL     1     103.880  97.440 116.713  1.00  0.00     0.060 C 
ATOM      2  C   UNL     1     102.996  97.087 115.520  1.00  0.00     0.142 C 
ATOM      3  C   UNL     1     101.986  98.246 115.195  1.00  0.00     0.083 C 
ATOM      4  C   UNL     1     101.293  98.023 113.796  1.00  0.00     0.123 C 
ATOM      5  C   UNL     1     102.218  97.199 112.842  1.00  0.00     0.045 C 
ATOM      6  C   UNL     1     103.647  97.709 113.044  1.00  0.00     0.049 C 
ATOM      7  C   UNL     1     103.764  96.677 114.186  1.00  0.00     0.131 C 
ATOM      8  C   UNL     1     102.649  95.856 113.503  1.00  0.00     0.140 C 
ATOM      9  C   UNL     1     101.870  95.315 114.655  1.00  0.00     0.319 C 
ATOM     10  O   UNL     1     100.979  94.427 114.584  1.00  0.00    -0.251 OA
ATOM     11  O   UNL     1     102.198  95.957 115.825  1.00  0.00    -0.456 OA
ENDROOT
BRANCH   7  12
ATOM     12  O   UNL     1     104.959  95.914 114.302  1.00  0.00    -0.338 OA
BRANCH  12  13
ATOM     13  C   UNL     1     106.162  96.539 113.856  1.00  0.00     0.282 C 
ATOM     14  C   UNL     1     107.297  95.974 114.728  1.00  0.00     0.202 C 
ATOM     15  O   UNL     1     106.420  96.307 112.476  1.00  0.00    -0.341 OA
ATOM     16  C   UNL     1     108.663  96.557 114.322  1.00  0.00     0.179 C 
ATOM     17  C   UNL     1     107.613  96.923 112.007  1.00  0.00     0.178 C 
ATOM     18  C   UNL     1     108.866  96.462 112.798  1.00  0.00     0.177 C 
BRANCH  14  19
ATOM     19  O   UNL     1     107.032  96.259 116.077  1.00  0.00    -0.385 OA
ATOM     20  H   UNL     1     107.882  96.125 116.571  1.00  0.00     0.211 HD
ENDBRANCH  14  19
BRANCH  16  21
ATOM     21  O   UNL     1     108.767  97.900 114.728  1.00  0.00    -0.387 OA
ATOM     22  H   UNL     1     108.753  98.455 113.902  1.00  0.00     0.211 HD
ENDBRANCH  16  21
BRANCH  17  23
ATOM     23  C   UNL     1     107.478  98.456 111.881  1.00  0.00     0.191 C 
BRANCH  23  24
ATOM     24  O   UNL     1     108.739  99.071 111.904  1.00  0.00    -0.394 OA
ATOM     25  H   UNL     1     108.841  99.557 111.043  1.00  0.00     0.210 HD
ENDBRANCH  23  24
ENDBRANCH  17  23
BRANCH  18  26
ATOM     26  O   UNL     1     109.227  95.152 112.432  1.00  0.00    -0.387 OA
ATOM     27  H   UNL     1     109.904  94.826 113.080  1.00  0.00     0.211 HD
ENDBRANCH  18  26
ENDBRANCH  12  13
ENDBRANCH   7  12
BRANCH   4  28
ATOM     28  O   UNL     1     100.994  99.259 113.203  1.00  0.00    -0.393 OA
ATOM     29  H   UNL     1     100.446  99.061 112.400  1.00  0.00     0.210 HD
ENDBRANCH   4  28
BRANCH   8  30
ATOM     30  C   UNL     1     103.127  94.768 112.505  1.00  0.00     0.255 C 
BRANCH  30  31
ATOM     31  O   UNL     1     101.997  94.375 111.502  1.00  0.00    -0.461 OA
BRANCH  31  32
ATOM     32  C   UNL     1     102.086  94.709 110.085  1.00  0.00     0.338 C 
ATOM     33  O   UNL     1     101.706  93.970 111.026  1.00  0.00    -0.246 OA
BRANCH  32  34
ATOM     34  C   UNL     1     102.042  93.982 108.799  1.00  0.00     0.060 A 
ATOM     35  C   UNL     1     103.192  93.732 108.020  1.00  0.00     0.015 A 
ATOM     36  C   UNL     1     100.793  93.552 108.330  1.00  0.00     0.015 A 
ATOM     37  C   UNL     1     103.083  93.056 106.800  1.00  0.00     0.001 A 
ATOM     38  C   UNL     1     100.690  92.872 107.113  1.00  0.00     0.001 A 
ATOM     39  C   UNL     1     101.833  92.626 106.348  1.00  0.00     0.000 A 
ENDBRANCH  32  34
ENDBRANCH  31  32
ENDBRANCH  30  31
ENDBRANCH   8  30
TORSDOF 12
ENDMDL
MODEL 3
REMARK VINA RESULT:    -6.945      5.355     11.670
REMARK INTER + INTRA:         -10.140
REMARK INTER:                  -9.922
REMARK INTRA:                  -0.219
REMARK UNBOUND:                 0.256
REMARK SMILES C[C@@]12C[C@@H](O)[C@H]3C[C@]1(O[C@@H]1O[C@@H](CO)[C@H](O)[C@@H](O)[C@H]1O)[C@@]3(COC(=O)c1ccccc1)C(=O)O2
REMARK SMILES IDX 1 1 2 2 3 3 4 4 6 5 7 6 8 7 21 8 32 9 33 10 34 11 9 12 10 13
REMARK SMILES IDX 19 14 11 15 17 16 12 17 15 18 20 19 18 21 13 23 14 24 16 26
REMARK SMILES IDX 5 28 22 30 23 31 24 32 25 33 26 34 27 35 31 36 28 37 30 38
REMARK SMILES IDX 29 39
REMARK H PARENT 20 20 18 22 14 25 16 27 5 29
REMARK Flexibility Score: inf
ROOT
ATOM      1  C   UNL     1     101.152  93.943 116.456  1.00  0.00     0.060 C 
ATOM      2  C   UNL     1     100.747  94.390 115.054  1.00  0.00     0.142 C 
ATOM      3  C   UNL     1      99.592  95.455 115.105  1.00  0.00     0.083 C 
ATOM      4  C   UNL     1      99.385  96.139 113.699  1.00  0.00     0.123 C 
ATOM      5  C   UNL     1     100.717  96.137 112.878  1.00  0.00     0.045 C 
ATOM      6  C   UNL     1     101.851  96.458 113.853  1.00  0.00     0.049 C 
ATOM      7  C   UNL     1     101.924  94.942 114.135  1.00  0.00     0.131 C 
ATOM      8  C   UNL     1     101.291  94.696 112.748  1.00  0.00     0.140 C 
ATOM      9  C   UNL     1     100.402  93.521 112.984  1.00  0.00     0.319 C 
ATOM     10  O   UNL     1      99.830  92.844 112.089  1.00  0.00    -0.251 OA
ATOM     11  O   UNL     1     100.223  93.293 114.327  1.00  0.00    -0.456 OA
ENDROOT
BRANCH   7  12
ATOM     12  O   UNL     1     103.202  94.323 114.229  1.00  0.00    -0.338 OA
BRANCH  12  13
ATOM     13  C   UNL     1     104.227  95.069 114.882  1.00  0.00     0.282 C 
ATOM     14  C   UNL     1     104.996  95.815 113.777  1.00  0.00     0.202 C 
ATOM     15  O   UNL     1     103.710  95.982 115.843  1.00  0.00    -0.341 OA
ATOM     16  C   UNL     1     106.122  96.685 114.364  1.00  0.00     0.179 C 
ATOM     17  C   UNL     1     104.714  96.738 116.511  1.00  0.00     0.178 C 
ATOM     18  C   UNL     1     105.596  97.549 115.525  1.00  0.00     0.177 C 
BRANCH  14  19
ATOM     19  O   UNL     1     105.528  94.882 112.872  1.00  0.00    -0.385 OA
ATOM     20  H   UNL     1     105.409  93.986 113.282  1.00  0.00     0.211 HD
ENDBRANCH  14  19
BRANCH  16  21
ATOM     21  O   UNL     1     107.182  95.881 114.819  1.00  0.00    -0.387 OA
ATOM     22  H   UNL     1     107.111  95.010 114.345  1.00  0.00     0.211 HD
ENDBRANCH  16  21
BRANCH  17  23
ATOM     23  C   UNL     1     105.518  95.890 117.522  1.00  0.00     0.191 C 
BRANCH  23  24
ATOM     24  O   UNL     1     106.801  96.426 117.711  1.00  0.00    -0.394 OA
ATOM     25  H   UNL     1     106.845  97.267 117.184  1.00  0.00     0.210 HD
ENDBRANCH  23  24
ENDBRANCH  17  23
BRANCH  18  26
ATOM     26  O   UNL     1     104.888  98.660 115.028  1.00  0.00    -0.387 OA
ATOM     27  H   UNL     1     105.338  98.968 114.200  1.00  0.00     0.211 HD
ENDBRANCH  18  26
ENDBRANCH  12  13
ENDBRANCH   7  12
BRANCH   4  28
ATOM     28  O   UNL     1      98.942  97.461 113.865  1.00  0.00    -0.393 OA
ATOM     29  H   UNL     1      97.955  97.418 113.949  1.00  0.00     0.210 HD
ENDBRANCH   4  28
BRANCH   8  30
ATOM     30  C   UNL     1     102.290  94.500 111.576  1.00  0.00     0.255 C 
BRANCH  30  31
ATOM     31  O   UNL     1     101.622  94.806 110.199  1.00  0.00    -0.461 OA
BRANCH  31  32
ATOM     32  C   UNL     1     101.646  93.838 109.109  1.00  0.00     0.338 C 
ATOM     33  O   UNL     1     102.156  94.780 109.763  1.00  0.00    -0.246 OA
BRANCH  32  34
ATOM     34  C   UNL     1     102.275  93.727 107.776  1.00  0.00     0.060 A 
ATOM     35  C   UNL     1     103.613  93.316 107.592  1.00  0.00     0.015 A 
ATOM     36  C   UNL     1     101.507  94.076 106.656  1.00  0.00     0.015 A 
ATOM     37  C   UNL     1     104.157  93.250 106.304  1.00  0.00     0.001 A 
ATOM     38  C   UNL     1     102.055  94.002 105.372  1.00  0.00     0.001 A 
ATOM     39  C   UNL     1     103.379  93.592 105.197  1.00  0.00     0.000 A 
ENDBRANCH  32  34
ENDBRANCH  31  32
ENDBRANCH  30  31
ENDBRANCH   8  30
TORSDOF 12
ENDMDL
MODEL 4
REMARK VINA RESULT:    -6.933      5.720     11.732
REMARK INTER + INTRA:         -10.121
REMARK INTER:                  -9.378
REMARK INTRA:                  -0.744
REMARK UNBOUND:                 0.256
REMARK SMILES C[C@@]12C[C@@H](O)[C@H]3C[C@]1(O[C@@H]1O[C@@H](CO)[C@H](O)[C@@H](O)[C@H]1O)[C@@]3(COC(=O)c1ccccc1)C(=O)O2
REMARK SMILES IDX 1 1 2 2 3 3 4 4 6 5 7 6 8 7 21 8 32 9 33 10 34 11 9 12 10 13
REMARK SMILES IDX 19 14 11 15 17 16 12 17 15 18 20 19 18 21 13 23 14 24 16 26
REMARK SMILES IDX 5 28 22 30 23 31 24 32 25 33 26 34 27 35 31 36 28 37 30 38
REMARK SMILES IDX 29 39
REMARK H PARENT 20 20 18 22 14 25 16 27 5 29
REMARK Flexibility Score: inf
ROOT
ATOM      1  C   UNL     1     101.449  96.946 116.723  1.00  0.00     0.060 C 
ATOM      2  C   UNL     1     101.007  96.544 115.318  1.00  0.00     0.142 C 
ATOM      3  C   UNL     1      99.993  97.585 114.719  1.00  0.00     0.083 C 
ATOM      4  C   UNL     1      99.775  97.344 113.176  1.00  0.00     0.123 C 
ATOM      5  C   UNL     1     101.038  96.684 112.531  1.00  0.00     0.045 C 
ATOM      6  C   UNL     1     102.266  97.355 113.151  1.00  0.00     0.049 C 
ATOM      7  C   UNL     1     102.177  96.293 114.268  1.00  0.00     0.131 C 
ATOM      8  C   UNL     1     101.428  95.374 113.279  1.00  0.00     0.140 C 
ATOM      9  C   UNL     1     100.423  94.690 114.144  1.00  0.00     0.319 C 
ATOM     10  O   UNL     1      99.716  93.704 113.805  1.00  0.00    -0.251 OA
ATOM     11  O   UNL     1     100.309  95.312 115.364  1.00  0.00    -0.456 OA
ENDROOT
BRANCH   7  12
ATOM     12  O   UNL     1     103.376  95.677 114.726  1.00  0.00    -0.338 OA
BRANCH  12  13
ATOM     13  C   UNL     1     104.575  96.437 114.592  1.00  0.00     0.282 C 
ATOM     14  C   UNL     1     105.401  96.177 115.865  1.00  0.00     0.202 C 
ATOM     15  O   UNL     1     105.317  96.087 113.429  1.00  0.00    -0.341 OA
ATOM     16  C   UNL     1     106.745  96.928 115.828  1.00  0.00     0.179 C 
ATOM     17  C   UNL     1     106.518  96.833 113.271  1.00  0.00     0.178 C 
ATOM     18  C   UNL     1     107.468  96.686 114.489  1.00  0.00     0.177 C 
BRANCH  14  19
ATOM     19  O   UNL     1     104.658  96.573 116.989  1.00  0.00    -0.385 OA
ATOM     20  H   UNL     1     104.323  97.488 116.802  1.00  0.00     0.211 HD
ENDBRANCH  14  19
BRANCH  16  21
ATOM     21  O   UNL     1     106.545  98.308 116.012  1.00  0.00    -0.387 OA
ATOM     22  H   UNL     1     107.442  98.716 116.147  1.00  0.00     0.211 HD
ENDBRANCH  16  21
BRANCH  17  23
ATOM     23  C   UNL     1     106.255  98.296 112.852  1.00  0.00     0.191 C 
BRANCH  23  24
ATOM     24  O   UNL     1     107.342  99.115 113.194  1.00  0.00    -0.394 OA
ATOM     25  H   UNL     1     107.718  98.759 114.042  1.00  0.00     0.210 HD
ENDBRANCH  23  24
ENDBRANCH  17  23
BRANCH  18  26
ATOM     26  O   UNL     1     108.084  95.421 114.486  1.00  0.00    -0.387 OA
ATOM     27  H   UNL     1     107.879  94.975 115.348  1.00  0.00     0.211 HD
ENDBRANCH  18  26
ENDBRANCH  12  13
ENDBRANCH   7  12
BRANCH   4  28
ATOM     28  O   UNL     1      99.504  98.561 112.531  1.00  0.00    -0.393 OA
ATOM     29  H   UNL     1      98.517  98.624 112.451  1.00  0.00     0.210 HD
ENDBRANCH   4  28
BRANCH   8  30
ATOM     30  C   UNL     1     102.314  94.400 112.458  1.00  0.00     0.255 C 
BRANCH  30  31
ATOM     31  O   UNL     1     101.615  93.971 111.130  1.00  0.00    -0.461 OA
BRANCH  31  32
ATOM     32  C   UNL     1     102.079  94.453 109.834  1.00  0.00     0.338 C 
ATOM     33  O   UNL     1     101.284  93.796 110.551  1.00  0.00    -0.246 OA
BRANCH  32  34
ATOM     34  C   UNL     1     101.998  94.012 108.426  1.00  0.00     0.060 A 
ATOM     35  C   UNL     1     100.785  93.644 107.805  1.00  0.00     0.015 A 
ATOM     36  C   UNL     1     103.191  93.933 107.693  1.00  0.00     0.015 A 
ATOM     37  C   UNL     1     100.777  93.216 106.473  1.00  0.00     0.001 A 
ATOM     38  C   UNL     1     103.176  93.511 106.361  1.00  0.00     0.001 A 
ATOM     39  C   UNL     1     101.972  93.150 105.752  1.00  0.00     0.000 A 
ENDBRANCH  32  34
ENDBRANCH  31  32
ENDBRANCH  30  31
ENDBRANCH   8  30
TORSDOF 12
ENDMDL
MODEL 5
REMARK VINA RESULT:    -6.905      5.493     10.973
REMARK INTER + INTRA:         -10.079
REMARK INTER:                  -9.790
REMARK INTRA:                  -0.289
REMARK UNBOUND:                 0.256
REMARK SMILES C[C@@]12C[C@@H](O)[C@H]3C[C@]1(O[C@@H]1O[C@@H](CO)[C@H](O)[C@@H](O)[C@H]1O)[C@@]3(COC(=O)c1ccccc1)C(=O)O2
REMARK SMILES IDX 1 1 2 2 3 3 4 4 6 5 7 6 8 7 21 8 32 9 33 10 34 11 9 12 10 13
REMARK SMILES IDX 19 14 11 15 17 16 12 17 15 18 20 19 18 21 13 23 14 24 16 26
REMARK SMILES IDX 5 28 22 30 23 31 24 32 25 33 26 34 27 35 31 36 28 37 30 38
REMARK SMILES IDX 29 39
REMARK H PARENT 20 20 18 22 14 25 16 27 5 29
REMARK Flexibility Score: inf
ROOT
ATOM      1  C   UNL     1      98.162  96.045 114.294  1.00  0.00     0.060 C 
ATOM      2  C   UNL     1      99.682  95.991 114.158  1.00  0.00     0.142 C 
ATOM      3  C   UNL     1     100.389  96.295 115.528  1.00  0.00     0.083 C 
ATOM      4  C   UNL     1     101.925  95.942 115.467  1.00  0.00     0.123 C 
ATOM      5  C   UNL     1     102.194  94.805 114.427  1.00  0.00     0.045 C 
ATOM      6  C   UNL     1     101.062  93.784 114.567  1.00  0.00     0.049 C 
ATOM      7  C   UNL     1     100.276  94.643 113.553  1.00  0.00     0.131 C 
ATOM      8  C   UNL     1     101.624  95.182 113.027  1.00  0.00     0.140 C 
ATOM      9  C   UNL     1     101.320  96.608 112.712  1.00  0.00     0.319 C 
ATOM     10  O   UNL     1     102.071  97.393 112.073  1.00  0.00    -0.251 OA
ATOM     11  O   UNL     1     100.125  96.998 113.267  1.00  0.00    -0.456 OA
ENDROOT
BRANCH   7  12
ATOM     12  O   UNL     1      99.550  93.989 112.518  1.00  0.00    -0.338 OA
BRANCH  12  13
ATOM     13  C   UNL     1      98.789  92.844 112.897  1.00  0.00     0.282 C 
ATOM     14  C   UNL     1      99.621  91.613 112.492  1.00  0.00     0.202 C 
ATOM     15  O   UNL     1      98.495  92.819 114.289  1.00  0.00    -0.341 OA
ATOM     16  C   UNL     1      98.911  90.303 112.877  1.00  0.00     0.179 C 
ATOM     17  C   UNL     1      97.734  91.687 114.692  1.00  0.00     0.178 C 
ATOM     18  C   UNL     1      98.437  90.348 114.341  1.00  0.00     0.177 C 
BRANCH  14  19
ATOM     19  O   UNL     1      99.855  91.647 111.108  1.00  0.00    -0.385 OA
ATOM     20  H   UNL     1      99.786  90.713 110.783  1.00  0.00     0.211 HD
ENDBRANCH  14  19
BRANCH  16  21
ATOM     21  O   UNL     1      97.810  90.070 112.033  1.00  0.00    -0.387 OA
ATOM     22  H   UNL     1      97.800  90.802 111.360  1.00  0.00     0.211 HD
ENDBRANCH  16  21
BRANCH  17  23
ATOM     23  C   UNL     1      96.263  91.765 114.226  1.00  0.00     0.191 C 
BRANCH  23  24
ATOM     24  O   UNL     1      95.699  90.483 114.141  1.00  0.00    -0.394 OA
ATOM     25  H   UNL     1      96.202  89.903 114.772  1.00  0.00     0.210 HD
ENDBRANCH  23  24
ENDBRANCH  17  23
BRANCH  18  26
ATOM     26  O   UNL     1      99.516  90.113 115.214  1.00  0.00    -0.387 OA
ATOM     27  H   UNL     1      99.448  89.181 115.545  1.00  0.00     0.211 HD
ENDBRANCH  18  26
ENDBRANCH  12  13
ENDBRANCH   7  12
BRANCH   4  28
ATOM     28  O   UNL     1     102.377  95.532 116.732  1.00  0.00    -0.393 OA
ATOM     29  H   UNL     1     101.648  95.740 117.372  1.00  0.00     0.210 HD
ENDBRANCH   4  28
BRANCH   8  30
ATOM     30  C   UNL     1     102.248  94.398 111.842  1.00  0.00     0.255 C 
BRANCH  30  31
ATOM     31  O   UNL     1     101.710  94.911 110.470  1.00  0.00    -0.461 OA
BRANCH  31  32
ATOM     32  C   UNL     1     101.534  94.012 109.336  1.00  0.00     0.338 C 
ATOM     33  O   UNL     1     102.231  94.786 110.036  1.00  0.00    -0.246 OA
BRANCH  32  34
ATOM     34  C   UNL     1     102.142  93.822 108.003  1.00  0.00     0.060 A 
ATOM     35  C   UNL     1     103.506  93.505 107.819  1.00  0.00     0.015 A 
ATOM     36  C   UNL     1     101.326  93.998 106.877  1.00  0.00     0.015 A 
ATOM     37  C   UNL     1     104.027  93.358 106.529  1.00  0.00     0.001 A 
ATOM     38  C   UNL     1     101.851  93.844 105.590  1.00  0.00     0.001 A 
ATOM     39  C   UNL     1     103.200  93.527 105.416  1.00  0.00     0.000 A 
ENDBRANCH  32  34
ENDBRANCH  31  32
ENDBRANCH  30  31
ENDBRANCH   8  30
TORSDOF 12
ENDMDL
MODEL 6
REMARK VINA RESULT:    -6.747      5.656     11.972
REMARK INTER + INTRA:          -9.844
REMARK INTER:                  -9.214
REMARK INTRA:                  -0.630
REMARK UNBOUND:                 0.256
REMARK SMILES C[C@@]12C[C@@H](O)[C@H]3C[C@]1(O[C@@H]1O[C@@H](CO)[C@H](O)[C@@H](O)[C@H]1O)[C@@]3(COC(=O)c1ccccc1)C(=O)O2
REMARK SMILES IDX 1 1 2 2 3 3 4 4 6 5 7 6 8 7 21 8 32 9 33 10 34 11 9 12 10 13
REMARK SMILES IDX 19 14 11 15 17 16 12 17 15 18 20 19 18 21 13 23 14 24 16 26
REMARK SMILES IDX 5 28 22 30 23 31 24 32 25 33 26 34 27 35 31 36 28 37 30 38
REMARK SMILES IDX 29 39
REMARK H PARENT 20 20 18 22 14 25 16 27 5 29
REMARK Flexibility Score: inf
ROOT
ATOM      1  C   UNL     1     100.815  97.251 116.481  1.00  0.00     0.060 C 
ATOM      2  C   UNL     1     101.095  96.152 115.460  1.00  0.00     0.142 C 
ATOM      3  C   UNL     1     100.643  94.746 115.995  1.00  0.00     0.083 C 
ATOM      4  C   UNL     1     100.645  93.670 114.843  1.00  0.00     0.123 C 
ATOM      5  C   UNL     1     100.399  94.343 113.452  1.00  0.00     0.045 C 
ATOM      6  C   UNL     1      99.327  95.417 113.651  1.00  0.00     0.049 C 
ATOM      7  C   UNL     1     100.478  96.380 114.010  1.00  0.00     0.131 C 
ATOM      8  C   UNL     1     101.430  95.481 113.192  1.00  0.00     0.140 C 
ATOM      9  C   UNL     1     102.698  95.524 113.979  1.00  0.00     0.319 C 
ATOM     10  O   UNL     1     103.815  95.092 113.590  1.00  0.00    -0.251 OA
ATOM     11  O   UNL     1     102.489  96.046 115.233  1.00  0.00    -0.456 OA
ENDROOT
BRANCH   7  12
ATOM     12  O   UNL     1     100.453  97.703 113.486  1.00  0.00    -0.338 OA
BRANCH  12  13
ATOM     13  C   UNL     1      99.333  98.511 113.844  1.00  0.00     0.282 C 
ATOM     14  C   UNL     1      99.840  99.964 113.896  1.00  0.00     0.202 C 
ATOM     15  O   UNL     1      98.253  98.385 112.925  1.00  0.00    -0.341 OA
ATOM     16  C   UNL     1      98.706 100.943 114.248  1.00  0.00     0.179 C 
ATOM     17  C   UNL     1      97.122  99.179 113.261  1.00  0.00     0.178 C 
ATOM     18  C   UNL     1      97.470 100.688 113.366  1.00  0.00     0.177 C 
BRANCH  14  19
ATOM     19  O   UNL     1     100.873 100.060 114.842  1.00  0.00    -0.385 OA
ATOM     20  H   UNL     1     101.391  99.215 114.786  1.00  0.00     0.211 HD
ENDBRANCH  14  19
BRANCH  16  21
ATOM     21  O   UNL     1      98.350 100.821 115.603  1.00  0.00    -0.387 OA
ATOM     22  H   UNL     1      97.435 100.433 115.629  1.00  0.00     0.211 HD
ENDBRANCH  16  21
BRANCH  17  23
ATOM     23  C   UNL     1      96.351  98.626 114.480  1.00  0.00     0.191 C 
BRANCH  23  24
ATOM     24  O   UNL     1      95.602  99.640 115.097  1.00  0.00    -0.394 OA
ATOM     25  H   UNL     1      96.048 100.501 114.883  1.00  0.00     0.210 HD
ENDBRANCH  23  24
ENDBRANCH  17  23
BRANCH  18  26
ATOM     26  O   UNL     1      97.658 101.241 112.085  1.00  0.00    -0.387 OA
ATOM     27  H   UNL     1      98.341 100.699 111.612  1.00  0.00     0.211 HD
ENDBRANCH  18  26
ENDBRANCH  12  13
ENDBRANCH   7  12
BRANCH   4  28
ATOM     28  O   UNL     1      99.648  92.709 115.077  1.00  0.00    -0.393 OA
ATOM     29  H   UNL     1      99.081  93.065 115.809  1.00  0.00     0.210 HD
ENDBRANCH   4  28
BRANCH   8  30
ATOM     30  C   UNL     1     101.607  95.866 111.699  1.00  0.00     0.255 C 
BRANCH  30  31
ATOM     31  O   UNL     1     102.233  94.696 110.877  1.00  0.00    -0.461 OA
BRANCH  31  32
ATOM     32  C   UNL     1     101.673  94.280 109.596  1.00  0.00     0.338 C 
ATOM     33  O   UNL     1     102.608  94.327 110.432  1.00  0.00    -0.246 OA
BRANCH  32  34
ATOM     34  C   UNL     1     102.186  93.928 108.256  1.00  0.00     0.060 A 
ATOM     35  C   UNL     1     103.532  93.576 108.018  1.00  0.00     0.015 A 
ATOM     36  C   UNL     1     101.293  93.978 107.177  1.00  0.00     0.015 A 
ATOM     37  C   UNL     1     103.962  93.272 106.722  1.00  0.00     0.001 A 
ATOM     38  C   UNL     1     101.726  93.667 105.884  1.00  0.00     0.001 A 
ATOM     39  C   UNL     1     103.059  93.317 105.657  1.00  0.00     0.000 A 
ENDBRANCH  32  34
ENDBRANCH  31  32
ENDBRANCH  30  31
ENDBRANCH   8  30
TORSDOF 12
ENDMDL
MODEL 7
REMARK VINA RESULT:    -6.673      9.330     11.943
REMARK INTER + INTRA:          -9.733
REMARK INTER:                  -9.201
REMARK INTRA:                  -0.533
REMARK UNBOUND:                 0.256
REMARK SMILES C[C@@]12C[C@@H](O)[C@H]3C[C@]1(O[C@@H]1O[C@@H](CO)[C@H](O)[C@@H](O)[C@H]1O)[C@@]3(COC(=O)c1ccccc1)C(=O)O2
REMARK SMILES IDX 1 1 2 2 3 3 4 4 6 5 7 6 8 7 21 8 32 9 33 10 34 11 9 12 10 13
REMARK SMILES IDX 19 14 11 15 17 16 12 17 15 18 20 19 18 21 13 23 14 24 16 26
REMARK SMILES IDX 5 28 22 30 23 31 24 32 25 33 26 34 27 35 31 36 28 37 30 38
REMARK SMILES IDX 29 39
REMARK H PARENT 20 20 18 22 14 25 16 27 5 29
REMARK Flexibility Score: inf
ROOT
ATOM      1  C   UNL     1     103.246  93.993 116.824  1.00  0.00     0.060 C 
ATOM      2  C   UNL     1     103.053  94.781 115.531  1.00  0.00     0.142 C 
ATOM      3  C   UNL     1     104.277  94.597 114.562  1.00  0.00     0.083 C 
ATOM      4  C   UNL     1     103.951  95.148 113.121  1.00  0.00     0.123 C 
ATOM      5  C   UNL     1     102.416  95.069 112.829  1.00  0.00     0.045 C 
ATOM      6  C   UNL     1     101.915  93.739 113.396  1.00  0.00     0.049 C 
ATOM      7  C   UNL     1     101.708  94.483 114.733  1.00  0.00     0.131 C 
ATOM      8  C   UNL     1     101.598  95.801 113.935  1.00  0.00     0.140 C 
ATOM      9  C   UNL     1     102.275  96.792 114.821  1.00  0.00     0.319 C 
ATOM     10  O   UNL     1     102.256  98.043 114.668  1.00  0.00    -0.251 OA
ATOM     11  O   UNL     1     102.993  96.168 115.812  1.00  0.00    -0.456 OA
ENDROOT
BRANCH   7  12
ATOM     12  O   UNL     1     100.520  94.239 115.477  1.00  0.00    -0.338 OA
BRANCH  12  13
ATOM     13  C   UNL     1      99.882  92.981 115.267  1.00  0.00     0.282 C 
ATOM     14  C   UNL     1      99.340  92.532 116.636  1.00  0.00     0.202 C 
ATOM     15  O   UNL     1      98.834  93.053 114.307  1.00  0.00    -0.341 OA
ATOM     16  C   UNL     1      98.598  91.187 116.534  1.00  0.00     0.179 C 
ATOM     17  C   UNL     1      98.182  91.810 114.077  1.00  0.00     0.178 C 
ATOM     18  C   UNL     1      97.582  91.209 115.377  1.00  0.00     0.177 C 
BRANCH  14  19
ATOM     19  O   UNL     1     100.405  92.429 117.545  1.00  0.00    -0.385 OA
ATOM     20  H   UNL     1     100.855  91.564 117.362  1.00  0.00     0.211 HD
ENDBRANCH  14  19
BRANCH  16  21
ATOM     21  O   UNL     1      99.510  90.133 116.339  1.00  0.00    -0.387 OA
ATOM     22  H   UNL     1      99.324  89.454 117.042  1.00  0.00     0.211 HD
ENDBRANCH  16  21
BRANCH  17  23
ATOM     23  C   UNL     1      99.058  90.823 113.274  1.00  0.00     0.191 C 
BRANCH  23  24
ATOM     24  O   UNL     1      99.500  91.408 112.078  1.00  0.00    -0.394 OA
ATOM     25  H   UNL     1     100.479  91.552 112.170  1.00  0.00     0.210 HD
ENDBRANCH  23  24
ENDBRANCH  17  23
BRANCH  18  26
ATOM     26  O   UNL     1      96.422  91.911 115.755  1.00  0.00    -0.387 OA
ATOM     27  H   UNL     1      96.327  92.696 115.157  1.00  0.00     0.211 HD
ENDBRANCH  18  26
ENDBRANCH  12  13
ENDBRANCH   7  12
BRANCH   4  28
ATOM     28  O   UNL     1     104.648  94.409 112.152  1.00  0.00    -0.393 OA
ATOM     29  H   UNL     1     103.991  93.784 111.749  1.00  0.00     0.210 HD
ENDBRANCH   4  28
BRANCH   8  30
ATOM     30  C   UNL     1     100.164  96.215 113.511  1.00  0.00     0.255 C 
BRANCH  30  31
ATOM     31  O   UNL     1     100.154  97.615 112.818  1.00  0.00    -0.461 OA
BRANCH  31  32
ATOM     32  C   UNL     1      99.203  98.649 113.207  1.00  0.00     0.338 C 
ATOM     33  O   UNL     1      99.520  97.448 113.029  1.00  0.00    -0.246 OA
BRANCH  32  34
ATOM     34  C   UNL     1      97.734  98.800 113.263  1.00  0.00     0.060 A 
ATOM     35  C   UNL     1      96.902  97.933 114.003  1.00  0.00     0.015 A 
ATOM     36  C   UNL     1      97.152  99.837 112.521  1.00  0.00     0.015 A 
ATOM     37  C   UNL     1      95.514  98.116 114.000  1.00  0.00     0.001 A 
ATOM     38  C   UNL     1      95.766 100.020 112.526  1.00  0.00     0.001 A 
ATOM     39  C   UNL     1      94.948  99.159 113.263  1.00  0.00     0.000 A 
ENDBRANCH  32  34
ENDBRANCH  31  32
ENDBRANCH  30  31
ENDBRANCH   8  30
TORSDOF 12
ENDMDL
MODEL 8
REMARK VINA RESULT:    -6.584      9.475     13.538
REMARK INTER + INTRA:          -9.599
REMARK INTER:                  -9.050
REMARK INTRA:                  -0.549
REMARK UNBOUND:                 0.256
REMARK SMILES C[C@@]12C[C@@H](O)[C@H]3C[C@]1(O[C@@H]1O[C@@H](CO)[C@H](O)[C@@H](O)[C@H]1O)[C@@]3(COC(=O)c1ccccc1)C(=O)O2
REMARK SMILES IDX 1 1 2 2 3 3 4 4 6 5 7 6 8 7 21 8 32 9 33 10 34 11 9 12 10 13
REMARK SMILES IDX 19 14 11 15 17 16 12 17 15 18 20 19 18 21 13 23 14 24 16 26
REMARK SMILES IDX 5 28 22 30 23 31 24 32 25 33 26 34 27 35 31 36 28 37 30 38
REMARK SMILES IDX 29 39
REMARK H PARENT 20 20 18 22 14 25 16 27 5 29
REMARK Flexibility Score: inf
ROOT
ATOM      1  C   UNL     1     108.654  96.169 117.392  1.00  0.00     0.060 C 
ATOM      2  C   UNL     1     109.063  96.667 116.008  1.00  0.00     0.142 C 
ATOM      3  C   UNL     1     110.296  95.865 115.454  1.00  0.00     0.083 C 
ATOM      4  C   UNL     1     110.526  96.160 113.922  1.00  0.00     0.123 C 
ATOM      5  C   UNL     1     109.181  96.547 113.222  1.00  0.00     0.045 C 
ATOM      6  C   UNL     1     108.095  95.630 113.788  1.00  0.00     0.049 C 
ATOM      7  C   UNL     1     107.912  96.677 114.907  1.00  0.00     0.131 C 
ATOM      8  C   UNL     1     108.495  97.740 113.951  1.00  0.00     0.140 C 
ATOM      9  C   UNL     1     109.296  98.612 114.859  1.00  0.00     0.319 C 
ATOM     10  O   UNL     1     109.797  99.726 114.551  1.00  0.00    -0.251 OA
ATOM     11  O   UNL     1     109.486  98.016 116.083  1.00  0.00    -0.456 OA
ENDROOT
BRANCH   7  12
ATOM     12  O   UNL     1     106.593  97.025 115.312  1.00  0.00    -0.338 OA
BRANCH  12  13
ATOM     13  C   UNL     1     105.575  96.056 115.073  1.00  0.00     0.282 C 
ATOM     14  C   UNL     1     104.704  96.014 116.342  1.00  0.00     0.202 C 
ATOM     15  O   UNL     1     104.786  96.362 113.929  1.00  0.00    -0.341 OA
ATOM     16  C   UNL     1     103.543  95.014 116.196  1.00  0.00     0.179 C 
ATOM     17  C   UNL     1     103.764  95.408 113.667  1.00  0.00     0.178 C 
ATOM     18  C   UNL     1     102.795  95.237 114.868  1.00  0.00     0.177 C 
BRANCH  14  19
ATOM     19  O   UNL     1     105.506  95.666 117.442  1.00  0.00    -0.385 OA
ATOM     20  H   UNL     1     106.390  96.092 117.297  1.00  0.00     0.211 HD
ENDBRANCH  14  19
BRANCH  16  21
ATOM     21  O   UNL     1     104.019  93.692 116.252  1.00  0.00    -0.387 OA
ATOM     22  H   UNL     1     104.477  93.585 117.128  1.00  0.00     0.211 HD
ENDBRANCH  16  21
BRANCH  17  23
ATOM     23  C   UNL     1     104.323  94.078 113.116  1.00  0.00     0.191 C 
BRANCH  23  24
ATOM     24  O   UNL     1     104.426  94.123 111.717  1.00  0.00    -0.394 OA
ATOM     25  H   UNL     1     105.147  94.771 111.500  1.00  0.00     0.210 HD
ENDBRANCH  23  24
ENDBRANCH  17  23
BRANCH  18  26
ATOM     26  O   UNL     1     101.933  96.345 114.970  1.00  0.00    -0.387 OA
ATOM     27  H   UNL     1     102.405  97.137 114.603  1.00  0.00     0.211 HD
ENDBRANCH  18  26
ENDBRANCH  12  13
ENDBRANCH   7  12
BRANCH   4  28
ATOM     28  O   UNL     1     111.072  95.032 113.290  1.00  0.00    -0.393 OA
ATOM     29  H   UNL     1     112.049  95.190 113.227  1.00  0.00     0.210 HD
ENDBRANCH   4  28
BRANCH   8  30
ATOM     30  C   UNL     1     107.461  98.515 113.091  1.00  0.00     0.255 C 
BRANCH  30  31
ATOM     31  O   UNL     1     108.159  99.370 111.988  1.00  0.00    -0.461 OA
BRANCH  31  32
ATOM     32  C   UNL     1     107.844 100.782 111.806  1.00  0.00     0.338 C 
ATOM     33  O   UNL     1     108.572  99.777 111.615  1.00  0.00    -0.246 OA
BRANCH  32  34
ATOM     34  C   UNL     1     108.587 102.027 111.524  1.00  0.00     0.060 A 
ATOM     35  C   UNL     1     109.468 102.622 112.454  1.00  0.00     0.015 A 
ATOM     36  C   UNL     1     108.378 102.652 110.287  1.00  0.00     0.015 A 
ATOM     37  C   UNL     1     110.128 103.814 112.135  1.00  0.00     0.001 A 
ATOM     38  C   UNL     1     109.045 103.839 109.971  1.00  0.00     0.001 A 
ATOM     39  C   UNL     1     109.917 104.421 110.895  1.00  0.00     0.000 A 
ENDBRANCH  32  34
ENDBRANCH  31  32
ENDBRANCH  30  31
ENDBRANCH   8  30
TORSDOF 12
ENDMDL
MODEL 9
REMARK VINA RESULT:    -6.505     11.127     14.395
REMARK INTER + INTRA:          -9.481
REMARK INTER:                  -8.660
REMARK INTRA:                  -0.821
REMARK UNBOUND:                 0.256
REMARK SMILES C[C@@]12C[C@@H](O)[C@H]3C[C@]1(O[C@@H]1O[C@@H](CO)[C@H](O)[C@@H](O)[C@H]1O)[C@@]3(COC(=O)c1ccccc1)C(=O)O2
REMARK SMILES IDX 1 1 2 2 3 3 4 4 6 5 7 6 8 7 21 8 32 9 33 10 34 11 9 12 10 13
REMARK SMILES IDX 19 14 11 15 17 16 12 17 15 18 20 19 18 21 13 23 14 24 16 26
REMARK SMILES IDX 5 28 22 30 23 31 24 32 25 33 26 34 27 35 31 36 28 37 30 38
REMARK SMILES IDX 29 39
REMARK H PARENT 20 20 18 22 14 25 16 27 5 29
REMARK Flexibility Score: inf
ROOT
ATOM      1  C   UNL     1     110.169 102.322 113.799  1.00  0.00     0.060 C 
ATOM      2  C   UNL     1     109.054 102.797 112.871  1.00  0.00     0.142 C 
ATOM      3  C   UNL     1     109.626 103.266 111.485  1.00  0.00     0.083 C 
ATOM      4  C   UNL     1     108.471 103.462 110.429  1.00  0.00     0.123 C 
ATOM      5  C   UNL     1     107.256 102.532 110.754  1.00  0.00     0.045 C 
ATOM      6  C   UNL     1     107.824 101.181 111.194  1.00  0.00     0.049 C 
ATOM      7  C   UNL     1     107.870 101.761 112.624  1.00  0.00     0.131 C 
ATOM      8  C   UNL     1     106.759 102.751 112.214  1.00  0.00     0.140 C 
ATOM      9  C   UNL     1     107.129 104.000 112.942  1.00  0.00     0.319 C 
ATOM     10  O   UNL     1     106.401 105.020 113.062  1.00  0.00    -0.251 OA
ATOM     11  O   UNL     1     108.414 103.933 113.425  1.00  0.00    -0.456 OA
ENDROOT
BRANCH   7  12
ATOM     12  O   UNL     1     107.449 100.944 113.710  1.00  0.00    -0.338 OA
BRANCH  12  13
ATOM     13  C   UNL     1     107.745  99.552 113.613  1.00  0.00     0.282 C 
ATOM     14  C   UNL     1     107.955  99.049 115.053  1.00  0.00     0.202 C 
ATOM     15  O   UNL     1     106.711  98.817 112.967  1.00  0.00    -0.341 OA
ATOM     16  C   UNL     1     108.256  97.540 115.084  1.00  0.00     0.179 C 
ATOM     17  C   UNL     1     106.983  97.425 112.856  1.00  0.00     0.178 C 
ATOM     18  C   UNL     1     107.233  96.761 114.237  1.00  0.00     0.177 C 
BRANCH  14  19
ATOM     19  O   UNL     1     109.009  99.764 115.644  1.00  0.00    -0.385 OA
ATOM     20  H   UNL     1     108.717  99.995 116.564  1.00  0.00     0.211 HD
ENDBRANCH  14  19
BRANCH  16  21
ATOM     21  O   UNL     1     109.554  97.285 114.606  1.00  0.00    -0.387 OA
ATOM     22  H   UNL     1     110.080  96.925 115.369  1.00  0.00     0.211 HD
ENDBRANCH  16  21
BRANCH  17  23
ATOM     23  C   UNL     1     108.071  97.117 111.804  1.00  0.00     0.191 C 
BRANCH  23  24
ATOM     24  O   UNL     1     108.683  95.882 112.069  1.00  0.00    -0.394 OA
ATOM     25  H   UNL     1     108.460  95.642 113.007  1.00  0.00     0.210 HD
ENDBRANCH  23  24
ENDBRANCH  17  23
BRANCH  18  26
ATOM     26  O   UNL     1     106.022  96.615 114.940  1.00  0.00    -0.387 OA
ATOM     27  H   UNL     1     106.217  96.698 115.910  1.00  0.00     0.211 HD
ENDBRANCH  18  26
ENDBRANCH  12  13
ENDBRANCH   7  12
BRANCH   4  28
ATOM     28  O   UNL     1     108.943 103.179 109.138  1.00  0.00    -0.393 OA
ATOM     29  H   UNL     1     109.923 103.332 109.157  1.00  0.00     0.210 HD
ENDBRANCH   4  28
BRANCH   8  30
ATOM     30  C   UNL     1     105.304 102.280 112.479  1.00  0.00     0.255 C 
BRANCH  30  31
ATOM     31  O   UNL     1     104.283 103.033 111.569  1.00  0.00    -0.461 OA
BRANCH  31  32
ATOM     32  C   UNL     1     103.227 103.863 112.135  1.00  0.00     0.338 C 
ATOM     33  O   UNL     1     103.848 103.376 111.159  1.00  0.00    -0.246 OA
BRANCH  32  34
ATOM     34  C   UNL     1     102.436 105.039 111.717  1.00  0.00     0.060 A 
ATOM     35  C   UNL     1     103.024 106.270 111.353  1.00  0.00     0.015 A 
ATOM     36  C   UNL     1     101.038 104.923 111.713  1.00  0.00     0.015 A 
ATOM     37  C   UNL     1     102.219 107.354 110.985  1.00  0.00     0.001 A 
ATOM     38  C   UNL     1     100.239 106.008 111.339  1.00  0.00     0.001 A 
ATOM     39  C   UNL     1     100.828 107.221 110.977  1.00  0.00     0.000 A 
ENDBRANCH  32  34
ENDBRANCH  31  32
ENDBRANCH  30  31
ENDBRANCH   8  30
TORSDOF 12
ENDMDL
