MODEL 1
REMARK VINA RESULT:    -4.928      0.000      0.000
REMARK INTER + INTRA:         -12.533
REMARK INTER:                  -9.538
REMARK INTRA:                  -2.995
REMARK UNBOUND:                -2.995
REMARK SMILES CCCCCCCCCCCCCCCCCC(=O)[O-]
REMARK SMILES IDX 10 1 11 2 12 3 13 4 14 5 15 6 16 7 17 8 18 9 19 10 20 11
REMARK SMILES IDX 9 12 8 13 7 14 6 15 5 16 4 17 3 18 2 19 1 20
REMARK H PARENT
REMARK Flexibility Score: inf
ROOT
ATOM      1  C   UNL     1      21.134  21.631   8.067  1.00  0.00     0.000 C 
ENDROOT
BRANCH   1   2
ATOM      2  C   UNL     1      21.361  21.979   6.587  1.00  0.00     0.000 C 
BRANCH   2   3
ATOM      3  C   UNL     1      20.045  22.062   5.794  1.00  0.00     0.000 C 
BRANCH   3   4
ATOM      4  C   UNL     1      19.125  23.189   6.292  1.00  0.00     0.000 C 
BRANCH   4   5
ATOM      5  C   UNL     1      17.740  22.674   6.724  1.00  0.00     0.000 C 
BRANCH   5   6
ATOM      6  C   UNL     1      17.448  21.260   6.197  1.00  0.00     0.000 C 
BRANCH   6   7
ATOM      7  C   UNL     1      16.929  20.313   7.295  1.00  0.00     0.006 C 
BRANCH   7   8
ATOM      8  C   UNL     1      18.055  19.473   7.913  1.00  0.00     0.053 C 
BRANCH   8   9
ATOM      9  C   UNL     1      18.623  18.496   6.931  1.00  0.00     0.041 C 
ATOM     10  O   UNL     1      17.897  17.587   6.448  1.00  0.00    -0.550 OA
ATOM     11  O   UNL     1      19.945  18.612   6.519  1.00  0.00    -0.550 OA
ENDBRANCH   8   9
ENDBRANCH   7   8
ENDBRANCH   6   7
ENDBRANCH   5   6
ENDBRANCH   4   5
ENDBRANCH   3   4
ENDBRANCH   2   3
ENDBRANCH   1   2
BRANCH   1  12
ATOM     12  C   UNL     1      21.639  22.730   9.018  1.00  0.00     0.000 C 
BRANCH  12  13
ATOM     13  C   UNL     1      20.696  22.964  10.214  1.00  0.00    -0.000 C 
BRANCH  13  14
ATOM     14  C   UNL     1      19.392  22.148  10.174  1.00  0.00    -0.000 C 
BRANCH  14  15
ATOM     15  C   UNL     1      18.692  22.073  11.543  1.00  0.00    -0.000 C 
BRANCH  15  16
ATOM     16  C   UNL     1      17.356  22.833  11.562  1.00  0.00    -0.000 C 
BRANCH  16  17
ATOM     17  C   UNL     1      16.981  23.398  10.182  1.00  0.00    -0.000 C 
BRANCH  17  18
ATOM     18  C   UNL     1      16.905  24.936  10.167  1.00  0.00    -0.000 C 
BRANCH  18  19
ATOM     19  C   UNL     1      17.608  25.603   8.970  1.00  0.00    -0.003 C 
ATOM     20  C   UNL     1      19.033  26.054   9.289  1.00  0.00     0.004 C 
ENDBRANCH  18  19
ENDBRANCH  17  18
ENDBRANCH  16  17
ENDBRANCH  15  16
ENDBRANCH  14  15
ENDBRANCH  13  14
ENDBRANCH  12  13
ENDBRANCH   1  12
TORSDOF 16
ENDMDL
MODEL 2
REMARK VINA RESULT:    -4.908      3.273      4.997
REMARK INTER + INTRA:         -12.495
REMARK INTER:                 -10.169
REMARK INTRA:                  -2.325
REMARK UNBOUND:                -2.995
REMARK SMILES CCCCCCCCCCCCCCCCCC(=O)[O-]
REMARK SMILES IDX 10 1 11 2 12 3 13 4 14 5 15 6 16 7 17 8 18 9 19 10 20 11
REMARK SMILES IDX 9 12 8 13 7 14 6 15 5 16 4 17 3 18 2 19 1 20
REMARK H PARENT
REMARK Flexibility Score: inf
ROOT
ATOM      1  C   UNL     1      21.846  21.262   4.587  1.00  0.00     0.000 C 
ENDROOT
BRANCH   1   2
ATOM      2  C   UNL     1      20.359  21.230   4.199  1.00  0.00     0.000 C 
BRANCH   2   3
ATOM      3  C   UNL     1      19.499  22.148   5.085  1.00  0.00     0.000 C 
BRANCH   3   4
ATOM      4  C   UNL     1      18.353  21.394   5.781  1.00  0.00     0.000 C 
BRANCH   4   5
ATOM      5  C   UNL     1      17.493  22.313   6.666  1.00  0.00     0.000 C 
BRANCH   5   6
ATOM      6  C   UNL     1      18.131  23.696   6.874  1.00  0.00     0.000 C 
BRANCH   6   7
ATOM      7  C   UNL     1      17.238  24.645   7.693  1.00  0.00     0.006 C 
BRANCH   7   8
ATOM      8  C   UNL     1      17.919  25.106   8.989  1.00  0.00     0.053 C 
BRANCH   8   9
ATOM      9  C   UNL     1      18.220  26.573   8.966  1.00  0.00     0.041 C 
ATOM     10  O   UNL     1      17.283  27.412   8.909  1.00  0.00    -0.550 OA
ATOM     11  O   UNL     1      19.535  27.015   9.046  1.00  0.00    -0.550 OA
ENDBRANCH   8   9
ENDBRANCH   7   8
ENDBRANCH   6   7
ENDBRANCH   5   6
ENDBRANCH   4   5
ENDBRANCH   3   4
ENDBRANCH   2   3
ENDBRANCH   1   2
BRANCH   1  12
ATOM     12  C   UNL     1      22.260  20.054   5.444  1.00  0.00     0.000 C 
BRANCH  12  13
ATOM     13  C   UNL     1      21.767  20.156   6.900  1.00  0.00    -0.000 C 
BRANCH  13  14
ATOM     14  C   UNL     1      22.445  21.259   7.733  1.00  0.00    -0.000 C 
BRANCH  14  15
ATOM     15  C   UNL     1      21.488  22.408   8.094  1.00  0.00    -0.000 C 
BRANCH  15  16
ATOM     16  C   UNL     1      21.639  22.863   9.555  1.00  0.00    -0.000 C 
BRANCH  16  17
ATOM     17  C   UNL     1      20.306  22.836  10.320  1.00  0.00    -0.000 C 
BRANCH  17  18
ATOM     18  C   UNL     1      19.339  21.758   9.797  1.00  0.00    -0.000 C 
BRANCH  18  19
ATOM     19  C   UNL     1      18.172  21.425  10.745  1.00  0.00    -0.003 C 
ATOM     20  C   UNL     1      17.711  22.626  11.570  1.00  0.00     0.004 C 
ENDBRANCH  18  19
ENDBRANCH  17  18
ENDBRANCH  16  17
ENDBRANCH  15  16
ENDBRANCH  14  15
ENDBRANCH  13  14
ENDBRANCH  12  13
ENDBRANCH   1  12
TORSDOF 16
ENDMDL
MODEL 3
REMARK VINA RESULT:    -4.825      1.754      4.061
REMARK INTER + INTRA:         -12.333
REMARK INTER:                  -9.915
REMARK INTRA:                  -2.418
REMARK UNBOUND:                -2.995
REMARK SMILES CCCCCCCCCCCCCCCCCC(=O)[O-]
REMARK SMILES IDX 10 1 11 2 12 3 13 4 14 5 15 6 16 7 17 8 18 9 19 10 20 11
REMARK SMILES IDX 9 12 8 13 7 14 6 15 5 16 4 17 3 18 2 19 1 20
REMARK H PARENT
REMARK Flexibility Score: inf
ROOT
ATOM      1  C   UNL     1      16.964  24.576   8.660  1.00  0.00     0.000 C 
ENDROOT
BRANCH   1   2
ATOM      2  C   UNL     1      16.875  24.027   7.227  1.00  0.00     0.000 C 
BRANCH   2   3
ATOM      3  C   UNL     1      18.241  23.566   6.688  1.00  0.00     0.000 C 
BRANCH   3   4
ATOM      4  C   UNL     1      18.200  22.139   6.116  1.00  0.00     0.000 C 
BRANCH   4   5
ATOM      5  C   UNL     1      19.499  21.759   5.383  1.00  0.00     0.000 C 
BRANCH   5   6
ATOM      6  C   UNL     1      20.756  22.219   6.137  1.00  0.00     0.000 C 
BRANCH   6   7
ATOM      7  C   UNL     1      21.910  21.204   6.043  1.00  0.00     0.006 C 
BRANCH   7   8
ATOM      8  C   UNL     1      21.998  20.557   4.654  1.00  0.00     0.053 C 
BRANCH   8   9
ATOM      9  C   UNL     1      22.082  19.064   4.742  1.00  0.00     0.041 C 
ATOM     10  O   UNL     1      23.167  18.474   4.494  1.00  0.00    -0.550 OA
ATOM     11  O   UNL     1      20.972  18.326   5.132  1.00  0.00    -0.550 OA
ENDBRANCH   8   9
ENDBRANCH   7   8
ENDBRANCH   6   7
ENDBRANCH   5   6
ENDBRANCH   4   5
ENDBRANCH   3   4
ENDBRANCH   2   3
ENDBRANCH   1   2
BRANCH   1  12
ATOM     12  C   UNL     1      17.368  26.060   8.703  1.00  0.00     0.000 C 
BRANCH  12  13
ATOM     13  C   UNL     1      18.849  26.265   9.073  1.00  0.00    -0.000 C 
BRANCH  13  14
ATOM     14  C   UNL     1      19.435  25.189  10.005  1.00  0.00    -0.000 C 
BRANCH  14  15
ATOM     15  C   UNL     1      20.385  24.221   9.278  1.00  0.00    -0.000 C 
BRANCH  15  16
ATOM     16  C   UNL     1      20.640  22.935  10.079  1.00  0.00    -0.000 C 
BRANCH  16  17
ATOM     17  C   UNL     1      19.884  21.725   9.504  1.00  0.00    -0.000 C 
BRANCH  17  18
ATOM     18  C   UNL     1      18.428  21.641   9.998  1.00  0.00    -0.000 C 
BRANCH  18  19
ATOM     19  C   UNL     1      18.244  21.895  11.505  1.00  0.00    -0.003 C 
ATOM     20  C   UNL     1      17.093  22.852  11.814  1.00  0.00     0.004 C 
ENDBRANCH  18  19
ENDBRANCH  17  18
ENDBRANCH  16  17
ENDBRANCH  15  16
ENDBRANCH  14  15
ENDBRANCH  13  14
ENDBRANCH  12  13
ENDBRANCH   1  12
TORSDOF 16
ENDMDL
MODEL 4
REMARK VINA RESULT:    -4.817      2.271      3.988
REMARK INTER + INTRA:         -12.318
REMARK INTER:                  -9.653
REMARK INTRA:                  -2.665
REMARK UNBOUND:                -2.995
REMARK SMILES CCCCCCCCCCCCCCCCCC(=O)[O-]
REMARK SMILES IDX 10 1 11 2 12 3 13 4 14 5 15 6 16 7 17 8 18 9 19 10 20 11
REMARK SMILES IDX 9 12 8 13 7 14 6 15 5 16 4 17 3 18 2 19 1 20
REMARK H PARENT
REMARK Flexibility Score: inf
ROOT
ATOM      1  C   UNL     1      20.473  23.639  10.415  1.00  0.00     0.000 C 
ENDROOT
BRANCH   1   2
ATOM      2  C   UNL     1      21.338  23.507   9.150  1.00  0.00     0.000 C 
BRANCH   2   3
ATOM      3  C   UNL     1      22.137  22.192   9.119  1.00  0.00     0.000 C 
BRANCH   3   4
ATOM      4  C   UNL     1      21.716  21.273   7.960  1.00  0.00     0.000 C 
BRANCH   4   5
ATOM      5  C   UNL     1      21.755  21.985   6.596  1.00  0.00     0.000 C 
BRANCH   5   6
ATOM      6  C   UNL     1      21.234  21.098   5.454  1.00  0.00     0.000 C 
BRANCH   6   7
ATOM      7  C   UNL     1      22.323  20.764   4.419  1.00  0.00     0.006 C 
BRANCH   7   8
ATOM      8  C   UNL     1      22.680  19.271   4.417  1.00  0.00     0.053 C 
BRANCH   8   9
ATOM      9  C   UNL     1      23.951  19.004   5.162  1.00  0.00     0.041 C 
ATOM     10  O   UNL     1      25.023  18.797   4.533  1.00  0.00    -0.550 OA
ATOM     11  O   UNL     1      23.961  19.019   6.551  1.00  0.00    -0.550 OA
ENDBRANCH   8   9
ENDBRANCH   7   8
ENDBRANCH   6   7
ENDBRANCH   5   6
ENDBRANCH   4   5
ENDBRANCH   3   4
ENDBRANCH   2   3
ENDBRANCH   1   2
BRANCH   1  12
ATOM     12  C   UNL     1      19.701  22.349  10.743  1.00  0.00     0.000 C 
BRANCH  12  13
ATOM     13  C   UNL     1      18.186  22.582  10.894  1.00  0.00    -0.000 C 
BRANCH  13  14
ATOM     14  C   UNL     1      17.314  21.828   9.874  1.00  0.00    -0.000 C 
BRANCH  14  15
ATOM     15  C   UNL     1      18.115  21.323   8.661  1.00  0.00    -0.000 C 
BRANCH  15  16
ATOM     16  C   UNL     1      17.745  22.060   7.364  1.00  0.00    -0.000 C 
BRANCH  16  17
ATOM     17  C   UNL     1      18.338  23.478   7.303  1.00  0.00    -0.000 C 
BRANCH  17  18
ATOM     18  C   UNL     1      17.286  24.576   7.540  1.00  0.00    -0.000 C 
BRANCH  18  19
ATOM     19  C   UNL     1      17.530  25.443   8.789  1.00  0.00    -0.003 C 
ATOM     20  C   UNL     1      18.712  26.400   8.631  1.00  0.00     0.004 C 
ENDBRANCH  18  19
ENDBRANCH  17  18
ENDBRANCH  16  17
ENDBRANCH  15  16
ENDBRANCH  14  15
ENDBRANCH  13  14
ENDBRANCH  12  13
ENDBRANCH   1  12
TORSDOF 16
ENDMDL
MODEL 5
REMARK VINA RESULT:    -4.752      3.263      6.243
REMARK INTER + INTRA:         -12.192
REMARK INTER:                  -9.611
REMARK INTRA:                  -2.582
REMARK UNBOUND:                -2.995
REMARK SMILES CCCCCCCCCCCCCCCCCC(=O)[O-]
REMARK SMILES IDX 10 1 11 2 12 3 13 4 14 5 15 6 16 7 17 8 18 9 19 10 20 11
REMARK SMILES IDX 9 12 8 13 7 14 6 15 5 16 4 17 3 18 2 19 1 20
REMARK H PARENT
REMARK Flexibility Score: inf
ROOT
ATOM      1  C   UNL     1      17.880  20.507   8.666  1.00  0.00     0.000 C 
ENDROOT
BRANCH   1   2
ATOM      2  C   UNL     1      17.484  20.442  10.150  1.00  0.00     0.000 C 
BRANCH   2   3
ATOM      3  C   UNL     1      18.099  21.587  10.973  1.00  0.00     0.000 C 
BRANCH   3   4
ATOM      4  C   UNL     1      17.078  22.684  11.314  1.00  0.00     0.000 C 
BRANCH   4   5
ATOM      5  C   UNL     1      17.511  24.072  10.810  1.00  0.00     0.000 C 
BRANCH   5   6
ATOM      6  C   UNL     1      18.858  24.035  10.070  1.00  0.00     0.000 C 
BRANCH   6   7
ATOM      7  C   UNL     1      18.769  24.614   8.646  1.00  0.00     0.006 C 
BRANCH   7   8
ATOM      8  C   UNL     1      17.617  25.617   8.500  1.00  0.00     0.053 C 
BRANCH   8   9
ATOM      9  C   UNL     1      18.044  27.009   8.851  1.00  0.00     0.041 C 
ATOM     10  O   UNL     1      17.213  27.954   8.820  1.00  0.00    -0.550 OA
ATOM     11  O   UNL     1      19.352  27.256   9.248  1.00  0.00    -0.550 OA
ENDBRANCH   8   9
ENDBRANCH   7   8
ENDBRANCH   6   7
ENDBRANCH   5   6
ENDBRANCH   4   5
ENDBRANCH   3   4
ENDBRANCH   2   3
ENDBRANCH   1   2
BRANCH   1  12
ATOM     12  C   UNL     1      16.931  21.389   7.837  1.00  0.00     0.000 C 
BRANCH  12  13
ATOM     13  C   UNL     1      17.606  21.981   6.586  1.00  0.00    -0.000 C 
BRANCH  13  14
ATOM     14  C   UNL     1      17.952  20.953   5.494  1.00  0.00    -0.000 C 
BRANCH  14  15
ATOM     15  C   UNL     1      19.406  21.069   5.003  1.00  0.00    -0.000 C 
BRANCH  15  16
ATOM     16  C   UNL     1      20.193  22.159   5.748  1.00  0.00    -0.000 C 
BRANCH  16  17
ATOM     17  C   UNL     1      21.640  21.735   6.052  1.00  0.00    -0.000 C 
BRANCH  17  18
ATOM     18  C   UNL     1      21.769  20.957   7.375  1.00  0.00    -0.000 C 
BRANCH  18  19
ATOM     19  C   UNL     1      21.127  21.646   8.592  1.00  0.00    -0.003 C 
ATOM     20  C   UNL     1      22.061  22.647   9.274  1.00  0.00     0.004 C 
ENDBRANCH  18  19
ENDBRANCH  17  18
ENDBRANCH  16  17
ENDBRANCH  15  16
ENDBRANCH  14  15
ENDBRANCH  13  14
ENDBRANCH  12  13
ENDBRANCH   1  12
TORSDOF 16
ENDMDL
MODEL 6
REMARK VINA RESULT:    -4.693      1.223      3.308
REMARK INTER + INTRA:         -12.077
REMARK INTER:                  -9.472
REMARK INTRA:                  -2.605
REMARK UNBOUND:                -2.995
REMARK SMILES CCCCCCCCCCCCCCCCCC(=O)[O-]
REMARK SMILES IDX 10 1 11 2 12 3 13 4 14 5 15 6 16 7 17 8 18 9 19 10 20 11
REMARK SMILES IDX 9 12 8 13 7 14 6 15 5 16 4 17 3 18 2 19 1 20
REMARK H PARENT
REMARK Flexibility Score: inf
ROOT
ATOM      1  C   UNL     1      21.131  22.730   9.833  1.00  0.00     0.000 C 
ENDROOT
BRANCH   1   2
ATOM      2  C   UNL     1      19.894  23.278  10.563  1.00  0.00     0.000 C 
BRANCH   2   3
ATOM      3  C   UNL     1      19.137  22.187  11.339  1.00  0.00     0.000 C 
BRANCH   3   4
ATOM      4  C   UNL     1      17.618  22.425  11.362  1.00  0.00     0.000 C 
BRANCH   4   5
ATOM      5  C   UNL     1      16.875  21.607  10.291  1.00  0.00     0.000 C 
BRANCH   5   6
ATOM      6  C   UNL     1      17.692  20.402   9.798  1.00  0.00     0.000 C 
BRANCH   6   7
ATOM      7  C   UNL     1      17.073  19.731   8.559  1.00  0.00     0.006 C 
BRANCH   7   8
ATOM      8  C   UNL     1      18.136  19.091   7.656  1.00  0.00     0.053 C 
BRANCH   8   9
ATOM      9  C   UNL     1      17.528  18.152   6.661  1.00  0.00     0.041 C 
ATOM     10  O   UNL     1      16.919  18.602   5.655  1.00  0.00    -0.550 OA
ATOM     11  O   UNL     1      17.666  16.779   6.824  1.00  0.00    -0.550 OA
ENDBRANCH   8   9
ENDBRANCH   7   8
ENDBRANCH   6   7
ENDBRANCH   5   6
ENDBRANCH   4   5
ENDBRANCH   3   4
ENDBRANCH   2   3
ENDBRANCH   1   2
BRANCH   1  12
ATOM     12  C   UNL     1      21.460  23.514   8.551  1.00  0.00     0.000 C 
BRANCH  12  13
ATOM     13  C   UNL     1      21.400  22.641   7.284  1.00  0.00    -0.000 C 
BRANCH  13  14
ATOM     14  C   UNL     1      20.056  21.925   7.059  1.00  0.00    -0.000 C 
BRANCH  14  15
ATOM     15  C   UNL     1      19.146  22.663   6.062  1.00  0.00    -0.000 C 
BRANCH  15  16
ATOM     16  C   UNL     1      17.715  22.844   6.594  1.00  0.00    -0.000 C 
BRANCH  16  17
ATOM     17  C   UNL     1      17.388  24.312   6.914  1.00  0.00    -0.000 C 
BRANCH  17  18
ATOM     18  C   UNL     1      17.487  24.632   8.416  1.00  0.00    -0.000 C 
BRANCH  18  19
ATOM     19  C   UNL     1      17.682  26.124   8.745  1.00  0.00    -0.003 C 
ATOM     20  C   UNL     1      19.150  26.511   8.918  1.00  0.00     0.004 C 
ENDBRANCH  18  19
ENDBRANCH  17  18
ENDBRANCH  16  17
ENDBRANCH  15  16
ENDBRANCH  14  15
ENDBRANCH  13  14
ENDBRANCH  12  13
ENDBRANCH   1  12
TORSDOF 16
ENDMDL
MODEL 7
REMARK VINA RESULT:    -4.666      3.307      6.303
REMARK INTER + INTRA:         -12.026
REMARK INTER:                 -10.026
REMARK INTRA:                  -2.000
REMARK UNBOUND:                -2.995
REMARK SMILES CCCCCCCCCCCCCCCCCC(=O)[O-]
REMARK SMILES IDX 10 1 11 2 12 3 13 4 14 5 15 6 16 7 17 8 18 9 19 10 20 11
REMARK SMILES IDX 9 12 8 13 7 14 6 15 5 16 4 17 3 18 2 19 1 20
REMARK H PARENT
REMARK Flexibility Score: inf
ROOT
ATOM      1  C   UNL     1      20.726  23.566  10.448  1.00  0.00     0.000 C 
ENDROOT
BRANCH   1   2
ATOM      2  C   UNL     1      19.463  22.767  10.809  1.00  0.00     0.000 C 
BRANCH   2   3
ATOM      3  C   UNL     1      19.220  21.587   9.851  1.00  0.00     0.000 C 
BRANCH   3   4
ATOM      4  C   UNL     1      17.726  21.334   9.593  1.00  0.00     0.000 C 
BRANCH   4   5
ATOM      5  C   UNL     1      16.989  22.594   9.104  1.00  0.00     0.000 C 
BRANCH   5   6
ATOM      6  C   UNL     1      17.027  22.743   7.575  1.00  0.00     0.000 C 
BRANCH   6   7
ATOM      7  C   UNL     1      17.324  24.185   7.125  1.00  0.00     0.006 C 
BRANCH   7   8
ATOM      8  C   UNL     1      18.412  24.845   7.983  1.00  0.00     0.053 C 
BRANCH   8   9
ATOM      9  C   UNL     1      17.918  26.096   8.640  1.00  0.00     0.041 C 
ATOM     10  O   UNL     1      16.924  26.057   9.413  1.00  0.00    -0.550 OA
ATOM     11  O   UNL     1      18.577  27.301   8.429  1.00  0.00    -0.550 OA
ENDBRANCH   8   9
ENDBRANCH   7   8
ENDBRANCH   6   7
ENDBRANCH   5   6
ENDBRANCH   4   5
ENDBRANCH   3   4
ENDBRANCH   2   3
ENDBRANCH   1   2
BRANCH   1  12
ATOM     12  C   UNL     1      21.670  22.793   9.513  1.00  0.00     0.000 C 
BRANCH  12  13
ATOM     13  C   UNL     1      21.531  23.218   8.039  1.00  0.00    -0.000 C 
BRANCH  13  14
ATOM     14  C   UNL     1      21.615  22.063   7.025  1.00  0.00    -0.000 C 
BRANCH  14  15
ATOM     15  C   UNL     1      20.399  22.005   6.083  1.00  0.00    -0.000 C 
BRANCH  15  16
ATOM     16  C   UNL     1      20.704  21.258   4.775  1.00  0.00    -0.000 C 
BRANCH  16  17
ATOM     17  C   UNL     1      22.213  21.108   4.521  1.00  0.00    -0.000 C 
BRANCH  17  18
ATOM     18  C   UNL     1      22.663  19.637   4.452  1.00  0.00    -0.000 C 
BRANCH  18  19
ATOM     19  C   UNL     1      22.926  18.979   5.819  1.00  0.00    -0.003 C 
ATOM     20  C   UNL     1      22.535  17.502   5.856  1.00  0.00     0.004 C 
ENDBRANCH  18  19
ENDBRANCH  17  18
ENDBRANCH  16  17
ENDBRANCH  15  16
ENDBRANCH  14  15
ENDBRANCH  13  14
ENDBRANCH  12  13
ENDBRANCH   1  12
TORSDOF 16
ENDMDL
MODEL 8
REMARK VINA RESULT:    -4.660      2.146      3.683
REMARK INTER + INTRA:         -12.014
REMARK INTER:                  -9.601
REMARK INTRA:                  -2.413
REMARK UNBOUND:                -2.995
REMARK SMILES CCCCCCCCCCCCCCCCCC(=O)[O-]
REMARK SMILES IDX 10 1 11 2 12 3 13 4 14 5 15 6 16 7 17 8 18 9 19 10 20 11
REMARK SMILES IDX 9 12 8 13 7 14 6 15 5 16 4 17 3 18 2 19 1 20
REMARK H PARENT
REMARK Flexibility Score: inf
ROOT
ATOM      1  C   UNL     1      18.033  20.225   8.501  1.00  0.00     0.000 C 
ENDROOT
BRANCH   1   2
ATOM      2  C   UNL     1      16.962  20.399   7.411  1.00  0.00     0.000 C 
BRANCH   2   3
ATOM      3  C   UNL     1      17.159  21.687   6.593  1.00  0.00     0.000 C 
BRANCH   3   4
ATOM      4  C   UNL     1      18.114  21.491   5.403  1.00  0.00     0.000 C 
BRANCH   4   5
ATOM      5  C   UNL     1      19.459  22.214   5.599  1.00  0.00     0.000 C 
BRANCH   5   6
ATOM      6  C   UNL     1      20.644  21.418   5.031  1.00  0.00     0.000 C 
BRANCH   6   7
ATOM      7  C   UNL     1      21.820  21.317   6.020  1.00  0.00     0.006 C 
BRANCH   7   8
ATOM      8  C   UNL     1      21.344  21.161   7.470  1.00  0.00     0.053 C 
BRANCH   8   9
ATOM      9  C   UNL     1      22.456  21.387   8.447  1.00  0.00     0.041 C 
ATOM     10  O   UNL     1      22.387  22.329   9.280  1.00  0.00    -0.550 OA
ATOM     11  O   UNL     1      23.553  20.535   8.463  1.00  0.00    -0.550 OA
ENDBRANCH   8   9
ENDBRANCH   7   8
ENDBRANCH   6   7
ENDBRANCH   5   6
ENDBRANCH   4   5
ENDBRANCH   3   4
ENDBRANCH   2   3
ENDBRANCH   1   2
BRANCH   1  12
ATOM     12  C   UNL     1      17.458  20.351   9.922  1.00  0.00     0.000 C 
BRANCH  12  13
ATOM     13  C   UNL     1      16.950  21.770  10.238  1.00  0.00    -0.000 C 
BRANCH  13  14
ATOM     14  C   UNL     1      17.829  22.565  11.219  1.00  0.00    -0.000 C 
BRANCH  14  15
ATOM     15  C   UNL     1      19.270  22.752  10.714  1.00  0.00    -0.000 C 
BRANCH  15  16
ATOM     16  C   UNL     1      19.503  24.143  10.102  1.00  0.00    -0.000 C 
BRANCH  16  17
ATOM     17  C   UNL     1      19.364  24.142   8.570  1.00  0.00    -0.000 C 
BRANCH  17  18
ATOM     18  C   UNL     1      18.057  24.797   8.089  1.00  0.00    -0.000 C 
BRANCH  18  19
ATOM     19  C   UNL     1      17.490  25.872   9.035  1.00  0.00    -0.003 C 
ATOM     20  C   UNL     1      18.088  27.258   8.792  1.00  0.00     0.004 C 
ENDBRANCH  18  19
ENDBRANCH  17  18
ENDBRANCH  16  17
ENDBRANCH  15  16
ENDBRANCH  14  15
ENDBRANCH  13  14
ENDBRANCH  12  13
ENDBRANCH   1  12
TORSDOF 16
ENDMDL
MODEL 9
REMARK VINA RESULT:    -4.635      1.938      2.774
REMARK INTER + INTRA:         -11.966
REMARK INTER:                  -9.661
REMARK INTRA:                  -2.305
REMARK UNBOUND:                -2.995
REMARK SMILES CCCCCCCCCCCCCCCCCC(=O)[O-]
REMARK SMILES IDX 10 1 11 2 12 3 13 4 14 5 15 6 16 7 17 8 18 9 19 10 20 11
REMARK SMILES IDX 9 12 8 13 7 14 6 15 5 16 4 17 3 18 2 19 1 20
REMARK H PARENT
REMARK Flexibility Score: inf
ROOT
ATOM      1  C   UNL     1      20.772  23.550   8.398  1.00  0.00     0.000 C 
ENDROOT
BRANCH   1   2
ATOM      2  C   UNL     1      20.859  22.561   7.225  1.00  0.00     0.000 C 
BRANCH   2   3
ATOM      3  C   UNL     1      19.702  22.731   6.225  1.00  0.00     0.000 C 
BRANCH   3   4
ATOM      4  C   UNL     1      18.683  21.582   6.299  1.00  0.00     0.000 C 
BRANCH   4   5
ATOM      5  C   UNL     1      18.599  20.781   4.988  1.00  0.00     0.000 C 
BRANCH   5   6
ATOM      6  C   UNL     1      19.980  20.533   4.360  1.00  0.00     0.000 C 
BRANCH   6   7
ATOM      7  C   UNL     1      20.740  19.377   5.036  1.00  0.00     0.006 C 
BRANCH   7   8
ATOM      8  C   UNL     1      22.261  19.561   4.956  1.00  0.00     0.053 C 
BRANCH   8   9
ATOM      9  C   UNL     1      22.980  18.667   5.918  1.00  0.00     0.041 C 
ATOM     10  O   UNL     1      23.942  19.111   6.600  1.00  0.00    -0.550 OA
ATOM     11  O   UNL     1      22.566  17.352   6.090  1.00  0.00    -0.550 OA
ENDBRANCH   8   9
ENDBRANCH   7   8
ENDBRANCH   6   7
ENDBRANCH   5   6
ENDBRANCH   4   5
ENDBRANCH   3   4
ENDBRANCH   2   3
ENDBRANCH   1   2
BRANCH   1  12
ATOM     12  C   UNL     1      21.190  22.919   9.738  1.00  0.00     0.000 C 
BRANCH  12  13
ATOM     13  C   UNL     1      20.065  22.949  10.789  1.00  0.00    -0.000 C 
BRANCH  13  14
ATOM     14  C   UNL     1      18.887  22.002  10.498  1.00  0.00    -0.000 C 
BRANCH  14  15
ATOM     15  C   UNL     1      17.553  22.514  11.069  1.00  0.00    -0.000 C 
BRANCH  15  16
ATOM     16  C   UNL     1      17.080  23.808  10.388  1.00  0.00    -0.000 C 
BRANCH  16  17
ATOM     17  C   UNL     1      16.954  23.657   8.863  1.00  0.00    -0.000 C 
BRANCH  17  18
ATOM     18  C   UNL     1      17.376  24.926   8.100  1.00  0.00    -0.000 C 
BRANCH  18  19
ATOM     19  C   UNL     1      17.584  26.169   8.984  1.00  0.00    -0.003 C 
ATOM     20  C   UNL     1      18.994  26.749   8.877  1.00  0.00     0.004 C 
ENDBRANCH  18  19
ENDBRANCH  17  18
ENDBRANCH  16  17
ENDBRANCH  15  16
ENDBRANCH  14  15
ENDBRANCH  13  14
ENDBRANCH  12  13
ENDBRANCH   1  12
TORSDOF 16
ENDMDL
