MODEL 1
REMARK VINA RESULT:    -5.169      0.000      0.000
REMARK INTER + INTRA:         -11.791
REMARK INTER:                  -9.702
REMARK INTRA:                  -2.089
REMARK UNBOUND:                -2.089
REMARK SMILES O=C([O-])CCCCCCCCCCCCCCC(=O)[O-]
REMARK SMILES IDX 10 1 9 2 8 3 7 4 6 5 5 6 4 7 2 8 1 9 3 10 11 11 12 12 13 13
REMARK SMILES IDX 14 14 15 15 16 16 17 17 18 18 19 19 20 20
REMARK H PARENT
REMARK Flexibility Score: inf
ROOT
ATOM      1  C   UNL     1      -7.428  10.065 -10.401  1.00  0.00     0.000 C 
ENDROOT
BRANCH   1   2
ATOM      2  C   UNL     1      -5.908  10.231 -10.551  1.00  0.00     0.000 C 
BRANCH   2   3
ATOM      3  C   UNL     1      -5.291  11.067  -9.418  1.00  0.00     0.000 C 
BRANCH   3   4
ATOM      4  C   UNL     1      -6.003  10.858  -8.070  1.00  0.00     0.000 C 
BRANCH   4   5
ATOM      5  C   UNL     1      -5.459   9.648  -7.295  1.00  0.00     0.000 C 
BRANCH   5   6
ATOM      6  C   UNL     1      -3.988   9.345  -7.628  1.00  0.00     0.006 C 
BRANCH   6   7
ATOM      7  C   UNL     1      -3.783   7.893  -8.081  1.00  0.00     0.053 C 
BRANCH   7   8
ATOM      8  C   UNL     1      -3.641   6.961  -6.916  1.00  0.00     0.041 C 
ATOM      9  O   UNL     1      -4.581   6.181  -6.611  1.00  0.00    -0.550 OA
ATOM     10  O   UNL     1      -2.459   6.933  -6.187  1.00  0.00    -0.550 OA
ENDBRANCH   7   8
ENDBRANCH   6   7
ENDBRANCH   5   6
ENDBRANCH   4   5
ENDBRANCH   3   4
ENDBRANCH   2   3
ENDBRANCH   1   2
BRANCH   1  11
ATOM     11  C   UNL     1      -7.858   8.593 -10.272  1.00  0.00     0.000 C 
BRANCH  11  12
ATOM     12  C   UNL     1      -6.674   7.612 -10.136  1.00  0.00     0.000 C 
BRANCH  12  13
ATOM     13  C   UNL     1      -7.033   6.385  -9.279  1.00  0.00     0.000 C 
BRANCH  13  14
ATOM     14  C   UNL     1      -7.847   6.748  -8.025  1.00  0.00     0.000 C 
BRANCH  14  15
ATOM     15  C   UNL     1      -9.229   6.077  -7.930  1.00  0.00     0.000 C 
BRANCH  15  16
ATOM     16  C   UNL     1      -9.577   5.244  -9.176  1.00  0.00     0.006 C 
BRANCH  16  17
ATOM     17  C   UNL     1     -10.170   3.876  -8.812  1.00  0.00     0.053 C 
BRANCH  17  18
ATOM     18  C   UNL     1      -9.150   2.785  -8.905  1.00  0.00     0.041 C 
ATOM     19  O   UNL     1      -9.458   1.600  -8.610  1.00  0.00    -0.550 OA
ATOM     20  O   UNL     1      -7.863   3.071  -9.343  1.00  0.00    -0.550 OA
ENDBRANCH  17  18
ENDBRANCH  16  17
ENDBRANCH  15  16
ENDBRANCH  14  15
ENDBRANCH  13  14
ENDBRANCH  12  13
ENDBRANCH  11  12
ENDBRANCH   1  11
TORSDOF 15
ENDMDL
MODEL 2
REMARK VINA RESULT:    -5.008      1.932      6.021
REMARK INTER + INTRA:         -11.490
REMARK INTER:                  -9.826
REMARK INTRA:                  -1.664
REMARK UNBOUND:                -2.089
REMARK SMILES O=C([O-])CCCCCCCCCCCCCCC(=O)[O-]
REMARK SMILES IDX 10 1 9 2 8 3 7 4 6 5 5 6 4 7 2 8 1 9 3 10 11 11 12 12 13 13
REMARK SMILES IDX 14 14 15 15 16 16 17 17 18 18 19 19 20 20
REMARK H PARENT
REMARK Flexibility Score: inf
ROOT
ATOM      1  C   UNL     1      -6.709   7.697 -10.406  1.00  0.00     0.000 C 
ENDROOT
BRANCH   1   2
ATOM      2  C   UNL     1      -7.581   7.577  -9.145  1.00  0.00     0.000 C 
BRANCH   2   3
ATOM      3  C   UNL     1      -8.436   6.299  -9.139  1.00  0.00     0.000 C 
BRANCH   3   4
ATOM      4  C   UNL     1      -9.863   6.537  -9.663  1.00  0.00     0.000 C 
BRANCH   4   5
ATOM      5  C   UNL     1     -10.899   5.618  -8.998  1.00  0.00     0.000 C 
BRANCH   5   6
ATOM      6  C   UNL     1     -10.348   4.915  -7.746  1.00  0.00     0.006 C 
BRANCH   6   7
ATOM      7  C   UNL     1     -10.873   5.545  -6.449  1.00  0.00     0.053 C 
BRANCH   7   8
ATOM      8  C   UNL     1      -9.965   5.273  -5.289  1.00  0.00     0.041 C 
ATOM      9  O   UNL     1     -10.125   4.240  -4.587  1.00  0.00    -0.550 OA
ATOM     10  O   UNL     1      -8.922   6.145  -5.002  1.00  0.00    -0.550 OA
ENDBRANCH   7   8
ENDBRANCH   6   7
ENDBRANCH   5   6
ENDBRANCH   4   5
ENDBRANCH   3   4
ENDBRANCH   2   3
ENDBRANCH   1   2
BRANCH   1  11
ATOM     11  C   UNL     1      -6.616   9.140 -10.932  1.00  0.00     0.000 C 
BRANCH  11  12
ATOM     12  C   UNL     1      -7.645  10.099 -10.294  1.00  0.00     0.000 C 
BRANCH  12  13
ATOM     13  C   UNL     1      -6.967  11.237  -9.511  1.00  0.00     0.000 C 
BRANCH  13  14
ATOM     14  C   UNL     1      -5.543  10.882  -9.050  1.00  0.00     0.000 C 
BRANCH  14  15
ATOM     15  C   UNL     1      -5.447  10.288  -7.633  1.00  0.00     0.000 C 
BRANCH  15  16
ATOM     16  C   UNL     1      -4.105   9.583  -7.368  1.00  0.00     0.006 C 
BRANCH  16  17
ATOM     17  C   UNL     1      -3.975   8.272  -8.154  1.00  0.00     0.053 C 
BRANCH  17  18
ATOM     18  C   UNL     1      -3.966   7.080  -7.249  1.00  0.00     0.041 C 
ATOM     19  O   UNL     1      -3.002   6.887  -6.461  1.00  0.00    -0.550 OA
ATOM     20  O   UNL     1      -5.036   6.194  -7.253  1.00  0.00    -0.550 OA
ENDBRANCH  17  18
ENDBRANCH  16  17
ENDBRANCH  15  16
ENDBRANCH  14  15
ENDBRANCH  13  14
ENDBRANCH  12  13
ENDBRANCH  11  12
ENDBRANCH   1  11
TORSDOF 15
ENDMDL
MODEL 3
REMARK VINA RESULT:    -5.008      2.278      6.256
REMARK INTER + INTRA:         -11.489
REMARK INTER:                  -9.513
REMARK INTRA:                  -1.976
REMARK UNBOUND:                -2.089
REMARK SMILES O=C([O-])CCCCCCCCCCCCCCC(=O)[O-]
REMARK SMILES IDX 10 1 9 2 8 3 7 4 6 5 5 6 4 7 2 8 1 9 3 10 11 11 12 12 13 13
REMARK SMILES IDX 14 14 15 15 16 16 17 17 18 18 19 19 20 20
REMARK H PARENT
REMARK Flexibility Score: inf
ROOT
ATOM      1  C   UNL     1      -5.839   6.416  -7.590  1.00  0.00     0.000 C 
ENDROOT
BRANCH   1   2
ATOM      2  C   UNL     1      -6.127   6.553  -9.093  1.00  0.00     0.000 C 
BRANCH   2   3
ATOM      3  C   UNL     1      -7.632   6.627  -9.401  1.00  0.00     0.000 C 
BRANCH   3   4
ATOM      4  C   UNL     1      -8.496   6.676  -8.128  1.00  0.00     0.000 C 
BRANCH   4   5
ATOM      5  C   UNL     1      -9.861   5.997  -8.314  1.00  0.00     0.000 C 
BRANCH   5   6
ATOM      6  C   UNL     1     -10.090   5.513  -9.755  1.00  0.00     0.006 C 
BRANCH   6   7
ATOM      7  C   UNL     1     -10.411   4.014  -9.819  1.00  0.00     0.053 C 
BRANCH   7   8
ATOM      8  C   UNL     1      -9.422   3.198  -9.044  1.00  0.00     0.041 C 
ATOM      9  O   UNL     1      -8.213   3.168  -9.394  1.00  0.00    -0.550 OA
ATOM     10  O   UNL     1      -9.830   2.495  -7.918  1.00  0.00    -0.550 OA
ENDBRANCH   7   8
ENDBRANCH   6   7
ENDBRANCH   5   6
ENDBRANCH   4   5
ENDBRANCH   3   4
ENDBRANCH   2   3
ENDBRANCH   1   2
BRANCH   1  11
ATOM     11  C   UNL     1      -4.345   6.563  -7.253  1.00  0.00     0.000 C 
BRANCH  11  12
ATOM     12  C   UNL     1      -3.648   7.710  -8.016  1.00  0.00     0.000 C 
BRANCH  12  13
ATOM     13  C   UNL     1      -3.375   8.925  -7.112  1.00  0.00     0.000 C 
BRANCH  13  14
ATOM     14  C   UNL     1      -4.485   9.988  -7.184  1.00  0.00     0.000 C 
BRANCH  14  15
ATOM     15  C   UNL     1      -5.161  10.130  -8.560  1.00  0.00     0.000 C 
BRANCH  15  16
ATOM     16  C   UNL     1      -6.697  10.154  -8.473  1.00  0.00     0.006 C 
BRANCH  16  17
ATOM     17  C   UNL     1      -7.333  10.887  -9.661  1.00  0.00     0.053 C 
BRANCH  17  18
ATOM     18  C   UNL     1      -7.760   9.937 -10.736  1.00  0.00     0.041 C 
ATOM     19  O   UNL     1      -8.974   9.624 -10.863  1.00  0.00    -0.550 OA
ATOM     20  O   UNL     1      -6.822   9.415 -11.618  1.00  0.00    -0.550 OA
ENDBRANCH  17  18
ENDBRANCH  16  17
ENDBRANCH  15  16
ENDBRANCH  14  15
ENDBRANCH  13  14
ENDBRANCH  12  13
ENDBRANCH  11  12
ENDBRANCH   1  11
TORSDOF 15
ENDMDL
MODEL 4
REMARK VINA RESULT:    -4.977     12.244     14.485
REMARK INTER + INTRA:         -11.430
REMARK INTER:                  -9.525
REMARK INTRA:                  -1.905
REMARK UNBOUND:                -2.089
REMARK SMILES O=C([O-])CCCCCCCCCCCCCCC(=O)[O-]
REMARK SMILES IDX 10 1 9 2 8 3 7 4 6 5 5 6 4 7 2 8 1 9 3 10 11 11 12 12 13 13
REMARK SMILES IDX 14 14 15 15 16 16 17 17 18 18 19 19 20 20
REMARK H PARENT
REMARK Flexibility Score: inf
ROOT
ATOM      1  C   UNL     1       6.162  10.202 -15.218  1.00  0.00     0.000 C 
ENDROOT
BRANCH   1   2
ATOM      2  C   UNL     1       5.881  10.546 -13.747  1.00  0.00     0.000 C 
BRANCH   2   3
ATOM      3  C   UNL     1       4.807  11.634 -13.590  1.00  0.00     0.000 C 
BRANCH   3   4
ATOM      4  C   UNL     1       5.375  12.954 -13.038  1.00  0.00     0.000 C 
BRANCH   4   5
ATOM      5  C   UNL     1       6.893  12.895 -12.810  1.00  0.00     0.000 C 
BRANCH   5   6
ATOM      6  C   UNL     1       7.266  12.850 -11.319  1.00  0.00     0.006 C 
BRANCH   6   7
ATOM      7  C   UNL     1       8.632  12.191 -11.083  1.00  0.00     0.053 C 
BRANCH   7   8
ATOM      8  C   UNL     1       8.495  10.805 -10.530  1.00  0.00     0.041 C 
ATOM      9  O   UNL     1       8.711  10.586  -9.309  1.00  0.00    -0.550 OA
ATOM     10  O   UNL     1       8.098   9.762 -11.357  1.00  0.00    -0.550 OA
ENDBRANCH   7   8
ENDBRANCH   6   7
ENDBRANCH   5   6
ENDBRANCH   4   5
ENDBRANCH   3   4
ENDBRANCH   2   3
ENDBRANCH   1   2
BRANCH   1  11
ATOM     11  C   UNL     1       5.569  11.232 -16.195  1.00  0.00     0.000 C 
BRANCH  11  12
ATOM     12  C   UNL     1       6.571  12.323 -16.629  1.00  0.00     0.000 C 
BRANCH  12  13
ATOM     13  C   UNL     1       5.867  13.635 -17.018  1.00  0.00     0.000 C 
BRANCH  13  14
ATOM     14  C   UNL     1       4.371  13.444 -17.326  1.00  0.00     0.000 C 
BRANCH  14  15
ATOM     15  C   UNL     1       3.411  14.078 -16.304  1.00  0.00     0.000 C 
BRANCH  15  16
ATOM     16  C   UNL     1       2.254  13.143 -15.909  1.00  0.00     0.006 C 
BRANCH  16  17
ATOM     17  C   UNL     1       2.014  12.046 -16.955  1.00  0.00     0.053 C 
BRANCH  17  18
ATOM     18  C   UNL     1       1.573  10.763 -16.323  1.00  0.00     0.041 C 
ATOM     19  O   UNL     1       1.491   9.711 -17.011  1.00  0.00    -0.550 OA
ATOM     20  O   UNL     1       1.278  10.721 -14.967  1.00  0.00    -0.550 OA
ENDBRANCH  17  18
ENDBRANCH  16  17
ENDBRANCH  15  16
ENDBRANCH  14  15
ENDBRANCH  13  14
ENDBRANCH  12  13
ENDBRANCH  11  12
ENDBRANCH   1  11
TORSDOF 15
ENDMDL
MODEL 5
REMARK VINA RESULT:    -4.974     11.893     15.111
REMARK INTER + INTRA:         -11.424
REMARK INTER:                  -9.321
REMARK INTRA:                  -2.103
REMARK UNBOUND:                -2.089
REMARK SMILES O=C([O-])CCCCCCCCCCCCCCC(=O)[O-]
REMARK SMILES IDX 10 1 9 2 8 3 7 4 6 5 5 6 4 7 2 8 1 9 3 10 11 11 12 12 13 13
REMARK SMILES IDX 14 14 15 15 16 16 17 17 18 18 19 19 20 20
REMARK H PARENT
REMARK Flexibility Score: inf
ROOT
ATOM      1  C   UNL     1       6.233  14.021 -16.930  1.00  0.00     0.000 C 
ENDROOT
BRANCH   1   2
ATOM      2  C   UNL     1       4.874  14.317 -16.276  1.00  0.00     0.000 C 
BRANCH   2   3
ATOM      3  C   UNL     1       3.866  14.931 -17.262  1.00  0.00     0.000 C 
BRANCH   3   4
ATOM      4  C   UNL     1       2.409  14.571 -16.922  1.00  0.00     0.000 C 
BRANCH   4   5
ATOM      5  C   UNL     1       2.297  13.297 -16.071  1.00  0.00     0.000 C 
BRANCH   5   6
ATOM      6  C   UNL     1       1.212  12.336 -16.585  1.00  0.00     0.006 C 
BRANCH   6   7
ATOM      7  C   UNL     1       1.724  10.895 -16.709  1.00  0.00     0.053 C 
BRANCH   7   8
ATOM      8  C   UNL     1       1.267  10.041 -15.566  1.00  0.00     0.041 C 
ATOM      9  O   UNL     1       0.883   8.859 -15.772  1.00  0.00    -0.550 OA
ATOM     10  O   UNL     1       1.294  10.539 -14.270  1.00  0.00    -0.550 OA
ENDBRANCH   7   8
ENDBRANCH   6   7
ENDBRANCH   5   6
ENDBRANCH   4   5
ENDBRANCH   3   4
ENDBRANCH   2   3
ENDBRANCH   1   2
BRANCH   1  11
ATOM     11  C   UNL     1       6.551  12.517 -16.990  1.00  0.00     0.000 C 
BRANCH  11  12
ATOM     12  C   UNL     1       5.467  11.629 -16.342  1.00  0.00     0.000 C 
BRANCH  12  13
ATOM     13  C   UNL     1       6.076  10.498 -15.494  1.00  0.00     0.000 C 
BRANCH  13  14
ATOM     14  C   UNL     1       5.927  10.736 -13.981  1.00  0.00     0.000 C 
BRANCH  14  15
ATOM     15  C   UNL     1       4.825  11.735 -13.586  1.00  0.00     0.000 C 
BRANCH  15  16
ATOM     16  C   UNL     1       5.378  12.998 -12.903  1.00  0.00     0.006 C 
BRANCH  16  17
ATOM     17  C   UNL     1       6.834  13.279 -13.298  1.00  0.00     0.053 C 
BRANCH  17  18
ATOM     18  C   UNL     1       7.728  13.363 -12.101  1.00  0.00     0.041 C 
ATOM     19  O   UNL     1       8.792  14.037 -12.147  1.00  0.00    -0.550 OA
ATOM     20  O   UNL     1       7.375  12.719 -10.922  1.00  0.00    -0.550 OA
ENDBRANCH  17  18
ENDBRANCH  16  17
ENDBRANCH  15  16
ENDBRANCH  14  15
ENDBRANCH  13  14
ENDBRANCH  12  13
ENDBRANCH  11  12
ENDBRANCH   1  11
TORSDOF 15
ENDMDL
MODEL 6
REMARK VINA RESULT:    -4.921      2.348      3.698
REMARK INTER + INTRA:         -11.326
REMARK INTER:                  -9.552
REMARK INTRA:                  -1.774
REMARK UNBOUND:                -2.089
REMARK SMILES O=C([O-])CCCCCCCCCCCCCCC(=O)[O-]
REMARK SMILES IDX 10 1 9 2 8 3 7 4 6 5 5 6 4 7 2 8 1 9 3 10 11 11 12 12 13 13
REMARK SMILES IDX 14 14 15 15 16 16 17 17 18 18 19 19 20 20
REMARK H PARENT
REMARK Flexibility Score: inf
ROOT
ATOM      1  C   UNL     1      -5.114   6.366  -7.309  1.00  0.00     0.000 C 
ENDROOT
BRANCH   1   2
ATOM      2  C   UNL     1      -3.803   7.046  -6.881  1.00  0.00     0.000 C 
BRANCH   2   3
ATOM      3  C   UNL     1      -3.495   8.305  -7.708  1.00  0.00     0.000 C 
BRANCH   3   4
ATOM      4  C   UNL     1      -4.063   9.587  -7.074  1.00  0.00     0.000 C 
BRANCH   4   5
ATOM      5  C   UNL     1      -5.382  10.034  -7.723  1.00  0.00     0.000 C 
BRANCH   5   6
ATOM      6  C   UNL     1      -5.291  10.106  -9.257  1.00  0.00     0.006 C 
BRANCH   6   7
ATOM      7  C   UNL     1      -6.543  10.734  -9.883  1.00  0.00     0.053 C 
BRANCH   7   8
ATOM      8  C   UNL     1      -7.219   9.798 -10.837  1.00  0.00     0.041 C 
ATOM      9  O   UNL     1      -6.586   9.329 -11.820  1.00  0.00    -0.550 OA
ATOM     10  O   UNL     1      -8.538   9.418 -10.624  1.00  0.00    -0.550 OA
ENDBRANCH   7   8
ENDBRANCH   6   7
ENDBRANCH   5   6
ENDBRANCH   4   5
ENDBRANCH   3   4
ENDBRANCH   2   3
ENDBRANCH   1   2
BRANCH   1  11
ATOM     11  C   UNL     1      -5.365   6.456  -8.824  1.00  0.00     0.000 C 
BRANCH  11  12
ATOM     12  C   UNL     1      -6.862   6.476  -9.203  1.00  0.00     0.000 C 
BRANCH  12  13
ATOM     13  C   UNL     1      -7.757   6.848  -8.008  1.00  0.00     0.000 C 
BRANCH  13  14
ATOM     14  C   UNL     1      -9.188   6.296  -8.136  1.00  0.00     0.000 C 
BRANCH  14  15
ATOM     15  C   UNL     1      -9.551   5.748  -9.527  1.00  0.00     0.000 C 
BRANCH  15  16
ATOM     16  C   UNL     1     -10.750   4.784  -9.497  1.00  0.00     0.006 C 
BRANCH  16  17
ATOM     17  C   UNL     1     -10.336   3.336  -9.793  1.00  0.00     0.053 C 
BRANCH  17  18
ATOM     18  C   UNL     1      -9.817   2.645  -8.569  1.00  0.00     0.041 C 
ATOM     19  O   UNL     1     -10.372   2.828  -7.453  1.00  0.00    -0.550 OA
ATOM     20  O   UNL     1      -8.737   1.778  -8.665  1.00  0.00    -0.550 OA
ENDBRANCH  17  18
ENDBRANCH  16  17
ENDBRANCH  15  16
ENDBRANCH  14  15
ENDBRANCH  13  14
ENDBRANCH  12  13
ENDBRANCH  11  12
ENDBRANCH   1  11
TORSDOF 15
ENDMDL
MODEL 7
REMARK VINA RESULT:    -4.854      1.265      6.580
REMARK INTER + INTRA:         -11.199
REMARK INTER:                  -9.927
REMARK INTRA:                  -1.272
REMARK UNBOUND:                -2.089
REMARK SMILES O=C([O-])CCCCCCCCCCCCCCC(=O)[O-]
REMARK SMILES IDX 10 1 9 2 8 3 7 4 6 5 5 6 4 7 2 8 1 9 3 10 11 11 12 12 13 13
REMARK SMILES IDX 14 14 15 15 16 16 17 17 18 18 19 19 20 20
REMARK H PARENT
REMARK Flexibility Score: inf
ROOT
ATOM      1  C   UNL     1      -6.667   7.446 -10.304  1.00  0.00     0.000 C 
ENDROOT
BRANCH   1   2
ATOM      2  C   UNL     1      -7.897   7.343  -9.388  1.00  0.00     0.000 C 
BRANCH   2   3
ATOM      3  C   UNL     1      -8.350   5.890  -9.171  1.00  0.00     0.000 C 
BRANCH   3   4
ATOM      4  C   UNL     1      -9.838   5.676  -9.503  1.00  0.00     0.000 C 
BRANCH   4   5
ATOM      5  C   UNL     1     -10.433   4.452  -8.791  1.00  0.00     0.000 C 
BRANCH   5   6
ATOM      6  C   UNL     1     -10.095   3.131  -9.502  1.00  0.00     0.006 C 
BRANCH   6   7
ATOM      7  C   UNL     1      -9.034   2.320  -8.745  1.00  0.00     0.053 C 
BRANCH   7   8
ATOM      8  C   UNL     1      -9.650   1.236  -7.915  1.00  0.00     0.041 C 
ATOM      9  O   UNL     1      -9.917   0.118  -8.429  1.00  0.00    -0.550 OA
ATOM     10  O   UNL     1      -9.900   1.450  -6.565  1.00  0.00    -0.550 OA
ENDBRANCH   7   8
ENDBRANCH   6   7
ENDBRANCH   5   6
ENDBRANCH   4   5
ENDBRANCH   3   4
ENDBRANCH   2   3
ENDBRANCH   1   2
BRANCH   1  11
ATOM     11  C   UNL     1      -6.523   8.833 -10.955  1.00  0.00     0.000 C 
BRANCH  11  12
ATOM     12  C   UNL     1      -7.743   9.752 -10.731  1.00  0.00     0.000 C 
BRANCH  12  13
ATOM     13  C   UNL     1      -7.409  10.946  -9.818  1.00  0.00     0.000 C 
BRANCH  13  14
ATOM     14  C   UNL     1      -5.964  10.912  -9.292  1.00  0.00     0.000 C 
BRANCH  14  15
ATOM     15  C   UNL     1      -5.788  10.238  -7.919  1.00  0.00     0.000 C 
BRANCH  15  16
ATOM     16  C   UNL     1      -4.321   9.895  -7.604  1.00  0.00     0.006 C 
BRANCH  16  17
ATOM     17  C   UNL     1      -3.875   8.588  -8.273  1.00  0.00     0.053 C 
BRANCH  17  18
ATOM     18  C   UNL     1      -3.938   7.430  -7.326  1.00  0.00     0.041 C 
ATOM     19  O   UNL     1      -2.979   7.197  -6.543  1.00  0.00    -0.550 OA
ATOM     20  O   UNL     1      -5.067   6.623  -7.287  1.00  0.00    -0.550 OA
ENDBRANCH  17  18
ENDBRANCH  16  17
ENDBRANCH  15  16
ENDBRANCH  14  15
ENDBRANCH  13  14
ENDBRANCH  12  13
ENDBRANCH  11  12
ENDBRANCH   1  11
TORSDOF 15
ENDMDL
MODEL 8
REMARK VINA RESULT:    -4.833      2.367      3.621
REMARK INTER + INTRA:         -11.161
REMARK INTER:                  -9.101
REMARK INTRA:                  -2.060
REMARK UNBOUND:                -2.089
REMARK SMILES O=C([O-])CCCCCCCCCCCCCCC(=O)[O-]
REMARK SMILES IDX 10 1 9 2 8 3 7 4 6 5 5 6 4 7 2 8 1 9 3 10 11 11 12 12 13 13
REMARK SMILES IDX 14 14 15 15 16 16 17 17 18 18 19 19 20 20
REMARK H PARENT
REMARK Flexibility Score: inf
ROOT
ATOM      1  C   UNL     1      -4.557   7.324  -8.624  1.00  0.00     0.000 C 
ENDROOT
BRANCH   1   2
ATOM      2  C   UNL     1      -3.630   7.662  -7.446  1.00  0.00     0.000 C 
BRANCH   2   3
ATOM      3  C   UNL     1      -3.662   9.155  -7.080  1.00  0.00     0.000 C 
BRANCH   3   4
ATOM      4  C   UNL     1      -5.053   9.784  -7.273  1.00  0.00     0.000 C 
BRANCH   4   5
ATOM      5  C   UNL     1      -5.034  10.977  -8.241  1.00  0.00     0.000 C 
BRANCH   5   6
ATOM      6  C   UNL     1      -6.077  10.846  -9.363  1.00  0.00     0.006 C 
BRANCH   6   7
ATOM      7  C   UNL     1      -5.543  10.047 -10.560  1.00  0.00     0.053 C 
BRANCH   7   8
ATOM      8  C   UNL     1      -6.645   9.367 -11.313  1.00  0.00     0.041 C 
ATOM      9  O   UNL     1      -6.382   8.427 -12.109  1.00  0.00    -0.550 OA
ATOM     10  O   UNL     1      -7.965   9.750 -11.112  1.00  0.00    -0.550 OA
ENDBRANCH   7   8
ENDBRANCH   6   7
ENDBRANCH   5   6
ENDBRANCH   4   5
ENDBRANCH   3   4
ENDBRANCH   2   3
ENDBRANCH   1   2
BRANCH   1  11
ATOM     11  C   UNL     1      -5.563   6.208  -8.291  1.00  0.00     0.000 C 
BRANCH  11  12
ATOM     12  C   UNL     1      -6.842   6.250  -9.155  1.00  0.00     0.000 C 
BRANCH  12  13
ATOM     13  C   UNL     1      -7.883   7.239  -8.602  1.00  0.00     0.000 C 
BRANCH  13  14
ATOM     14  C   UNL     1      -7.927   7.266  -7.064  1.00  0.00     0.000 C 
BRANCH  14  15
ATOM     15  C   UNL     1      -9.073   6.454  -6.433  1.00  0.00     0.000 C 
BRANCH  15  16
ATOM     16  C   UNL     1     -10.158   6.059  -7.449  1.00  0.00     0.006 C 
BRANCH  16  17
ATOM     17  C   UNL     1     -10.203   4.544  -7.689  1.00  0.00     0.053 C 
BRANCH  17  18
ATOM     18  C   UNL     1      -9.901   4.197  -9.113  1.00  0.00     0.041 C 
ATOM     19  O   UNL     1      -9.116   3.249  -9.384  1.00  0.00    -0.550 OA
ATOM     20  O   UNL     1     -10.506   4.903 -10.145  1.00  0.00    -0.550 OA
ENDBRANCH  17  18
ENDBRANCH  16  17
ENDBRANCH  15  16
ENDBRANCH  14  15
ENDBRANCH  13  14
ENDBRANCH  12  13
ENDBRANCH  11  12
ENDBRANCH   1  11
TORSDOF 15
ENDMDL
MODEL 9
REMARK VINA RESULT:    -4.828      1.786      6.509
REMARK INTER + INTRA:         -11.151
REMARK INTER:                  -9.684
REMARK INTRA:                  -1.467
REMARK UNBOUND:                -2.089
REMARK SMILES O=C([O-])CCCCCCCCCCCCCCC(=O)[O-]
REMARK SMILES IDX 10 1 9 2 8 3 7 4 6 5 5 6 4 7 2 8 1 9 3 10 11 11 12 12 13 13
REMARK SMILES IDX 14 14 15 15 16 16 17 17 18 18 19 19 20 20
REMARK H PARENT
REMARK Flexibility Score: inf
ROOT
ATOM      1  C   UNL     1      -6.755   6.792  -9.497  1.00  0.00     0.000 C 
ENDROOT
BRANCH   1   2
ATOM      2  C   UNL     1      -8.063   6.883  -8.695  1.00  0.00     0.000 C 
BRANCH   2   3
ATOM      3  C   UNL     1      -9.167   5.976  -9.264  1.00  0.00     0.000 C 
BRANCH   3   4
ATOM      4  C   UNL     1     -10.075   5.388  -8.169  1.00  0.00     0.000 C 
BRANCH   4   5
ATOM      5  C   UNL     1      -9.784   5.976  -6.780  1.00  0.00     0.000 C 
BRANCH   5   6
ATOM      6  C   UNL     1     -10.419   5.156  -5.645  1.00  0.00     0.006 C 
BRANCH   6   7
ATOM      7  C   UNL     1     -11.049   3.852  -6.154  1.00  0.00     0.053 C 
BRANCH   7   8
ATOM      8  C   UNL     1     -10.466   2.649  -5.477  1.00  0.00     0.041 C 
ATOM      9  O   UNL     1     -10.193   2.685  -4.248  1.00  0.00    -0.550 OA
ATOM     10  O   UNL     1     -10.253   1.480  -6.196  1.00  0.00    -0.550 OA
ENDBRANCH   7   8
ENDBRANCH   6   7
ENDBRANCH   5   6
ENDBRANCH   4   5
ENDBRANCH   3   4
ENDBRANCH   2   3
ENDBRANCH   1   2
BRANCH   1  11
ATOM     11  C   UNL     1      -6.648   7.872 -10.588  1.00  0.00     0.000 C 
BRANCH  11  12
ATOM     12  C   UNL     1      -7.558   9.094 -10.340  1.00  0.00     0.000 C 
BRANCH  12  13
ATOM     13  C   UNL     1      -6.778  10.420 -10.400  1.00  0.00     0.000 C 
BRANCH  13  14
ATOM     14  C   UNL     1      -5.501  10.403  -9.542  1.00  0.00     0.000 C 
BRANCH  14  15
ATOM     15  C   UNL     1      -5.739  10.454  -8.022  1.00  0.00     0.000 C 
BRANCH  15  16
ATOM     16  C   UNL     1      -4.612   9.783  -7.217  1.00  0.00     0.006 C 
BRANCH  16  17
ATOM     17  C   UNL     1      -3.976   8.611  -7.977  1.00  0.00     0.053 C 
BRANCH  17  18
ATOM     18  C   UNL     1      -3.603   7.490  -7.058  1.00  0.00     0.041 C 
ATOM     19  O   UNL     1      -4.381   6.511  -6.903  1.00  0.00    -0.550 OA
ATOM     20  O   UNL     1      -2.385   7.511  -6.392  1.00  0.00    -0.550 OA
ENDBRANCH  17  18
ENDBRANCH  16  17
ENDBRANCH  15  16
ENDBRANCH  14  15
ENDBRANCH  13  14
ENDBRANCH  12  13
ENDBRANCH  11  12
ENDBRANCH   1  11
TORSDOF 15
ENDMDL
