MODEL 1
REMARK VINA RESULT:    -6.966      0.000      0.000
REMARK INTER + INTRA:         -12.217
REMARK INTER:                 -10.223
REMARK INTRA:                  -1.994
REMARK UNBOUND:                -1.994
REMARK SMILES O=c1c(O[C@H]2O[C@H](CO)[C@H](O)[C@@H](O)[C@H]2O)c(-c2ccc(O)c(O)c2)oc2cc(O)cc(O)c12
REMARK SMILES IDX 4 1 3 2 16 3 25 4 2 5 26 6 1 7 33 8 27 9 31 10 28 11 30 12
REMARK SMILES IDX 17 13 18 14 19 15 20 16 24 17 22 18 21 19 23 21 32 23 29 25
REMARK SMILES IDX 5 27 14 28 6 29 12 30 7 31 10 32 15 33 13 35 8 37 9 38 11 40
REMARK H PARENT 21 20 23 22 32 24 29 26 15 34 13 36 9 39 11 41
REMARK Flexibility Score: inf
ROOT
ATOM      1  O   UNL     1     -36.288   4.935  81.682  1.00  0.00    -0.454 OA
ENDROOT
BRANCH   1   2
ATOM      2  C   UNL     1     -35.946   5.825  80.645  1.00  0.00     0.214 A 
ATOM      3  C   UNL     1     -36.542   5.641  79.387  1.00  0.00     0.180 A 
ATOM      4  O   UNL     1     -36.177   6.383  78.348  1.00  0.00    -0.452 OA
ATOM      5  C   UNL     1     -35.017   6.885  80.786  1.00  0.00     0.239 A 
ATOM      6  C   UNL     1     -35.286   7.362  78.434  1.00  0.00     0.146 A 
ATOM      7  O   UNL     1     -34.478   7.116  81.900  1.00  0.00    -0.285 OA
ATOM      8  C   UNL     1     -34.698   7.691  79.674  1.00  0.00     0.111 A 
ATOM      9  C   UNL     1     -34.958   8.080  77.284  1.00  0.00     0.094 A 
ATOM     10  C   UNL     1     -33.826   8.809  79.751  1.00  0.00     0.134 A 
ATOM     11  C   UNL     1     -34.059   9.151  77.356  1.00  0.00     0.123 A 
ATOM     12  C   UNL     1     -33.516   9.523  78.587  1.00  0.00     0.093 A 
BRANCH   3  13
ATOM     13  C   UNL     1     -37.619   4.665  79.185  1.00  0.00     0.025 A 
ATOM     14  C   UNL     1     -38.953   5.077  79.281  1.00  0.00     0.016 A 
ATOM     15  C   UNL     1     -39.985   4.201  78.932  1.00  0.00     0.051 A 
ATOM     16  C   UNL     1     -39.683   2.913  78.471  1.00  0.00     0.157 A 
ATOM     17  C   UNL     1     -37.318   3.368  78.741  1.00  0.00     0.062 A 
ATOM     18  C   UNL     1     -38.341   2.491  78.394  1.00  0.00     0.158 A 
BRANCH  16  19
ATOM     19  O   UNL     1     -40.711   2.063  78.044  1.00  0.00    -0.504 OA
ATOM     20  H   UNL     1     -41.546   1.903  78.604  1.00  0.00     0.293 HD
ENDBRANCH  16  19
BRANCH  18  21
ATOM     21  O   UNL     1     -38.014   1.215  77.936  1.00  0.00    -0.504 OA
ATOM     22  H   UNL     1     -37.057   0.956  77.691  1.00  0.00     0.293 HD
ENDBRANCH  18  21
ENDBRANCH   3  13
BRANCH  10  23
ATOM     23  O   UNL     1     -33.287   9.217  80.970  1.00  0.00    -0.507 OA
ATOM     24  H   UNL     1     -33.166   8.569  81.740  1.00  0.00     0.293 HD
ENDBRANCH  10  23
BRANCH  11  25
ATOM     25  O   UNL     1     -33.680   9.841  76.207  1.00  0.00    -0.508 OA
ATOM     26  H   UNL     1     -33.143  10.701  76.265  1.00  0.00     0.293 HD
ENDBRANCH  11  25
ENDBRANCH   1   2
BRANCH   1  27
ATOM     27  C   UNL     1     -37.224   5.195  82.740  1.00  0.00     0.339 C 
ATOM     28  C   UNL     1     -36.576   4.977  84.123  1.00  0.00     0.214 C 
ATOM     29  O   UNL     1     -38.401   4.410  82.599  1.00  0.00    -0.332 OA
ATOM     30  C   UNL     1     -36.331   3.475  84.399  1.00  0.00     0.180 C 
ATOM     31  C   UNL     1     -38.115   3.025  82.678  1.00  0.00     0.179 C 
ATOM     32  C   UNL     1     -37.599   2.664  84.093  1.00  0.00     0.177 C 
BRANCH  28  33
ATOM     33  O   UNL     1     -35.367   5.692  84.218  1.00  0.00    -0.384 OA
ATOM     34  H   UNL     1     -35.361   6.135  85.102  1.00  0.00     0.211 HD
ENDBRANCH  28  33
BRANCH  30  35
ATOM     35  O   UNL     1     -35.267   2.995  83.617  1.00  0.00    -0.387 OA
ATOM     36  H   UNL     1     -34.477   3.557  83.832  1.00  0.00     0.211 HD
ENDBRANCH  30  35
BRANCH  31  37
ATOM     37  C   UNL     1     -39.384   2.253  82.307  1.00  0.00     0.191 C 
BRANCH  37  38
ATOM     38  O   UNL     1     -39.351   0.960  82.853  1.00  0.00    -0.394 OA
ATOM     39  H   UNL     1     -39.679   1.049  83.787  1.00  0.00     0.210 HD
ENDBRANCH  37  38
ENDBRANCH  31  37
BRANCH  32  40
ATOM     40  O   UNL     1     -38.582   2.971  85.053  1.00  0.00    -0.387 OA
ATOM     41  H   UNL     1     -38.735   3.959  85.028  1.00  0.00     0.211 HD
ENDBRANCH  32  40
ENDBRANCH   1  27
TORSDOF 12
ENDMDL
MODEL 2
REMARK VINA RESULT:    -6.882      2.252      6.366
REMARK INTER + INTRA:         -12.094
REMARK INTER:                 -10.176
REMARK INTRA:                  -1.918
REMARK UNBOUND:                -1.994
REMARK SMILES O=c1c(O[C@H]2O[C@H](CO)[C@H](O)[C@@H](O)[C@H]2O)c(-c2ccc(O)c(O)c2)oc2cc(O)cc(O)c12
REMARK SMILES IDX 4 1 3 2 16 3 25 4 2 5 26 6 1 7 33 8 27 9 31 10 28 11 30 12
REMARK SMILES IDX 17 13 18 14 19 15 20 16 24 17 22 18 21 19 23 21 32 23 29 25
REMARK SMILES IDX 5 27 14 28 6 29 12 30 7 31 10 32 15 33 13 35 8 37 9 38 11 40
REMARK H PARENT 21 20 23 22 32 24 29 26 15 34 13 36 9 39 11 41
REMARK Flexibility Score: inf
ROOT
ATOM      1  O   UNL     1     -37.757   5.965  81.471  1.00  0.00    -0.454 OA
ENDROOT
BRANCH   1   2
ATOM      2  C   UNL     1     -38.527   5.248  80.534  1.00  0.00     0.214 A 
ATOM      3  C   UNL     1     -38.013   5.084  79.237  1.00  0.00     0.180 A 
ATOM      4  O   UNL     1     -38.741   4.510  78.286  1.00  0.00    -0.452 OA
ATOM      5  C   UNL     1     -39.803   4.701  80.812  1.00  0.00     0.239 A 
ATOM      6  C   UNL     1     -39.953   4.016  78.500  1.00  0.00     0.146 A 
ATOM      7  O   UNL     1     -40.297   4.789  81.966  1.00  0.00    -0.285 OA
ATOM      8  C   UNL     1     -40.523   4.045  79.792  1.00  0.00     0.111 A 
ATOM      9  C   UNL     1     -40.647   3.441  77.435  1.00  0.00     0.094 A 
ATOM     10  C   UNL     1     -41.777   3.416  80.008  1.00  0.00     0.134 A 
ATOM     11  C   UNL     1     -41.906   2.866  77.644  1.00  0.00     0.123 A 
ATOM     12  C   UNL     1     -42.454   2.837  78.928  1.00  0.00     0.093 A 
BRANCH   3  13
ATOM     13  C   UNL     1     -36.644   5.489  78.898  1.00  0.00     0.025 A 
ATOM     14  C   UNL     1     -36.394   6.802  78.480  1.00  0.00     0.016 A 
ATOM     15  C   UNL     1     -35.079   7.246  78.313  1.00  0.00     0.051 A 
ATOM     16  C   UNL     1     -34.010   6.381  78.576  1.00  0.00     0.157 A 
ATOM     17  C   UNL     1     -35.571   4.617  79.143  1.00  0.00     0.062 A 
ATOM     18  C   UNL     1     -34.261   5.054  78.976  1.00  0.00     0.158 A 
BRANCH  16  19
ATOM     19  O   UNL     1     -32.693   6.848  78.486  1.00  0.00    -0.504 OA
ATOM     20  H   UNL     1     -31.909   6.223  78.310  1.00  0.00     0.293 HD
ENDBRANCH  16  19
BRANCH  18  21
ATOM     21  O   UNL     1     -33.214   4.174  79.246  1.00  0.00    -0.504 OA
ATOM     22  H   UNL     1     -32.492   4.387  79.937  1.00  0.00     0.293 HD
ENDBRANCH  18  21
ENDBRANCH   3  13
BRANCH  10  23
ATOM     23  O   UNL     1     -42.338   3.352  81.283  1.00  0.00    -0.507 OA
ATOM     24  H   UNL     1     -42.720   4.174  81.736  1.00  0.00     0.293 HD
ENDBRANCH  10  23
BRANCH  11  25
ATOM     25  O   UNL     1     -42.634   2.339  76.579  1.00  0.00    -0.508 OA
ATOM     26  H   UNL     1     -43.483   1.806  76.738  1.00  0.00     0.293 HD
ENDBRANCH  11  25
ENDBRANCH   1   2
BRANCH   1  27
ATOM     27  C   UNL     1     -36.982   5.394  82.536  1.00  0.00     0.339 C 
ATOM     28  C   UNL     1     -37.460   5.908  83.909  1.00  0.00     0.214 C 
ATOM     29  O   UNL     1     -35.593   5.634  82.357  1.00  0.00    -0.332 OA
ATOM     30  C   UNL     1     -37.076   7.392  84.118  1.00  0.00     0.180 C 
ATOM     31  C   UNL     1     -35.297   7.019  82.375  1.00  0.00     0.179 C 
ATOM     32  C   UNL     1     -35.596   7.612  83.773  1.00  0.00     0.177 C 
BRANCH  28  33
ATOM     33  O   UNL     1     -38.851   5.744  84.041  1.00  0.00    -0.384 OA
ATOM     34  H   UNL     1     -39.011   4.801  84.291  1.00  0.00     0.211 HD
ENDBRANCH  28  33
BRANCH  30  35
ATOM     35  O   UNL     1     -37.874   8.227  83.319  1.00  0.00    -0.387 OA
ATOM     36  H   UNL     1     -37.256   8.801  82.796  1.00  0.00     0.211 HD
ENDBRANCH  30  35
BRANCH  31  37
ATOM     37  C   UNL     1     -33.833   7.200  81.965  1.00  0.00     0.191 C 
BRANCH  37  38
ATOM     38  O   UNL     1     -33.266   8.296  82.636  1.00  0.00    -0.394 OA
ATOM     39  H   UNL     1     -32.514   8.606  82.067  1.00  0.00     0.210 HD
ENDBRANCH  37  38
ENDBRANCH  31  37
BRANCH  32  40
ATOM     40  O   UNL     1     -34.799   6.976  84.743  1.00  0.00    -0.387 OA
ATOM     41  H   UNL     1     -34.103   7.630  85.043  1.00  0.00     0.211 HD
ENDBRANCH  32  40
ENDBRANCH   1  27
TORSDOF 12
ENDMDL
MODEL 3
REMARK VINA RESULT:    -6.824      2.253      6.056
REMARK INTER + INTRA:         -12.009
REMARK INTER:                 -10.730
REMARK INTRA:                  -1.280
REMARK UNBOUND:                -1.994
REMARK SMILES O=c1c(O[C@H]2O[C@H](CO)[C@H](O)[C@@H](O)[C@H]2O)c(-c2ccc(O)c(O)c2)oc2cc(O)cc(O)c12
REMARK SMILES IDX 4 1 3 2 16 3 25 4 2 5 26 6 1 7 33 8 27 9 31 10 28 11 30 12
REMARK SMILES IDX 17 13 18 14 19 15 20 16 24 17 22 18 21 19 23 21 32 23 29 25
REMARK SMILES IDX 5 27 14 28 6 29 12 30 7 31 10 32 15 33 13 35 8 37 9 38 11 40
REMARK H PARENT 21 20 23 22 32 24 29 26 15 34 13 36 9 39 11 41
REMARK Flexibility Score: inf
ROOT
ATOM      1  O   UNL     1     -37.770   6.000  81.463  1.00  0.00    -0.454 OA
ENDROOT
BRANCH   1   2
ATOM      2  C   UNL     1     -38.523   5.241  80.546  1.00  0.00     0.214 A 
ATOM      3  C   UNL     1     -37.973   4.994  79.278  1.00  0.00     0.180 A 
ATOM      4  O   UNL     1     -38.681   4.377  78.339  1.00  0.00    -0.452 OA
ATOM      5  C   UNL     1     -39.816   4.728  80.816  1.00  0.00     0.239 A 
ATOM      6  C   UNL     1     -39.907   3.912  78.544  1.00  0.00     0.146 A 
ATOM      7  O   UNL     1     -40.343   4.891  81.947  1.00  0.00    -0.285 OA
ATOM      8  C   UNL     1     -40.515   4.025  79.813  1.00  0.00     0.111 A 
ATOM      9  C   UNL     1     -40.577   3.287  77.492  1.00  0.00     0.094 A 
ATOM     10  C   UNL     1     -41.785   3.428  80.027  1.00  0.00     0.134 A 
ATOM     11  C   UNL     1     -41.852   2.743  77.695  1.00  0.00     0.123 A 
ATOM     12  C   UNL     1     -42.439   2.796  78.961  1.00  0.00     0.093 A 
BRANCH   3  13
ATOM     13  C   UNL     1     -36.589   5.359  78.958  1.00  0.00     0.025 A 
ATOM     14  C   UNL     1     -36.328   6.546  78.264  1.00  0.00     0.016 A 
ATOM     15  C   UNL     1     -35.012   6.987  78.097  1.00  0.00     0.051 A 
ATOM     16  C   UNL     1     -33.952   6.247  78.637  1.00  0.00     0.157 A 
ATOM     17  C   UNL     1     -35.524   4.608  79.483  1.00  0.00     0.062 A 
ATOM     18  C   UNL     1     -34.213   5.042  79.317  1.00  0.00     0.158 A 
BRANCH  16  19
ATOM     19  O   UNL     1     -32.641   6.729  78.540  1.00  0.00    -0.504 OA
ATOM     20  H   UNL     1     -32.416   7.712  78.681  1.00  0.00     0.293 HD
ENDBRANCH  16  19
BRANCH  18  21
ATOM     21  O   UNL     1     -33.176   4.289  79.867  1.00  0.00    -0.504 OA
ATOM     22  H   UNL     1     -33.351   3.460  80.437  1.00  0.00     0.293 HD
ENDBRANCH  18  21
ENDBRANCH   3  13
BRANCH  10  23
ATOM     23  O   UNL     1     -42.385   3.446  81.285  1.00  0.00    -0.507 OA
ATOM     24  H   UNL     1     -43.257   3.936  81.450  1.00  0.00     0.293 HD
ENDBRANCH  10  23
BRANCH  11  25
ATOM     25  O   UNL     1     -42.555   2.165  76.641  1.00  0.00    -0.508 OA
ATOM     26  H   UNL     1     -43.489   2.481  76.399  1.00  0.00     0.293 HD
ENDBRANCH  11  25
ENDBRANCH   1   2
BRANCH   1  27
ATOM     27  C   UNL     1     -37.716   5.791  82.884  1.00  0.00     0.339 C 
ATOM     28  C   UNL     1     -37.153   7.032  83.607  1.00  0.00     0.214 C 
ATOM     29  O   UNL     1     -36.969   4.628  83.211  1.00  0.00    -0.332 OA
ATOM     30  C   UNL     1     -35.638   7.197  83.342  1.00  0.00     0.180 C 
ATOM     31  C   UNL     1     -35.621   4.739  82.793  1.00  0.00     0.179 C 
ATOM     32  C   UNL     1     -34.908   5.867  83.579  1.00  0.00     0.177 C 
BRANCH  28  33
ATOM     33  O   UNL     1     -37.844   8.191  83.208  1.00  0.00    -0.384 OA
ATOM     34  H   UNL     1     -38.798   8.050  83.425  1.00  0.00     0.211 HD
ENDBRANCH  28  33
BRANCH  30  35
ATOM     35  O   UNL     1     -35.410   7.630  82.025  1.00  0.00    -0.387 OA
ATOM     36  H   UNL     1     -35.577   6.852  81.433  1.00  0.00     0.211 HD
ENDBRANCH  30  35
BRANCH  31  37
ATOM     37  C   UNL     1     -34.947   3.378  82.986  1.00  0.00     0.191 C 
BRANCH  37  38
ATOM     38  O   UNL     1     -33.549   3.510  82.937  1.00  0.00    -0.394 OA
ATOM     39  H   UNL     1     -33.182   2.690  83.362  1.00  0.00     0.210 HD
ENDBRANCH  37  38
ENDBRANCH  31  37
BRANCH  32  40
ATOM     40  O   UNL     1     -34.923   5.574  84.955  1.00  0.00    -0.387 OA
ATOM     41  H   UNL     1     -35.515   4.779  85.091  1.00  0.00     0.211 HD
ENDBRANCH  32  40
ENDBRANCH   1  27
TORSDOF 12
ENDMDL
MODEL 4
REMARK VINA RESULT:    -6.313      2.341      7.826
REMARK INTER + INTRA:         -11.259
REMARK INTER:                  -9.240
REMARK INTRA:                  -2.018
REMARK UNBOUND:                -1.994
REMARK SMILES O=c1c(O[C@H]2O[C@H](CO)[C@H](O)[C@@H](O)[C@H]2O)c(-c2ccc(O)c(O)c2)oc2cc(O)cc(O)c12
REMARK SMILES IDX 4 1 3 2 16 3 25 4 2 5 26 6 1 7 33 8 27 9 31 10 28 11 30 12
REMARK SMILES IDX 17 13 18 14 19 15 20 16 24 17 22 18 21 19 23 21 32 23 29 25
REMARK SMILES IDX 5 27 14 28 6 29 12 30 7 31 10 32 15 33 13 35 8 37 9 38 11 40
REMARK H PARENT 21 20 23 22 32 24 29 26 15 34 13 36 9 39 11 41
REMARK Flexibility Score: inf
ROOT
ATOM      1  O   UNL     1     -38.231   5.864  79.223  1.00  0.00    -0.454 OA
ENDROOT
BRANCH   1   2
ATOM      2  C   UNL     1     -38.355   4.911  80.252  1.00  0.00     0.214 A 
ATOM      3  C   UNL     1     -37.182   4.392  80.824  1.00  0.00     0.180 A 
ATOM      4  O   UNL     1     -37.237   3.415  81.721  1.00  0.00    -0.452 OA
ATOM      5  C   UNL     1     -39.594   4.422  80.732  1.00  0.00     0.239 A 
ATOM      6  C   UNL     1     -38.379   2.909  82.170  1.00  0.00     0.146 A 
ATOM      7  O   UNL     1     -40.677   4.875  80.279  1.00  0.00    -0.285 OA
ATOM      8  C   UNL     1     -39.617   3.425  81.730  1.00  0.00     0.111 A 
ATOM      9  C   UNL     1     -38.337   1.875  83.106  1.00  0.00     0.094 A 
ATOM     10  C   UNL     1     -40.816   2.930  82.306  1.00  0.00     0.134 A 
ATOM     11  C   UNL     1     -39.526   1.356  83.634  1.00  0.00     0.123 A 
ATOM     12  C   UNL     1     -40.753   1.898  83.251  1.00  0.00     0.093 A 
BRANCH   3  13
ATOM     13  C   UNL     1     -35.862   4.941  80.494  1.00  0.00     0.025 A 
ATOM     14  C   UNL     1     -35.195   4.497  79.346  1.00  0.00     0.016 A 
ATOM     15  C   UNL     1     -34.016   5.125  78.931  1.00  0.00     0.051 A 
ATOM     16  C   UNL     1     -33.509   6.210  79.658  1.00  0.00     0.157 A 
ATOM     17  C   UNL     1     -35.342   6.016  81.232  1.00  0.00     0.062 A 
ATOM     18  C   UNL     1     -34.169   6.643  80.825  1.00  0.00     0.158 A 
BRANCH  16  19
ATOM     19  O   UNL     1     -32.375   6.891  79.199  1.00  0.00    -0.504 OA
ATOM     20  H   UNL     1     -32.441   7.674  78.552  1.00  0.00     0.293 HD
ENDBRANCH  16  19
BRANCH  18  21
ATOM     21  O   UNL     1     -33.686   7.723  81.564  1.00  0.00    -0.504 OA
ATOM     22  H   UNL     1     -33.996   8.680  81.391  1.00  0.00     0.293 HD
ENDBRANCH  18  21
ENDBRANCH   3  13
BRANCH  10  23
ATOM     23  O   UNL     1     -42.055   3.468  81.958  1.00  0.00    -0.507 OA
ATOM     24  H   UNL     1     -42.922   3.027  82.242  1.00  0.00     0.293 HD
ENDBRANCH  10  23
BRANCH  11  25
ATOM     25  O   UNL     1     -39.501   0.287  84.527  1.00  0.00    -0.508 OA
ATOM     26  H   UNL     1     -39.454  -0.672  84.196  1.00  0.00     0.293 HD
ENDBRANCH  11  25
ENDBRANCH   1   2
BRANCH   1  27
ATOM     27  C   UNL     1     -38.388   7.285  79.368  1.00  0.00     0.339 C 
ATOM     28  C   UNL     1     -39.526   7.813  78.471  1.00  0.00     0.214 C 
ATOM     29  O   UNL     1     -37.173   7.973  79.109  1.00  0.00    -0.332 OA
ATOM     30  C   UNL     1     -39.125   7.780  76.977  1.00  0.00     0.180 C 
ATOM     31  C   UNL     1     -36.736   7.776  77.776  1.00  0.00     0.179 C 
ATOM     32  C   UNL     1     -37.740   8.413  76.784  1.00  0.00     0.177 C 
BRANCH  28  33
ATOM     33  O   UNL     1     -40.702   7.067  78.674  1.00  0.00    -0.384 OA
ATOM     34  H   UNL     1     -40.572   6.192  78.231  1.00  0.00     0.211 HD
ENDBRANCH  28  33
BRANCH  30  35
ATOM     35  O   UNL     1     -39.109   6.459  76.498  1.00  0.00    -0.387 OA
ATOM     36  H   UNL     1     -38.280   6.038  76.845  1.00  0.00     0.211 HD
ENDBRANCH  30  35
BRANCH  31  37
ATOM     37  C   UNL     1     -35.330   8.364  77.641  1.00  0.00     0.191 C 
BRANCH  37  38
ATOM     38  O   UNL     1     -35.136   9.396  78.573  1.00  0.00    -0.394 OA
ATOM     39  H   UNL     1     -34.187   9.332  78.860  1.00  0.00     0.210 HD
ENDBRANCH  37  38
ENDBRANCH  31  37
BRANCH  32  40
ATOM     40  O   UNL     1     -37.831   9.797  77.020  1.00  0.00    -0.387 OA
ATOM     41  H   UNL     1     -37.282  10.263  76.325  1.00  0.00     0.211 HD
ENDBRANCH  32  40
ENDBRANCH   1  27
TORSDOF 12
ENDMDL
MODEL 5
REMARK VINA RESULT:    -5.957      1.386      2.823
REMARK INTER + INTRA:         -10.737
REMARK INTER:                  -9.198
REMARK INTRA:                  -1.538
REMARK UNBOUND:                -1.994
REMARK SMILES O=c1c(O[C@H]2O[C@H](CO)[C@H](O)[C@@H](O)[C@H]2O)c(-c2ccc(O)c(O)c2)oc2cc(O)cc(O)c12
REMARK SMILES IDX 4 1 3 2 16 3 25 4 2 5 26 6 1 7 33 8 27 9 31 10 28 11 30 12
REMARK SMILES IDX 17 13 18 14 19 15 20 16 24 17 22 18 21 19 23 21 32 23 29 25
REMARK SMILES IDX 5 27 14 28 6 29 12 30 7 31 10 32 15 33 13 35 8 37 9 38 11 40
REMARK H PARENT 21 20 23 22 32 24 29 26 15 34 13 36 9 39 11 41
REMARK Flexibility Score: inf
ROOT
ATOM      1  O   UNL     1     -38.304   4.612  81.466  1.00  0.00    -0.454 OA
ENDROOT
BRANCH   1   2
ATOM      2  C   UNL     1     -37.630   5.454  80.559  1.00  0.00     0.214 A 
ATOM      3  C   UNL     1     -37.843   5.257  79.185  1.00  0.00     0.180 A 
ATOM      4  O   UNL     1     -37.154   5.948  78.285  1.00  0.00    -0.452 OA
ATOM      5  C   UNL     1     -36.728   6.474  80.947  1.00  0.00     0.239 A 
ATOM      6  C   UNL     1     -36.276   6.889  78.611  1.00  0.00     0.146 A 
ATOM      7  O   UNL     1     -36.525   6.716  82.165  1.00  0.00    -0.285 OA
ATOM      8  C   UNL     1     -36.058   7.230  79.963  1.00  0.00     0.111 A 
ATOM      9  C   UNL     1     -35.591   7.555  77.594  1.00  0.00     0.094 A 
ATOM     10  C   UNL     1     -35.189   8.309  80.272  1.00  0.00     0.134 A 
ATOM     11  C   UNL     1     -34.697   8.586  77.908  1.00  0.00     0.123 A 
ATOM     12  C   UNL     1     -34.517   8.972  79.237  1.00  0.00     0.093 A 
BRANCH   3  13
ATOM     13  C   UNL     1     -38.864   4.325  78.693  1.00  0.00     0.025 A 
ATOM     14  C   UNL     1     -38.497   3.021  78.338  1.00  0.00     0.016 A 
ATOM     15  C   UNL     1     -39.480   2.077  78.026  1.00  0.00     0.051 A 
ATOM     16  C   UNL     1     -40.834   2.431  78.081  1.00  0.00     0.157 A 
ATOM     17  C   UNL     1     -40.221   4.684  78.730  1.00  0.00     0.062 A 
ATOM     18  C   UNL     1     -41.202   3.748  78.417  1.00  0.00     0.158 A 
BRANCH  16  19
ATOM     19  O   UNL     1     -41.820   1.465  77.847  1.00  0.00    -0.504 OA
ATOM     20  H   UNL     1     -41.623   0.468  77.903  1.00  0.00     0.293 HD
ENDBRANCH  16  19
BRANCH  18  21
ATOM     21  O   UNL     1     -42.542   4.125  78.482  1.00  0.00    -0.504 OA
ATOM     22  H   UNL     1     -43.217   3.630  79.067  1.00  0.00     0.293 HD
ENDBRANCH  18  21
ENDBRANCH   3  13
BRANCH  10  23
ATOM     23  O   UNL     1     -35.007   8.731  81.588  1.00  0.00    -0.507 OA
ATOM     24  H   UNL     1     -35.008   9.714  81.836  1.00  0.00     0.293 HD
ENDBRANCH  10  23
BRANCH  11  25
ATOM     25  O   UNL     1     -33.965   9.222  76.908  1.00  0.00    -0.508 OA
ATOM     26  H   UNL     1     -33.654   8.717  76.084  1.00  0.00     0.293 HD
ENDBRANCH  11  25
ENDBRANCH   1   2
BRANCH   1  27
ATOM     27  C   UNL     1     -37.936   3.263  81.794  1.00  0.00     0.339 C 
ATOM     28  C   UNL     1     -39.122   2.500  82.420  1.00  0.00     0.214 C 
ATOM     29  O   UNL     1     -36.799   3.226  82.646  1.00  0.00    -0.332 OA
ATOM     30  C   UNL     1     -39.425   3.009  83.849  1.00  0.00     0.180 C 
ATOM     31  C   UNL     1     -37.055   3.861  83.885  1.00  0.00     0.179 C 
ATOM     32  C   UNL     1     -38.133   3.078  84.675  1.00  0.00     0.177 C 
BRANCH  28  33
ATOM     33  O   UNL     1     -40.267   2.617  81.611  1.00  0.00    -0.384 OA
ATOM     34  H   UNL     1     -40.287   3.544  81.267  1.00  0.00     0.211 HD
ENDBRANCH  28  33
BRANCH  30  35
ATOM     35  O   UNL     1     -40.024   4.279  83.806  1.00  0.00    -0.387 OA
ATOM     36  H   UNL     1     -40.095   4.531  82.849  1.00  0.00     0.211 HD
ENDBRANCH  30  35
BRANCH  31  37
ATOM     37  C   UNL     1     -35.734   3.967  84.650  1.00  0.00     0.191 C 
BRANCH  37  38
ATOM     38  O   UNL     1     -35.275   5.294  84.659  1.00  0.00    -0.394 OA
ATOM     39  H   UNL     1     -34.922   5.456  85.574  1.00  0.00     0.210 HD
ENDBRANCH  37  38
ENDBRANCH  31  37
BRANCH  32  40
ATOM     40  O   UNL     1     -37.681   1.771  84.932  1.00  0.00    -0.387 OA
ATOM     41  H   UNL     1     -36.702   1.819  85.130  1.00  0.00     0.211 HD
ENDBRANCH  32  40
ENDBRANCH   1  27
TORSDOF 12
ENDMDL
MODEL 6
REMARK VINA RESULT:    -5.885      1.919      2.903
REMARK INTER + INTRA:         -10.631
REMARK INTER:                  -8.856
REMARK INTRA:                  -1.775
REMARK UNBOUND:                -1.994
REMARK SMILES O=c1c(O[C@H]2O[C@H](CO)[C@H](O)[C@@H](O)[C@H]2O)c(-c2ccc(O)c(O)c2)oc2cc(O)cc(O)c12
REMARK SMILES IDX 4 1 3 2 16 3 25 4 2 5 26 6 1 7 33 8 27 9 31 10 28 11 30 12
REMARK SMILES IDX 17 13 18 14 19 15 20 16 24 17 22 18 21 19 23 21 32 23 29 25
REMARK SMILES IDX 5 27 14 28 6 29 12 30 7 31 10 32 15 33 13 35 8 37 9 38 11 40
REMARK H PARENT 21 20 23 22 32 24 29 26 15 34 13 36 9 39 11 41
REMARK Flexibility Score: inf
ROOT
ATOM      1  O   UNL     1     -37.484   4.232  82.458  1.00  0.00    -0.454 OA
ENDROOT
BRANCH   1   2
ATOM      2  C   UNL     1     -36.503   5.128  81.990  1.00  0.00     0.214 A 
ATOM      3  C   UNL     1     -36.450   5.399  80.613  1.00  0.00     0.180 A 
ATOM      4  O   UNL     1     -35.481   6.150  80.105  1.00  0.00    -0.452 OA
ATOM      5  C   UNL     1     -35.545   5.757  82.823  1.00  0.00     0.239 A 
ATOM      6  C   UNL     1     -34.547   6.729  80.850  1.00  0.00     0.146 A 
ATOM      7  O   UNL     1     -35.567   5.577  84.068  1.00  0.00    -0.285 OA
ATOM      8  C   UNL     1     -34.565   6.597  82.255  1.00  0.00     0.111 A 
ATOM      9  C   UNL     1     -33.561   7.493  80.224  1.00  0.00     0.094 A 
ATOM     10  C   UNL     1     -33.613   7.312  83.029  1.00  0.00     0.134 A 
ATOM     11  C   UNL     1     -32.593   8.155  80.989  1.00  0.00     0.123 A 
ATOM     12  C   UNL     1     -32.637   8.081  82.383  1.00  0.00     0.093 A 
BRANCH   3  13
ATOM     13  C   UNL     1     -37.485   4.909  79.697  1.00  0.00     0.025 A 
ATOM     14  C   UNL     1     -37.369   3.629  79.142  1.00  0.00     0.016 A 
ATOM     15  C   UNL     1     -38.423   3.087  78.400  1.00  0.00     0.051 A 
ATOM     16  C   UNL     1     -39.603   3.821  78.222  1.00  0.00     0.157 A 
ATOM     17  C   UNL     1     -38.661   5.651  79.502  1.00  0.00     0.062 A 
ATOM     18  C   UNL     1     -39.712   5.117  78.762  1.00  0.00     0.158 A 
BRANCH  16  19
ATOM     19  O   UNL     1     -40.689   3.248  77.548  1.00  0.00    -0.504 OA
ATOM     20  H   UNL     1     -41.235   3.769  76.865  1.00  0.00     0.293 HD
ENDBRANCH  16  19
BRANCH  18  21
ATOM     21  O   UNL     1     -40.877   5.867  78.602  1.00  0.00    -0.504 OA
ATOM     22  H   UNL     1     -41.604   5.897  79.318  1.00  0.00     0.293 HD
ENDBRANCH  18  21
ENDBRANCH   3  13
BRANCH  10  23
ATOM     23  O   UNL     1     -33.646   7.275  84.422  1.00  0.00    -0.507 OA
ATOM     24  H   UNL     1     -32.814   7.440  84.976  1.00  0.00     0.293 HD
ENDBRANCH  10  23
BRANCH  11  25
ATOM     25  O   UNL     1     -31.571   8.875  80.376  1.00  0.00    -0.508 OA
ATOM     26  H   UNL     1     -30.644   8.922  80.787  1.00  0.00     0.293 HD
ENDBRANCH  11  25
ENDBRANCH   1   2
BRANCH   1  27
ATOM     27  C   UNL     1     -38.506   4.532  83.422  1.00  0.00     0.339 C 
ATOM     28  C   UNL     1     -38.536   3.477  84.546  1.00  0.00     0.214 C 
ATOM     29  O   UNL     1     -39.781   4.659  82.807  1.00  0.00    -0.332 OA
ATOM     30  C   UNL     1     -39.093   2.127  84.035  1.00  0.00     0.180 C 
ATOM     31  C   UNL     1     -40.185   3.449  82.191  1.00  0.00     0.179 C 
ATOM     32  C   UNL     1     -40.399   2.349  83.260  1.00  0.00     0.177 C 
BRANCH  28  33
ATOM     33  O   UNL     1     -37.250   3.297  85.089  1.00  0.00    -0.384 OA
ATOM     34  H   UNL     1     -37.263   2.446  85.592  1.00  0.00     0.211 HD
ENDBRANCH  28  33
BRANCH  30  35
ATOM     35  O   UNL     1     -38.157   1.487  83.206  1.00  0.00    -0.387 OA
ATOM     36  H   UNL     1     -37.318   1.405  83.730  1.00  0.00     0.211 HD
ENDBRANCH  30  35
BRANCH  31  37
ATOM     37  C   UNL     1     -41.453   3.727  81.378  1.00  0.00     0.191 C 
BRANCH  37  38
ATOM     38  O   UNL     1     -41.735   2.649  80.524  1.00  0.00    -0.394 OA
ATOM     39  H   UNL     1     -42.573   2.239  80.868  1.00  0.00     0.210 HD
ENDBRANCH  37  38
ENDBRANCH  31  37
BRANCH  32  40
ATOM     40  O   UNL     1     -41.405   2.747  84.159  1.00  0.00    -0.387 OA
ATOM     41  H   UNL     1     -42.185   2.132  84.036  1.00  0.00     0.211 HD
ENDBRANCH  32  40
ENDBRANCH   1  27
TORSDOF 12
ENDMDL
MODEL 7
REMARK VINA RESULT:    -5.865      3.008      4.822
REMARK INTER + INTRA:         -10.601
REMARK INTER:                  -8.729
REMARK INTRA:                  -1.872
REMARK UNBOUND:                -1.994
REMARK SMILES O=c1c(O[C@H]2O[C@H](CO)[C@H](O)[C@@H](O)[C@H]2O)c(-c2ccc(O)c(O)c2)oc2cc(O)cc(O)c12
REMARK SMILES IDX 4 1 3 2 16 3 25 4 2 5 26 6 1 7 33 8 27 9 31 10 28 11 30 12
REMARK SMILES IDX 17 13 18 14 19 15 20 16 24 17 22 18 21 19 23 21 32 23 29 25
REMARK SMILES IDX 5 27 14 28 6 29 12 30 7 31 10 32 15 33 13 35 8 37 9 38 11 40
REMARK H PARENT 21 20 23 22 32 24 29 26 15 34 13 36 9 39 11 41
REMARK Flexibility Score: inf
ROOT
ATOM      1  O   UNL     1     -36.607   6.076  79.604  1.00  0.00    -0.454 OA
ENDROOT
BRANCH   1   2
ATOM      2  C   UNL     1     -37.644   6.833  79.026  1.00  0.00     0.214 A 
ATOM      3  C   UNL     1     -38.940   6.697  79.551  1.00  0.00     0.180 A 
ATOM      4  O   UNL     1     -39.972   7.303  78.977  1.00  0.00    -0.452 OA
ATOM      5  C   UNL     1     -37.467   7.709  77.926  1.00  0.00     0.239 A 
ATOM      6  C   UNL     1     -39.850   8.104  77.926  1.00  0.00     0.146 A 
ATOM      7  O   UNL     1     -36.322   7.894  77.438  1.00  0.00    -0.285 OA
ATOM      8  C   UNL     1     -38.578   8.383  77.380  1.00  0.00     0.111 A 
ATOM      9  C   UNL     1     -40.995   8.689  77.385  1.00  0.00     0.094 A 
ATOM     10  C   UNL     1     -38.472   9.323  76.321  1.00  0.00     0.134 A 
ATOM     11  C   UNL     1     -40.889   9.577  76.308  1.00  0.00     0.123 A 
ATOM     12  C   UNL     1     -39.632   9.906  75.797  1.00  0.00     0.093 A 
BRANCH   3  13
ATOM     13  C   UNL     1     -39.193   5.928  80.774  1.00  0.00     0.025 A 
ATOM     14  C   UNL     1     -39.106   6.560  82.020  1.00  0.00     0.016 A 
ATOM     15  C   UNL     1     -39.503   5.885  83.178  1.00  0.00     0.051 A 
ATOM     16  C   UNL     1     -40.002   4.579  83.091  1.00  0.00     0.157 A 
ATOM     17  C   UNL     1     -39.675   4.612  80.690  1.00  0.00     0.062 A 
ATOM     18  C   UNL     1     -40.069   3.935  81.840  1.00  0.00     0.158 A 
BRANCH  16  19
ATOM     19  O   UNL     1     -40.474   3.932  84.240  1.00  0.00    -0.504 OA
ATOM     20  H   UNL     1     -40.512   4.397  85.144  1.00  0.00     0.293 HD
ENDBRANCH  16  19
BRANCH  18  21
ATOM     21  O   UNL     1     -40.564   2.637  81.727  1.00  0.00    -0.504 OA
ATOM     22  H   UNL     1     -40.245   1.880  82.334  1.00  0.00     0.293 HD
ENDBRANCH  18  21
ENDBRANCH   3  13
BRANCH  10  23
ATOM     23  O   UNL     1     -37.228   9.687  75.807  1.00  0.00    -0.507 OA
ATOM     24  H   UNL     1     -37.037   9.659  74.812  1.00  0.00     0.293 HD
ENDBRANCH  10  23
BRANCH  11  25
ATOM     25  O   UNL     1     -42.028  10.125  75.722  1.00  0.00    -0.508 OA
ATOM     26  H   UNL     1     -42.068  11.108  75.473  1.00  0.00     0.293 HD
ENDBRANCH  11  25
ENDBRANCH   1   2
BRANCH   1  27
ATOM     27  C   UNL     1     -35.691   6.536  80.611  1.00  0.00     0.339 C 
ATOM     28  C   UNL     1     -34.228   6.343  80.162  1.00  0.00     0.214 C 
ATOM     29  O   UNL     1     -35.928   5.902  81.861  1.00  0.00    -0.332 OA
ATOM     30  C   UNL     1     -33.833   4.848  80.160  1.00  0.00     0.180 C 
ATOM     31  C   UNL     1     -35.731   4.502  81.780  1.00  0.00     0.179 C 
ATOM     32  C   UNL     1     -34.243   4.187  81.484  1.00  0.00     0.177 C 
BRANCH  28  33
ATOM     33  O   UNL     1     -34.027   6.900  78.886  1.00  0.00    -0.384 OA
ATOM     34  H   UNL     1     -33.509   7.733  79.010  1.00  0.00     0.211 HD
ENDBRANCH  28  33
BRANCH  30  35
ATOM     35  O   UNL     1     -34.446   4.175  79.089  1.00  0.00    -0.387 OA
ATOM     36  H   UNL     1     -35.372   4.525  79.024  1.00  0.00     0.211 HD
ENDBRANCH  30  35
BRANCH  31  37
ATOM     37  C   UNL     1     -36.209   3.875  83.092  1.00  0.00     0.191 C 
BRANCH  37  38
ATOM     38  O   UNL     1     -35.240   2.995  83.599  1.00  0.00    -0.394 OA
ATOM     39  H   UNL     1     -34.380   3.492  83.576  1.00  0.00     0.210 HD
ENDBRANCH  37  38
ENDBRANCH  31  37
BRANCH  32  40
ATOM     40  O   UNL     1     -33.434   4.691  82.519  1.00  0.00    -0.387 OA
ATOM     41  H   UNL     1     -33.420   5.688  82.438  1.00  0.00     0.211 HD
ENDBRANCH  32  40
ENDBRANCH   1  27
TORSDOF 12
ENDMDL
MODEL 8
REMARK VINA RESULT:    -5.859      1.837      4.697
REMARK INTER + INTRA:         -10.593
REMARK INTER:                  -8.874
REMARK INTRA:                  -1.719
REMARK UNBOUND:                -1.994
REMARK SMILES O=c1c(O[C@H]2O[C@H](CO)[C@H](O)[C@@H](O)[C@H]2O)c(-c2ccc(O)c(O)c2)oc2cc(O)cc(O)c12
REMARK SMILES IDX 4 1 3 2 16 3 25 4 2 5 26 6 1 7 33 8 27 9 31 10 28 11 30 12
REMARK SMILES IDX 17 13 18 14 19 15 20 16 24 17 22 18 21 19 23 21 32 23 29 25
REMARK SMILES IDX 5 27 14 28 6 29 12 30 7 31 10 32 15 33 13 35 8 37 9 38 11 40
REMARK H PARENT 21 20 23 22 32 24 29 26 15 34 13 36 9 39 11 41
REMARK Flexibility Score: inf
ROOT
ATOM      1  O   UNL     1     -37.931   5.632  79.949  1.00  0.00    -0.454 OA
ENDROOT
BRANCH   1   2
ATOM      2  C   UNL     1     -36.665   6.128  80.317  1.00  0.00     0.214 A 
ATOM      3  C   UNL     1     -36.331   6.151  81.681  1.00  0.00     0.180 A 
ATOM      4  O   UNL     1     -35.197   6.705  82.093  1.00  0.00    -0.452 OA
ATOM      5  C   UNL     1     -35.713   6.630  79.396  1.00  0.00     0.239 A 
ATOM      6  C   UNL     1     -34.297   7.216  81.262  1.00  0.00     0.146 A 
ATOM      7  O   UNL     1     -35.947   6.603  78.160  1.00  0.00    -0.285 OA
ATOM      8  C   UNL     1     -34.493   7.158  79.866  1.00  0.00     0.111 A 
ATOM      9  C   UNL     1     -33.138   7.788  81.790  1.00  0.00     0.094 A 
ATOM     10  C   UNL     1     -33.464   7.620  79.003  1.00  0.00     0.134 A 
ATOM     11  C   UNL     1     -32.149   8.289  80.935  1.00  0.00     0.123 A 
ATOM     12  C   UNL     1     -32.305   8.183  79.552  1.00  0.00     0.093 A 
BRANCH   3  13
ATOM     13  C   UNL     1     -37.189   5.522  82.691  1.00  0.00     0.025 A 
ATOM     14  C   UNL     1     -38.355   6.174  83.111  1.00  0.00     0.016 A 
ATOM     15  C   UNL     1     -39.263   5.518  83.947  1.00  0.00     0.051 A 
ATOM     16  C   UNL     1     -39.014   4.201  84.354  1.00  0.00     0.157 A 
ATOM     17  C   UNL     1     -36.932   4.209  83.115  1.00  0.00     0.062 A 
ATOM     18  C   UNL     1     -37.832   3.553  83.948  1.00  0.00     0.158 A 
BRANCH  16  19
ATOM     19  O   UNL     1     -39.961   3.515  85.124  1.00  0.00    -0.504 OA
ATOM     20  H   UNL     1     -40.664   4.003  85.676  1.00  0.00     0.293 HD
ENDBRANCH  16  19
BRANCH  18  21
ATOM     21  O   UNL     1     -37.562   2.241  84.337  1.00  0.00    -0.504 OA
ATOM     22  H   UNL     1     -38.037   1.801  85.127  1.00  0.00     0.293 HD
ENDBRANCH  18  21
ENDBRANCH   3  13
BRANCH  10  23
ATOM     23  O   UNL     1     -33.583   7.508  77.619  1.00  0.00    -0.507 OA
ATOM     24  H   UNL     1     -33.970   6.677  77.185  1.00  0.00     0.293 HD
ENDBRANCH  10  23
BRANCH  11  25
ATOM     25  O   UNL     1     -31.014   8.912  81.448  1.00  0.00    -0.508 OA
ATOM     26  H   UNL     1     -30.649   8.666  82.363  1.00  0.00     0.293 HD
ENDBRANCH  11  25
ENDBRANCH   1   2
BRANCH   1  27
ATOM     27  C   UNL     1     -38.178   4.431  79.200  1.00  0.00     0.339 C 
ATOM     28  C   UNL     1     -39.160   4.691  78.039  1.00  0.00     0.214 C 
ATOM     29  O   UNL     1     -38.645   3.382  80.037  1.00  0.00    -0.332 OA
ATOM     30  C   UNL     1     -40.596   4.935  78.562  1.00  0.00     0.180 C 
ATOM     31  C   UNL     1     -39.882   3.711  80.644  1.00  0.00     0.179 C 
ATOM     32  C   UNL     1     -40.988   3.844  79.569  1.00  0.00     0.177 C 
BRANCH  28  33
ATOM     33  O   UNL     1     -38.733   5.788  77.268  1.00  0.00    -0.384 OA
ATOM     34  H   UNL     1     -39.053   6.606  77.722  1.00  0.00     0.211 HD
ENDBRANCH  28  33
BRANCH  30  35
ATOM     35  O   UNL     1     -40.693   6.196  79.174  1.00  0.00    -0.387 OA
ATOM     36  H   UNL     1     -40.072   6.799  78.688  1.00  0.00     0.211 HD
ENDBRANCH  30  35
BRANCH  31  37
ATOM     37  C   UNL     1     -40.206   2.634  81.683  1.00  0.00     0.191 C 
BRANCH  37  38
ATOM     38  O   UNL     1     -41.581   2.619  81.964  1.00  0.00    -0.394 OA
ATOM     39  H   UNL     1     -42.023   2.264  81.148  1.00  0.00     0.210 HD
ENDBRANCH  37  38
ENDBRANCH  31  37
BRANCH  32  40
ATOM     40  O   UNL     1     -41.140   2.623  78.886  1.00  0.00    -0.387 OA
ATOM     41  H   UNL     1     -41.952   2.167  79.252  1.00  0.00     0.211 HD
ENDBRANCH  32  40
ENDBRANCH   1  27
TORSDOF 12
ENDMDL
MODEL 9
REMARK VINA RESULT:    -5.820      8.987     12.757
REMARK INTER + INTRA:         -10.536
REMARK INTER:                  -8.943
REMARK INTRA:                  -1.593
REMARK UNBOUND:                -1.994
REMARK SMILES O=c1c(O[C@H]2O[C@H](CO)[C@H](O)[C@@H](O)[C@H]2O)c(-c2ccc(O)c(O)c2)oc2cc(O)cc(O)c12
REMARK SMILES IDX 4 1 3 2 16 3 25 4 2 5 26 6 1 7 33 8 27 9 31 10 28 11 30 12
REMARK SMILES IDX 17 13 18 14 19 15 20 16 24 17 22 18 21 19 23 21 32 23 29 25
REMARK SMILES IDX 5 27 14 28 6 29 12 30 7 31 10 32 15 33 13 35 8 37 9 38 11 40
REMARK H PARENT 21 20 23 22 32 24 29 26 15 34 13 36 9 39 11 41
REMARK Flexibility Score: inf
ROOT
ATOM      1  O   UNL     1     -39.353  -7.198  83.291  1.00  0.00    -0.454 OA
ENDROOT
BRANCH   1   2
ATOM      2  C   UNL     1     -39.695  -5.833  83.359  1.00  0.00     0.214 A 
ATOM      3  C   UNL     1     -41.010  -5.460  83.039  1.00  0.00     0.180 A 
ATOM      4  O   UNL     1     -41.358  -4.180  82.983  1.00  0.00    -0.452 OA
ATOM      5  C   UNL     1     -38.785  -4.806  83.710  1.00  0.00     0.239 A 
ATOM      6  C   UNL     1     -40.524  -3.189  83.272  1.00  0.00     0.146 A 
ATOM      7  O   UNL     1     -37.603  -5.087  84.038  1.00  0.00    -0.285 OA
ATOM      8  C   UNL     1     -39.206  -3.461  83.697  1.00  0.00     0.111 A 
ATOM      9  C   UNL     1     -40.979  -1.873  83.174  1.00  0.00     0.094 A 
ATOM     10  C   UNL     1     -38.373  -2.383  84.096  1.00  0.00     0.134 A 
ATOM     11  C   UNL     1     -40.135  -0.811  83.521  1.00  0.00     0.123 A 
ATOM     12  C   UNL     1     -38.850  -1.070  83.999  1.00  0.00     0.093 A 
BRANCH   3  13
ATOM     13  C   UNL     1     -42.056  -6.462  82.805  1.00  0.00     0.025 A 
ATOM     14  C   UNL     1     -42.758  -6.997  83.892  1.00  0.00     0.016 A 
ATOM     15  C   UNL     1     -43.862  -7.826  83.675  1.00  0.00     0.051 A 
ATOM     16  C   UNL     1     -44.275  -8.113  82.368  1.00  0.00     0.157 A 
ATOM     17  C   UNL     1     -42.460  -6.766  81.495  1.00  0.00     0.062 A 
ATOM     18  C   UNL     1     -43.556  -7.592  81.274  1.00  0.00     0.158 A 
BRANCH  16  19
ATOM     19  O   UNL     1     -45.428  -8.877  82.149  1.00  0.00    -0.504 OA
ATOM     20  H   UNL     1     -45.600  -9.748  82.647  1.00  0.00     0.293 HD
ENDBRANCH  16  19
BRANCH  18  21
ATOM     21  O   UNL     1     -43.949  -7.860  79.963  1.00  0.00    -0.504 OA
ATOM     22  H   UNL     1     -43.504  -7.411  79.161  1.00  0.00     0.293 HD
ENDBRANCH  18  21
ENDBRANCH   3  13
BRANCH  10  23
ATOM     23  O   UNL     1     -37.093  -2.612  84.598  1.00  0.00    -0.507 OA
ATOM     24  H   UNL     1     -36.525  -1.859  84.968  1.00  0.00     0.293 HD
ENDBRANCH  10  23
BRANCH  11  25
ATOM     25  O   UNL     1     -40.557   0.509  83.376  1.00  0.00    -0.508 OA
ATOM     26  H   UNL     1     -41.052   0.986  84.123  1.00  0.00     0.293 HD
ENDBRANCH  11  25
ENDBRANCH   1   2
BRANCH   1  27
ATOM     27  C   UNL     1     -38.898  -7.894  82.119  1.00  0.00     0.339 C 
ATOM     28  C   UNL     1     -39.105  -9.416  82.260  1.00  0.00     0.214 C 
ATOM     29  O   UNL     1     -37.541  -7.588  81.825  1.00  0.00    -0.332 OA
ATOM     30  C   UNL     1     -38.118 -10.024  83.284  1.00  0.00     0.180 C 
ATOM     31  C   UNL     1     -36.677  -8.000  82.869  1.00  0.00     0.179 C 
ATOM     32  C   UNL     1     -36.689  -9.544  82.996  1.00  0.00     0.177 C 
BRANCH  28  33
ATOM     33  O   UNL     1     -40.431  -9.701  82.635  1.00  0.00    -0.384 OA
ATOM     34  H   UNL     1     -40.996  -8.970  82.282  1.00  0.00     0.211 HD
ENDBRANCH  28  33
BRANCH  30  35
ATOM     35  O   UNL     1     -38.480  -9.666  84.593  1.00  0.00    -0.387 OA
ATOM     36  H   UNL     1     -39.168  -8.954  84.517  1.00  0.00     0.211 HD
ENDBRANCH  30  35
BRANCH  31  37
ATOM     37  C   UNL     1     -35.279  -7.449  82.578  1.00  0.00     0.191 C 
BRANCH  37  38
ATOM     38  O   UNL     1     -34.992  -7.535  81.206  1.00  0.00    -0.394 OA
ATOM     39  H   UNL     1     -34.803  -8.494  81.025  1.00  0.00     0.210 HD
ENDBRANCH  37  38
ENDBRANCH  31  37
BRANCH  32  40
ATOM     40  O   UNL     1     -36.242 -10.125  81.795  1.00  0.00    -0.387 OA
ATOM     41  H   UNL     1     -35.816 -11.002  82.020  1.00  0.00     0.211 HD
ENDBRANCH  32  40
ENDBRANCH   1  27
TORSDOF 12
ENDMDL
