MODEL 1
REMARK VINA RESULT:    -2.635      0.000      0.000
REMARK INTER + INTRA:          -2.635
REMARK INTER:                  -2.635
REMARK INTRA:                   0.000
REMARK UNBOUND:                 0.000
REMARK SMILES CC(=O)[O-]
REMARK SMILES IDX 1 1 2 2 3 3 4 4
REMARK H PARENT
REMARK Flexibility Score: inf
ROOT
ATOM      1  C   UNL     1     -17.993   5.954  18.875  1.00  0.00     0.063 C 
ATOM      2  C   UNL     1     -17.463   6.014  20.267  1.00  0.00     0.038 C 
ATOM      3  O   UNL     1     -16.941   7.075  20.699  1.00  0.00    -0.550 OA
ATOM      4  O   UNL     1     -17.593   4.918  21.110  1.00  0.00    -0.550 OA
ENDROOT
TORSDOF 0
ENDMDL
MODEL 2
REMARK VINA RESULT:    -2.463     14.590     14.743
REMARK INTER + INTRA:          -2.463
REMARK INTER:                  -2.463
REMARK INTRA:                   0.000
REMARK UNBOUND:                 0.000
REMARK SMILES CC(=O)[O-]
REMARK SMILES IDX 1 1 2 2 3 3 4 4
REMARK H PARENT
REMARK Flexibility Score: inf
ROOT
ATOM      1  C   UNL     1     -14.534  12.125  33.149  1.00  0.00     0.063 C 
ATOM      2  C   UNL     1     -13.619  11.003  33.508  1.00  0.00     0.038 C 
ATOM      3  O   UNL     1     -12.376  11.190  33.548  1.00  0.00    -0.550 OA
ATOM      4  O   UNL     1     -14.141   9.763  33.852  1.00  0.00    -0.550 OA
ENDROOT
TORSDOF 0
ENDMDL
MODEL 3
REMARK VINA RESULT:    -2.312     14.692     14.867
REMARK INTER + INTRA:          -2.312
REMARK INTER:                  -2.312
REMARK INTRA:                   0.000
REMARK UNBOUND:                 0.000
REMARK SMILES CC(=O)[O-]
REMARK SMILES IDX 1 1 2 2 3 3 4 4
REMARK H PARENT
REMARK Flexibility Score: inf
ROOT
ATOM      1  C   UNL     1     -14.169   9.848  33.889  1.00  0.00     0.063 C 
ATOM      2  C   UNL     1     -13.596  11.168  33.495  1.00  0.00     0.038 C 
ATOM      3  O   UNL     1     -14.358  12.125  33.202  1.00  0.00    -0.550 OA
ATOM      4  O   UNL     1     -12.221  11.359  33.504  1.00  0.00    -0.550 OA
ENDROOT
TORSDOF 0
ENDMDL
MODEL 4
REMARK VINA RESULT:    -2.269     18.916     19.142
REMARK INTER + INTRA:          -2.269
REMARK INTER:                  -2.269
REMARK INTRA:                   0.000
REMARK UNBOUND:                 0.000
REMARK SMILES CC(=O)[O-]
REMARK SMILES IDX 1 1 2 2 3 3 4 4
REMARK H PARENT
REMARK Flexibility Score: inf
ROOT
ATOM      1  C   UNL     1      -3.971   4.036  32.650  1.00  0.00     0.063 C 
ATOM      2  C   UNL     1      -4.482   4.088  34.051  1.00  0.00     0.038 C 
ATOM      3  O   UNL     1      -4.716   3.023  34.677  1.00  0.00    -0.550 OA
ATOM      4  O   UNL     1      -4.647   5.312  34.686  1.00  0.00    -0.550 OA
ENDROOT
TORSDOF 0
ENDMDL
MODEL 5
REMARK VINA RESULT:    -2.254     13.416     13.733
REMARK INTER + INTRA:          -2.254
REMARK INTER:                  -2.254
REMARK INTRA:                   0.000
REMARK UNBOUND:                 0.000
REMARK SMILES CC(=O)[O-]
REMARK SMILES IDX 1 1 2 2 3 3 4 4
REMARK H PARENT
REMARK Flexibility Score: inf
ROOT
ATOM      1  C   UNL     1     -16.939  -2.581  30.911  1.00  0.00     0.063 C 
ATOM      2  C   UNL     1     -16.551  -1.369  31.688  1.00  0.00     0.038 C 
ATOM      3  O   UNL     1     -17.222  -1.023  32.695  1.00  0.00    -0.550 OA
ATOM      4  O   UNL     1     -15.417  -0.649  31.336  1.00  0.00    -0.550 OA
ENDROOT
TORSDOF 0
ENDMDL
MODEL 6
REMARK VINA RESULT:    -2.239      1.330      1.973
REMARK INTER + INTRA:          -2.239
REMARK INTER:                  -2.239
REMARK INTRA:                   0.000
REMARK UNBOUND:                 0.000
REMARK SMILES CC(=O)[O-]
REMARK SMILES IDX 1 1 2 2 3 3 4 4
REMARK H PARENT
REMARK Flexibility Score: inf
ROOT
ATOM      1  C   UNL     1     -18.129   5.893  18.875  1.00  0.00     0.063 C 
ATOM      2  C   UNL     1     -17.766   4.784  19.804  1.00  0.00     0.038 C 
ATOM      3  O   UNL     1     -17.417   3.665  19.346  1.00  0.00    -0.550 OA
ATOM      4  O   UNL     1     -17.759   5.000  21.176  1.00  0.00    -0.550 OA
ENDROOT
TORSDOF 0
ENDMDL
MODEL 7
REMARK VINA RESULT:    -2.187     13.575     14.059
REMARK INTER + INTRA:          -2.187
REMARK INTER:                  -2.187
REMARK INTRA:                   0.000
REMARK UNBOUND:                 0.000
REMARK SMILES CC(=O)[O-]
REMARK SMILES IDX 1 1 2 2 3 3 4 4
REMARK H PARENT
REMARK Flexibility Score: inf
ROOT
ATOM      1  C   UNL     1     -17.235  -2.450  33.046  1.00  0.00     0.063 C 
ATOM      2  C   UNL     1     -17.084  -1.379  32.020  1.00  0.00     0.038 C 
ATOM      3  O   UNL     1     -15.948  -0.900  31.768  1.00  0.00    -0.550 OA
ATOM      4  O   UNL     1     -18.190  -0.945  31.300  1.00  0.00    -0.550 OA
ENDROOT
TORSDOF 0
ENDMDL
MODEL 8
REMARK VINA RESULT:    -2.185     18.873     19.205
REMARK INTER + INTRA:          -2.185
REMARK INTER:                  -2.185
REMARK INTRA:                   0.000
REMARK UNBOUND:                 0.000
REMARK SMILES CC(=O)[O-]
REMARK SMILES IDX 1 1 2 2 3 3 4 4
REMARK H PARENT
REMARK Flexibility Score: inf
ROOT
ATOM      1  C   UNL     1      -4.318   5.496  34.431  1.00  0.00     0.063 C 
ATOM      2  C   UNL     1      -4.264   4.103  33.900  1.00  0.00     0.038 C 
ATOM      3  O   UNL     1      -4.616   3.137  34.625  1.00  0.00    -0.550 OA
ATOM      4  O   UNL     1      -3.875   3.874  32.587  1.00  0.00    -0.550 OA
ENDROOT
TORSDOF 0
ENDMDL
MODEL 9
REMARK VINA RESULT:    -2.182     16.233     16.685
REMARK INTER + INTRA:          -2.182
REMARK INTER:                  -2.182
REMARK INTRA:                   0.000
REMARK UNBOUND:                 0.000
REMARK SMILES CC(=O)[O-]
REMARK SMILES IDX 1 1 2 2 3 3 4 4
REMARK H PARENT
REMARK Flexibility Score: inf
ROOT
ATOM      1  C   UNL     1      -4.944   5.742  30.929  1.00  0.00     0.063 C 
ATOM      2  C   UNL     1      -5.413   6.978  31.619  1.00  0.00     0.038 C 
ATOM      3  O   UNL     1      -5.050   7.220  32.799  1.00  0.00    -0.550 OA
ATOM      4  O   UNL     1      -6.208   7.893  30.941  1.00  0.00    -0.550 OA
ENDROOT
TORSDOF 0
ENDMDL
