MODEL 1
REMARK VINA RESULT:    -2.308      0.000      0.000
REMARK INTER + INTRA:          -2.308
REMARK INTER:                  -2.308
REMARK INTRA:                   0.000
REMARK UNBOUND:                 0.000
REMARK SMILES CC(=O)[O-]
REMARK SMILES IDX 1 1 2 2 3 3 4 4
REMARK H PARENT
REMARK Flexibility Score: inf
ROOT
ATOM      1  C   UNL     1       6.558  -0.100  46.861  1.00  0.00     0.063 C 
ATOM      2  C   UNL     1       5.869  -1.130  47.689  1.00  0.00     0.038 C 
ATOM      3  O   UNL     1       4.941  -1.823  47.193  1.00  0.00    -0.550 OA
ATOM      4  O   UNL     1       6.285  -1.368  48.993  1.00  0.00    -0.550 OA
ENDROOT
TORSDOF 0
ENDMDL
MODEL 2
REMARK VINA RESULT:    -2.289      1.880      1.894
REMARK INTER + INTRA:          -2.289
REMARK INTER:                  -2.289
REMARK INTRA:                   0.000
REMARK UNBOUND:                 0.000
REMARK SMILES CC(=O)[O-]
REMARK SMILES IDX 1 1 2 2 3 3 4 4
REMARK H PARENT
REMARK Flexibility Score: inf
ROOT
ATOM      1  C   UNL     1       6.575  -0.132  46.857  1.00  0.00     0.063 C 
ATOM      2  C   UNL     1       6.755  -1.550  46.435  1.00  0.00     0.038 C 
ATOM      3  O   UNL     1       5.815  -2.164  45.864  1.00  0.00    -0.550 OA
ATOM      4  O   UNL     1       7.979  -2.181  46.619  1.00  0.00    -0.550 OA
ENDROOT
TORSDOF 0
ENDMDL
MODEL 3
REMARK VINA RESULT:    -2.284      1.679      2.414
REMARK INTER + INTRA:          -2.284
REMARK INTER:                  -2.284
REMARK INTRA:                   0.000
REMARK UNBOUND:                 0.000
REMARK SMILES CC(=O)[O-]
REMARK SMILES IDX 1 1 2 2 3 3 4 4
REMARK H PARENT
REMARK Flexibility Score: inf
ROOT
ATOM      1  C   UNL     1       5.880  -1.509  48.239  1.00  0.00     0.063 C 
ATOM      2  C   UNL     1       6.006  -0.834  46.916  1.00  0.00     0.038 C 
ATOM      3  O   UNL     1       6.606   0.270  46.823  1.00  0.00    -0.550 OA
ATOM      4  O   UNL     1       5.511  -1.448  45.771  1.00  0.00    -0.550 OA
ENDROOT
TORSDOF 0
ENDMDL
MODEL 4
REMARK VINA RESULT:    -2.256     11.016     11.491
REMARK INTER + INTRA:          -2.256
REMARK INTER:                  -2.256
REMARK INTRA:                   0.000
REMARK UNBOUND:                 0.000
REMARK SMILES CC(=O)[O-]
REMARK SMILES IDX 1 1 2 2 3 3 4 4
REMARK H PARENT
REMARK Flexibility Score: inf
ROOT
ATOM      1  C   UNL     1      -2.398   0.672  38.614  1.00  0.00     0.063 C 
ATOM      2  C   UNL     1      -2.063  -0.385  39.611  1.00  0.00     0.038 C 
ATOM      3  O   UNL     1      -0.889  -0.835  39.685  1.00  0.00    -0.550 OA
ATOM      4  O   UNL     1      -3.033  -0.838  40.497  1.00  0.00    -0.550 OA
ENDROOT
TORSDOF 0
ENDMDL
MODEL 5
REMARK VINA RESULT:    -2.235      1.691      1.958
REMARK INTER + INTRA:          -2.235
REMARK INTER:                  -2.235
REMARK INTRA:                   0.000
REMARK UNBOUND:                 0.000
REMARK SMILES CC(=O)[O-]
REMARK SMILES IDX 1 1 2 2 3 3 4 4
REMARK H PARENT
REMARK Flexibility Score: inf
ROOT
ATOM      1  C   UNL     1       5.839  -1.493  48.207  1.00  0.00     0.063 C 
ATOM      2  C   UNL     1       6.123  -0.848  46.893  1.00  0.00     0.038 C 
ATOM      3  O   UNL     1       5.558  -1.267  45.848  1.00  0.00    -0.550 OA
ATOM      4  O   UNL     1       6.968   0.252  46.827  1.00  0.00    -0.550 OA
ENDROOT
TORSDOF 0
ENDMDL
MODEL 6
REMARK VINA RESULT:    -2.228      1.625      1.764
REMARK INTER + INTRA:          -2.228
REMARK INTER:                  -2.228
REMARK INTRA:                   0.000
REMARK UNBOUND:                 0.000
REMARK SMILES CC(=O)[O-]
REMARK SMILES IDX 1 1 2 2 3 3 4 4
REMARK H PARENT
REMARK Flexibility Score: inf
ROOT
ATOM      1  C   UNL     1       6.596  -0.103  46.835  1.00  0.00     0.063 C 
ATOM      2  C   UNL     1       7.265  -1.242  47.525  1.00  0.00     0.038 C 
ATOM      3  O   UNL     1       8.059  -1.987  46.892  1.00  0.00    -0.550 OA
ATOM      4  O   UNL     1       7.058  -1.452  48.883  1.00  0.00    -0.550 OA
ENDROOT
TORSDOF 0
ENDMDL
MODEL 7
REMARK VINA RESULT:    -2.153     11.842     12.492
REMARK INTER + INTRA:          -2.153
REMARK INTER:                  -2.153
REMARK INTRA:                   0.000
REMARK UNBOUND:                 0.000
REMARK SMILES CC(=O)[O-]
REMARK SMILES IDX 1 1 2 2 3 3 4 4
REMARK H PARENT
REMARK Flexibility Score: inf
ROOT
ATOM      1  C   UNL     1      -1.958  -0.429  39.601  1.00  0.00     0.063 C 
ATOM      2  C   UNL     1      -2.564   0.776  38.965  1.00  0.00     0.038 C 
ATOM      3  O   UNL     1      -2.612   1.866  39.593  1.00  0.00    -0.550 OA
ATOM      4  O   UNL     1      -3.027   0.713  37.656  1.00  0.00    -0.550 OA
ENDROOT
TORSDOF 0
ENDMDL
MODEL 8
REMARK VINA RESULT:    -2.115     11.998     12.548
REMARK INTER + INTRA:          -2.115
REMARK INTER:                  -2.115
REMARK INTRA:                   0.000
REMARK UNBOUND:                 0.000
REMARK SMILES CC(=O)[O-]
REMARK SMILES IDX 1 1 2 2 3 3 4 4
REMARK H PARENT
REMARK Flexibility Score: inf
ROOT
ATOM      1  C   UNL     1      -2.449   2.549  38.902  1.00  0.00     0.063 C 
ATOM      2  C   UNL     1      -2.412   1.097  38.565  1.00  0.00     0.038 C 
ATOM      3  O   UNL     1      -3.081   0.656  37.594  1.00  0.00    -0.550 OA
ATOM      4  O   UNL     1      -1.595   0.235  39.287  1.00  0.00    -0.550 OA
ENDROOT
TORSDOF 0
ENDMDL
MODEL 9
REMARK VINA RESULT:    -2.066      2.902      3.250
REMARK INTER + INTRA:          -2.066
REMARK INTER:                  -2.066
REMARK INTRA:                   0.000
REMARK UNBOUND:                 0.000
REMARK SMILES CC(=O)[O-]
REMARK SMILES IDX 1 1 2 2 3 3 4 4
REMARK H PARENT
REMARK Flexibility Score: inf
ROOT
ATOM      1  C   UNL     1       9.644  -2.409  48.533  1.00  0.00     0.063 C 
ATOM      2  C   UNL     1       8.294  -2.027  48.030  1.00  0.00     0.038 C 
ATOM      3  O   UNL     1       7.424  -1.585  48.827  1.00  0.00    -0.550 OA
ATOM      4  O   UNL     1       8.009  -2.105  46.672  1.00  0.00    -0.550 OA
ENDROOT
TORSDOF 0
ENDMDL
