MODEL 1
REMARK VINA RESULT:     2.317      0.000      0.000
REMARK INTER + INTRA:           4.236
REMARK INTER:                   2.859
REMARK INTRA:                   1.377
REMARK UNBOUND:                 1.377
REMARK SMILES C=C1CC[C@@H]2[C@H]1[C@@H]1[C@@H](CC[C@H]2C)C1(C)C
REMARK SMILES IDX 6 1 5 2 4 3 3 4 2 5 1 6 11 7 12 8 10 9 7 11 8 12 13 13 14 14
REMARK SMILES IDX 15 15 9 16
REMARK H PARENT
REMARK Flexibility Score: 80.00
ROOT
ATOM      1  C   UNL     1     -15.917  -1.828  17.799  1.00  0.00     0.022 C 
ATOM      2  C   UNL     1     -15.854  -2.873  16.634  1.00  0.00    -0.000 C 
ATOM      3  C   UNL     1     -16.902  -2.351  15.629  1.00  0.00     0.009 C 
ATOM      4  C   UNL     1     -16.866  -0.831  15.734  1.00  0.00     0.031 C 
ATOM      5  C   UNL     1     -16.388  -0.580  17.122  1.00  0.00    -0.074 C 
ATOM      6  C   UNL     1     -16.477   0.615  17.719  1.00  0.00     0.008 C 
ENDROOT
BRANCH   2   7
ATOM      7  C   UNL     1     -14.479  -3.194  15.883  1.00  0.00    -0.011 C 
ATOM      8  C   UNL     1     -14.390  -4.700  15.586  1.00  0.00     0.008 C 
BRANCH   7   9
ATOM      9  C   UNL     1     -13.115  -2.693  16.456  1.00  0.00     0.004 CG0
ATOM     10  G   UNL     1     -12.761  -3.117  17.906  1.00  0.00     0.000 G0
ENDBRANCH   7   9
ENDBRANCH   2   7
BRANCH   1  11
ATOM     11  C   UNL     1     -14.602  -1.618  18.564  1.00  0.00     0.006 C 
ATOM     12  C   UNL     1     -13.986  -3.014  18.820  1.00  0.00    -0.001 C 
ATOM     13  C   UNL     1     -14.250  -2.058  19.981  1.00  0.00    -0.029 C 
ATOM     14  C   UNL     1     -15.417  -2.415  20.911  1.00  0.00     0.012 C 
ATOM     15  C   UNL     1     -13.025  -1.396  20.624  1.00  0.00     0.012 C 
BRANCH  12  16
ATOM     16  C   UNL     1     -12.769  -3.119  17.904  1.00  0.00     0.005 CG0
ATOM     17  G   UNL     1     -13.112  -2.685  16.454  1.00  0.00     0.000 G0
ENDBRANCH  12  16
ENDBRANCH   1  11
TORSDOF 0
ENDMDL
MODEL 2
REMARK VINA RESULT:     3.668      1.610      3.928
REMARK INTER + INTRA:           5.903
REMARK INTER:                   5.436
REMARK INTRA:                   0.467
REMARK UNBOUND:                 1.377
REMARK SMILES C=C1CC[C@@H]2[C@H]1[C@@H]1[C@@H](CC[C@H]2C)C1(C)C
REMARK SMILES IDX 6 1 5 2 4 3 3 4 2 5 1 6 11 7 12 8 10 9 7 11 8 12 13 13 14 14
REMARK SMILES IDX 15 15 9 16
REMARK H PARENT
REMARK Flexibility Score: 80.00
ROOT
ATOM      1  C   UNL     1     -14.611  -1.339  17.892  1.00  0.00     0.022 C 
ATOM      2  C   UNL     1     -14.125  -2.380  16.827  1.00  0.00    -0.000 C 
ATOM      3  C   UNL     1     -12.999  -3.139  17.558  1.00  0.00     0.009 C 
ATOM      4  C   UNL     1     -13.407  -3.191  19.025  1.00  0.00     0.031 C 
ATOM      5  C   UNL     1     -14.277  -1.994  19.195  1.00  0.00    -0.074 C 
ATOM      6  C   UNL     1     -14.623  -1.509  20.394  1.00  0.00     0.008 C 
ENDROOT
BRANCH   2   7
ATOM      7  C   UNL     1     -15.144  -3.413  16.155  1.00  0.00    -0.011 C 
ATOM      8  C   UNL     1     -14.358  -4.510  15.418  1.00  0.00     0.008 C 
BRANCH   7   9
ATOM      9  C   UNL     1     -16.316  -2.913  15.251  1.00  0.00     0.004 CG0
ATOM     10  G   UNL     1     -17.203  -1.771  15.814  1.00  0.00     0.000 G0
ENDBRANCH   7   9
ENDBRANCH   2   7
BRANCH   1  11
ATOM     11  C   UNL     1     -16.092  -0.946  17.798  1.00  0.00     0.006 C 
ATOM     12  C   UNL     1     -16.388  -0.604  16.318  1.00  0.00    -0.001 C 
ATOM     13  C   UNL     1     -16.691   0.405  17.423  1.00  0.00    -0.029 C 
ATOM     14  C   UNL     1     -15.766   1.626  17.507  1.00  0.00     0.012 C 
ATOM     15  C   UNL     1     -18.168   0.625  17.772  1.00  0.00     0.012 C 
BRANCH  12  16
ATOM     16  C   UNL     1     -17.249  -1.745  15.781  1.00  0.00     0.005 CG0
ATOM     17  G   UNL     1     -16.377  -2.914  15.250  1.00  0.00     0.000 G0
ENDBRANCH  12  16
ENDBRANCH   1  11
TORSDOF 0
ENDMDL
