MODEL 1
REMARK VINA RESULT:    -3.635      0.000      0.000
REMARK INTER + INTRA:          -3.990
REMARK INTER:                  -3.954
REMARK INTRA:                  -0.036
REMARK UNBOUND:                -0.036
REMARK SMILES O=C([O-])c1ccc(O)cc1
REMARK SMILES IDX 7 1 6 2 9 3 5 4 10 5 4 6 8 7 2 9 1 10 3 11
REMARK H PARENT 8 8
REMARK Flexibility Score: inf
ROOT
ATOM      1  C   UNL     1     -93.870 147.535 238.493  1.00  0.00     0.115 A 
ATOM      2  C   UNL     1     -94.439 146.928 239.620  1.00  0.00     0.047 A 
ATOM      3  C   UNL     1     -94.282 148.814 238.112  1.00  0.00     0.047 A 
ATOM      4  C   UNL     1     -95.416 147.600 240.362  1.00  0.00     0.014 A 
ATOM      5  C   UNL     1     -95.258 149.490 238.852  1.00  0.00     0.014 A 
ATOM      6  C   UNL     1     -95.836 148.889 239.985  1.00  0.00    -0.003 A 
ENDROOT
BRANCH   1   7
ATOM      7  O   UNL     1     -92.896 146.875 237.747  1.00  0.00    -0.508 OA
ATOM      8  H   UNL     1     -93.110 146.037 237.220  1.00  0.00     0.293 HD
ENDBRANCH   1   7
BRANCH   6   9
ATOM      9  C   UNL     1     -96.869 149.605 240.765  1.00  0.00     0.071 C 
ATOM     10  O   UNL     1     -97.161 150.801 240.496  1.00  0.00    -0.545 OA
ATOM     11  O   UNL     1     -97.533 148.968 241.807  1.00  0.00    -0.545 OA
ENDBRANCH   6   9
TORSDOF 2
ENDMDL
MODEL 2
REMARK VINA RESULT:    -3.617      0.028      1.532
REMARK INTER + INTRA:          -3.970
REMARK INTER:                  -3.934
REMARK INTRA:                  -0.036
REMARK UNBOUND:                -0.036
REMARK SMILES O=C([O-])c1ccc(O)cc1
REMARK SMILES IDX 7 1 6 2 9 3 5 4 10 5 4 6 8 7 2 9 1 10 3 11
REMARK H PARENT 8 8
REMARK Flexibility Score: inf
ROOT
ATOM      1  C   UNL     1     -93.872 147.551 238.501  1.00  0.00     0.115 A 
ATOM      2  C   UNL     1     -94.277 148.838 238.126  1.00  0.00     0.047 A 
ATOM      3  C   UNL     1     -94.452 146.937 239.613  1.00  0.00     0.047 A 
ATOM      4  C   UNL     1     -95.261 149.507 238.861  1.00  0.00     0.014 A 
ATOM      5  C   UNL     1     -95.437 147.602 240.351  1.00  0.00     0.014 A 
ATOM      6  C   UNL     1     -95.851 148.895 239.983  1.00  0.00    -0.003 A 
ENDROOT
BRANCH   1   7
ATOM      7  O   UNL     1     -92.893 146.875 237.774  1.00  0.00    -0.508 OA
ATOM      8  H   UNL     1     -92.093 147.360 237.386  1.00  0.00     0.293 HD
ENDBRANCH   1   7
BRANCH   6   9
ATOM      9  C   UNL     1     -96.892 149.597 240.766  1.00  0.00     0.071 C 
ATOM     10  O   UNL     1     -97.216 150.781 240.483  1.00  0.00    -0.545 OA
ATOM     11  O   UNL     1     -97.527 148.959 241.825  1.00  0.00    -0.545 OA
ENDBRANCH   6   9
TORSDOF 2
ENDMDL
MODEL 3
REMARK VINA RESULT:    -3.610      0.082      1.841
REMARK INTER + INTRA:          -3.962
REMARK INTER:                  -3.926
REMARK INTRA:                  -0.036
REMARK UNBOUND:                -0.036
REMARK SMILES O=C([O-])c1ccc(O)cc1
REMARK SMILES IDX 7 1 6 2 9 3 5 4 10 5 4 6 8 7 2 9 1 10 3 11
REMARK H PARENT 8 8
REMARK Flexibility Score: inf
ROOT
ATOM      1  C   UNL     1     -93.861 147.548 238.512  1.00  0.00     0.115 A 
ATOM      2  C   UNL     1     -94.264 148.836 238.137  1.00  0.00     0.047 A 
ATOM      3  C   UNL     1     -94.453 146.931 239.617  1.00  0.00     0.047 A 
ATOM      4  C   UNL     1     -95.256 149.501 238.863  1.00  0.00     0.014 A 
ATOM      5  C   UNL     1     -95.446 147.593 240.346  1.00  0.00     0.014 A 
ATOM      6  C   UNL     1     -95.858 148.886 239.977  1.00  0.00    -0.003 A 
ENDROOT
BRANCH   1   7
ATOM      7  O   UNL     1     -92.873 146.875 237.795  1.00  0.00    -0.508 OA
ATOM      8  H   UNL     1     -92.975 145.899 237.542  1.00  0.00     0.293 HD
ENDBRANCH   1   7
BRANCH   6   9
ATOM      9  C   UNL     1     -96.907 149.585 240.751  1.00  0.00     0.071 C 
ATOM     10  O   UNL     1     -97.439 149.034 241.752  1.00  0.00    -0.545 OA
ATOM     11  O   UNL     1     -97.322 150.859 240.383  1.00  0.00    -0.545 OA
ENDBRANCH   6   9
TORSDOF 2
ENDMDL
MODEL 4
REMARK VINA RESULT:    -3.533      1.382      4.575
REMARK INTER + INTRA:          -3.878
REMARK INTER:                  -3.842
REMARK INTRA:                  -0.036
REMARK UNBOUND:                -0.036
REMARK SMILES O=C([O-])c1ccc(O)cc1
REMARK SMILES IDX 7 1 6 2 9 3 5 4 10 5 4 6 8 7 2 9 1 10 3 11
REMARK H PARENT 8 8
REMARK Flexibility Score: inf
ROOT
ATOM      1  C   UNL     1     -97.631 149.339 241.549  1.00  0.00     0.115 A 
ATOM      2  C   UNL     1     -96.981 150.288 240.749  1.00  0.00     0.047 A 
ATOM      3  C   UNL     1     -97.241 147.999 241.491  1.00  0.00     0.047 A 
ATOM      4  C   UNL     1     -95.943 149.896 239.897  1.00  0.00     0.014 A 
ATOM      5  C   UNL     1     -96.204 147.603 240.641  1.00  0.00     0.014 A 
ATOM      6  C   UNL     1     -95.544 148.547 239.834  1.00  0.00    -0.003 A 
ENDROOT
BRANCH   1   7
ATOM      7  O   UNL     1     -98.666 149.719 242.402  1.00  0.00    -0.508 OA
ATOM      8  H   UNL     1     -99.395 149.070 242.671  1.00  0.00     0.293 HD
ENDBRANCH   1   7
BRANCH   6   9
ATOM      9  C   UNL     1     -94.448 148.126 238.934  1.00  0.00     0.071 C 
ATOM     10  O   UNL     1     -94.006 146.947 238.973  1.00  0.00    -0.545 OA
ATOM     11  O   UNL     1     -93.891 149.026 238.033  1.00  0.00    -0.545 OA
ENDBRANCH   6   9
TORSDOF 2
ENDMDL
MODEL 5
REMARK VINA RESULT:    -3.465      1.917      2.901
REMARK INTER + INTRA:          -3.805
REMARK INTER:                  -3.778
REMARK INTRA:                  -0.027
REMARK UNBOUND:                -0.036
REMARK SMILES O=C([O-])c1ccc(O)cc1
REMARK SMILES IDX 7 1 6 2 9 3 5 4 10 5 4 6 8 7 2 9 1 10 3 11
REMARK H PARENT 8 8
REMARK Flexibility Score: inf
ROOT
ATOM      1  C   UNL     1     -95.446 148.507 239.880  1.00  0.00     0.115 A 
ATOM      2  C   UNL     1     -95.732 149.877 239.811  1.00  0.00     0.047 A 
ATOM      3  C   UNL     1     -96.232 147.675 240.680  1.00  0.00     0.047 A 
ATOM      4  C   UNL     1     -96.802 150.409 240.538  1.00  0.00     0.014 A 
ATOM      5  C   UNL     1     -97.302 148.202 241.410  1.00  0.00     0.014 A 
ATOM      6  C   UNL     1     -97.598 149.576 241.347  1.00  0.00    -0.003 A 
ENDROOT
BRANCH   1   7
ATOM      7  O   UNL     1     -94.384 147.966 239.159  1.00  0.00    -0.508 OA
ATOM      8  H   UNL     1     -94.339 146.978 238.943  1.00  0.00     0.293 HD
ENDBRANCH   1   7
BRANCH   6   9
ATOM      9  C   UNL     1     -98.730 150.132 242.120  1.00  0.00     0.071 C 
ATOM     10  O   UNL     1     -98.587 150.442 243.333  1.00  0.00    -0.545 OA
ATOM     11  O   UNL     1     -99.968 150.322 241.517  1.00  0.00    -0.545 OA
ENDBRANCH   6   9
TORSDOF 2
ENDMDL
MODEL 6
REMARK VINA RESULT:    -3.463      1.348      1.809
REMARK INTER + INTRA:          -3.802
REMARK INTER:                  -3.773
REMARK INTRA:                  -0.030
REMARK UNBOUND:                -0.036
REMARK SMILES O=C([O-])c1ccc(O)cc1
REMARK SMILES IDX 7 1 6 2 9 3 5 4 10 5 4 6 8 7 2 9 1 10 3 11
REMARK H PARENT 8 8
REMARK Flexibility Score: inf
ROOT
ATOM      1  C   UNL     1     -94.752 148.527 237.580  1.00  0.00     0.115 A 
ATOM      2  C   UNL     1     -96.097 148.746 237.255  1.00  0.00     0.047 A 
ATOM      3  C   UNL     1     -94.281 148.866 238.850  1.00  0.00     0.047 A 
ATOM      4  C   UNL     1     -96.966 149.301 238.199  1.00  0.00     0.014 A 
ATOM      5  C   UNL     1     -95.147 149.421 239.798  1.00  0.00     0.014 A 
ATOM      6  C   UNL     1     -96.499 149.645 239.482  1.00  0.00    -0.003 A 
ENDROOT
BRANCH   1   7
ATOM      7  O   UNL     1     -93.877 147.974 236.646  1.00  0.00    -0.508 OA
ATOM      8  H   UNL     1     -94.043 147.060 236.242  1.00  0.00     0.293 HD
ENDBRANCH   1   7
BRANCH   6   9
ATOM      9  C   UNL     1     -97.414 150.233 240.486  1.00  0.00     0.071 C 
ATOM     10  O   UNL     1     -98.087 151.263 240.213  1.00  0.00    -0.545 OA
ATOM     11  O   UNL     1     -97.543 149.657 241.744  1.00  0.00    -0.545 OA
ENDBRANCH   6   9
TORSDOF 2
ENDMDL
MODEL 7
REMARK VINA RESULT:    -3.446      1.618      4.573
REMARK INTER + INTRA:          -3.784
REMARK INTER:                  -3.751
REMARK INTRA:                  -0.033
REMARK UNBOUND:                -0.036
REMARK SMILES O=C([O-])c1ccc(O)cc1
REMARK SMILES IDX 7 1 6 2 9 3 5 4 10 5 4 6 8 7 2 9 1 10 3 11
REMARK H PARENT 8 8
REMARK Flexibility Score: inf
ROOT
ATOM      1  C   UNL     1     -96.488 150.019 239.899  1.00  0.00     0.115 A 
ATOM      2  C   UNL     1     -97.169 149.692 238.720  1.00  0.00     0.047 A 
ATOM      3  C   UNL     1     -95.128 149.723 240.019  1.00  0.00     0.047 A 
ATOM      4  C   UNL     1     -96.490 149.073 237.665  1.00  0.00     0.014 A 
ATOM      5  C   UNL     1     -94.445 149.104 238.968  1.00  0.00     0.014 A 
ATOM      6  C   UNL     1     -95.120 148.772 237.779  1.00  0.00    -0.003 A 
ENDROOT
BRANCH   1   7
ATOM      7  O   UNL     1     -97.154 150.637 240.956  1.00  0.00    -0.508 OA
ATOM      8  H   UNL     1     -96.675 150.877 241.816  1.00  0.00     0.293 HD
ENDBRANCH   1   7
BRANCH   6   9
ATOM      9  C   UNL     1     -94.396 148.116 236.667  1.00  0.00     0.071 C 
ATOM     10  O   UNL     1     -93.430 147.342 236.901  1.00  0.00    -0.545 OA
ATOM     11  O   UNL     1     -94.773 148.346 235.349  1.00  0.00    -0.545 OA
ENDBRANCH   6   9
TORSDOF 2
ENDMDL
MODEL 8
REMARK VINA RESULT:    -3.442      1.584      4.420
REMARK INTER + INTRA:          -3.779
REMARK INTER:                  -3.746
REMARK INTRA:                  -0.033
REMARK UNBOUND:                -0.036
REMARK SMILES O=C([O-])c1ccc(O)cc1
REMARK SMILES IDX 7 1 6 2 9 3 5 4 10 5 4 6 8 7 2 9 1 10 3 11
REMARK H PARENT 8 8
REMARK Flexibility Score: inf
ROOT
ATOM      1  C   UNL     1     -96.484 149.997 239.914  1.00  0.00     0.115 A 
ATOM      2  C   UNL     1     -95.121 149.699 240.036  1.00  0.00     0.047 A 
ATOM      3  C   UNL     1     -97.161 149.676 238.736  1.00  0.00     0.047 A 
ATOM      4  C   UNL     1     -94.440 149.081 238.982  1.00  0.00     0.014 A 
ATOM      5  C   UNL     1     -96.484 149.059 237.679  1.00  0.00     0.014 A 
ATOM      6  C   UNL     1     -95.115 148.755 237.791  1.00  0.00    -0.003 A 
ENDROOT
BRANCH   1   7
ATOM      7  O   UNL     1     -97.173 150.611 240.959  1.00  0.00    -0.508 OA
ATOM      8  H   UNL     1     -97.156 151.616 241.086  1.00  0.00     0.293 HD
ENDBRANCH   1   7
BRANCH   6   9
ATOM      9  C   UNL     1     -94.400 148.102 236.672  1.00  0.00     0.071 C 
ATOM     10  O   UNL     1     -94.736 148.329 235.479  1.00  0.00    -0.545 OA
ATOM     11  O   UNL     1     -93.348 147.230 236.922  1.00  0.00    -0.545 OA
ENDBRANCH   6   9
TORSDOF 2
ENDMDL
MODEL 9
REMARK VINA RESULT:    -3.316      1.813      2.455
REMARK INTER + INTRA:          -3.642
REMARK INTER:                  -3.611
REMARK INTRA:                  -0.031
REMARK UNBOUND:                -0.036
REMARK SMILES O=C([O-])c1ccc(O)cc1
REMARK SMILES IDX 7 1 6 2 9 3 5 4 10 5 4 6 8 7 2 9 1 10 3 11
REMARK H PARENT 8 8
REMARK Flexibility Score: inf
ROOT
ATOM      1  C   UNL     1     -93.901 147.600 236.029  1.00  0.00     0.115 A 
ATOM      2  C   UNL     1     -93.371 147.063 237.209  1.00  0.00     0.047 A 
ATOM      3  C   UNL     1     -94.919 148.555 236.098  1.00  0.00     0.047 A 
ATOM      4  C   UNL     1     -93.857 147.482 238.452  1.00  0.00     0.014 A 
ATOM      5  C   UNL     1     -95.408 148.976 237.338  1.00  0.00     0.014 A 
ATOM      6  C   UNL     1     -94.882 148.443 238.529  1.00  0.00    -0.003 A 
ENDROOT
BRANCH   1   7
ATOM      7  O   UNL     1     -93.424 147.191 234.785  1.00  0.00    -0.508 OA
ATOM      8  H   UNL     1     -93.660 147.692 233.937  1.00  0.00     0.293 HD
ENDBRANCH   1   7
BRANCH   6   9
ATOM      9  C   UNL     1     -95.401 148.890 239.841  1.00  0.00     0.071 C 
ATOM     10  O   UNL     1     -95.627 148.056 240.758  1.00  0.00    -0.545 OA
ATOM     11  O   UNL     1     -95.647 150.237 240.080  1.00  0.00    -0.545 OA
ENDBRANCH   6   9
TORSDOF 2
ENDMDL
