MODEL 1
REMARK VINA RESULT:    28.693      0.000      0.000
REMARK INTER + INTRA:          70.742
REMARK INTER:                  72.304
REMARK INTRA:                  -1.562
REMARK UNBOUND:                -1.562
REMARK SMILES CCCCCCCCCCCCCCCCCCCCCCCCCCCC(=O)[O-]
REMARK SMILES IDX 15 1 16 2 17 3 18 4 19 5 20 6 21 7 22 8 23 9 24 10 25 11
REMARK SMILES IDX 26 12 27 13 28 14 29 15 30 16 14 17 13 18 12 19 11 20 10 21
REMARK SMILES IDX 9 22 8 23 7 24 6 25 5 26 4 27 3 28 2 29 1 30
REMARK H PARENT
REMARK Flexibility Score: inf
ROOT
ATOM      1  C   UNL     1      -7.885 -13.423  21.735  1.00  0.00     0.000 C 
ENDROOT
BRANCH   1   2
ATOM      2  C   UNL     1      -7.631 -12.077  22.443  1.00  0.00     0.000 C 
BRANCH   2   3
ATOM      3  C   UNL     1      -6.591 -12.129  23.576  1.00  0.00     0.000 C 
BRANCH   3   4
ATOM      4  C   UNL     1      -5.906 -10.776  23.817  1.00  0.00     0.000 C 
BRANCH   4   5
ATOM      5  C   UNL     1      -5.747 -10.495  25.316  1.00  0.00     0.000 C 
BRANCH   5   6
ATOM      6  C   UNL     1      -5.514  -9.001  25.573  1.00  0.00     0.000 C 
BRANCH   6   7
ATOM      7  C   UNL     1      -4.324  -8.481  24.752  1.00  0.00     0.000 C 
BRANCH   7   8
ATOM      8  C   UNL     1      -3.065  -9.346  24.920  1.00  0.00     0.000 C 
BRANCH   8   9
ATOM      9  C   UNL     1      -1.803  -8.668  24.356  1.00  0.00     0.000 C 
BRANCH   9  10
ATOM     10  C   UNL     1      -2.078  -7.904  23.051  1.00  0.00     0.000 C 
BRANCH  10  11
ATOM     11  C   UNL     1      -0.924  -8.030  22.040  1.00  0.00     0.000 C 
BRANCH  11  12
ATOM     12  C   UNL     1      -1.302  -7.504  20.646  1.00  0.00     0.006 C 
BRANCH  12  13
ATOM     13  C   UNL     1      -2.759  -7.033  20.566  1.00  0.00     0.053 C 
BRANCH  13  14
ATOM     14  C   UNL     1      -3.475  -7.731  19.454  1.00  0.00     0.041 C 
ATOM     15  O   UNL     1      -4.723  -7.616  19.334  1.00  0.00    -0.550 OA
ATOM     16  O   UNL     1      -2.771  -8.547  18.579  1.00  0.00    -0.550 OA
ENDBRANCH  13  14
ENDBRANCH  12  13
ENDBRANCH  11  12
ENDBRANCH  10  11
ENDBRANCH   9  10
ENDBRANCH   8   9
ENDBRANCH   7   8
ENDBRANCH   6   7
ENDBRANCH   5   6
ENDBRANCH   4   5
ENDBRANCH   3   4
ENDBRANCH   2   3
ENDBRANCH   1   2
BRANCH   1  17
ATOM     17  C   UNL     1      -8.969 -13.392  20.640  1.00  0.00     0.000 C 
BRANCH  17  18
ATOM     18  C   UNL     1      -9.060 -14.664  19.775  1.00  0.00     0.000 C 
BRANCH  18  19
ATOM     19  C   UNL     1      -8.751 -14.398  18.292  1.00  0.00     0.000 C 
BRANCH  19  20
ATOM     20  C   UNL     1      -9.184 -15.556  17.378  1.00  0.00     0.000 C 
BRANCH  20  21
ATOM     21  C   UNL     1     -10.271 -16.438  18.012  1.00  0.00     0.000 C 
BRANCH  21  22
ATOM     22  C   UNL     1      -9.957 -17.925  17.807  1.00  0.00    -0.000 C 
BRANCH  22  23
ATOM     23  C   UNL     1      -8.847 -18.118  16.761  1.00  0.00    -0.000 C 
BRANCH  23  24
ATOM     24  C   UNL     1      -8.040 -19.410  16.981  1.00  0.00    -0.000 C 
BRANCH  24  25
ATOM     25  C   UNL     1      -6.512 -19.232  16.895  1.00  0.00    -0.000 C 
BRANCH  25  26
ATOM     26  C   UNL     1      -5.852 -20.230  15.928  1.00  0.00    -0.000 C 
BRANCH  26  27
ATOM     27  C   UNL     1      -6.696 -20.461  14.657  1.00  0.00    -0.000 C 
BRANCH  27  28
ATOM     28  C   UNL     1      -5.959 -20.143  13.341  1.00  0.00    -0.000 C 
BRANCH  28  29
ATOM     29  C   UNL     1      -6.045 -18.666  12.910  1.00  0.00    -0.003 C 
ATOM     30  C   UNL     1      -7.463 -18.256  12.506  1.00  0.00     0.004 C 
ENDBRANCH  28  29
ENDBRANCH  27  28
ENDBRANCH  26  27
ENDBRANCH  25  26
ENDBRANCH  24  25
ENDBRANCH  23  24
ENDBRANCH  22  23
ENDBRANCH  21  22
ENDBRANCH  20  21
ENDBRANCH  19  20
ENDBRANCH  18  19
ENDBRANCH  17  18
ENDBRANCH   1  17
TORSDOF 26
ENDMDL
MODEL 2
REMARK VINA RESULT:    29.390      4.116      5.921
REMARK INTER + INTRA:          72.499
REMARK INTER:                  72.987
REMARK INTRA:                  -0.488
REMARK UNBOUND:                -1.562
REMARK SMILES CCCCCCCCCCCCCCCCCCCCCCCCCCCC(=O)[O-]
REMARK SMILES IDX 15 1 16 2 17 3 18 4 19 5 20 6 21 7 22 8 23 9 24 10 25 11
REMARK SMILES IDX 26 12 27 13 28 14 29 15 30 16 14 17 13 18 12 19 11 20 10 21
REMARK SMILES IDX 9 22 8 23 7 24 6 25 5 26 4 27 3 28 2 29 1 30
REMARK H PARENT
REMARK Flexibility Score: inf
ROOT
ATOM      1  C   UNL     1      -8.243 -14.197  20.698  1.00  0.00     0.000 C 
ENDROOT
BRANCH   1   2
ATOM      2  C   UNL     1      -9.120 -12.996  21.103  1.00  0.00     0.000 C 
BRANCH   2   3
ATOM      3  C   UNL     1      -8.430 -11.972  22.022  1.00  0.00     0.000 C 
BRANCH   3   4
ATOM      4  C   UNL     1      -7.253 -12.573  22.803  1.00  0.00     0.000 C 
BRANCH   4   5
ATOM      5  C   UNL     1      -6.412 -11.477  23.469  1.00  0.00     0.000 C 
BRANCH   5   6
ATOM      6  C   UNL     1      -5.861 -11.951  24.819  1.00  0.00     0.000 C 
BRANCH   6   7
ATOM      7  C   UNL     1      -6.751 -13.050  25.422  1.00  0.00     0.000 C 
BRANCH   7   8
ATOM      8  C   UNL     1      -6.015 -13.902  26.467  1.00  0.00     0.000 C 
BRANCH   8   9
ATOM      9  C   UNL     1      -4.669 -14.442  25.949  1.00  0.00     0.000 C 
BRANCH   9  10
ATOM     10  C   UNL     1      -4.498 -15.946  26.212  1.00  0.00     0.000 C 
BRANCH  10  11
ATOM     11  C   UNL     1      -5.785 -16.743  25.936  1.00  0.00     0.000 C 
BRANCH  11  12
ATOM     12  C   UNL     1      -5.621 -18.246  26.218  1.00  0.00     0.006 C 
BRANCH  12  13
ATOM     13  C   UNL     1      -5.632 -19.092  24.939  1.00  0.00     0.053 C 
BRANCH  13  14
ATOM     14  C   UNL     1      -5.553 -18.214  23.731  1.00  0.00     0.041 C 
ATOM     15  O   UNL     1      -6.552 -18.088  22.974  1.00  0.00    -0.550 OA
ATOM     16  O   UNL     1      -4.362 -17.576  23.411  1.00  0.00    -0.550 OA
ENDBRANCH  13  14
ENDBRANCH  12  13
ENDBRANCH  11  12
ENDBRANCH  10  11
ENDBRANCH   9  10
ENDBRANCH   8   9
ENDBRANCH   7   8
ENDBRANCH   6   7
ENDBRANCH   5   6
ENDBRANCH   4   5
ENDBRANCH   3   4
ENDBRANCH   2   3
ENDBRANCH   1   2
BRANCH   1  17
ATOM     17  C   UNL     1      -8.400 -14.659  19.237  1.00  0.00     0.000 C 
BRANCH  17  18
ATOM     18  C   UNL     1      -8.932 -13.589  18.266  1.00  0.00     0.000 C 
BRANCH  18  19
ATOM     19  C   UNL     1     -10.024 -14.127  17.326  1.00  0.00     0.000 C 
BRANCH  19  20
ATOM     20  C   UNL     1      -9.923 -15.645  17.106  1.00  0.00     0.000 C 
BRANCH  20  21
ATOM     21  C   UNL     1      -9.930 -16.438  18.422  1.00  0.00     0.000 C 
BRANCH  21  22
ATOM     22  C   UNL     1      -9.976 -17.947  18.151  1.00  0.00    -0.000 C 
BRANCH  22  23
ATOM     23  C   UNL     1      -9.585 -18.261  16.698  1.00  0.00    -0.000 C 
BRANCH  23  24
ATOM     24  C   UNL     1      -8.489 -19.337  16.597  1.00  0.00    -0.000 C 
BRANCH  24  25
ATOM     25  C   UNL     1      -7.057 -18.813  16.821  1.00  0.00    -0.000 C 
BRANCH  25  26
ATOM     26  C   UNL     1      -5.982 -19.777  16.287  1.00  0.00    -0.000 C 
BRANCH  26  27
ATOM     27  C   UNL     1      -6.589 -20.943  15.480  1.00  0.00    -0.000 C 
BRANCH  27  28
ATOM     28  C   UNL     1      -6.372 -20.839  13.957  1.00  0.00    -0.000 C 
BRANCH  28  29
ATOM     29  C   UNL     1      -5.759 -19.502  13.498  1.00  0.00    -0.003 C 
ATOM     30  C   UNL     1      -6.801 -18.557  12.894  1.00  0.00     0.004 C 
ENDBRANCH  28  29
ENDBRANCH  27  28
ENDBRANCH  26  27
ENDBRANCH  25  26
ENDBRANCH  24  25
ENDBRANCH  23  24
ENDBRANCH  22  23
ENDBRANCH  21  22
ENDBRANCH  20  21
ENDBRANCH  19  20
ENDBRANCH  18  19
ENDBRANCH  17  18
ENDBRANCH   1  17
TORSDOF 26
ENDMDL
MODEL 3
REMARK VINA RESULT:    29.664      5.583      8.050
REMARK INTER + INTRA:          73.190
REMARK INTER:                  73.013
REMARK INTRA:                   0.178
REMARK UNBOUND:                -1.562
REMARK SMILES CCCCCCCCCCCCCCCCCCCCCCCCCCCC(=O)[O-]
REMARK SMILES IDX 15 1 16 2 17 3 18 4 19 5 20 6 21 7 22 8 23 9 24 10 25 11
REMARK SMILES IDX 26 12 27 13 28 14 29 15 30 16 14 17 13 18 12 19 11 20 10 21
REMARK SMILES IDX 9 22 8 23 7 24 6 25 5 26 4 27 3 28 2 29 1 30
REMARK H PARENT
REMARK Flexibility Score: inf
ROOT
ATOM      1  C   UNL     1      -9.523 -15.850  17.625  1.00  0.00     0.000 C 
ENDROOT
BRANCH   1   2
ATOM      2  C   UNL     1      -9.147 -15.692  19.112  1.00  0.00     0.000 C 
BRANCH   2   3
ATOM      3  C   UNL     1      -9.090 -14.238  19.613  1.00  0.00     0.000 C 
BRANCH   3   4
ATOM      4  C   UNL     1      -8.614 -14.129  21.069  1.00  0.00     0.000 C 
BRANCH   4   5
ATOM      5  C   UNL     1      -7.972 -12.763  21.340  1.00  0.00     0.000 C 
BRANCH   5   6
ATOM      6  C   UNL     1      -7.951 -12.454  22.842  1.00  0.00     0.000 C 
BRANCH   6   7
ATOM      7  C   UNL     1      -6.523 -12.152  23.322  1.00  0.00     0.000 C 
BRANCH   7   8
ATOM      8  C   UNL     1      -6.326 -12.446  24.817  1.00  0.00     0.000 C 
BRANCH   8   9
ATOM      9  C   UNL     1      -5.516 -13.732  25.065  1.00  0.00     0.000 C 
BRANCH   9  10
ATOM     10  C   UNL     1      -5.315 -14.022  26.561  1.00  0.00     0.000 C 
BRANCH  10  11
ATOM     11  C   UNL     1      -5.335 -15.528  26.877  1.00  0.00     0.000 C 
BRANCH  11  12
ATOM     12  C   UNL     1      -4.679 -16.372  25.771  1.00  0.00     0.006 C 
BRANCH  12  13
ATOM     13  C   UNL     1      -5.143 -17.834  25.790  1.00  0.00     0.053 C 
BRANCH  13  14
ATOM     14  C   UNL     1      -5.334 -18.339  24.395  1.00  0.00     0.041 C 
ATOM     15  O   UNL     1      -4.863 -17.697  23.420  1.00  0.00    -0.550 OA
ATOM     16  O   UNL     1      -6.074 -19.492  24.169  1.00  0.00    -0.550 OA
ENDBRANCH  13  14
ENDBRANCH  12  13
ENDBRANCH  11  12
ENDBRANCH  10  11
ENDBRANCH   9  10
ENDBRANCH   8   9
ENDBRANCH   7   8
ENDBRANCH   6   7
ENDBRANCH   5   6
ENDBRANCH   4   5
ENDBRANCH   3   4
ENDBRANCH   2   3
ENDBRANCH   1   2
BRANCH   1  17
ATOM     17  C   UNL     1     -10.162 -14.607  16.975  1.00  0.00     0.000 C 
BRANCH  17  18
ATOM     18  C   UNL     1      -9.751 -13.260  17.598  1.00  0.00     0.000 C 
BRANCH  18  19
ATOM     19  C   UNL     1      -9.919 -12.079  16.627  1.00  0.00     0.000 C 
BRANCH  19  20
ATOM     20  C   UNL     1      -9.746 -12.491  15.156  1.00  0.00     0.000 C 
BRANCH  20  21
ATOM     21  C   UNL     1      -9.795 -11.293  14.195  1.00  0.00     0.000 C 
BRANCH  21  22
ATOM     22  C   UNL     1      -9.257 -11.680  12.811  1.00  0.00    -0.000 C 
BRANCH  22  23
ATOM     23  C   UNL     1      -9.382 -13.193  12.572  1.00  0.00    -0.000 C 
BRANCH  23  24
ATOM     24  C   UNL     1     -10.697 -13.577  11.870  1.00  0.00    -0.000 C 
BRANCH  24  25
ATOM     25  C   UNL     1     -11.269 -12.488  10.943  1.00  0.00    -0.000 C 
BRANCH  25  26
ATOM     26  C   UNL     1     -11.930 -13.069   9.681  1.00  0.00    -0.000 C 
BRANCH  26  27
ATOM     27  C   UNL     1     -13.365 -13.568   9.947  1.00  0.00    -0.000 C 
BRANCH  27  28
ATOM     28  C   UNL     1     -13.665 -14.968   9.373  1.00  0.00    -0.000 C 
BRANCH  28  29
ATOM     29  C   UNL     1     -13.354 -15.113   7.870  1.00  0.00    -0.003 C 
ATOM     30  C   UNL     1     -13.171 -16.572   7.448  1.00  0.00     0.004 C 
ENDBRANCH  28  29
ENDBRANCH  27  28
ENDBRANCH  26  27
ENDBRANCH  25  26
ENDBRANCH  24  25
ENDBRANCH  23  24
ENDBRANCH  22  23
ENDBRANCH  21  22
ENDBRANCH  20  21
ENDBRANCH  19  20
ENDBRANCH  18  19
ENDBRANCH  17  18
ENDBRANCH   1  17
TORSDOF 26
ENDMDL
MODEL 4
REMARK VINA RESULT:    29.772      4.505     11.209
REMARK INTER + INTRA:          73.462
REMARK INTER:                  74.512
REMARK INTRA:                  -1.051
REMARK UNBOUND:                -1.562
REMARK SMILES CCCCCCCCCCCCCCCCCCCCCCCCCCCC(=O)[O-]
REMARK SMILES IDX 15 1 16 2 17 3 18 4 19 5 20 6 21 7 22 8 23 9 24 10 25 11
REMARK SMILES IDX 26 12 27 13 28 14 29 15 30 16 14 17 13 18 12 19 11 20 10 21
REMARK SMILES IDX 9 22 8 23 7 24 6 25 5 26 4 27 3 28 2 29 1 30
REMARK H PARENT
REMARK Flexibility Score: inf
ROOT
ATOM      1  C   UNL     1      -6.301 -12.133  23.693  1.00  0.00     0.000 C 
ENDROOT
BRANCH   1   2
ATOM      2  C   UNL     1      -6.874 -12.661  22.363  1.00  0.00     0.000 C 
BRANCH   2   3
ATOM      3  C   UNL     1      -8.407 -12.593  22.246  1.00  0.00     0.000 C 
BRANCH   3   4
ATOM      4  C   UNL     1      -8.900 -12.741  20.800  1.00  0.00     0.000 C 
BRANCH   4   5
ATOM      5  C   UNL     1      -9.250 -14.199  20.480  1.00  0.00     0.000 C 
BRANCH   5   6
ATOM      6  C   UNL     1      -8.393 -14.729  19.323  1.00  0.00     0.000 C 
BRANCH   6   7
ATOM      7  C   UNL     1      -9.205 -14.790  18.021  1.00  0.00     0.000 C 
BRANCH   7   8
ATOM      8  C   UNL     1      -9.530 -13.397  17.459  1.00  0.00     0.000 C 
BRANCH   8   9
ATOM      9  C   UNL     1     -10.621 -13.437  16.372  1.00  0.00     0.000 C 
BRANCH   9  10
ATOM     10  C   UNL     1     -10.037 -13.398  14.951  1.00  0.00     0.000 C 
BRANCH  10  11
ATOM     11  C   UNL     1      -9.770 -11.963  14.463  1.00  0.00     0.000 C 
BRANCH  11  12
ATOM     12  C   UNL     1      -9.374 -11.909  12.978  1.00  0.00     0.006 C 
BRANCH  12  13
ATOM     13  C   UNL     1      -9.397 -13.290  12.310  1.00  0.00     0.053 C 
BRANCH  13  14
ATOM     14  C   UNL     1     -10.769 -13.604  11.804  1.00  0.00     0.041 C 
ATOM     15  O   UNL     1     -11.381 -14.621  12.224  1.00  0.00    -0.550 OA
ATOM     16  O   UNL     1     -11.351 -12.802  10.832  1.00  0.00    -0.550 OA
ENDBRANCH  13  14
ENDBRANCH  12  13
ENDBRANCH  11  12
ENDBRANCH  10  11
ENDBRANCH   9  10
ENDBRANCH   8   9
ENDBRANCH   7   8
ENDBRANCH   6   7
ENDBRANCH   5   6
ENDBRANCH   4   5
ENDBRANCH   3   4
ENDBRANCH   2   3
ENDBRANCH   1   2
BRANCH   1  17
ATOM     17  C   UNL     1      -6.266 -10.598  23.828  1.00  0.00     0.000 C 
BRANCH  17  18
ATOM     18  C   UNL     1      -6.084 -10.072  25.264  1.00  0.00     0.000 C 
BRANCH  18  19
ATOM     19  C   UNL     1      -5.250  -8.781  25.324  1.00  0.00     0.000 C 
BRANCH  19  20
ATOM     20  C   UNL     1      -3.738  -9.048  25.268  1.00  0.00     0.000 C 
BRANCH  20  21
ATOM     21  C   UNL     1      -3.043  -8.293  24.124  1.00  0.00     0.000 C 
BRANCH  21  22
ATOM     22  C   UNL     1      -1.522  -8.276  24.323  1.00  0.00    -0.000 C 
BRANCH  22  23
ATOM     23  C   UNL     1      -0.951  -9.703  24.343  1.00  0.00    -0.000 C 
BRANCH  23  24
ATOM     24  C   UNL     1      -1.188 -10.457  23.022  1.00  0.00    -0.000 C 
BRANCH  24  25
ATOM     25  C   UNL     1      -0.266 -10.027  21.865  1.00  0.00    -0.000 C 
BRANCH  25  26
ATOM     26  C   UNL     1      -1.015  -9.255  20.765  1.00  0.00    -0.000 C 
BRANCH  26  27
ATOM     27  C   UNL     1      -1.194  -7.763  21.115  1.00  0.00    -0.000 C 
BRANCH  27  28
ATOM     28  C   UNL     1      -2.643  -7.253  20.984  1.00  0.00    -0.000 C 
BRANCH  28  29
ATOM     29  C   UNL     1      -3.052  -6.877  19.546  1.00  0.00    -0.003 C 
ATOM     30  C   UNL     1      -4.178  -7.761  19.007  1.00  0.00     0.004 C 
ENDBRANCH  28  29
ENDBRANCH  27  28
ENDBRANCH  26  27
ENDBRANCH  25  26
ENDBRANCH  24  25
ENDBRANCH  23  24
ENDBRANCH  22  23
ENDBRANCH  21  22
ENDBRANCH  20  21
ENDBRANCH  19  20
ENDBRANCH  18  19
ENDBRANCH  17  18
ENDBRANCH   1  17
TORSDOF 26
ENDMDL
MODEL 5
REMARK VINA RESULT:    30.003      4.568      6.567
REMARK INTER + INTRA:          74.045
REMARK INTER:                  75.588
REMARK INTRA:                  -1.543
REMARK UNBOUND:                -1.562
REMARK SMILES CCCCCCCCCCCCCCCCCCCCCCCCCCCC(=O)[O-]
REMARK SMILES IDX 15 1 16 2 17 3 18 4 19 5 20 6 21 7 22 8 23 9 24 10 25 11
REMARK SMILES IDX 26 12 27 13 28 14 29 15 30 16 14 17 13 18 12 19 11 20 10 21
REMARK SMILES IDX 9 22 8 23 7 24 6 25 5 26 4 27 3 28 2 29 1 30
REMARK H PARENT
REMARK Flexibility Score: inf
ROOT
ATOM      1  C   UNL     1      -8.347 -14.049  18.690  1.00  0.00     0.000 C 
ENDROOT
BRANCH   1   2
ATOM      2  C   UNL     1      -8.515 -13.973  20.221  1.00  0.00     0.000 C 
BRANCH   2   3
ATOM      3  C   UNL     1      -8.263 -12.582  20.830  1.00  0.00     0.000 C 
BRANCH   3   4
ATOM      4  C   UNL     1      -8.468 -12.554  22.352  1.00  0.00     0.000 C 
BRANCH   4   5
ATOM      5  C   UNL     1      -7.220 -13.054  23.088  1.00  0.00     0.000 C 
BRANCH   5   6
ATOM      6  C   UNL     1      -6.257 -11.897  23.386  1.00  0.00     0.000 C 
BRANCH   6   7
ATOM      7  C   UNL     1      -6.266 -11.545  24.881  1.00  0.00     0.000 C 
BRANCH   7   8
ATOM      8  C   UNL     1      -6.847 -12.670  25.752  1.00  0.00     0.000 C 
BRANCH   8   9
ATOM      9  C   UNL     1      -5.770 -13.392  26.582  1.00  0.00     0.000 C 
BRANCH   9  10
ATOM     10  C   UNL     1      -5.151 -14.582  25.833  1.00  0.00     0.000 C 
BRANCH  10  11
ATOM     11  C   UNL     1      -4.909 -15.795  26.751  1.00  0.00     0.000 C 
BRANCH  11  12
ATOM     12  C   UNL     1      -5.736 -17.022  26.336  1.00  0.00     0.006 C 
BRANCH  12  13
ATOM     13  C   UNL     1      -4.896 -18.087  25.620  1.00  0.00     0.053 C 
BRANCH  13  14
ATOM     14  C   UNL     1      -5.431 -18.339  24.246  1.00  0.00     0.041 C 
ATOM     15  O   UNL     1      -6.473 -19.027  24.089  1.00  0.00    -0.550 OA
ATOM     16  O   UNL     1      -4.751 -17.855  23.136  1.00  0.00    -0.550 OA
ENDBRANCH  13  14
ENDBRANCH  12  13
ENDBRANCH  11  12
ENDBRANCH  10  11
ENDBRANCH   9  10
ENDBRANCH   8   9
ENDBRANCH   7   8
ENDBRANCH   6   7
ENDBRANCH   5   6
ENDBRANCH   4   5
ENDBRANCH   3   4
ENDBRANCH   2   3
ENDBRANCH   1   2
BRANCH   1  17
ATOM     17  C   UNL     1      -9.649 -13.892  17.881  1.00  0.00     0.000 C 
BRANCH  17  18
ATOM     18  C   UNL     1     -10.020 -15.099  16.998  1.00  0.00     0.000 C 
BRANCH  18  19
ATOM     19  C   UNL     1      -9.156 -16.337  17.290  1.00  0.00     0.000 C 
BRANCH  19  20
ATOM     20  C   UNL     1      -9.995 -17.595  17.564  1.00  0.00     0.000 C 
BRANCH  20  21
ATOM     21  C   UNL     1      -9.182 -18.893  17.425  1.00  0.00     0.000 C 
BRANCH  21  22
ATOM     22  C   UNL     1      -9.674 -19.720  16.230  1.00  0.00    -0.000 C 
BRANCH  22  23
ATOM     23  C   UNL     1      -8.732 -19.567  15.025  1.00  0.00    -0.000 C 
BRANCH  23  24
ATOM     24  C   UNL     1      -9.190 -20.387  13.805  1.00  0.00    -0.000 C 
BRANCH  24  25
ATOM     25  C   UNL     1     -10.681 -20.775  13.819  1.00  0.00    -0.000 C 
BRANCH  25  26
ATOM     26  C   UNL     1     -11.080 -21.646  12.614  1.00  0.00    -0.000 C 
BRANCH  26  27
ATOM     27  C   UNL     1     -10.319 -22.988  12.584  1.00  0.00    -0.000 C 
BRANCH  27  28
ATOM     28  C   UNL     1      -9.224 -23.071  11.502  1.00  0.00    -0.000 C 
BRANCH  28  29
ATOM     29  C   UNL     1      -9.381 -24.262  10.536  1.00  0.00    -0.003 C 
ATOM     30  C   UNL     1      -9.390 -25.608  11.264  1.00  0.00     0.004 C 
ENDBRANCH  28  29
ENDBRANCH  27  28
ENDBRANCH  26  27
ENDBRANCH  25  26
ENDBRANCH  24  25
ENDBRANCH  23  24
ENDBRANCH  22  23
ENDBRANCH  21  22
ENDBRANCH  20  21
ENDBRANCH  19  20
ENDBRANCH  18  19
ENDBRANCH  17  18
ENDBRANCH   1  17
TORSDOF 26
ENDMDL
MODEL 6
REMARK VINA RESULT:    30.235      3.816     11.927
REMARK INTER + INTRA:          74.629
REMARK INTER:                  74.578
REMARK INTRA:                   0.051
REMARK UNBOUND:                -1.562
REMARK SMILES CCCCCCCCCCCCCCCCCCCCCCCCCCCC(=O)[O-]
REMARK SMILES IDX 15 1 16 2 17 3 18 4 19 5 20 6 21 7 22 8 23 9 24 10 25 11
REMARK SMILES IDX 26 12 27 13 28 14 29 15 30 16 14 17 13 18 12 19 11 20 10 21
REMARK SMILES IDX 9 22 8 23 7 24 6 25 5 26 4 27 3 28 2 29 1 30
REMARK H PARENT
REMARK Flexibility Score: inf
ROOT
ATOM      1  C   UNL     1      -8.424 -13.944  21.109  1.00  0.00     0.000 C 
ENDROOT
BRANCH   1   2
ATOM      2  C   UNL     1      -8.994 -14.516  19.795  1.00  0.00     0.000 C 
BRANCH   2   3
ATOM      3  C   UNL     1      -8.588 -13.747  18.526  1.00  0.00     0.000 C 
BRANCH   3   4
ATOM      4  C   UNL     1      -9.692 -13.735  17.459  1.00  0.00     0.000 C 
BRANCH   4   5
ATOM      5  C   UNL     1     -10.039 -15.158  17.006  1.00  0.00     0.000 C 
BRANCH   5   6
ATOM      6  C   UNL     1      -9.297 -16.200  17.852  1.00  0.00     0.000 C 
BRANCH   6   7
ATOM      7  C   UNL     1     -10.133 -17.479  18.008  1.00  0.00     0.000 C 
BRANCH   7   8
ATOM      8  C   UNL     1      -9.672 -18.608  17.072  1.00  0.00     0.000 C 
BRANCH   8   9
ATOM      9  C   UNL     1      -8.523 -19.440  17.671  1.00  0.00     0.000 C 
BRANCH   9  10
ATOM     10  C   UNL     1      -7.359 -19.629  16.686  1.00  0.00     0.000 C 
BRANCH  10  11
ATOM     11  C   UNL     1      -7.321 -18.538  15.600  1.00  0.00     0.000 C 
BRANCH  11  12
ATOM     12  C   UNL     1      -7.549 -19.102  14.188  1.00  0.00     0.006 C 
BRANCH  12  13
ATOM     13  C   UNL     1      -6.239 -19.318  13.420  1.00  0.00     0.053 C 
BRANCH  13  14
ATOM     14  C   UNL     1      -5.699 -20.688  13.683  1.00  0.00     0.041 C 
ATOM     15  O   UNL     1      -4.709 -21.114  13.030  1.00  0.00    -0.550 OA
ATOM     16  O   UNL     1      -6.318 -21.513  14.611  1.00  0.00    -0.550 OA
ENDBRANCH  13  14
ENDBRANCH  12  13
ENDBRANCH  11  12
ENDBRANCH  10  11
ENDBRANCH   9  10
ENDBRANCH   8   9
ENDBRANCH   7   8
ENDBRANCH   6   7
ENDBRANCH   5   6
ENDBRANCH   4   5
ENDBRANCH   3   4
ENDBRANCH   2   3
ENDBRANCH   1   2
BRANCH   1  17
ATOM     17  C   UNL     1      -8.890 -12.518  21.459  1.00  0.00     0.000 C 
BRANCH  17  18
ATOM     18  C   UNL     1      -8.070 -11.812  22.555  1.00  0.00     0.000 C 
BRANCH  18  19
ATOM     19  C   UNL     1      -6.811 -12.600  22.957  1.00  0.00     0.000 C 
BRANCH  19  20
ATOM     20  C   UNL     1      -6.499 -12.495  24.458  1.00  0.00     0.000 C 
BRANCH  20  21
ATOM     21  C   UNL     1      -6.553 -11.048  24.976  1.00  0.00     0.000 C 
BRANCH  21  22
ATOM     22  C   UNL     1      -5.590 -10.150  24.189  1.00  0.00    -0.000 C 
BRANCH  22  23
ATOM     23  C   UNL     1      -4.689  -9.341  25.137  1.00  0.00    -0.000 C 
BRANCH  23  24
ATOM     24  C   UNL     1      -3.877  -8.257  24.404  1.00  0.00    -0.000 C 
BRANCH  24  25
ATOM     25  C   UNL     1      -2.398  -8.618  24.165  1.00  0.00    -0.000 C 
BRANCH  25  26
ATOM     26  C   UNL     1      -1.702  -7.655  23.187  1.00  0.00    -0.000 C 
BRANCH  26  27
ATOM     27  C   UNL     1      -1.943  -8.042  21.713  1.00  0.00    -0.000 C 
BRANCH  27  28
ATOM     28  C   UNL     1      -2.613  -6.938  20.871  1.00  0.00    -0.000 C 
BRANCH  28  29
ATOM     29  C   UNL     1      -2.945  -7.360  19.426  1.00  0.00    -0.003 C 
ATOM     30  C   UNL     1      -4.415  -7.744  19.251  1.00  0.00     0.004 C 
ENDBRANCH  28  29
ENDBRANCH  27  28
ENDBRANCH  26  27
ENDBRANCH  25  26
ENDBRANCH  24  25
ENDBRANCH  23  24
ENDBRANCH  22  23
ENDBRANCH  21  22
ENDBRANCH  20  21
ENDBRANCH  19  20
ENDBRANCH  18  19
ENDBRANCH  17  18
ENDBRANCH   1  17
TORSDOF 26
ENDMDL
MODEL 7
REMARK VINA RESULT:    30.265      3.422     12.146
REMARK INTER + INTRA:          74.704
REMARK INTER:                  76.064
REMARK INTRA:                  -1.360
REMARK UNBOUND:                -1.562
REMARK SMILES CCCCCCCCCCCCCCCCCCCCCCCCCCCC(=O)[O-]
REMARK SMILES IDX 15 1 16 2 17 3 18 4 19 5 20 6 21 7 22 8 23 9 24 10 25 11
REMARK SMILES IDX 26 12 27 13 28 14 29 15 30 16 14 17 13 18 12 19 11 20 10 21
REMARK SMILES IDX 9 22 8 23 7 24 6 25 5 26 4 27 3 28 2 29 1 30
REMARK H PARENT
REMARK Flexibility Score: inf
ROOT
ATOM      1  C   UNL     1      -8.052 -13.526  20.319  1.00  0.00     0.000 C 
ENDROOT
BRANCH   1   2
ATOM      2  C   UNL     1      -9.254 -14.141  19.574  1.00  0.00     0.000 C 
BRANCH   2   3
ATOM      3  C   UNL     1      -9.219 -13.976  18.045  1.00  0.00     0.000 C 
BRANCH   3   4
ATOM      4  C   UNL     1      -9.861 -15.158  17.305  1.00  0.00     0.000 C 
BRANCH   4   5
ATOM      5  C   UNL     1      -8.978 -16.409  17.386  1.00  0.00     0.000 C 
BRANCH   5   6
ATOM      6  C   UNL     1      -9.830 -17.676  17.519  1.00  0.00     0.000 C 
BRANCH   6   7
ATOM      7  C   UNL     1      -8.959 -18.938  17.421  1.00  0.00     0.000 C 
BRANCH   7   8
ATOM      8  C   UNL     1      -7.776 -18.769  16.455  1.00  0.00     0.000 C 
BRANCH   8   9
ATOM      9  C   UNL     1      -6.822 -19.977  16.471  1.00  0.00     0.000 C 
BRANCH   9  10
ATOM     10  C   UNL     1      -6.608 -20.577  15.073  1.00  0.00     0.000 C 
BRANCH  10  11
ATOM     11  C   UNL     1      -5.625 -19.752  14.222  1.00  0.00     0.000 C 
BRANCH  11  12
ATOM     12  C   UNL     1      -6.329 -18.960  13.109  1.00  0.00     0.006 C 
BRANCH  12  13
ATOM     13  C   UNL     1      -7.826 -19.277  13.013  1.00  0.00     0.053 C 
BRANCH  13  14
ATOM     14  C   UNL     1      -8.547 -18.184  12.291  1.00  0.00     0.041 C 
ATOM     15  O   UNL     1      -7.999 -17.062  12.132  1.00  0.00    -0.550 OA
ATOM     16  O   UNL     1      -9.843 -18.388  11.837  1.00  0.00    -0.550 OA
ENDBRANCH  13  14
ENDBRANCH  12  13
ENDBRANCH  11  12
ENDBRANCH  10  11
ENDBRANCH   9  10
ENDBRANCH   8   9
ENDBRANCH   7   8
ENDBRANCH   6   7
ENDBRANCH   5   6
ENDBRANCH   4   5
ENDBRANCH   3   4
ENDBRANCH   2   3
ENDBRANCH   1   2
BRANCH   1  17
ATOM     17  C   UNL     1      -8.261 -13.305  21.830  1.00  0.00     0.000 C 
BRANCH  17  18
ATOM     18  C   UNL     1      -7.638 -12.014  22.394  1.00  0.00     0.000 C 
BRANCH  18  19
ATOM     19  C   UNL     1      -6.367 -12.277  23.218  1.00  0.00     0.000 C 
BRANCH  19  20
ATOM     20  C   UNL     1      -6.663 -12.518  24.707  1.00  0.00     0.000 C 
BRANCH  20  21
ATOM     21  C   UNL     1      -6.615 -11.226  25.538  1.00  0.00     0.000 C 
BRANCH  21  22
ATOM     22  C   UNL     1      -5.875 -10.116  24.782  1.00  0.00    -0.000 C 
BRANCH  22  23
ATOM     23  C   UNL     1      -5.220  -9.123  25.756  1.00  0.00    -0.000 C 
BRANCH  23  24
ATOM     24  C   UNL     1      -4.056  -8.344  25.118  1.00  0.00    -0.000 C 
BRANCH  24  25
ATOM     25  C   UNL     1      -3.262  -9.134  24.060  1.00  0.00    -0.000 C 
BRANCH  25  26
ATOM     26  C   UNL     1      -1.773  -8.749  24.026  1.00  0.00    -0.000 C 
BRANCH  26  27
ATOM     27  C   UNL     1      -1.465  -7.690  22.947  1.00  0.00    -0.000 C 
BRANCH  27  28
ATOM     28  C   UNL     1      -2.660  -7.353  22.033  1.00  0.00    -0.000 C 
BRANCH  28  29
ATOM     29  C   UNL     1      -2.315  -7.316  20.531  1.00  0.00    -0.003 C 
ATOM     30  C   UNL     1      -3.561  -7.292  19.644  1.00  0.00     0.004 C 
ENDBRANCH  28  29
ENDBRANCH  27  28
ENDBRANCH  26  27
ENDBRANCH  25  26
ENDBRANCH  24  25
ENDBRANCH  23  24
ENDBRANCH  22  23
ENDBRANCH  21  22
ENDBRANCH  20  21
ENDBRANCH  19  20
ENDBRANCH  18  19
ENDBRANCH  17  18
ENDBRANCH   1  17
TORSDOF 26
ENDMDL
MODEL 8
REMARK VINA RESULT:    30.421      4.450      6.683
REMARK INTER + INTRA:          75.097
REMARK INTER:                  76.197
REMARK INTRA:                  -1.100
REMARK UNBOUND:                -1.562
REMARK SMILES CCCCCCCCCCCCCCCCCCCCCCCCCCCC(=O)[O-]
REMARK SMILES IDX 15 1 16 2 17 3 18 4 19 5 20 6 21 7 22 8 23 9 24 10 25 11
REMARK SMILES IDX 26 12 27 13 28 14 29 15 30 16 14 17 13 18 12 19 11 20 10 21
REMARK SMILES IDX 9 22 8 23 7 24 6 25 5 26 4 27 3 28 2 29 1 30
REMARK H PARENT
REMARK Flexibility Score: inf
ROOT
ATOM      1  C   UNL     1      -9.146 -14.349  18.304  1.00  0.00     0.000 C 
ENDROOT
BRANCH   1   2
ATOM      2  C   UNL     1      -9.361 -14.513  19.822  1.00  0.00     0.000 C 
BRANCH   2   3
ATOM      3  C   UNL     1      -8.302 -13.827  20.702  1.00  0.00     0.000 C 
BRANCH   3   4
ATOM      4  C   UNL     1      -8.719 -12.416  21.144  1.00  0.00     0.000 C 
BRANCH   4   5
ATOM      5  C   UNL     1      -8.329 -12.155  22.603  1.00  0.00     0.000 C 
BRANCH   5   6
ATOM      6  C   UNL     1      -6.823 -12.357  22.814  1.00  0.00     0.000 C 
BRANCH   6   7
ATOM      7  C   UNL     1      -6.470 -12.344  24.309  1.00  0.00     0.000 C 
BRANCH   7   8
ATOM      8  C   UNL     1      -5.721 -13.610  24.753  1.00  0.00     0.000 C 
BRANCH   8   9
ATOM      9  C   UNL     1      -5.580 -13.708  26.283  1.00  0.00     0.000 C 
BRANCH   9  10
ATOM     10  C   UNL     1      -4.631 -14.836  26.716  1.00  0.00     0.000 C 
BRANCH  10  11
ATOM     11  C   UNL     1      -5.348 -16.193  26.841  1.00  0.00     0.000 C 
BRANCH  11  12
ATOM     12  C   UNL     1      -4.743 -17.267  25.922  1.00  0.00     0.006 C 
BRANCH  12  13
ATOM     13  C   UNL     1      -5.782 -18.288  25.443  1.00  0.00     0.053 C 
BRANCH  13  14
ATOM     14  C   UNL     1      -5.697 -18.465  23.960  1.00  0.00     0.041 C 
ATOM     15  O   UNL     1      -4.934 -17.731  23.278  1.00  0.00    -0.550 OA
ATOM     16  O   UNL     1      -6.497 -19.405  23.325  1.00  0.00    -0.550 OA
ENDBRANCH  13  14
ENDBRANCH  12  13
ENDBRANCH  11  12
ENDBRANCH  10  11
ENDBRANCH   9  10
ENDBRANCH   8   9
ENDBRANCH   7   8
ENDBRANCH   6   7
ENDBRANCH   5   6
ENDBRANCH   4   5
ENDBRANCH   3   4
ENDBRANCH   2   3
ENDBRANCH   1   2
BRANCH   1  17
ATOM     17  C   UNL     1      -9.328 -15.634  17.474  1.00  0.00     0.000 C 
BRANCH  17  18
ATOM     18  C   UNL     1      -9.775 -16.872  18.274  1.00  0.00     0.000 C 
BRANCH  18  19
ATOM     19  C   UNL     1     -10.054 -18.091  17.379  1.00  0.00     0.000 C 
BRANCH  19  20
ATOM     20  C   UNL     1      -8.853 -19.044  17.281  1.00  0.00     0.000 C 
BRANCH  20  21
ATOM     21  C   UNL     1      -7.807 -18.579  16.256  1.00  0.00     0.000 C 
BRANCH  21  22
ATOM     22  C   UNL     1      -6.607 -19.534  16.227  1.00  0.00    -0.000 C 
BRANCH  22  23
ATOM     23  C   UNL     1      -6.537 -20.296  14.893  1.00  0.00    -0.000 C 
BRANCH  23  24
ATOM     24  C   UNL     1      -7.615 -19.841  13.892  1.00  0.00    -0.000 C 
BRANCH  24  25
ATOM     25  C   UNL     1      -9.009 -20.451  14.134  1.00  0.00    -0.000 C 
BRANCH  25  26
ATOM     26  C   UNL     1     -10.069 -19.918  13.154  1.00  0.00    -0.000 C 
BRANCH  26  27
ATOM     27  C   UNL     1     -11.044 -21.018  12.688  1.00  0.00    -0.000 C 
BRANCH  27  28
ATOM     28  C   UNL     1     -11.861 -20.651  11.434  1.00  0.00    -0.000 C 
BRANCH  28  29
ATOM     29  C   UNL     1     -11.340 -19.410  10.683  1.00  0.00    -0.003 C 
ATOM     30  C   UNL     1     -11.158 -19.664   9.185  1.00  0.00     0.004 C 
ENDBRANCH  28  29
ENDBRANCH  27  28
ENDBRANCH  26  27
ENDBRANCH  25  26
ENDBRANCH  24  25
ENDBRANCH  23  24
ENDBRANCH  22  23
ENDBRANCH  21  22
ENDBRANCH  20  21
ENDBRANCH  19  20
ENDBRANCH  18  19
ENDBRANCH  17  18
ENDBRANCH   1  17
TORSDOF 26
ENDMDL
MODEL 9
REMARK VINA RESULT:    30.444      3.194      5.575
REMARK INTER + INTRA:          75.154
REMARK INTER:                  76.413
REMARK INTRA:                  -1.259
REMARK UNBOUND:                -1.562
REMARK SMILES CCCCCCCCCCCCCCCCCCCCCCCCCCCC(=O)[O-]
REMARK SMILES IDX 15 1 16 2 17 3 18 4 19 5 20 6 21 7 22 8 23 9 24 10 25 11
REMARK SMILES IDX 26 12 27 13 28 14 29 15 30 16 14 17 13 18 12 19 11 20 10 21
REMARK SMILES IDX 9 22 8 23 7 24 6 25 5 26 4 27 3 28 2 29 1 30
REMARK H PARENT
REMARK Flexibility Score: inf
ROOT
ATOM      1  C   UNL     1      -9.691 -16.505  18.570  1.00  0.00     0.000 C 
ENDROOT
BRANCH   1   2
ATOM      2  C   UNL     1      -9.406 -15.262  17.704  1.00  0.00     0.000 C 
BRANCH   2   3
ATOM      3  C   UNL     1      -9.145 -13.968  18.496  1.00  0.00     0.000 C 
BRANCH   3   4
ATOM      4  C   UNL     1      -8.397 -14.219  19.814  1.00  0.00     0.000 C 
BRANCH   4   5
ATOM      5  C   UNL     1      -9.011 -13.408  20.961  1.00  0.00     0.000 C 
BRANCH   5   6
ATOM      6  C   UNL     1      -8.093 -12.247  21.366  1.00  0.00     0.000 C 
BRANCH   6   7
ATOM      7  C   UNL     1      -7.088 -12.690  22.439  1.00  0.00     0.000 C 
BRANCH   7   8
ATOM      8  C   UNL     1      -7.309 -11.984  23.787  1.00  0.00     0.000 C 
BRANCH   8   9
ATOM      9  C   UNL     1      -5.990 -11.552  24.452  1.00  0.00     0.000 C 
BRANCH   9  10
ATOM     10  C   UNL     1      -6.041 -10.110  24.980  1.00  0.00     0.000 C 
BRANCH  10  11
ATOM     11  C   UNL     1      -5.124  -9.160  24.190  1.00  0.00     0.000 C 
BRANCH  11  12
ATOM     12  C   UNL     1      -3.845  -8.796  24.962  1.00  0.00     0.006 C 
BRANCH  12  13
ATOM     13  C   UNL     1      -2.666  -8.475  24.035  1.00  0.00     0.053 C 
BRANCH  13  14
ATOM     14  C   UNL     1      -1.472  -9.295  24.405  1.00  0.00     0.041 C 
ATOM     15  O   UNL     1      -1.239 -10.379  23.807  1.00  0.00    -0.550 OA
ATOM     16  O   UNL     1      -0.643  -8.890  25.442  1.00  0.00    -0.550 OA
ENDBRANCH  13  14
ENDBRANCH  12  13
ENDBRANCH  11  12
ENDBRANCH  10  11
ENDBRANCH   9  10
ENDBRANCH   8   9
ENDBRANCH   7   8
ENDBRANCH   6   7
ENDBRANCH   5   6
ENDBRANCH   4   5
ENDBRANCH   3   4
ENDBRANCH   2   3
ENDBRANCH   1   2
BRANCH   1  17
ATOM     17  C   UNL     1     -10.309 -17.699  17.818  1.00  0.00     0.000 C 
BRANCH  17  18
ATOM     18  C   UNL     1      -9.435 -18.288  16.694  1.00  0.00     0.000 C 
BRANCH  18  19
ATOM     19  C   UNL     1      -8.287 -19.162  17.229  1.00  0.00     0.000 C 
BRANCH  19  20
ATOM     20  C   UNL     1      -6.955 -18.898  16.509  1.00  0.00     0.000 C 
BRANCH  20  21
ATOM     21  C   UNL     1      -6.548 -20.049  15.574  1.00  0.00     0.000 C 
BRANCH  21  22
ATOM     22  C   UNL     1      -6.889 -19.715  14.116  1.00  0.00    -0.000 C 
BRANCH  22  23
ATOM     23  C   UNL     1      -7.992 -20.640  13.578  1.00  0.00    -0.000 C 
BRANCH  23  24
ATOM     24  C   UNL     1      -9.407 -20.090  13.836  1.00  0.00    -0.000 C 
BRANCH  24  25
ATOM     25  C   UNL     1     -10.527 -20.826  13.076  1.00  0.00    -0.000 C 
BRANCH  25  26
ATOM     26  C   UNL     1     -10.388 -22.357  13.150  1.00  0.00    -0.000 C 
BRANCH  26  27
ATOM     27  C   UNL     1      -9.834 -22.959  11.842  1.00  0.00    -0.000 C 
BRANCH  27  28
ATOM     28  C   UNL     1      -9.844 -24.500  11.801  1.00  0.00    -0.000 C 
BRANCH  28  29
ATOM     29  C   UNL     1      -9.008 -25.106  10.656  1.00  0.00    -0.003 C 
ATOM     30  C   UNL     1      -9.794 -26.130   9.835  1.00  0.00     0.004 C 
ENDBRANCH  28  29
ENDBRANCH  27  28
ENDBRANCH  26  27
ENDBRANCH  25  26
ENDBRANCH  24  25
ENDBRANCH  23  24
ENDBRANCH  22  23
ENDBRANCH  21  22
ENDBRANCH  20  21
ENDBRANCH  19  20
ENDBRANCH  18  19
ENDBRANCH  17  18
ENDBRANCH   1  17
TORSDOF 26
ENDMDL
