MODEL 1
REMARK VINA RESULT:    -5.831      0.000      0.000
REMARK INTER + INTRA:          -7.195
REMARK INTER:                  -7.024
REMARK INTRA:                  -0.170
REMARK UNBOUND:                -0.170
REMARK SMILES O=c1c(O)c(-c2ccc(O)c(O)c2)oc2cc(O)cc(O)c12
REMARK SMILES IDX 5 1 3 2 2 3 1 4 22 5 20 6 19 7 17 8 16 9 15 10 14 11 6 12
REMARK SMILES IDX 7 13 8 14 9 15 13 16 11 17 10 18 12 20 4 22 21 24 18 26
REMARK H PARENT 10 19 12 21 4 23 21 25 18 27
REMARK Flexibility Score: inf
ROOT
ATOM      1  C   UNL     1       8.162  -5.082 -28.479  1.00  0.00     0.180 A 
ATOM      2  C   UNL     1       8.716  -4.504 -29.633  1.00  0.00     0.208 A 
ATOM      3  C   UNL     1      10.112  -4.490 -29.786  1.00  0.00     0.238 A 
ATOM      4  O   UNL     1      10.600  -4.020 -30.846  1.00  0.00    -0.285 OA
ATOM      5  C   UNL     1      10.936  -5.040 -28.774  1.00  0.00     0.111 A 
ATOM      6  C   UNL     1      12.363  -5.044 -28.805  1.00  0.00     0.134 A 
ATOM      7  C   UNL     1      13.073  -5.731 -27.813  1.00  0.00     0.093 A 
ATOM      8  C   UNL     1      12.409  -6.359 -26.756  1.00  0.00     0.123 A 
ATOM      9  C   UNL     1      11.019  -6.309 -26.685  1.00  0.00     0.094 A 
ATOM     10  C   UNL     1      10.281  -5.662 -27.679  1.00  0.00     0.146 A 
ATOM     11  O   UNL     1       8.958  -5.647 -27.579  1.00  0.00    -0.452 OA
ENDROOT
BRANCH   1  12
ATOM     12  C   UNL     1       6.701  -5.112 -28.235  1.00  0.00     0.025 A 
ATOM     13  C   UNL     1       5.881  -5.905 -29.050  1.00  0.00     0.016 A 
ATOM     14  C   UNL     1       4.505  -5.961 -28.825  1.00  0.00     0.051 A 
ATOM     15  C   UNL     1       3.922  -5.242 -27.775  1.00  0.00     0.157 A 
ATOM     16  C   UNL     1       6.123  -4.405 -27.166  1.00  0.00     0.062 A 
ATOM     17  C   UNL     1       4.743  -4.459 -26.930  1.00  0.00     0.158 A 
BRANCH  15  18
ATOM     18  O   UNL     1       2.539  -5.337 -27.608  1.00  0.00    -0.504 OA
ATOM     19  H   UNL     1       2.094  -5.680 -26.768  1.00  0.00     0.293 HD
ENDBRANCH  15  18
BRANCH  17  20
ATOM     20  O   UNL     1       4.238  -3.731 -25.852  1.00  0.00    -0.504 OA
ATOM     21  H   UNL     1       3.627  -4.116 -25.146  1.00  0.00     0.293 HD
ENDBRANCH  17  20
ENDBRANCH   1  12
BRANCH   2  22
ATOM     22  O   UNL     1       7.884  -3.987 -30.629  1.00  0.00    -0.502 OA
ATOM     23  H   UNL     1       8.188  -3.266 -31.274  1.00  0.00     0.293 HD
ENDBRANCH   2  22
BRANCH   6  24
ATOM     24  O   UNL     1      13.125  -4.371 -29.765  1.00  0.00    -0.507 OA
ATOM     25  H   UNL     1      13.530  -3.456 -29.639  1.00  0.00     0.293 HD
ENDBRANCH   6  24
BRANCH   8  26
ATOM     26  O   UNL     1      13.125  -7.027 -25.764  1.00  0.00    -0.508 OA
ATOM     27  H   UNL     1      13.250  -8.033 -25.786  1.00  0.00     0.293 HD
ENDBRANCH   8  26
TORSDOF 6
ENDMDL
MODEL 2
REMARK VINA RESULT:    -5.480      1.473      3.303
REMARK INTER + INTRA:          -6.772
REMARK INTER:                  -6.628
REMARK INTRA:                  -0.144
REMARK UNBOUND:                -0.170
REMARK SMILES O=c1c(O)c(-c2ccc(O)c(O)c2)oc2cc(O)cc(O)c12
REMARK SMILES IDX 5 1 3 2 2 3 1 4 22 5 20 6 19 7 17 8 16 9 15 10 14 11 6 12
REMARK SMILES IDX 7 13 8 14 9 15 13 16 11 17 10 18 12 20 4 22 21 24 18 26
REMARK H PARENT 10 19 12 21 4 23 21 25 18 27
REMARK Flexibility Score: inf
ROOT
ATOM      1  C   UNL     1       8.120  -4.929 -28.915  1.00  0.00     0.180 A 
ATOM      2  C   UNL     1       9.146  -5.492 -28.138  1.00  0.00     0.208 A 
ATOM      3  C   UNL     1      10.456  -5.501 -28.643  1.00  0.00     0.238 A 
ATOM      4  O   UNL     1      11.380  -5.957 -27.920  1.00  0.00    -0.285 OA
ATOM      5  C   UNL     1      10.720  -4.961 -29.925  1.00  0.00     0.111 A 
ATOM      6  C   UNL     1      12.002  -4.954 -30.552  1.00  0.00     0.134 A 
ATOM      7  C   UNL     1      12.174  -4.278 -31.766  1.00  0.00     0.093 A 
ATOM      8  C   UNL     1      11.095  -3.664 -32.407  1.00  0.00     0.123 A 
ATOM      9  C   UNL     1       9.827  -3.717 -31.832  1.00  0.00     0.094 A 
ATOM     10  C   UNL     1       9.632  -4.354 -30.604  1.00  0.00     0.146 A 
ATOM     11  O   UNL     1       8.410  -4.372 -30.086  1.00  0.00    -0.452 OA
ENDROOT
BRANCH   1  12
ATOM     12  C   UNL     1       6.710  -4.904 -28.462  1.00  0.00     0.025 A 
ATOM     13  C   UNL     1       5.748  -5.650 -29.158  1.00  0.00     0.016 A 
ATOM     14  C   UNL     1       4.418  -5.655 -28.735  1.00  0.00     0.051 A 
ATOM     15  C   UNL     1       4.024  -4.932 -27.604  1.00  0.00     0.157 A 
ATOM     16  C   UNL     1       6.323  -4.194 -27.312  1.00  0.00     0.062 A 
ATOM     17  C   UNL     1       4.991  -4.197 -26.878  1.00  0.00     0.158 A 
BRANCH  15  18
ATOM     18  O   UNL     1       2.677  -4.974 -27.239  1.00  0.00    -0.504 OA
ATOM     19  H   UNL     1       2.046  -5.721 -27.496  1.00  0.00     0.293 HD
ENDBRANCH  15  18
BRANCH  17  20
ATOM     20  O   UNL     1       4.678  -3.468 -25.730  1.00  0.00    -0.504 OA
ATOM     21  H   UNL     1       4.296  -3.875 -24.889  1.00  0.00     0.293 HD
ENDBRANCH  17  20
ENDBRANCH   1  12
BRANCH   2  22
ATOM     22  O   UNL     1       8.867  -5.998 -26.866  1.00  0.00    -0.502 OA
ATOM     23  H   UNL     1       8.061  -6.582 -26.677  1.00  0.00     0.293 HD
ENDBRANCH   2  22
BRANCH   6  24
ATOM     24  O   UNL     1      13.125  -5.614 -30.042  1.00  0.00    -0.507 OA
ATOM     25  H   UNL     1      13.215  -5.946 -29.094  1.00  0.00     0.293 HD
ENDBRANCH   6  24
BRANCH   8  26
ATOM     26  O   UNL     1      11.271  -3.007 -33.623  1.00  0.00    -0.508 OA
ATOM     27  H   UNL     1      10.979  -2.045 -33.753  1.00  0.00     0.293 HD
ENDBRANCH   8  26
TORSDOF 6
ENDMDL
MODEL 3
REMARK VINA RESULT:    -5.307      1.267      2.848
REMARK INTER + INTRA:          -6.563
REMARK INTER:                  -6.308
REMARK INTRA:                  -0.255
REMARK UNBOUND:                -0.170
REMARK SMILES O=c1c(O)c(-c2ccc(O)c(O)c2)oc2cc(O)cc(O)c12
REMARK SMILES IDX 5 1 3 2 2 3 1 4 22 5 20 6 19 7 17 8 16 9 15 10 14 11 6 12
REMARK SMILES IDX 7 13 8 14 9 15 13 16 11 17 10 18 12 20 4 22 21 24 18 26
REMARK H PARENT 10 19 12 21 4 23 21 25 18 27
REMARK Flexibility Score: inf
ROOT
ATOM      1  C   UNL     1       8.030  -5.527 -28.215  1.00  0.00     0.180 A 
ATOM      2  C   UNL     1       8.733  -6.269 -27.252  1.00  0.00     0.208 A 
ATOM      3  C   UNL     1      10.137  -6.259 -27.275  1.00  0.00     0.238 A 
ATOM      4  O   UNL     1      10.760  -6.882 -26.376  1.00  0.00    -0.285 OA
ATOM      5  C   UNL     1      10.819  -5.520 -28.271  1.00  0.00     0.111 A 
ATOM      6  C   UNL     1      12.239  -5.472 -28.413  1.00  0.00     0.134 A 
ATOM      7  C   UNL     1      12.809  -4.605 -29.353  1.00  0.00     0.093 A 
ATOM      8  C   UNL     1      12.010  -3.833 -30.199  1.00  0.00     0.123 A 
ATOM      9  C   UNL     1      10.622  -3.919 -30.109  1.00  0.00     0.094 A 
ATOM     10  C   UNL     1      10.024  -4.748 -29.156  1.00  0.00     0.146 A 
ATOM     11  O   UNL     1       8.699  -4.791 -29.096  1.00  0.00    -0.452 OA
ENDROOT
BRANCH   1  12
ATOM     12  C   UNL     1       6.550  -5.507 -28.271  1.00  0.00     0.025 A 
ATOM     13  C   UNL     1       5.886  -6.265 -29.246  1.00  0.00     0.016 A 
ATOM     14  C   UNL     1       4.491  -6.274 -29.303  1.00  0.00     0.051 A 
ATOM     15  C   UNL     1       3.732  -5.543 -28.382  1.00  0.00     0.157 A 
ATOM     16  C   UNL     1       5.792  -4.789 -27.330  1.00  0.00     0.062 A 
ATOM     17  C   UNL     1       4.391  -4.796 -27.378  1.00  0.00     0.158 A 
BRANCH  15  18
ATOM     18  O   UNL     1       2.342  -5.591 -28.499  1.00  0.00    -0.504 OA
ATOM     19  H   UNL     1       1.704  -5.311 -27.766  1.00  0.00     0.293 HD
ENDBRANCH  15  18
BRANCH  17  20
ATOM     20  O   UNL     1       3.703  -4.059 -26.412  1.00  0.00    -0.504 OA
ATOM     21  H   UNL     1       3.531  -3.067 -26.475  1.00  0.00     0.293 HD
ENDBRANCH  17  20
ENDBRANCH   1  12
BRANCH   2  22
ATOM     22  O   UNL     1       8.039  -6.973 -26.264  1.00  0.00    -0.502 OA
ATOM     23  H   UNL     1       7.063  -7.226 -26.359  1.00  0.00     0.293 HD
ENDBRANCH   2  22
BRANCH   6  24
ATOM     24  O   UNL     1      13.125  -6.269 -27.681  1.00  0.00    -0.507 OA
ATOM     25  H   UNL     1      13.948  -6.710 -28.060  1.00  0.00     0.293 HD
ENDBRANCH   6  24
BRANCH   8  26
ATOM     26  O   UNL     1      12.586  -2.985 -31.143  1.00  0.00    -0.508 OA
ATOM     27  H   UNL     1      12.443  -1.982 -31.112  1.00  0.00     0.293 HD
ENDBRANCH   8  26
TORSDOF 6
ENDMDL
MODEL 4
REMARK VINA RESULT:    -5.086      1.816      3.450
REMARK INTER + INTRA:          -6.297
REMARK INTER:                  -6.471
REMARK INTRA:                   0.175
REMARK UNBOUND:                -0.170
REMARK SMILES O=c1c(O)c(-c2ccc(O)c(O)c2)oc2cc(O)cc(O)c12
REMARK SMILES IDX 5 1 3 2 2 3 1 4 22 5 20 6 19 7 17 8 16 9 15 10 14 11 6 12
REMARK SMILES IDX 7 13 8 14 9 15 13 16 11 17 10 18 12 20 4 22 21 24 18 26
REMARK H PARENT 10 19 12 21 4 23 21 25 18 27
REMARK Flexibility Score: inf
ROOT
ATOM      1  C   UNL     1       7.673  -5.005 -29.597  1.00  0.00     0.180 A 
ATOM      2  C   UNL     1       8.498  -5.118 -28.466  1.00  0.00     0.208 A 
ATOM      3  C   UNL     1       9.867  -4.831 -28.590  1.00  0.00     0.238 A 
ATOM      4  O   UNL     1      10.591  -4.882 -27.561  1.00  0.00    -0.285 OA
ATOM      5  C   UNL     1      10.396  -4.450 -29.846  1.00  0.00     0.111 A 
ATOM      6  C   UNL     1      11.774  -4.175 -30.095  1.00  0.00     0.134 A 
ATOM      7  C   UNL     1      12.165  -3.680 -31.346  1.00  0.00     0.093 A 
ATOM      8  C   UNL     1      11.236  -3.512 -32.376  1.00  0.00     0.123 A 
ATOM      9  C   UNL     1       9.898  -3.835 -32.161  1.00  0.00     0.094 A 
ATOM     10  C   UNL     1       9.472  -4.297 -30.913  1.00  0.00     0.146 A 
ATOM     11  O   UNL     1       8.187  -4.582 -30.747  1.00  0.00    -0.452 OA
ENDROOT
BRANCH   1  12
ATOM     12  C   UNL     1       6.225  -5.315 -29.552  1.00  0.00     0.025 A 
ATOM     13  C   UNL     1       5.638  -6.024 -30.609  1.00  0.00     0.016 A 
ATOM     14  C   UNL     1       4.279  -6.342 -30.576  1.00  0.00     0.051 A 
ATOM     15  C   UNL     1       3.484  -5.974 -29.485  1.00  0.00     0.157 A 
ATOM     16  C   UNL     1       5.436  -4.962 -28.444  1.00  0.00     0.062 A 
ATOM     17  C   UNL     1       4.072  -5.281 -28.401  1.00  0.00     0.158 A 
BRANCH  15  18
ATOM     18  O   UNL     1       2.131  -6.317 -29.518  1.00  0.00    -0.504 OA
ATOM     19  H   UNL     1       1.676  -6.741 -30.315  1.00  0.00     0.293 HD
ENDBRANCH  15  18
BRANCH  17  20
ATOM     20  O   UNL     1       3.349  -4.899 -27.269  1.00  0.00    -0.504 OA
ATOM     21  H   UNL     1       3.374  -3.973 -26.869  1.00  0.00     0.293 HD
ENDBRANCH  17  20
ENDBRANCH   1  12
BRANCH   2  22
ATOM     22  O   UNL     1       7.952  -5.474 -27.230  1.00  0.00    -0.502 OA
ATOM     23  H   UNL     1       7.349  -6.280 -27.114  1.00  0.00     0.293 HD
ENDBRANCH   2  22
BRANCH   6  24
ATOM     24  O   UNL     1      12.795  -4.395 -29.165  1.00  0.00    -0.507 OA
ATOM     25  H   UNL     1      12.648  -4.577 -28.183  1.00  0.00     0.293 HD
ENDBRANCH   6  24
BRANCH   8  26
ATOM     26  O   UNL     1      11.636  -3.034 -33.623  1.00  0.00    -0.508 OA
ATOM     27  H   UNL     1      12.445  -3.414 -34.101  1.00  0.00     0.293 HD
ENDBRANCH   8  26
TORSDOF 6
ENDMDL
MODEL 5
REMARK VINA RESULT:    -5.030      2.166      6.916
REMARK INTER + INTRA:          -6.229
REMARK INTER:                  -6.525
REMARK INTRA:                   0.296
REMARK UNBOUND:                -0.170
REMARK SMILES O=c1c(O)c(-c2ccc(O)c(O)c2)oc2cc(O)cc(O)c12
REMARK SMILES IDX 5 1 3 2 2 3 1 4 22 5 20 6 19 7 17 8 16 9 15 10 14 11 6 12
REMARK SMILES IDX 7 13 8 14 9 15 13 16 11 17 10 18 12 20 4 22 21 24 18 26
REMARK H PARENT 10 19 12 21 4 23 21 25 18 27
REMARK Flexibility Score: inf
ROOT
ATOM      1  C   UNL     1       7.841  -4.621 -30.255  1.00  0.00     0.180 A 
ATOM      2  C   UNL     1       6.899  -5.253 -31.083  1.00  0.00     0.208 A 
ATOM      3  C   UNL     1       5.608  -5.493 -30.587  1.00  0.00     0.238 A 
ATOM      4  O   UNL     1       4.752  -6.009 -31.353  1.00  0.00    -0.285 OA
ATOM      5  C   UNL     1       5.280  -5.112 -29.264  1.00  0.00     0.111 A 
ATOM      6  C   UNL     1       4.015  -5.343 -28.644  1.00  0.00     0.134 A 
ATOM      7  C   UNL     1       3.759  -4.808 -27.376  1.00  0.00     0.093 A 
ATOM      8  C   UNL     1       4.746  -4.106 -26.678  1.00  0.00     0.123 A 
ATOM      9  C   UNL     1       6.004  -3.928 -27.249  1.00  0.00     0.094 A 
ATOM     10  C   UNL     1       6.277  -4.419 -28.529  1.00  0.00     0.146 A 
ATOM     11  O   UNL     1       7.485  -4.218 -29.041  1.00  0.00    -0.452 OA
ENDROOT
BRANCH   1  12
ATOM     12  C   UNL     1       9.230  -4.357 -30.698  1.00  0.00     0.025 A 
ATOM     13  C   UNL     1       9.482  -4.066 -32.045  1.00  0.00     0.016 A 
ATOM     14  C   UNL     1      10.780  -3.796 -32.479  1.00  0.00     0.051 A 
ATOM     15  C   UNL     1      11.850  -3.795 -31.576  1.00  0.00     0.157 A 
ATOM     16  C   UNL     1      10.297  -4.335 -29.783  1.00  0.00     0.062 A 
ATOM     17  C   UNL     1      11.604  -4.061 -30.209  1.00  0.00     0.158 A 
BRANCH  15  18
ATOM     18  O   UNL     1      13.125  -3.523 -32.076  1.00  0.00    -0.504 OA
ATOM     19  H   UNL     1      13.469  -3.867 -32.962  1.00  0.00     0.293 HD
ENDBRANCH  15  18
BRANCH  17  20
ATOM     20  O   UNL     1      12.616  -4.058 -29.247  1.00  0.00    -0.504 OA
ATOM     21  H   UNL     1      12.468  -3.844 -28.272  1.00  0.00     0.293 HD
ENDBRANCH  17  20
ENDBRANCH   1  12
BRANCH   2  22
ATOM     22  O   UNL     1       7.237  -5.600 -32.394  1.00  0.00    -0.502 OA
ATOM     23  H   UNL     1       6.985  -5.027 -33.191  1.00  0.00     0.293 HD
ENDBRANCH   2  22
BRANCH   6  24
ATOM     24  O   UNL     1       2.993  -6.107 -29.216  1.00  0.00    -0.507 OA
ATOM     25  H   UNL     1       2.030  -6.093 -28.919  1.00  0.00     0.293 HD
ENDBRANCH   6  24
BRANCH   8  26
ATOM     26  O   UNL     1       4.488  -3.591 -25.409  1.00  0.00    -0.508 OA
ATOM     27  H   UNL     1       5.157  -3.684 -24.653  1.00  0.00     0.293 HD
ENDBRANCH   8  26
TORSDOF 6
ENDMDL
MODEL 6
REMARK VINA RESULT:    -5.015      2.904      4.042
REMARK INTER + INTRA:          -6.212
REMARK INTER:                  -6.658
REMARK INTRA:                   0.447
REMARK UNBOUND:                -0.170
REMARK SMILES O=c1c(O)c(-c2ccc(O)c(O)c2)oc2cc(O)cc(O)c12
REMARK SMILES IDX 5 1 3 2 2 3 1 4 22 5 20 6 19 7 17 8 16 9 15 10 14 11 6 12
REMARK SMILES IDX 7 13 8 14 9 15 13 16 11 17 10 18 12 20 4 22 21 24 18 26
REMARK H PARENT 10 19 12 21 4 23 21 25 18 27
REMARK Flexibility Score: inf
ROOT
ATOM      1  C   UNL     1       7.544  -4.590 -30.247  1.00  0.00     0.180 A 
ATOM      2  C   UNL     1       7.067  -5.257 -31.387  1.00  0.00     0.208 A 
ATOM      3  C   UNL     1       7.906  -5.377 -32.507  1.00  0.00     0.238 A 
ATOM      4  O   UNL     1       7.493  -6.023 -33.505  1.00  0.00    -0.285 OA
ATOM      5  C   UNL     1       9.205  -4.816 -32.477  1.00  0.00     0.111 A 
ATOM      6  C   UNL     1      10.124  -4.843 -33.568  1.00  0.00     0.134 A 
ATOM      7  C   UNL     1      11.430  -4.371 -33.384  1.00  0.00     0.093 A 
ATOM      8  C   UNL     1      11.828  -3.813 -32.166  1.00  0.00     0.123 A 
ATOM      9  C   UNL     1      10.920  -3.727 -31.114  1.00  0.00     0.094 A 
ATOM     10  C   UNL     1       9.621  -4.222 -31.257  1.00  0.00     0.146 A 
ATOM     11  O   UNL     1       8.791  -4.131 -30.226  1.00  0.00    -0.452 OA
ENDROOT
BRANCH   1  12
ATOM     12  C   UNL     1       6.711  -4.401 -29.037  1.00  0.00     0.025 A 
ATOM     13  C   UNL     1       7.121  -3.493 -28.051  1.00  0.00     0.016 A 
ATOM     14  C   UNL     1       6.340  -3.287 -26.913  1.00  0.00     0.051 A 
ATOM     15  C   UNL     1       5.129  -3.968 -26.742  1.00  0.00     0.157 A 
ATOM     16  C   UNL     1       5.485  -5.071 -28.881  1.00  0.00     0.062 A 
ATOM     17  C   UNL     1       4.693  -4.867 -27.744  1.00  0.00     0.158 A 
BRANCH  15  18
ATOM     18  O   UNL     1       4.400  -3.720 -25.578  1.00  0.00    -0.504 OA
ATOM     19  H   UNL     1       3.399  -3.579 -25.559  1.00  0.00     0.293 HD
ENDBRANCH  15  18
BRANCH  17  20
ATOM     20  O   UNL     1       3.488  -5.567 -27.654  1.00  0.00    -0.504 OA
ATOM     21  H   UNL     1       2.938  -5.639 -26.811  1.00  0.00     0.293 HD
ENDBRANCH  17  20
ENDBRANCH   1  12
BRANCH   2  22
ATOM     22  O   UNL     1       5.790  -5.823 -31.387  1.00  0.00    -0.502 OA
ATOM     23  H   UNL     1       5.559  -6.646 -31.932  1.00  0.00     0.293 HD
ENDBRANCH   2  22
BRANCH   6  24
ATOM     24  O   UNL     1       9.800  -5.295 -34.852  1.00  0.00    -0.507 OA
ATOM     25  H   UNL     1       8.913  -5.698 -35.112  1.00  0.00     0.293 HD
ENDBRANCH   6  24
BRANCH   8  26
ATOM     26  O   UNL     1      13.125  -3.331 -31.996  1.00  0.00    -0.508 OA
ATOM     27  H   UNL     1      13.565  -2.737 -32.690  1.00  0.00     0.293 HD
ENDBRANCH   8  26
TORSDOF 6
ENDMDL
MODEL 7
REMARK VINA RESULT:    -5.004      1.697      3.483
REMARK INTER + INTRA:          -6.198
REMARK INTER:                  -6.495
REMARK INTRA:                   0.297
REMARK UNBOUND:                -0.170
REMARK SMILES O=c1c(O)c(-c2ccc(O)c(O)c2)oc2cc(O)cc(O)c12
REMARK SMILES IDX 5 1 3 2 2 3 1 4 22 5 20 6 19 7 17 8 16 9 15 10 14 11 6 12
REMARK SMILES IDX 7 13 8 14 9 15 13 16 11 17 10 18 12 20 4 22 21 24 18 26
REMARK H PARENT 10 19 12 21 4 23 21 25 18 27
REMARK Flexibility Score: inf
ROOT
ATOM      1  C   UNL     1       6.455  -5.605 -28.881  1.00  0.00     0.180 A 
ATOM      2  C   UNL     1       6.889  -6.225 -27.698  1.00  0.00     0.208 A 
ATOM      3  C   UNL     1       8.259  -6.229 -27.393  1.00  0.00     0.238 A 
ATOM      4  O   UNL     1       8.636  -6.739 -26.306  1.00  0.00    -0.285 OA
ATOM      5  C   UNL     1       9.180  -5.627 -28.284  1.00  0.00     0.111 A 
ATOM      6  C   UNL     1      10.595  -5.608 -28.097  1.00  0.00     0.134 A 
ATOM      7  C   UNL     1      11.398  -4.871 -28.976  1.00  0.00     0.093 A 
ATOM      8  C   UNL     1      10.844  -4.206 -30.072  1.00  0.00     0.123 A 
ATOM      9  C   UNL     1       9.471  -4.269 -30.298  1.00  0.00     0.094 A 
ATOM     10  C   UNL     1       8.639  -4.967 -29.418  1.00  0.00     0.146 A 
ATOM     11  O   UNL     1       7.335  -4.992 -29.664  1.00  0.00    -0.452 OA
ENDROOT
BRANCH   1  12
ATOM     12  C   UNL     1       5.029  -5.581 -29.282  1.00  0.00     0.025 A 
ATOM     13  C   UNL     1       4.695  -5.582 -30.644  1.00  0.00     0.016 A 
ATOM     14  C   UNL     1       3.358  -5.579 -31.042  1.00  0.00     0.051 A 
ATOM     15  C   UNL     1       2.328  -5.591 -30.094  1.00  0.00     0.157 A 
ATOM     16  C   UNL     1       3.999  -5.616 -28.326  1.00  0.00     0.062 A 
ATOM     17  C   UNL     1       2.654  -5.617 -28.718  1.00  0.00     0.158 A 
BRANCH  15  18
ATOM     18  O   UNL     1       1.012  -5.581 -30.560  1.00  0.00    -0.504 OA
ATOM     19  H   UNL     1       0.578  -6.356 -31.041  1.00  0.00     0.293 HD
ENDBRANCH  15  18
BRANCH  17  20
ATOM     20  O   UNL     1       1.683  -5.650 -27.714  1.00  0.00    -0.504 OA
ATOM     21  H   UNL     1       1.680  -5.038 -26.911  1.00  0.00     0.293 HD
ENDBRANCH  17  20
ENDBRANCH   1  12
BRANCH   2  22
ATOM     22  O   UNL     1       5.961  -6.794 -26.821  1.00  0.00    -0.502 OA
ATOM     23  H   UNL     1       5.948  -7.784 -26.609  1.00  0.00     0.293 HD
ENDBRANCH   2  22
BRANCH   6  24
ATOM     24  O   UNL     1      11.258  -6.313 -27.087  1.00  0.00    -0.507 OA
ATOM     25  H   UNL     1      11.286  -7.318 -27.011  1.00  0.00     0.293 HD
ENDBRANCH   6  24
BRANCH   8  26
ATOM     26  O   UNL     1      11.653  -3.489 -30.951  1.00  0.00    -0.508 OA
ATOM     27  H   UNL     1      11.362  -3.296 -31.902  1.00  0.00     0.293 HD
ENDBRANCH   8  26
TORSDOF 6
ENDMDL
MODEL 8
REMARK VINA RESULT:    -4.940      2.405      7.443
REMARK INTER + INTRA:          -6.122
REMARK INTER:                  -6.522
REMARK INTRA:                   0.401
REMARK UNBOUND:                -0.170
REMARK SMILES O=c1c(O)c(-c2ccc(O)c(O)c2)oc2cc(O)cc(O)c12
REMARK SMILES IDX 5 1 3 2 2 3 1 4 22 5 20 6 19 7 17 8 16 9 15 10 14 11 6 12
REMARK SMILES IDX 7 13 8 14 9 15 13 16 11 17 10 18 12 20 4 22 21 24 18 26
REMARK H PARENT 10 19 12 21 4 23 21 25 18 27
REMARK Flexibility Score: inf
ROOT
ATOM      1  C   UNL     1       7.638  -4.795 -30.049  1.00  0.00     0.180 A 
ATOM      2  C   UNL     1       7.474  -4.722 -28.655  1.00  0.00     0.208 A 
ATOM      3  C   UNL     1       6.189  -4.881 -28.111  1.00  0.00     0.238 A 
ATOM      4  O   UNL     1       6.057  -4.870 -26.860  1.00  0.00    -0.285 OA
ATOM      5  C   UNL     1       5.083  -5.095 -28.969  1.00  0.00     0.111 A 
ATOM      6  C   UNL     1       3.732  -5.229 -28.529  1.00  0.00     0.134 A 
ATOM      7  C   UNL     1       2.735  -5.568 -29.453  1.00  0.00     0.093 A 
ATOM      8  C   UNL     1       3.031  -5.713 -30.810  1.00  0.00     0.123 A 
ATOM      9  C   UNL     1       4.337  -5.524 -31.258  1.00  0.00     0.094 A 
ATOM     10  C   UNL     1       5.359  -5.221 -30.355  1.00  0.00     0.146 A 
ATOM     11  O   UNL     1       6.591  -5.061 -30.822  1.00  0.00    -0.452 OA
ENDROOT
BRANCH   1  12
ATOM     12  C   UNL     1       8.956  -4.612 -30.699  1.00  0.00     0.025 A 
ATOM     13  C   UNL     1       9.111  -4.942 -32.052  1.00  0.00     0.016 A 
ATOM     14  C   UNL     1      10.340  -4.759 -32.687  1.00  0.00     0.051 A 
ATOM     15  C   UNL     1      11.433  -4.230 -31.992  1.00  0.00     0.157 A 
ATOM     16  C   UNL     1      10.045  -4.060 -30.002  1.00  0.00     0.062 A 
ATOM     17  C   UNL     1      11.281  -3.869 -30.632  1.00  0.00     0.158 A 
BRANCH  15  18
ATOM     18  O   UNL     1      12.636  -4.079 -32.685  1.00  0.00    -0.504 OA
ATOM     19  H   UNL     1      13.207  -3.246 -32.648  1.00  0.00     0.293 HD
ENDBRANCH  15  18
BRANCH  17  20
ATOM     20  O   UNL     1      12.319  -3.317 -29.879  1.00  0.00    -0.504 OA
ATOM     21  H   UNL     1      12.246  -2.452 -29.364  1.00  0.00     0.293 HD
ENDBRANCH  17  20
ENDBRANCH   1  12
BRANCH   2  22
ATOM     22  O   UNL     1       8.582  -4.533 -27.826  1.00  0.00    -0.502 OA
ATOM     23  H   UNL     1       9.002  -3.623 -27.678  1.00  0.00     0.293 HD
ENDBRANCH   2  22
BRANCH   6  24
ATOM     24  O   UNL     1       3.314  -5.016 -27.211  1.00  0.00    -0.507 OA
ATOM     25  H   UNL     1       3.057  -5.746 -26.565  1.00  0.00     0.293 HD
ENDBRANCH   6  24
BRANCH   8  26
ATOM     26  O   UNL     1       2.031  -6.034 -31.726  1.00  0.00    -0.508 OA
ATOM     27  H   UNL     1       1.112  -5.610 -31.677  1.00  0.00     0.293 HD
ENDBRANCH   8  26
TORSDOF 6
ENDMDL
MODEL 9
REMARK VINA RESULT:    -4.906      2.267      7.051
REMARK INTER + INTRA:          -6.081
REMARK INTER:                  -6.124
REMARK INTRA:                   0.044
REMARK UNBOUND:                -0.170
REMARK SMILES O=c1c(O)c(-c2ccc(O)c(O)c2)oc2cc(O)cc(O)c12
REMARK SMILES IDX 5 1 3 2 2 3 1 4 22 5 20 6 19 7 17 8 16 9 15 10 14 11 6 12
REMARK SMILES IDX 7 13 8 14 9 15 13 16 11 17 10 18 12 20 4 22 21 24 18 26
REMARK H PARENT 10 19 12 21 4 23 21 25 18 27
REMARK Flexibility Score: inf
ROOT
ATOM      1  C   UNL     1       7.227  -5.721 -28.694  1.00  0.00     0.180 A 
ATOM      2  C   UNL     1       6.011  -5.528 -28.018  1.00  0.00     0.208 A 
ATOM      3  C   UNL     1       4.827  -5.414 -28.765  1.00  0.00     0.238 A 
ATOM      4  O   UNL     1       3.735  -5.296 -28.151  1.00  0.00    -0.285 OA
ATOM      5  C   UNL     1       4.877  -5.480 -30.178  1.00  0.00     0.111 A 
ATOM      6  C   UNL     1       3.746  -5.336 -31.036  1.00  0.00     0.134 A 
ATOM      7  C   UNL     1       3.891  -5.549 -32.412  1.00  0.00     0.093 A 
ATOM      8  C   UNL     1       5.141  -5.835 -32.969  1.00  0.00     0.123 A 
ATOM      9  C   UNL     1       6.262  -5.917 -32.146  1.00  0.00     0.094 A 
ATOM     10  C   UNL     1       6.142  -5.746 -30.765  1.00  0.00     0.146 A 
ATOM     11  O   UNL     1       7.233  -5.843 -30.016  1.00  0.00    -0.452 OA
ENDROOT
BRANCH   1  12
ATOM     12  C   UNL     1       8.520  -5.825 -27.978  1.00  0.00     0.025 A 
ATOM     13  C   UNL     1       8.646  -6.721 -26.907  1.00  0.00     0.016 A 
ATOM     14  C   UNL     1       9.861  -6.847 -26.232  1.00  0.00     0.051 A 
ATOM     15  C   UNL     1      10.977  -6.095 -26.620  1.00  0.00     0.157 A 
ATOM     16  C   UNL     1       9.643  -5.085 -28.385  1.00  0.00     0.062 A 
ATOM     17  C   UNL     1      10.868  -5.208 -27.716  1.00  0.00     0.158 A 
BRANCH  15  18
ATOM     18  O   UNL     1      12.160  -6.264 -25.898  1.00  0.00    -0.504 OA
ATOM     19  H   UNL     1      12.259  -6.041 -24.918  1.00  0.00     0.293 HD
ENDBRANCH  15  18
BRANCH  17  20
ATOM     20  O   UNL     1      11.941  -4.441 -28.173  1.00  0.00    -0.504 OA
ATOM     21  H   UNL     1      12.028  -4.098 -29.119  1.00  0.00     0.293 HD
ENDBRANCH  17  20
ENDBRANCH   1  12
BRANCH   2  22
ATOM     22  O   UNL     1       5.982  -5.489 -26.622  1.00  0.00    -0.502 OA
ATOM     23  H   UNL     1       5.437  -6.141 -26.070  1.00  0.00     0.293 HD
ENDBRANCH   2  22
BRANCH   6  24
ATOM     24  O   UNL     1       2.473  -4.963 -30.593  1.00  0.00    -0.507 OA
ATOM     25  H   UNL     1       1.611  -5.193 -31.064  1.00  0.00     0.293 HD
ENDBRANCH   6  24
BRANCH   8  26
ATOM     26  O   UNL     1       5.279  -6.029 -34.342  1.00  0.00    -0.508 OA
ATOM     27  H   UNL     1       6.160  -6.321 -34.749  1.00  0.00     0.293 HD
ENDBRANCH   8  26
TORSDOF 6
ENDMDL
