MODEL 1
REMARK VINA RESULT:    -3.932      0.000      0.000
REMARK INTER + INTRA:          -6.195
REMARK INTER:                  -5.542
REMARK INTRA:                  -0.654
REMARK UNBOUND:                -0.654
REMARK SMILES CCCCCCCCC(=O)[O-]
REMARK SMILES IDX 6 1 7 2 8 3 9 4 10 5 11 6 5 7 4 8 3 9 2 10 1 11
REMARK H PARENT
REMARK Flexibility Score: inf
ROOT
ATOM      1  C   UNL     1       7.808  -3.454 -33.213  1.00  0.00     0.000 C 
ENDROOT
BRANCH   1   2
ATOM      2  C   UNL     1       6.507  -2.823 -33.740  1.00  0.00     0.006 C 
BRANCH   2   3
ATOM      3  C   UNL     1       5.868  -3.591 -34.908  1.00  0.00     0.053 C 
BRANCH   3   4
ATOM      4  C   UNL     1       5.827  -2.769 -36.160  1.00  0.00     0.041 C 
ATOM      5  O   UNL     1       6.885  -2.271 -36.625  1.00  0.00    -0.550 OA
ATOM      6  O   UNL     1       4.618  -2.535 -36.803  1.00  0.00    -0.550 OA
ENDBRANCH   3   4
ENDBRANCH   2   3
ENDBRANCH   1   2
BRANCH   1   7
ATOM      7  C   UNL     1       8.148  -4.809 -33.873  1.00  0.00     0.000 C 
BRANCH   7   8
ATOM      8  C   UNL     1       8.273  -5.942 -32.845  1.00  0.00    -0.000 C 
BRANCH   8   9
ATOM      9  C   UNL     1       7.386  -5.679 -31.623  1.00  0.00    -0.000 C 
BRANCH   9  10
ATOM     10  C   UNL     1       6.372  -6.811 -31.425  1.00  0.00    -0.003 C 
ATOM     11  C   UNL     1       5.413  -6.906 -32.609  1.00  0.00     0.004 C 
ENDBRANCH   9  10
ENDBRANCH   8   9
ENDBRANCH   7   8
ENDBRANCH   1   7
TORSDOF 7
ENDMDL
MODEL 2
REMARK VINA RESULT:    -3.857      3.484      4.523
REMARK INTER + INTRA:          -6.090
REMARK INTER:                  -5.766
REMARK INTRA:                  -0.323
REMARK UNBOUND:                -0.654
REMARK SMILES CCCCCCCCC(=O)[O-]
REMARK SMILES IDX 6 1 7 2 8 3 9 4 10 5 11 6 5 7 4 8 3 9 2 10 1 11
REMARK H PARENT
REMARK Flexibility Score: inf
ROOT
ATOM      1  C   UNL     1       8.166  -2.364 -35.259  1.00  0.00     0.000 C 
ENDROOT
BRANCH   1   2
ATOM      2  C   UNL     1       9.548  -1.985 -34.696  1.00  0.00     0.006 C 
BRANCH   2   3
ATOM      3  C   UNL     1      10.586  -1.632 -35.771  1.00  0.00     0.053 C 
BRANCH   3   4
ATOM      4  C   UNL     1      11.987  -1.868 -35.294  1.00  0.00     0.041 C 
ATOM      5  O   UNL     1      12.296  -1.629 -34.097  1.00  0.00    -0.550 OA
ATOM      6  O   UNL     1      12.957  -2.330 -36.174  1.00  0.00    -0.550 OA
ENDBRANCH   3   4
ENDBRANCH   2   3
ENDBRANCH   1   2
BRANCH   1   7
ATOM      7  C   UNL     1       7.114  -2.658 -34.166  1.00  0.00     0.000 C 
BRANCH   7   8
ATOM      8  C   UNL     1       6.151  -3.783 -34.572  1.00  0.00    -0.000 C 
BRANCH   8   9
ATOM      9  C   UNL     1       6.374  -5.035 -33.717  1.00  0.00    -0.000 C 
BRANCH   9  10
ATOM     10  C   UNL     1       7.268  -4.726 -32.510  1.00  0.00    -0.003 C 
ATOM     11  C   UNL     1       7.528  -5.981 -31.681  1.00  0.00     0.004 C 
ENDBRANCH   9  10
ENDBRANCH   8   9
ENDBRANCH   7   8
ENDBRANCH   1   7
TORSDOF 7
ENDMDL
MODEL 3
REMARK VINA RESULT:    -3.794     13.140     14.463
REMARK INTER + INTRA:          -6.000
REMARK INTER:                  -5.656
REMARK INTRA:                  -0.344
REMARK UNBOUND:                -0.654
REMARK SMILES CCCCCCCCC(=O)[O-]
REMARK SMILES IDX 6 1 7 2 8 3 9 4 10 5 11 6 5 7 4 8 3 9 2 10 1 11
REMARK H PARENT
REMARK Flexibility Score: inf
ROOT
ATOM      1  C   UNL     1      13.563  -2.375 -19.693  1.00  0.00     0.000 C 
ENDROOT
BRANCH   1   2
ATOM      2  C   UNL     1      12.062  -2.078 -19.528  1.00  0.00     0.006 C 
BRANCH   2   3
ATOM      3  C   UNL     1      11.321  -1.842 -20.853  1.00  0.00     0.053 C 
BRANCH   3   4
ATOM      4  C   UNL     1       9.848  -2.078 -20.718  1.00  0.00     0.041 C 
ATOM      5  O   UNL     1       9.388  -2.635 -19.686  1.00  0.00    -0.550 OA
ATOM      6  O   UNL     1       8.984  -1.705 -21.739  1.00  0.00    -0.550 OA
ENDBRANCH   3   4
ENDBRANCH   2   3
ENDBRANCH   1   2
BRANCH   1   7
ATOM      7  C   UNL     1      14.018  -2.455 -21.168  1.00  0.00     0.000 C 
BRANCH   7   8
ATOM      8  C   UNL     1      14.759  -3.762 -21.479  1.00  0.00    -0.000 C 
BRANCH   8   9
ATOM      9  C   UNL     1      13.824  -4.784 -22.136  1.00  0.00    -0.000 C 
BRANCH   9  10
ATOM     10  C   UNL     1      14.322  -5.166 -23.535  1.00  0.00    -0.003 C 
ATOM     11  C   UNL     1      15.545  -6.077 -23.455  1.00  0.00     0.004 C 
ENDBRANCH   9  10
ENDBRANCH   8   9
ENDBRANCH   7   8
ENDBRANCH   1   7
TORSDOF 7
ENDMDL
MODEL 4
REMARK VINA RESULT:    -3.782      3.003      4.558
REMARK INTER + INTRA:          -5.984
REMARK INTER:                  -5.350
REMARK INTRA:                  -0.633
REMARK UNBOUND:                -0.654
REMARK SMILES CCCCCCCCC(=O)[O-]
REMARK SMILES IDX 6 1 7 2 8 3 9 4 10 5 11 6 5 7 4 8 3 9 2 10 1 11
REMARK H PARENT
REMARK Flexibility Score: inf
ROOT
ATOM      1  C   UNL     1       7.270  -5.820 -31.704  1.00  0.00     0.000 C 
ENDROOT
BRANCH   1   2
ATOM      2  C   UNL     1       6.196  -6.920 -31.776  1.00  0.00     0.006 C 
BRANCH   2   3
ATOM      3  C   UNL     1       5.323  -6.859 -33.039  1.00  0.00     0.053 C 
BRANCH   3   4
ATOM      4  C   UNL     1       5.365  -8.144 -33.809  1.00  0.00     0.041 C 
ATOM      5  O   UNL     1       6.004  -8.212 -34.892  1.00  0.00    -0.550 OA
ATOM      6  O   UNL     1       4.684  -9.261 -33.344  1.00  0.00    -0.550 OA
ENDBRANCH   3   4
ENDBRANCH   2   3
ENDBRANCH   1   2
BRANCH   1   7
ATOM      7  C   UNL     1       8.275  -5.861 -32.878  1.00  0.00     0.000 C 
BRANCH   7   8
ATOM      8  C   UNL     1       8.268  -4.561 -33.695  1.00  0.00    -0.000 C 
BRANCH   8   9
ATOM      9  C   UNL     1       7.261  -3.555 -33.124  1.00  0.00    -0.000 C 
BRANCH   9  10
ATOM     10  C   UNL     1       6.661  -2.687 -34.234  1.00  0.00    -0.003 C 
ATOM     11  C   UNL     1       5.568  -3.437 -34.991  1.00  0.00     0.004 C 
ENDBRANCH   9  10
ENDBRANCH   8   9
ENDBRANCH   7   8
ENDBRANCH   1   7
TORSDOF 7
ENDMDL
MODEL 5
REMARK VINA RESULT:    -3.751     14.979     16.512
REMARK INTER + INTRA:          -5.940
REMARK INTER:                  -5.618
REMARK INTRA:                  -0.322
REMARK UNBOUND:                -0.654
REMARK SMILES CCCCCCCCC(=O)[O-]
REMARK SMILES IDX 6 1 7 2 8 3 9 4 10 5 11 6 5 7 4 8 3 9 2 10 1 11
REMARK H PARENT
REMARK Flexibility Score: inf
ROOT
ATOM      1  C   UNL     1      14.250  -2.436 -21.037  1.00  0.00     0.000 C 
ENDROOT
BRANCH   1   2
ATOM      2  C   UNL     1      15.456  -2.929 -20.217  1.00  0.00     0.006 C 
BRANCH   2   3
ATOM      3  C   UNL     1      15.725  -2.107 -18.946  1.00  0.00     0.053 C 
BRANCH   3   4
ATOM      4  C   UNL     1      17.189  -2.017 -18.640  1.00  0.00     0.041 C 
ATOM      5  O   UNL     1      17.739  -0.893 -18.500  1.00  0.00    -0.550 OA
ATOM      6  O   UNL     1      17.953  -3.172 -18.530  1.00  0.00    -0.550 OA
ENDBRANCH   3   4
ENDBRANCH   2   3
ENDBRANCH   1   2
BRANCH   1   7
ATOM      7  C   UNL     1      14.039  -3.218 -22.353  1.00  0.00     0.000 C 
BRANCH   7   8
ATOM      8  C   UNL     1      14.482  -4.683 -22.237  1.00  0.00    -0.000 C 
BRANCH   8   9
ATOM      9  C   UNL     1      14.269  -5.430 -23.559  1.00  0.00    -0.000 C 
BRANCH   9  10
ATOM     10  C   UNL     1      15.474  -6.319 -23.889  1.00  0.00    -0.003 C 
ATOM     11  C   UNL     1      16.402  -6.458 -22.686  1.00  0.00     0.004 C 
ENDBRANCH   9  10
ENDBRANCH   8   9
ENDBRANCH   7   8
ENDBRANCH   1   7
TORSDOF 7
ENDMDL
MODEL 6
REMARK VINA RESULT:    -3.743      1.880      2.991
REMARK INTER + INTRA:          -5.928
REMARK INTER:                  -5.127
REMARK INTRA:                  -0.801
REMARK UNBOUND:                -0.654
REMARK SMILES CCCCCCCCC(=O)[O-]
REMARK SMILES IDX 6 1 7 2 8 3 9 4 10 5 11 6 5 7 4 8 3 9 2 10 1 11
REMARK H PARENT
REMARK Flexibility Score: inf
ROOT
ATOM      1  C   UNL     1       5.742  -3.392 -34.639  1.00  0.00     0.000 C 
ENDROOT
BRANCH   1   2
ATOM      2  C   UNL     1       6.837  -2.700 -33.807  1.00  0.00     0.006 C 
BRANCH   2   3
ATOM      3  C   UNL     1       8.256  -3.216 -34.088  1.00  0.00     0.053 C 
BRANCH   3   4
ATOM      4  C   UNL     1       9.065  -2.227 -34.871  1.00  0.00     0.041 C 
ATOM      5  O   UNL     1       8.813  -2.025 -36.088  1.00  0.00    -0.550 OA
ATOM      6  O   UNL     1      10.111  -1.544 -34.264  1.00  0.00    -0.550 OA
ENDBRANCH   3   4
ENDBRANCH   2   3
ENDBRANCH   1   2
BRANCH   1   7
ATOM      7  C   UNL     1       6.268  -4.565 -35.497  1.00  0.00     0.000 C 
BRANCH   7   8
ATOM      8  C   UNL     1       5.685  -5.915 -35.058  1.00  0.00    -0.000 C 
BRANCH   8   9
ATOM      9  C   UNL     1       6.603  -6.609 -34.045  1.00  0.00    -0.000 C 
BRANCH   9  10
ATOM     10  C   UNL     1       6.029  -6.515 -32.627  1.00  0.00    -0.003 C 
ATOM     11  C   UNL     1       7.047  -5.919 -31.658  1.00  0.00     0.004 C 
ENDBRANCH   9  10
ENDBRANCH   8   9
ENDBRANCH   7   8
ENDBRANCH   1   7
TORSDOF 7
ENDMDL
MODEL 7
REMARK VINA RESULT:    -3.727      3.038      5.119
REMARK INTER + INTRA:          -5.906
REMARK INTER:                  -5.538
REMARK INTRA:                  -0.369
REMARK UNBOUND:                -0.654
REMARK SMILES CCCCCCCCC(=O)[O-]
REMARK SMILES IDX 6 1 7 2 8 3 9 4 10 5 11 6 5 7 4 8 3 9 2 10 1 11
REMARK H PARENT
REMARK Flexibility Score: inf
ROOT
ATOM      1  C   UNL     1       8.196  -3.908 -33.843  1.00  0.00     0.000 C 
ENDROOT
BRANCH   1   2
ATOM      2  C   UNL     1       7.891  -5.335 -33.353  1.00  0.00     0.006 C 
BRANCH   2   3
ATOM      3  C   UNL     1       7.280  -5.396 -31.945  1.00  0.00     0.053 C 
BRANCH   3   4
ATOM      4  C   UNL     1       6.308  -6.528 -31.807  1.00  0.00     0.041 C 
ATOM      5  O   UNL     1       6.430  -7.356 -30.866  1.00  0.00    -0.550 OA
ATOM      6  O   UNL     1       5.281  -6.684 -32.728  1.00  0.00    -0.550 OA
ENDBRANCH   3   4
ENDBRANCH   2   3
ENDBRANCH   1   2
BRANCH   1   7
ATOM      7  C   UNL     1       6.992  -2.945 -33.726  1.00  0.00     0.000 C 
BRANCH   7   8
ATOM      8  C   UNL     1       5.904  -3.247 -34.766  1.00  0.00    -0.000 C 
BRANCH   8   9
ATOM      9  C   UNL     1       6.308  -2.731 -36.153  1.00  0.00    -0.000 C 
BRANCH   9  10
ATOM     10  C   UNL     1       5.073  -2.454 -37.018  1.00  0.00    -0.003 C 
ATOM     11  C   UNL     1       3.792  -2.542 -36.194  1.00  0.00     0.004 C 
ENDBRANCH   9  10
ENDBRANCH   8   9
ENDBRANCH   7   8
ENDBRANCH   1   7
TORSDOF 7
ENDMDL
MODEL 8
REMARK VINA RESULT:    -3.704     13.842     15.308
REMARK INTER + INTRA:          -5.874
REMARK INTER:                  -5.495
REMARK INTRA:                  -0.379
REMARK UNBOUND:                -0.654
REMARK SMILES CCCCCCCCC(=O)[O-]
REMARK SMILES IDX 6 1 7 2 8 3 9 4 10 5 11 6 5 7 4 8 3 9 2 10 1 11
REMARK H PARENT
REMARK Flexibility Score: inf
ROOT
ATOM      1  C   UNL     1      13.953  -4.927 -22.475  1.00  0.00     0.000 C 
ENDROOT
BRANCH   1   2
ATOM      2  C   UNL     1      13.952  -3.388 -22.505  1.00  0.00     0.006 C 
BRANCH   2   3
ATOM      3  C   UNL     1      14.670  -2.738 -21.312  1.00  0.00     0.053 C 
BRANCH   3   4
ATOM      4  C   UNL     1      13.709  -2.327 -20.239  1.00  0.00     0.041 C 
ATOM      5  O   UNL     1      12.474  -2.275 -20.482  1.00  0.00    -0.550 OA
ATOM      6  O   UNL     1      14.175  -1.980 -18.978  1.00  0.00    -0.550 OA
ENDBRANCH   3   4
ENDBRANCH   2   3
ENDBRANCH   1   2
BRANCH   1   7
ATOM      7  C   UNL     1      14.459  -5.570 -23.785  1.00  0.00     0.000 C 
BRANCH   7   8
ATOM      8  C   UNL     1      15.778  -6.329 -23.590  1.00  0.00    -0.000 C 
BRANCH   8   9
ATOM      9  C   UNL     1      16.256  -6.241 -22.135  1.00  0.00    -0.000 C 
BRANCH   9  10
ATOM     10  C   UNL     1      17.632  -6.893 -21.967  1.00  0.00    -0.003 C 
ATOM     11  C   UNL     1      17.654  -7.833 -20.765  1.00  0.00     0.004 C 
ENDBRANCH   9  10
ENDBRANCH   8   9
ENDBRANCH   7   8
ENDBRANCH   1   7
TORSDOF 7
ENDMDL
MODEL 9
REMARK VINA RESULT:    -3.667     13.649     15.086
REMARK INTER + INTRA:          -5.822
REMARK INTER:                  -5.076
REMARK INTRA:                  -0.746
REMARK UNBOUND:                -0.654
REMARK SMILES CCCCCCCCC(=O)[O-]
REMARK SMILES IDX 6 1 7 2 8 3 9 4 10 5 11 6 5 7 4 8 3 9 2 10 1 11
REMARK H PARENT
REMARK Flexibility Score: inf
ROOT
ATOM      1  C   UNL     1      15.245  -3.324 -20.544  1.00  0.00     0.000 C 
ENDROOT
BRANCH   1   2
ATOM      2  C   UNL     1      14.283  -2.371 -21.275  1.00  0.00     0.006 C 
BRANCH   2   3
ATOM      3  C   UNL     1      12.828  -2.864 -21.318  1.00  0.00     0.053 C 
BRANCH   3   4
ATOM      4  C   UNL     1      11.921  -2.001 -20.494  1.00  0.00     0.041 C 
ATOM      5  O   UNL     1      11.049  -1.285 -21.052  1.00  0.00    -0.550 OA
ATOM      6  O   UNL     1      12.052  -1.970 -19.112  1.00  0.00    -0.550 OA
ENDBRANCH   3   4
ENDBRANCH   2   3
ENDBRANCH   1   2
BRANCH   1   7
ATOM      7  C   UNL     1      14.547  -4.564 -19.941  1.00  0.00     0.000 C 
BRANCH   7   8
ATOM      8  C   UNL     1      14.886  -5.851 -20.704  1.00  0.00    -0.000 C 
BRANCH   8   9
ATOM      9  C   UNL     1      16.077  -5.637 -21.646  1.00  0.00    -0.000 C 
BRANCH   9  10
ATOM     10  C   UNL     1      15.744  -6.099 -23.069  1.00  0.00    -0.003 C 
ATOM     11  C   UNL     1      14.484  -5.413 -23.590  1.00  0.00     0.004 C 
ENDBRANCH   9  10
ENDBRANCH   8   9
ENDBRANCH   7   8
ENDBRANCH   1   7
TORSDOF 7
ENDMDL
