MODEL 1
REMARK VINA RESULT:    -5.837      0.000      0.000
REMARK INTER + INTRA:         -10.397
REMARK INTER:                  -8.908
REMARK INTRA:                  -1.489
REMARK UNBOUND:                -1.489
REMARK SMILES CC(=O)CCC=C(C)CCC=C(C)CCC=C(C)C
REMARK SMILES IDX 10 1 11 2 12 3 13 4 14 5 15 6 16 7 18 8 17 9 19 10 9 11 7 12
REMARK SMILES IDX 6 13 8 14 5 15 4 16 2 17 3 18 1 19
REMARK H PARENT
REMARK Flexibility Score: inf
ROOT
ATOM      1  C   UNL     1      14.390 -11.181  64.307  1.00  0.00     0.032 C 
ENDROOT
BRANCH   1   2
ATOM      2  C   UNL     1      14.851  -9.835  63.804  1.00  0.00    -0.028 C 
ATOM      3  C   UNL     1      14.953  -9.485  62.501  1.00  0.00    -0.077 C 
ATOM      4  C   UNL     1      14.670 -10.462  61.386  1.00  0.00     0.039 C 
BRANCH   3   5
ATOM      5  C   UNL     1      15.351  -8.066  62.154  1.00  0.00     0.034 C 
BRANCH   5   6
ATOM      6  C   UNL     1      14.191  -7.318  61.490  1.00  0.00     0.032 C 
BRANCH   6   7
ATOM      7  C   UNL     1      13.262  -6.724  62.520  1.00  0.00    -0.028 C 
ATOM      8  C   UNL     1      11.421  -8.293  61.894  1.00  0.00     0.039 C 
ATOM      9  C   UNL     1      11.999  -7.161  62.712  1.00  0.00    -0.080 C 
ATOM     10  C   UNL     1      11.154  -6.496  63.768  1.00  0.00     0.039 C 
ENDBRANCH   6   7
ENDBRANCH   5   6
ENDBRANCH   3   5
ENDBRANCH   1   2
BRANCH   1  11
ATOM     11  C   UNL     1      15.356 -11.745  65.359  1.00  0.00     0.034 C 
BRANCH  11  12
ATOM     12  C   UNL     1      16.809 -11.560  64.957  1.00  0.00    -0.077 C 
ATOM     13  C   UNL     1      17.695 -10.832  65.675  1.00  0.00    -0.028 C 
ATOM     14  C   UNL     1      17.301 -12.253  63.712  1.00  0.00     0.039 C 
BRANCH  13  15
ATOM     15  C   UNL     1      17.366 -10.044  66.917  1.00  0.00     0.035 C 
BRANCH  15  16
ATOM     16  C   UNL     1      18.642  -9.551  67.607  1.00  0.00     0.079 C 
BRANCH  16  17
ATOM     17  C   UNL     1      18.936 -10.383  68.824  1.00  0.00     0.130 C 
ATOM     18  O   UNL     1      19.292  -9.838  69.858  1.00  0.00    -0.300 OA
ATOM     19  C   UNL     1      18.843 -11.879  68.775  1.00  0.00     0.087 C 
ENDBRANCH  16  17
ENDBRANCH  15  16
ENDBRANCH  13  15
ENDBRANCH  11  12
ENDBRANCH   1  11
TORSDOF 9
ENDMDL
MODEL 2
REMARK VINA RESULT:    -5.650      1.542      2.835
REMARK INTER + INTRA:         -10.111
REMARK INTER:                  -8.697
REMARK INTRA:                  -1.413
REMARK UNBOUND:                -1.489
REMARK SMILES CC(=O)CCC=C(C)CCC=C(C)CCC=C(C)C
REMARK SMILES IDX 10 1 11 2 12 3 13 4 14 5 15 6 16 7 18 8 17 9 19 10 9 11 7 12
REMARK SMILES IDX 6 13 8 14 5 15 4 16 2 17 3 18 1 19
REMARK H PARENT
REMARK Flexibility Score: inf
ROOT
ATOM      1  C   UNL     1      17.623 -11.137  63.673  1.00  0.00     0.032 C 
ENDROOT
BRANCH   1   2
ATOM      2  C   UNL     1      16.140 -11.210  63.404  1.00  0.00    -0.028 C 
ATOM      3  C   UNL     1      15.189 -11.432  64.341  1.00  0.00    -0.077 C 
ATOM      4  C   UNL     1      15.538 -11.701  65.785  1.00  0.00     0.039 C 
BRANCH   3   5
ATOM      5  C   UNL     1      13.733 -11.394  63.929  1.00  0.00     0.034 C 
BRANCH   5   6
ATOM      6  C   UNL     1      13.546 -10.568  62.652  1.00  0.00     0.032 C 
BRANCH   6   7
ATOM      7  C   UNL     1      13.368  -9.103  62.970  1.00  0.00    -0.028 C 
ATOM      8  C   UNL     1      14.299  -8.419  60.754  1.00  0.00     0.039 C 
ATOM      9  C   UNL     1      13.708  -8.117  62.112  1.00  0.00    -0.080 C 
ATOM     10  C   UNL     1      13.490  -6.686  62.529  1.00  0.00     0.039 C 
ENDBRANCH   6   7
ENDBRANCH   5   6
ENDBRANCH   3   5
ENDBRANCH   1   2
BRANCH   1  11
ATOM     11  C   UNL     1      18.045  -9.722  64.093  1.00  0.00     0.034 C 
BRANCH  11  12
ATOM     12  C   UNL     1      19.410  -9.709  64.761  1.00  0.00    -0.077 C 
ATOM     13  C   UNL     1      19.585  -9.751  66.102  1.00  0.00    -0.028 C 
ATOM     14  C   UNL     1      20.636  -9.685  63.884  1.00  0.00     0.039 C 
BRANCH  13  15
ATOM     15  C   UNL     1      18.475  -9.739  67.123  1.00  0.00     0.035 C 
BRANCH  15  16
ATOM     16  C   UNL     1      18.405 -11.074  67.871  1.00  0.00     0.079 C 
BRANCH  16  17
ATOM     17  C   UNL     1      19.464 -11.133  68.937  1.00  0.00     0.130 C 
ATOM     18  O   UNL     1      19.595 -10.198  69.713  1.00  0.00    -0.300 OA
ATOM     19  C   UNL     1      20.394 -12.305  69.034  1.00  0.00     0.087 C 
ENDBRANCH  16  17
ENDBRANCH  15  16
ENDBRANCH  13  15
ENDBRANCH  11  12
ENDBRANCH   1  11
TORSDOF 9
ENDMDL
MODEL 3
REMARK VINA RESULT:    -5.615      1.405      2.226
REMARK INTER + INTRA:         -10.057
REMARK INTER:                  -8.318
REMARK INTRA:                  -1.739
REMARK UNBOUND:                -1.489
REMARK SMILES CC(=O)CCC=C(C)CCC=C(C)CCC=C(C)C
REMARK SMILES IDX 10 1 11 2 12 3 13 4 14 5 15 6 16 7 18 8 17 9 19 10 9 11 7 12
REMARK SMILES IDX 6 13 8 14 5 15 4 16 2 17 3 18 1 19
REMARK H PARENT
REMARK Flexibility Score: inf
ROOT
ATOM      1  C   UNL     1      15.677 -11.346  64.849  1.00  0.00     0.032 C 
ENDROOT
BRANCH   1   2
ATOM      2  C   UNL     1      14.890 -10.925  63.633  1.00  0.00    -0.028 C 
ATOM      3  C   UNL     1      15.118 -11.357  62.371  1.00  0.00    -0.077 C 
ATOM      4  C   UNL     1      16.263 -12.282  62.038  1.00  0.00     0.039 C 
BRANCH   3   5
ATOM      5  C   UNL     1      14.188 -10.908  61.264  1.00  0.00     0.034 C 
BRANCH   5   6
ATOM      6  C   UNL     1      14.477  -9.459  60.859  1.00  0.00     0.032 C 
BRANCH   6   7
ATOM      7  C   UNL     1      13.424  -8.520  61.396  1.00  0.00    -0.028 C 
ATOM      8  C   UNL     1      15.067  -7.402  62.910  1.00  0.00     0.039 C 
ATOM      9  C   UNL     1      13.684  -7.580  62.330  1.00  0.00    -0.080 C 
ATOM     10  C   UNL     1      12.558  -6.694  62.798  1.00  0.00     0.039 C 
ENDBRANCH   6   7
ENDBRANCH   5   6
ENDBRANCH   3   5
ENDBRANCH   1   2
BRANCH   1  11
ATOM     11  C   UNL     1      16.647 -10.243  65.297  1.00  0.00     0.034 C 
BRANCH  11  12
ATOM     12  C   UNL     1      18.028 -10.419  64.690  1.00  0.00    -0.077 C 
ATOM     13  C   UNL     1      18.965 -11.255  65.195  1.00  0.00    -0.028 C 
ATOM     14  C   UNL     1      18.363  -9.650  63.438  1.00  0.00     0.039 C 
BRANCH  13  15
ATOM     15  C   UNL     1      18.814 -12.066  66.457  1.00  0.00     0.035 C 
BRANCH  15  16
ATOM     16  C   UNL     1      20.063 -11.952  67.335  1.00  0.00     0.079 C 
BRANCH  16  17
ATOM     17  C   UNL     1      19.774 -11.119  68.553  1.00  0.00     0.130 C 
ATOM     18  O   UNL     1      20.157 -11.498  69.650  1.00  0.00    -0.300 OA
ATOM     19  C   UNL     1      18.980  -9.852  68.448  1.00  0.00     0.087 C 
ENDBRANCH  16  17
ENDBRANCH  15  16
ENDBRANCH  13  15
ENDBRANCH  11  12
ENDBRANCH   1  11
TORSDOF 9
ENDMDL
MODEL 4
REMARK VINA RESULT:    -5.586      1.611      2.830
REMARK INTER + INTRA:         -10.014
REMARK INTER:                  -8.750
REMARK INTRA:                  -1.263
REMARK UNBOUND:                -1.489
REMARK SMILES CC(=O)CCC=C(C)CCC=C(C)CCC=C(C)C
REMARK SMILES IDX 10 1 11 2 12 3 13 4 14 5 15 6 16 7 18 8 17 9 19 10 9 11 7 12
REMARK SMILES IDX 6 13 8 14 5 15 4 16 2 17 3 18 1 19
REMARK H PARENT
REMARK Flexibility Score: inf
ROOT
ATOM      1  C   UNL     1      16.123  -9.853  63.077  1.00  0.00     0.032 C 
ENDROOT
BRANCH   1   2
ATOM      2  C   UNL     1      14.640  -9.634  62.898  1.00  0.00    -0.028 C 
ATOM      3  C   UNL     1      14.062  -8.452  62.580  1.00  0.00    -0.077 C 
ATOM      4  C   UNL     1      14.866  -7.183  62.435  1.00  0.00     0.039 C 
BRANCH   3   5
ATOM      5  C   UNL     1      12.566  -8.408  62.352  1.00  0.00     0.034 C 
BRANCH   5   6
ATOM      6  C   UNL     1      12.149  -9.397  61.259  1.00  0.00     0.032 C 
BRANCH   6   7
ATOM      7  C   UNL     1      12.657  -8.963  59.905  1.00  0.00    -0.028 C 
ATOM      8  C   UNL     1      13.795 -11.156  59.531  1.00  0.00     0.039 C 
ATOM      9  C   UNL     1      13.407  -9.757  59.112  1.00  0.00    -0.080 C 
ATOM     10  C   UNL     1      13.865  -9.224  57.778  1.00  0.00     0.039 C 
ENDBRANCH   6   7
ENDBRANCH   5   6
ENDBRANCH   3   5
ENDBRANCH   1   2
BRANCH   1  11
ATOM     11  C   UNL     1      16.547  -9.643  64.537  1.00  0.00     0.034 C 
BRANCH  11  12
ATOM     12  C   UNL     1      16.806 -10.959  65.250  1.00  0.00    -0.077 C 
ATOM     13  C   UNL     1      17.146 -11.046  66.557  1.00  0.00    -0.028 C 
ATOM     14  C   UNL     1      16.643 -12.239  64.472  1.00  0.00     0.039 C 
BRANCH  13  15
ATOM     15  C   UNL     1      17.389  -9.871  67.470  1.00  0.00     0.035 C 
BRANCH  15  16
ATOM     16  C   UNL     1      18.889  -9.650  67.692  1.00  0.00     0.079 C 
BRANCH  16  17
ATOM     17  C   UNL     1      19.318 -10.246  69.005  1.00  0.00     0.130 C 
ATOM     18  O   UNL     1      19.347  -9.546  70.005  1.00  0.00    -0.300 OA
ATOM     19  C   UNL     1      19.755 -11.677  69.094  1.00  0.00     0.087 C 
ENDBRANCH  16  17
ENDBRANCH  15  16
ENDBRANCH  13  15
ENDBRANCH  11  12
ENDBRANCH   1  11
TORSDOF 9
ENDMDL
MODEL 5
REMARK VINA RESULT:    -5.567      2.641      6.423
REMARK INTER + INTRA:          -9.985
REMARK INTER:                  -7.931
REMARK INTRA:                  -2.054
REMARK UNBOUND:                -1.489
REMARK SMILES CC(=O)CCC=C(C)CCC=C(C)CCC=C(C)C
REMARK SMILES IDX 10 1 11 2 12 3 13 4 14 5 15 6 16 7 18 8 17 9 19 10 9 11 7 12
REMARK SMILES IDX 6 13 8 14 5 15 4 16 2 17 3 18 1 19
REMARK H PARENT
REMARK Flexibility Score: inf
ROOT
ATOM      1  C   UNL     1      15.909 -13.364  63.090  1.00  0.00     0.032 C 
ENDROOT
BRANCH   1   2
ATOM      2  C   UNL     1      16.546 -12.700  64.287  1.00  0.00    -0.028 C 
ATOM      3  C   UNL     1      15.880 -11.997  65.231  1.00  0.00    -0.077 C 
ATOM      4  C   UNL     1      14.395 -11.744  65.141  1.00  0.00     0.039 C 
BRANCH   3   5
ATOM      5  C   UNL     1      16.648 -11.460  66.421  1.00  0.00     0.034 C 
BRANCH   5   6
ATOM      6  C   UNL     1      17.120 -10.025  66.166  1.00  0.00     0.032 C 
BRANCH   6   7
ATOM      7  C   UNL     1      18.538 -10.000  65.649  1.00  0.00    -0.028 C 
ATOM      8  C   UNL     1      17.777  -9.443  63.335  1.00  0.00     0.039 C 
ATOM      9  C   UNL     1      18.847  -9.736  64.361  1.00  0.00    -0.080 C 
ATOM     10  C   UNL     1      20.297  -9.737  63.949  1.00  0.00     0.039 C 
ENDBRANCH   6   7
ENDBRANCH   5   6
ENDBRANCH   3   5
ENDBRANCH   1   2
BRANCH   1  11
ATOM     11  C   UNL     1      15.850 -12.411  61.888  1.00  0.00     0.034 C 
BRANCH  11  12
ATOM     12  C   UNL     1      14.428 -12.201  61.396  1.00  0.00    -0.077 C 
ATOM     13  C   UNL     1      13.871 -10.979  61.225  1.00  0.00    -0.028 C 
ATOM     14  C   UNL     1      13.606 -13.413  61.045  1.00  0.00     0.039 C 
BRANCH  13  15
ATOM     15  C   UNL     1      14.534  -9.668  61.562  1.00  0.00     0.035 C 
BRANCH  15  16
ATOM     16  C   UNL     1      13.835  -8.989  62.745  1.00  0.00     0.079 C 
BRANCH  16  17
ATOM     17  C   UNL     1      14.002  -7.497  62.666  1.00  0.00     0.130 C 
ATOM     18  O   UNL     1      15.124  -7.012  62.687  1.00  0.00    -0.300 OA
ATOM     19  C   UNL     1      12.809  -6.591  62.608  1.00  0.00     0.087 C 
ENDBRANCH  16  17
ENDBRANCH  15  16
ENDBRANCH  13  15
ENDBRANCH  11  12
ENDBRANCH   1  11
TORSDOF 9
ENDMDL
MODEL 6
REMARK VINA RESULT:    -5.546      1.016      1.697
REMARK INTER + INTRA:          -9.952
REMARK INTER:                  -8.870
REMARK INTRA:                  -1.083
REMARK UNBOUND:                -1.489
REMARK SMILES CC(=O)CCC=C(C)CCC=C(C)CCC=C(C)C
REMARK SMILES IDX 10 1 11 2 12 3 13 4 14 5 15 6 16 7 18 8 17 9 19 10 9 11 7 12
REMARK SMILES IDX 6 13 8 14 5 15 4 16 2 17 3 18 1 19
REMARK H PARENT
REMARK Flexibility Score: inf
ROOT
ATOM      1  C   UNL     1      17.324 -11.436  63.313  1.00  0.00     0.032 C 
ENDROOT
BRANCH   1   2
ATOM      2  C   UNL     1      16.264 -10.509  62.771  1.00  0.00    -0.028 C 
ATOM      3  C   UNL     1      15.278 -10.870  61.916  1.00  0.00    -0.077 C 
ATOM      4  C   UNL     1      15.181 -12.267  61.353  1.00  0.00     0.039 C 
BRANCH   3   5
ATOM      5  C   UNL     1      14.236  -9.843  61.526  1.00  0.00     0.034 C 
BRANCH   5   6
ATOM      6  C   UNL     1      14.438  -8.536  62.299  1.00  0.00     0.032 C 
BRANCH   6   7
ATOM      7  C   UNL     1      13.174  -8.120  63.011  1.00  0.00    -0.028 C 
ATOM      8  C   UNL     1      12.953  -6.066  61.606  1.00  0.00     0.039 C 
ATOM      9  C   UNL     1      12.490  -6.997  62.702  1.00  0.00    -0.080 C 
ATOM     10  C   UNL     1      11.238  -6.675  63.477  1.00  0.00     0.039 C 
ENDBRANCH   6   7
ENDBRANCH   5   6
ENDBRANCH   3   5
ENDBRANCH   1   2
BRANCH   1  11
ATOM     11  C   UNL     1      16.763 -12.340  64.420  1.00  0.00     0.034 C 
BRANCH  11  12
ATOM     12  C   UNL     1      16.031 -11.545  65.488  1.00  0.00    -0.077 C 
ATOM     13  C   UNL     1      16.661 -10.810  66.434  1.00  0.00    -0.028 C 
ATOM     14  C   UNL     1      14.524 -11.543  65.473  1.00  0.00     0.039 C 
BRANCH  13  15
ATOM     15  C   UNL     1      18.155 -10.730  66.619  1.00  0.00     0.035 C 
BRANCH  15  16
ATOM     16  C   UNL     1      18.522  -9.673  67.665  1.00  0.00     0.079 C 
BRANCH  16  17
ATOM     17  C   UNL     1      19.114 -10.325  68.884  1.00  0.00     0.130 C 
ATOM     18  O   UNL     1      19.405  -9.641  69.854  1.00  0.00    -0.300 OA
ATOM     19  C   UNL     1      19.395 -11.797  68.910  1.00  0.00     0.087 C 
ENDBRANCH  16  17
ENDBRANCH  15  16
ENDBRANCH  13  15
ENDBRANCH  11  12
ENDBRANCH   1  11
TORSDOF 9
ENDMDL
MODEL 7
REMARK VINA RESULT:    -5.520     10.096     15.003
REMARK INTER + INTRA:          -9.914
REMARK INTER:                  -7.630
REMARK INTRA:                  -2.284
REMARK UNBOUND:                -1.489
REMARK SMILES CC(=O)CCC=C(C)CCC=C(C)CCC=C(C)C
REMARK SMILES IDX 10 1 11 2 12 3 13 4 14 5 15 6 16 7 18 8 17 9 19 10 9 11 7 12
REMARK SMILES IDX 6 13 8 14 5 15 4 16 2 17 3 18 1 19
REMARK H PARENT
REMARK Flexibility Score: inf
ROOT
ATOM      1  C   UNL     1       8.404   2.349  64.083  1.00  0.00     0.032 C 
ENDROOT
BRANCH   1   2
ATOM      2  C   UNL     1       7.762   1.021  63.762  1.00  0.00    -0.028 C 
ATOM      3  C   UNL     1       6.470   0.704  64.004  1.00  0.00    -0.077 C 
ATOM      4  C   UNL     1       5.530   1.656  64.703  1.00  0.00     0.039 C 
BRANCH   3   5
ATOM      5  C   UNL     1       5.949  -0.642  63.548  1.00  0.00     0.034 C 
BRANCH   5   6
ATOM      6  C   UNL     1       6.623  -1.077  62.242  1.00  0.00     0.032 C 
BRANCH   6   7
ATOM      7  C   UNL     1       7.557  -2.240  62.469  1.00  0.00    -0.028 C 
ATOM      8  C   UNL     1       9.452  -1.050  61.360  1.00  0.00     0.039 C 
ATOM      9  C   UNL     1       8.847  -2.237  62.071  1.00  0.00    -0.080 C 
ATOM     10  C   UNL     1       9.694  -3.453  62.347  1.00  0.00     0.039 C 
ENDBRANCH   6   7
ENDBRANCH   5   6
ENDBRANCH   3   5
ENDBRANCH   1   2
BRANCH   1  11
ATOM     11  C   UNL     1       8.693   3.153  62.807  1.00  0.00     0.034 C 
BRANCH  11  12
ATOM     12  C   UNL     1       7.421   3.689  62.171  1.00  0.00    -0.077 C 
ATOM     13  C   UNL     1       6.869   3.165  61.052  1.00  0.00    -0.028 C 
ATOM     14  C   UNL     1       6.717   4.841  62.840  1.00  0.00     0.039 C 
BRANCH  13  15
ATOM     15  C   UNL     1       7.458   2.042  60.237  1.00  0.00     0.035 C 
BRANCH  15  16
ATOM     16  C   UNL     1       8.113   2.578  58.960  1.00  0.00     0.079 C 
BRANCH  16  17
ATOM     17  C   UNL     1       9.579   2.826  59.187  1.00  0.00     0.130 C 
ATOM     18  O   UNL     1      10.360   1.886  59.174  1.00  0.00    -0.300 OA
ATOM     19  C   UNL     1      10.091   4.205  59.474  1.00  0.00     0.087 C 
ENDBRANCH  16  17
ENDBRANCH  15  16
ENDBRANCH  13  15
ENDBRANCH  11  12
ENDBRANCH   1  11
TORSDOF 9
ENDMDL
MODEL 8
REMARK VINA RESULT:    -5.450      2.735      6.657
REMARK INTER + INTRA:          -9.806
REMARK INTER:                  -7.729
REMARK INTRA:                  -2.077
REMARK UNBOUND:                -1.489
REMARK SMILES CC(=O)CCC=C(C)CCC=C(C)CCC=C(C)C
REMARK SMILES IDX 10 1 11 2 12 3 13 4 14 5 15 6 16 7 18 8 17 9 19 10 9 11 7 12
REMARK SMILES IDX 6 13 8 14 5 15 4 16 2 17 3 18 1 19
REMARK H PARENT
REMARK Flexibility Score: inf
ROOT
ATOM      1  C   UNL     1      13.505 -12.083  63.729  1.00  0.00     0.032 C 
ENDROOT
BRANCH   1   2
ATOM      2  C   UNL     1      14.485 -11.682  64.805  1.00  0.00    -0.028 C 
ATOM      3  C   UNL     1      15.796 -12.014  64.824  1.00  0.00    -0.077 C 
ATOM      4  C   UNL     1      16.412 -12.902  63.771  1.00  0.00     0.039 C 
BRANCH   3   5
ATOM      5  C   UNL     1      16.673 -11.465  65.930  1.00  0.00     0.034 C 
BRANCH   5   6
ATOM      6  C   UNL     1      17.044 -10.003  65.661  1.00  0.00     0.032 C 
BRANCH   6   7
ATOM      7  C   UNL     1      18.115  -9.896  64.603  1.00  0.00    -0.028 C 
ATOM      8  C   UNL     1      19.912  -9.648  66.320  1.00  0.00     0.039 C 
ATOM      9  C   UNL     1      19.424  -9.735  64.893  1.00  0.00    -0.080 C 
ATOM     10  C   UNL     1      20.411  -9.637  63.759  1.00  0.00     0.039 C 
ENDBRANCH   6   7
ENDBRANCH   5   6
ENDBRANCH   3   5
ENDBRANCH   1   2
BRANCH   1  11
ATOM     11  C   UNL     1      13.124 -10.886  62.846  1.00  0.00     0.034 C 
BRANCH  11  12
ATOM     12  C   UNL     1      14.203 -10.566  61.825  1.00  0.00    -0.077 C 
ATOM     13  C   UNL     1      15.046  -9.514  61.935  1.00  0.00    -0.028 C 
ATOM     14  C   UNL     1      14.368 -11.489  60.645  1.00  0.00     0.039 C 
BRANCH  13  15
ATOM     15  C   UNL     1      14.997  -8.473  63.024  1.00  0.00     0.035 C 
BRANCH  15  16
ATOM     16  C   UNL     1      14.565  -7.114  62.465  1.00  0.00     0.079 C 
BRANCH  16  17
ATOM     17  C   UNL     1      13.065  -7.016  62.424  1.00  0.00     0.130 C 
ATOM     18  O   UNL     1      12.400  -7.556  63.295  1.00  0.00    -0.300 OA
ATOM     19  C   UNL     1      12.370  -6.305  61.302  1.00  0.00     0.087 C 
ENDBRANCH  16  17
ENDBRANCH  15  16
ENDBRANCH  13  15
ENDBRANCH  11  12
ENDBRANCH   1  11
TORSDOF 9
ENDMDL
MODEL 9
REMARK VINA RESULT:    -5.446      2.992      6.933
REMARK INTER + INTRA:          -9.800
REMARK INTER:                  -7.738
REMARK INTRA:                  -2.061
REMARK UNBOUND:                -1.489
REMARK SMILES CC(=O)CCC=C(C)CCC=C(C)CCC=C(C)C
REMARK SMILES IDX 10 1 11 2 12 3 13 4 14 5 15 6 16 7 18 8 17 9 19 10 9 11 7 12
REMARK SMILES IDX 6 13 8 14 5 15 4 16 2 17 3 18 1 19
REMARK H PARENT
REMARK Flexibility Score: inf
ROOT
ATOM      1  C   UNL     1      15.354 -11.774  65.886  1.00  0.00     0.032 C 
ENDROOT
BRANCH   1   2
ATOM      2  C   UNL     1      16.446 -11.189  66.748  1.00  0.00    -0.028 C 
ATOM      3  C   UNL     1      17.698 -11.690  66.862  1.00  0.00    -0.077 C 
ATOM      4  C   UNL     1      18.116 -12.962  66.167  1.00  0.00     0.039 C 
BRANCH   3   5
ATOM      5  C   UNL     1      18.710 -10.942  67.703  1.00  0.00     0.034 C 
BRANCH   5   6
ATOM      6  C   UNL     1      19.097  -9.614  67.045  1.00  0.00     0.032 C 
BRANCH   6   7
ATOM      7  C   UNL     1      20.148  -9.816  65.981  1.00  0.00    -0.028 C 
ATOM      8  C   UNL     1      18.497  -9.422  64.148  1.00  0.00     0.039 C 
ATOM      9  C   UNL     1      19.885  -9.731  64.660  1.00  0.00    -0.080 C 
ATOM     10  C   UNL     1      21.009  -9.952  63.681  1.00  0.00     0.039 C 
ENDBRANCH   6   7
ENDBRANCH   5   6
ENDBRANCH   3   5
ENDBRANCH   1   2
BRANCH   1  11
ATOM     11  C   UNL     1      15.191 -10.985  64.578  1.00  0.00     0.034 C 
BRANCH  11  12
ATOM     12  C   UNL     1      15.330 -11.875  63.355  1.00  0.00    -0.077 C 
ATOM     13  C   UNL     1      15.403 -11.399  62.090  1.00  0.00    -0.028 C 
ATOM     14  C   UNL     1      15.430 -13.364  63.561  1.00  0.00     0.039 C 
BRANCH  13  15
ATOM     15  C   UNL     1      15.282  -9.947  61.701  1.00  0.00     0.035 C 
BRANCH  15  16
ATOM     16  C   UNL     1      13.933  -9.671  61.029  1.00  0.00     0.079 C 
BRANCH  16  17
ATOM     17  C   UNL     1      12.894  -9.326  62.060  1.00  0.00     0.130 C 
ATOM     18  O   UNL     1      12.032 -10.143  62.345  1.00  0.00    -0.300 OA
ATOM     19  C   UNL     1      12.874  -7.976  62.710  1.00  0.00     0.087 C 
ENDBRANCH  16  17
ENDBRANCH  15  16
ENDBRANCH  13  15
ENDBRANCH  11  12
ENDBRANCH   1  11
TORSDOF 9
ENDMDL
