MODEL 1
REMARK VINA RESULT:    -6.049      0.000      0.000
REMARK INTER + INTRA:         -11.207
REMARK INTER:                 -10.646
REMARK INTRA:                  -0.561
REMARK UNBOUND:                -0.561
REMARK SMILES CCCCCCC=CCCCCCCCC(=O)[O-]
REMARK SMILES IDX 10 1 11 2 12 3 13 4 14 5 15 6 16 7 17 8 18 9 9 10 8 11 7 12
REMARK SMILES IDX 6 13 5 14 4 15 3 16 2 17 1 18
REMARK H PARENT
REMARK Flexibility Score: inf
ROOT
ATOM      1  C   UNL     1      24.942   2.325 -26.881  1.00  0.00     0.004 C 
ENDROOT
BRANCH   1   2
ATOM      2  C   UNL     1      25.973   3.445 -26.648  1.00  0.00     0.000 C 
BRANCH   2   3
ATOM      3  C   UNL     1      27.101   3.442 -27.690  1.00  0.00     0.000 C 
BRANCH   3   4
ATOM      4  C   UNL     1      28.244   4.374 -27.263  1.00  0.00     0.000 C 
BRANCH   4   5
ATOM      5  C   UNL     1      29.613   3.931 -27.810  1.00  0.00     0.006 C 
BRANCH   5   6
ATOM      6  C   UNL     1      30.748   3.962 -26.774  1.00  0.00     0.053 C 
BRANCH   6   7
ATOM      7  C   UNL     1      31.193   5.359 -26.471  1.00  0.00     0.041 C 
ATOM      8  O   UNL     1      31.374   6.184 -27.405  1.00  0.00    -0.550 OA
ATOM      9  O   UNL     1      31.439   5.740 -25.158  1.00  0.00    -0.550 OA
ENDBRANCH   6   7
ENDBRANCH   5   6
ENDBRANCH   4   5
ENDBRANCH   3   4
ENDBRANCH   2   3
ENDBRANCH   1   2
BRANCH   1  10
ATOM     10  C   UNL     1      24.750   1.383 -25.679  1.00  0.00     0.027 C 
BRANCH  10  11
ATOM     11  C   UNL     1      24.642  -0.063 -26.086  1.00  0.00    -0.031 C 
ATOM     12  C   UNL     1      23.533  -0.553 -26.653  1.00  0.00    -0.031 C 
BRANCH  12  13
ATOM     13  C   UNL     1      23.453  -2.001 -27.059  1.00  0.00     0.027 C 
BRANCH  13  14
ATOM     14  C   UNL     1      23.201  -2.928 -25.862  1.00  0.00     0.004 C 
BRANCH  14  15
ATOM     15  C   UNL     1      21.807  -3.581 -25.918  1.00  0.00     0.000 C 
BRANCH  15  16
ATOM     16  C   UNL     1      21.109  -3.348 -27.275  1.00  0.00    -0.000 C 
BRANCH  16  17
ATOM     17  C   UNL     1      19.848  -4.206 -27.475  1.00  0.00    -0.003 C 
ATOM     18  C   UNL     1      18.553  -3.421 -27.277  1.00  0.00     0.004 C 
ENDBRANCH  16  17
ENDBRANCH  15  16
ENDBRANCH  14  15
ENDBRANCH  13  14
ENDBRANCH  12  13
ENDBRANCH  10  11
ENDBRANCH   1  10
TORSDOF 13
ENDMDL
MODEL 2
REMARK VINA RESULT:    -5.975     10.788     11.716
REMARK INTER + INTRA:         -11.077
REMARK INTER:                 -10.486
REMARK INTRA:                  -0.591
REMARK UNBOUND:                -0.561
REMARK SMILES CCCCCCC=CCCCCCCCC(=O)[O-]
REMARK SMILES IDX 10 1 11 2 12 3 13 4 14 5 15 6 16 7 17 8 18 9 9 10 8 11 7 12
REMARK SMILES IDX 6 13 5 14 4 15 3 16 2 17 1 18
REMARK H PARENT
REMARK Flexibility Score: inf
ROOT
ATOM      1  C   UNL     1      24.950  -0.013 -17.109  1.00  0.00     0.004 C 
ENDROOT
BRANCH   1   2
ATOM      2  C   UNL     1      26.182  -0.936 -17.071  1.00  0.00     0.000 C 
BRANCH   2   3
ATOM      3  C   UNL     1      27.005  -0.779 -15.784  1.00  0.00     0.000 C 
BRANCH   3   4
ATOM      4  C   UNL     1      28.510  -0.781 -16.092  1.00  0.00     0.000 C 
BRANCH   4   5
ATOM      5  C   UNL     1      29.343  -0.067 -15.012  1.00  0.00     0.006 C 
BRANCH   5   6
ATOM      6  C   UNL     1      30.848  -0.366 -15.074  1.00  0.00     0.053 C 
BRANCH   6   7
ATOM      7  C   UNL     1      31.573   0.593 -15.968  1.00  0.00     0.041 C 
ATOM      8  O   UNL     1      31.143   1.766 -16.122  1.00  0.00    -0.550 OA
ATOM      9  O   UNL     1      32.706   0.179 -16.657  1.00  0.00    -0.550 OA
ENDBRANCH   6   7
ENDBRANCH   5   6
ENDBRANCH   4   5
ENDBRANCH   3   4
ENDBRANCH   2   3
ENDBRANCH   1   2
BRANCH   1  10
ATOM     10  C   UNL     1      24.327   0.266 -15.730  1.00  0.00     0.027 C 
BRANCH  10  11
ATOM     11  C   UNL     1      23.287   1.353 -15.772  1.00  0.00    -0.031 C 
ATOM     12  C   UNL     1      22.122   1.187 -16.413  1.00  0.00    -0.031 C 
BRANCH  12  13
ATOM     13  C   UNL     1      21.094   2.287 -16.434  1.00  0.00     0.027 C 
BRANCH  13  14
ATOM     14  C   UNL     1      19.659   1.743 -16.457  1.00  0.00     0.004 C 
BRANCH  14  15
ATOM     15  C   UNL     1      19.282   1.045 -15.136  1.00  0.00     0.000 C 
BRANCH  15  16
ATOM     16  C   UNL     1      18.040   0.141 -15.289  1.00  0.00    -0.000 C 
BRANCH  16  17
ATOM     17  C   UNL     1      16.708   0.893 -15.135  1.00  0.00    -0.003 C 
ATOM     18  C   UNL     1      15.592   0.317 -16.004  1.00  0.00     0.004 C 
ENDBRANCH  16  17
ENDBRANCH  15  16
ENDBRANCH  14  15
ENDBRANCH  13  14
ENDBRANCH  12  13
ENDBRANCH  10  11
ENDBRANCH   1  10
TORSDOF 13
ENDMDL
MODEL 3
REMARK VINA RESULT:    -5.949     10.781     11.567
REMARK INTER + INTRA:         -11.030
REMARK INTER:                 -10.455
REMARK INTRA:                  -0.575
REMARK UNBOUND:                -0.561
REMARK SMILES CCCCCCC=CCCCCCCCC(=O)[O-]
REMARK SMILES IDX 10 1 11 2 12 3 13 4 14 5 15 6 16 7 17 8 18 9 9 10 8 11 7 12
REMARK SMILES IDX 6 13 5 14 4 15 3 16 2 17 1 18
REMARK H PARENT
REMARK Flexibility Score: inf
ROOT
ATOM      1  C   UNL     1      27.109  -0.723 -16.020  1.00  0.00     0.004 C 
ENDROOT
BRANCH   1   2
ATOM      2  C   UNL     1      27.821  -1.429 -17.190  1.00  0.00     0.000 C 
BRANCH   2   3
ATOM      3  C   UNL     1      29.270  -0.956 -17.377  1.00  0.00     0.000 C 
BRANCH   3   4
ATOM      4  C   UNL     1      30.069  -1.107 -16.075  1.00  0.00     0.000 C 
BRANCH   4   5
ATOM      5  C   UNL     1      30.346   0.240 -15.383  1.00  0.00     0.006 C 
BRANCH   5   6
ATOM      6  C   UNL     1      31.450   1.077 -16.047  1.00  0.00     0.053 C 
BRANCH   6   7
ATOM      7  C   UNL     1      32.692   0.276 -16.288  1.00  0.00     0.041 C 
ATOM      8  O   UNL     1      33.073   0.034 -17.463  1.00  0.00    -0.550 OA
ATOM      9  O   UNL     1      33.410  -0.232 -15.213  1.00  0.00    -0.550 OA
ENDBRANCH   6   7
ENDBRANCH   5   6
ENDBRANCH   4   5
ENDBRANCH   3   4
ENDBRANCH   2   3
ENDBRANCH   1   2
BRANCH   1  10
ATOM     10  C   UNL     1      25.623  -1.094 -15.869  1.00  0.00     0.027 C 
BRANCH  10  11
ATOM     11  C   UNL     1      24.711  -0.145 -16.600  1.00  0.00    -0.031 C 
ATOM     12  C   UNL     1      23.944   0.738 -15.946  1.00  0.00    -0.031 C 
BRANCH  12  13
ATOM     13  C   UNL     1      23.046   1.682 -16.700  1.00  0.00     0.027 C 
BRANCH  13  14
ATOM     14  C   UNL     1      21.691   1.877 -16.005  1.00  0.00     0.004 C 
BRANCH  14  15
ATOM     15  C   UNL     1      20.513   1.767 -16.991  1.00  0.00     0.000 C 
BRANCH  15  16
ATOM     16  C   UNL     1      19.154   2.026 -16.305  1.00  0.00    -0.000 C 
BRANCH  16  17
ATOM     17  C   UNL     1      19.022   1.357 -14.927  1.00  0.00    -0.003 C 
ATOM     18  C   UNL     1      18.259   0.035 -14.975  1.00  0.00     0.004 C 
ENDBRANCH  16  17
ENDBRANCH  15  16
ENDBRANCH  14  15
ENDBRANCH  13  14
ENDBRANCH  12  13
ENDBRANCH  10  11
ENDBRANCH   1  10
TORSDOF 13
ENDMDL
MODEL 4
REMARK VINA RESULT:    -5.930     11.859     14.540
REMARK INTER + INTRA:         -10.997
REMARK INTER:                 -10.299
REMARK INTRA:                  -0.697
REMARK UNBOUND:                -0.561
REMARK SMILES CCCCCCC=CCCCCCCCC(=O)[O-]
REMARK SMILES IDX 10 1 11 2 12 3 13 4 14 5 15 6 16 7 17 8 18 9 9 10 8 11 7 12
REMARK SMILES IDX 6 13 5 14 4 15 3 16 2 17 1 18
REMARK H PARENT
REMARK Flexibility Score: inf
ROOT
ATOM      1  C   UNL     1      22.610   1.189 -16.862  1.00  0.00     0.004 C 
ENDROOT
BRANCH   1   2
ATOM      2  C   UNL     1      21.599   2.328 -16.631  1.00  0.00     0.000 C 
BRANCH   2   3
ATOM      3  C   UNL     1      20.146   1.833 -16.580  1.00  0.00     0.000 C 
BRANCH   3   4
ATOM      4  C   UNL     1      19.830   1.197 -15.218  1.00  0.00     0.000 C 
BRANCH   4   5
ATOM      5  C   UNL     1      18.322   1.144 -14.918  1.00  0.00     0.006 C 
BRANCH   5   6
ATOM      6  C   UNL     1      17.652  -0.190 -15.283  1.00  0.00     0.053 C 
BRANCH   6   7
ATOM      7  C   UNL     1      16.790  -0.069 -16.502  1.00  0.00     0.041 C 
ATOM      8  O   UNL     1      17.296  -0.179 -17.650  1.00  0.00    -0.550 OA
ATOM      9  O   UNL     1      15.434   0.199 -16.370  1.00  0.00    -0.550 OA
ENDBRANCH   6   7
ENDBRANCH   5   6
ENDBRANCH   4   5
ENDBRANCH   3   4
ENDBRANCH   2   3
ENDBRANCH   1   2
BRANCH   1  10
ATOM     10  C   UNL     1      23.658   1.038 -15.745  1.00  0.00     0.027 C 
BRANCH  10  11
ATOM     11  C   UNL     1      24.456  -0.233 -15.866  1.00  0.00    -0.031 C 
ATOM     12  C   UNL     1      25.607  -0.279 -16.550  1.00  0.00    -0.031 C 
BRANCH  12  13
ATOM     13  C   UNL     1      26.390  -1.561 -16.649  1.00  0.00     0.027 C 
BRANCH  13  14
ATOM     14  C   UNL     1      27.896  -1.339 -16.454  1.00  0.00     0.004 C 
BRANCH  14  15
ATOM     15  C   UNL     1      28.191  -0.262 -15.393  1.00  0.00     0.000 C 
BRANCH  15  16
ATOM     16  C   UNL     1      29.582  -0.444 -14.750  1.00  0.00    -0.000 C 
BRANCH  16  17
ATOM     17  C   UNL     1      30.745  -0.310 -15.747  1.00  0.00    -0.003 C 
ATOM     18  C   UNL     1      31.192   1.136 -15.953  1.00  0.00     0.004 C 
ENDBRANCH  16  17
ENDBRANCH  15  16
ENDBRANCH  14  15
ENDBRANCH  13  14
ENDBRANCH  12  13
ENDBRANCH  10  11
ENDBRANCH   1  10
TORSDOF 13
ENDMDL
MODEL 5
REMARK VINA RESULT:    -5.883      0.993      1.901
REMARK INTER + INTRA:         -10.915
REMARK INTER:                 -10.248
REMARK INTRA:                  -0.667
REMARK UNBOUND:                -0.561
REMARK SMILES CCCCCCC=CCCCCCCCC(=O)[O-]
REMARK SMILES IDX 10 1 11 2 12 3 13 4 14 5 15 6 16 7 17 8 18 9 9 10 8 11 7 12
REMARK SMILES IDX 6 13 5 14 4 15 3 16 2 17 1 18
REMARK H PARENT
REMARK Flexibility Score: inf
ROOT
ATOM      1  C   UNL     1      24.823   1.122 -26.311  1.00  0.00     0.004 C 
ENDROOT
BRANCH   1   2
ATOM      2  C   UNL     1      24.793   2.511 -26.977  1.00  0.00     0.000 C 
BRANCH   2   3
ATOM      3  C   UNL     1      26.047   3.344 -26.673  1.00  0.00     0.000 C 
BRANCH   3   4
ATOM      4  C   UNL     1      27.143   3.086 -27.717  1.00  0.00     0.000 C 
BRANCH   4   5
ATOM      5  C   UNL     1      28.177   4.224 -27.793  1.00  0.00     0.006 C 
BRANCH   5   6
ATOM      6  C   UNL     1      28.415   4.952 -26.461  1.00  0.00     0.053 C 
BRANCH   6   7
ATOM      7  C   UNL     1      29.836   4.832 -26.004  1.00  0.00     0.041 C 
ATOM      8  O   UNL     1      30.124   4.970 -24.786  1.00  0.00    -0.550 OA
ATOM      9  O   UNL     1      30.846   4.602 -26.929  1.00  0.00    -0.550 OA
ENDBRANCH   6   7
ENDBRANCH   5   6
ENDBRANCH   4   5
ENDBRANCH   3   4
ENDBRANCH   2   3
ENDBRANCH   1   2
BRANCH   1  10
ATOM     10  C   UNL     1      24.049   0.036 -27.079  1.00  0.00     0.027 C 
BRANCH  10  11
ATOM     11  C   UNL     1      23.474  -1.018 -26.172  1.00  0.00    -0.031 C 
ATOM     12  C   UNL     1      23.216  -2.258 -26.609  1.00  0.00    -0.031 C 
BRANCH  12  13
ATOM     13  C   UNL     1      22.648  -3.297 -25.679  1.00  0.00     0.027 C 
BRANCH  13  14
ATOM     14  C   UNL     1      21.293  -3.833 -26.162  1.00  0.00     0.004 C 
BRANCH  14  15
ATOM     15  C   UNL     1      21.041  -3.516 -27.648  1.00  0.00     0.000 C 
BRANCH  15  16
ATOM     16  C   UNL     1      19.545  -3.282 -27.949  1.00  0.00    -0.000 C 
BRANCH  16  17
ATOM     17  C   UNL     1      18.616  -3.657 -26.782  1.00  0.00    -0.003 C 
ATOM     18  C   UNL     1      17.785  -4.909 -27.057  1.00  0.00     0.004 C 
ENDBRANCH  16  17
ENDBRANCH  15  16
ENDBRANCH  14  15
ENDBRANCH  13  14
ENDBRANCH  12  13
ENDBRANCH  10  11
ENDBRANCH   1  10
TORSDOF 13
ENDMDL
MODEL 6
REMARK VINA RESULT:    -5.866      9.202     10.646
REMARK INTER + INTRA:         -10.886
REMARK INTER:                  -9.502
REMARK INTRA:                  -1.384
REMARK UNBOUND:                -0.561
REMARK SMILES CCCCCCC=CCCCCCCCC(=O)[O-]
REMARK SMILES IDX 10 1 11 2 12 3 13 4 14 5 15 6 16 7 17 8 18 9 9 10 8 11 7 12
REMARK SMILES IDX 6 13 5 14 4 15 3 16 2 17 1 18
REMARK H PARENT
REMARK Flexibility Score: inf
ROOT
ATOM      1  C   UNL     1      26.139  -0.471 -16.650  1.00  0.00     0.004 C 
ENDROOT
BRANCH   1   2
ATOM      2  C   UNL     1      27.294  -1.412 -16.261  1.00  0.00     0.000 C 
BRANCH   2   3
ATOM      3  C   UNL     1      28.353  -0.725 -15.386  1.00  0.00     0.000 C 
BRANCH   3   4
ATOM      4  C   UNL     1      29.679  -0.577 -16.145  1.00  0.00     0.000 C 
BRANCH   4   5
ATOM      5  C   UNL     1      30.787   0.071 -15.295  1.00  0.00     0.006 C 
BRANCH   5   6
ATOM      6  C   UNL     1      31.839   0.840 -16.107  1.00  0.00     0.053 C 
BRANCH   6   7
ATOM      7  C   UNL     1      33.118   0.072 -16.237  1.00  0.00     0.041 C 
ATOM      8  O   UNL     1      33.679  -0.404 -15.215  1.00  0.00    -0.550 OA
ATOM      9  O   UNL     1      33.708  -0.089 -17.484  1.00  0.00    -0.550 OA
ENDBRANCH   6   7
ENDBRANCH   5   6
ENDBRANCH   4   5
ENDBRANCH   3   4
ENDBRANCH   2   3
ENDBRANCH   1   2
BRANCH   1  10
ATOM     10  C   UNL     1      25.121  -1.089 -17.625  1.00  0.00     0.027 C 
BRANCH  10  11
ATOM     11  C   UNL     1      25.590  -2.398 -18.201  1.00  0.00    -0.031 C 
ATOM     12  C   UNL     1      25.356  -2.728 -19.478  1.00  0.00    -0.031 C 
BRANCH  12  13
ATOM     13  C   UNL     1      25.843  -4.041 -20.033  1.00  0.00     0.027 C 
BRANCH  13  14
ATOM     14  C   UNL     1      26.325  -3.916 -21.485  1.00  0.00     0.004 C 
BRANCH  14  15
ATOM     15  C   UNL     1      27.304  -2.741 -21.672  1.00  0.00     0.000 C 
BRANCH  15  16
ATOM     16  C   UNL     1      28.738  -3.102 -21.226  1.00  0.00    -0.000 C 
BRANCH  16  17
ATOM     17  C   UNL     1      29.532  -1.905 -20.677  1.00  0.00    -0.003 C 
ATOM     18  C   UNL     1      28.708  -1.016 -19.748  1.00  0.00     0.004 C 
ENDBRANCH  16  17
ENDBRANCH  15  16
ENDBRANCH  14  15
ENDBRANCH  13  14
ENDBRANCH  12  13
ENDBRANCH  10  11
ENDBRANCH   1  10
TORSDOF 13
ENDMDL
MODEL 7
REMARK VINA RESULT:    -5.860     10.337     12.908
REMARK INTER + INTRA:         -10.875
REMARK INTER:                  -9.113
REMARK INTRA:                  -1.762
REMARK UNBOUND:                -0.561
REMARK SMILES CCCCCCC=CCCCCCCCC(=O)[O-]
REMARK SMILES IDX 10 1 11 2 12 3 13 4 14 5 15 6 16 7 17 8 18 9 9 10 8 11 7 12
REMARK SMILES IDX 6 13 5 14 4 15 3 16 2 17 1 18
REMARK H PARENT
REMARK Flexibility Score: inf
ROOT
ATOM      1  C   UNL     1      17.370  -0.288 -15.451  1.00  0.00     0.004 C 
ENDROOT
BRANCH   1   2
ATOM      2  C   UNL     1      16.380   0.619 -16.205  1.00  0.00     0.000 C 
BRANCH   2   3
ATOM      3  C   UNL     1      16.259   0.261 -17.693  1.00  0.00     0.000 C 
BRANCH   3   4
ATOM      4  C   UNL     1      17.644   0.038 -18.318  1.00  0.00     0.000 C 
BRANCH   4   5
ATOM      5  C   UNL     1      18.248   1.326 -18.907  1.00  0.00     0.006 C 
BRANCH   5   6
ATOM      6  C   UNL     1      19.610   1.130 -19.590  1.00  0.00     0.053 C 
BRANCH   6   7
ATOM      7  C   UNL     1      19.976   2.296 -20.457  1.00  0.00     0.041 C 
ATOM      8  O   UNL     1      19.736   2.267 -21.693  1.00  0.00    -0.550 OA
ATOM      9  O   UNL     1      20.611   3.400 -19.903  1.00  0.00    -0.550 OA
ENDBRANCH   6   7
ENDBRANCH   5   6
ENDBRANCH   4   5
ENDBRANCH   3   4
ENDBRANCH   2   3
ENDBRANCH   1   2
BRANCH   1  10
ATOM     10  C   UNL     1      18.386   0.471 -14.578  1.00  0.00     0.027 C 
BRANCH  10  11
ATOM     11  C   UNL     1      19.132   1.530 -15.345  1.00  0.00    -0.031 C 
ATOM     12  C   UNL     1      20.402   1.355 -15.733  1.00  0.00    -0.031 C 
BRANCH  12  13
ATOM     13  C   UNL     1      21.125   2.426 -16.506  1.00  0.00     0.027 C 
BRANCH  13  14
ATOM     14  C   UNL     1      22.628   2.145 -16.625  1.00  0.00     0.004 C 
BRANCH  14  15
ATOM     15  C   UNL     1      22.964   1.302 -17.870  1.00  0.00     0.000 C 
BRANCH  15  16
ATOM     16  C   UNL     1      23.831   0.073 -17.524  1.00  0.00    -0.000 C 
BRANCH  16  17
ATOM     17  C   UNL     1      24.727   0.277 -16.291  1.00  0.00    -0.003 C 
ATOM     18  C   UNL     1      24.867  -0.982 -15.438  1.00  0.00     0.004 C 
ENDBRANCH  16  17
ENDBRANCH  15  16
ENDBRANCH  14  15
ENDBRANCH  13  14
ENDBRANCH  12  13
ENDBRANCH  10  11
ENDBRANCH   1  10
TORSDOF 13
ENDMDL
MODEL 8
REMARK VINA RESULT:    -5.844      6.494     11.614
REMARK INTER + INTRA:         -10.845
REMARK INTER:                 -10.413
REMARK INTRA:                  -0.432
REMARK UNBOUND:                -0.561
REMARK SMILES CCCCCCC=CCCCCCCCC(=O)[O-]
REMARK SMILES IDX 10 1 11 2 12 3 13 4 14 5 15 6 16 7 17 8 18 9 9 10 8 11 7 12
REMARK SMILES IDX 6 13 5 14 4 15 3 16 2 17 1 18
REMARK H PARENT
REMARK Flexibility Score: inf
ROOT
ATOM      1  C   UNL     1      22.679  -2.646 -26.404  1.00  0.00     0.004 C 
ENDROOT
BRANCH   1   2
ATOM      2  C   UNL     1      21.583  -3.007 -27.424  1.00  0.00     0.000 C 
BRANCH   2   3
ATOM      3  C   UNL     1      20.561  -4.011 -26.869  1.00  0.00     0.000 C 
BRANCH   3   4
ATOM      4  C   UNL     1      19.314  -4.075 -27.764  1.00  0.00     0.000 C 
BRANCH   4   5
ATOM      5  C   UNL     1      18.019  -3.720 -27.012  1.00  0.00     0.006 C 
BRANCH   5   6
ATOM      6  C   UNL     1      17.812  -4.502 -25.706  1.00  0.00     0.053 C 
BRANCH   6   7
ATOM      7  C   UNL     1      16.897  -5.673 -25.893  1.00  0.00     0.041 C 
ATOM      8  O   UNL     1      16.302  -6.178 -24.905  1.00  0.00    -0.550 OA
ATOM      9  O   UNL     1      16.728  -6.227 -27.156  1.00  0.00    -0.550 OA
ENDBRANCH   6   7
ENDBRANCH   5   6
ENDBRANCH   4   5
ENDBRANCH   3   4
ENDBRANCH   2   3
ENDBRANCH   1   2
BRANCH   1  10
ATOM     10  C   UNL     1      23.803  -1.760 -26.971  1.00  0.00     0.027 C 
BRANCH  10  11
ATOM     11  C   UNL     1      23.713  -0.334 -26.497  1.00  0.00    -0.031 C 
ATOM     12  C   UNL     1      24.533   0.616 -26.966  1.00  0.00    -0.031 C 
BRANCH  12  13
ATOM     13  C   UNL     1      24.418   2.037 -26.481  1.00  0.00     0.027 C 
BRANCH  13  14
ATOM     14  C   UNL     1      25.580   2.914 -26.968  1.00  0.00     0.004 C 
BRANCH  14  15
ATOM     15  C   UNL     1      25.998   3.958 -25.916  1.00  0.00     0.000 C 
BRANCH  15  16
ATOM     16  C   UNL     1      27.530   4.019 -25.733  1.00  0.00    -0.000 C 
BRANCH  16  17
ATOM     17  C   UNL     1      28.222   5.029 -26.664  1.00  0.00    -0.003 C 
ATOM     18  C   UNL     1      29.143   4.366 -27.687  1.00  0.00     0.004 C 
ENDBRANCH  16  17
ENDBRANCH  15  16
ENDBRANCH  14  15
ENDBRANCH  13  14
ENDBRANCH  12  13
ENDBRANCH  10  11
ENDBRANCH   1  10
TORSDOF 13
ENDMDL
MODEL 9
REMARK VINA RESULT:    -5.789      1.636      3.285
REMARK INTER + INTRA:         -10.749
REMARK INTER:                 -10.278
REMARK INTRA:                  -0.471
REMARK UNBOUND:                -0.561
REMARK SMILES CCCCCCC=CCCCCCCCC(=O)[O-]
REMARK SMILES IDX 10 1 11 2 12 3 13 4 14 5 15 6 16 7 17 8 18 9 9 10 8 11 7 12
REMARK SMILES IDX 6 13 5 14 4 15 3 16 2 17 1 18
REMARK H PARENT
REMARK Flexibility Score: inf
ROOT
ATOM      1  C   UNL     1      23.861  -0.300 -26.181  1.00  0.00     0.004 C 
ENDROOT
BRANCH   1   2
ATOM      2  C   UNL     1      24.326   0.908 -27.015  1.00  0.00     0.000 C 
BRANCH   2   3
ATOM      3  C   UNL     1      25.087   1.949 -26.181  1.00  0.00     0.000 C 
BRANCH   3   4
ATOM      4  C   UNL     1      25.444   3.178 -27.031  1.00  0.00     0.000 C 
BRANCH   4   5
ATOM      5  C   UNL     1      26.862   3.708 -26.750  1.00  0.00     0.006 C 
BRANCH   5   6
ATOM      6  C   UNL     1      27.877   3.419 -27.866  1.00  0.00     0.053 C 
BRANCH   6   7
ATOM      7  C   UNL     1      29.251   3.898 -27.512  1.00  0.00     0.041 C 
ATOM      8  O   UNL     1      29.869   3.389 -26.540  1.00  0.00    -0.550 OA
ATOM      9  O   UNL     1      29.834   4.931 -28.235  1.00  0.00    -0.550 OA
ENDBRANCH   6   7
ENDBRANCH   5   6
ENDBRANCH   4   5
ENDBRANCH   3   4
ENDBRANCH   2   3
ENDBRANCH   1   2
BRANCH   1  10
ATOM     10  C   UNL     1      24.055  -1.660 -26.876  1.00  0.00     0.027 C 
BRANCH  10  11
ATOM     11  C   UNL     1      23.025  -2.676 -26.462  1.00  0.00    -0.031 C 
ATOM     12  C   UNL     1      21.830  -2.752 -27.063  1.00  0.00    -0.031 C 
BRANCH  12  13
ATOM     13  C   UNL     1      20.820  -3.783 -26.636  1.00  0.00     0.027 C 
BRANCH  13  14
ATOM     14  C   UNL     1      19.765  -4.049 -27.718  1.00  0.00     0.004 C 
BRANCH  14  15
ATOM     15  C   UNL     1      18.333  -4.012 -27.154  1.00  0.00     0.000 C 
BRANCH  15  16
ATOM     16  C   UNL     1      17.516  -5.260 -27.555  1.00  0.00    -0.000 C 
BRANCH  16  17
ATOM     17  C   UNL     1      16.922  -6.018 -26.356  1.00  0.00    -0.003 C 
ATOM     18  C   UNL     1      17.074  -5.264 -25.036  1.00  0.00     0.004 C 
ENDBRANCH  16  17
ENDBRANCH  15  16
ENDBRANCH  14  15
ENDBRANCH  13  14
ENDBRANCH  12  13
ENDBRANCH  10  11
ENDBRANCH   1  10
TORSDOF 13
ENDMDL
