MODEL 1
REMARK VINA RESULT:    -6.105      0.000      0.000
REMARK INTER + INTRA:         -13.223
REMARK INTER:                 -11.815
REMARK INTRA:                  -1.408
REMARK UNBOUND:                -1.408
REMARK SMILES CCCCCCCCCCCCCCCCCC(=O)[O-]
REMARK SMILES IDX 10 1 11 2 12 3 13 4 14 5 15 6 16 7 17 8 18 9 19 10 20 11
REMARK SMILES IDX 9 12 8 13 7 14 6 15 5 16 4 17 3 18 2 19 1 20
REMARK H PARENT
REMARK Flexibility Score: inf
ROOT
ATOM      1  C   UNL     1       8.077 -29.152  22.651  1.00  0.00     0.000 C 
ENDROOT
BRANCH   1   2
ATOM      2  C   UNL     1       8.247 -30.005  21.382  1.00  0.00     0.000 C 
BRANCH   2   3
ATOM      3  C   UNL     1       7.980 -31.497  21.637  1.00  0.00     0.000 C 
BRANCH   3   4
ATOM      4  C   UNL     1       8.886 -32.415  20.796  1.00  0.00     0.000 C 
BRANCH   4   5
ATOM      5  C   UNL     1      10.380 -32.227  21.114  1.00  0.00     0.000 C 
BRANCH   5   6
ATOM      6  C   UNL     1      10.780 -32.541  22.570  1.00  0.00     0.000 C 
BRANCH   6   7
ATOM      7  C   UNL     1      12.163 -32.010  22.998  1.00  0.00     0.006 C 
BRANCH   7   8
ATOM      8  C   UNL     1      12.115 -30.756  23.884  1.00  0.00     0.053 C 
BRANCH   8   9
ATOM      9  C   UNL     1      12.551 -29.530  23.141  1.00  0.00     0.041 C 
ATOM     10  O   UNL     1      13.569 -28.891  23.515  1.00  0.00    -0.550 OA
ATOM     11  O   UNL     1      11.812 -29.073  22.057  1.00  0.00    -0.550 OA
ENDBRANCH   8   9
ENDBRANCH   7   8
ENDBRANCH   6   7
ENDBRANCH   5   6
ENDBRANCH   4   5
ENDBRANCH   3   4
ENDBRANCH   2   3
ENDBRANCH   1   2
BRANCH   1  12
ATOM     12  C   UNL     1       7.959 -30.004  23.924  1.00  0.00     0.000 C 
BRANCH  12  13
ATOM     13  C   UNL     1       7.002 -29.388  24.960  1.00  0.00    -0.000 C 
BRANCH  13  14
ATOM     14  C   UNL     1       5.535 -29.783  24.720  1.00  0.00    -0.000 C 
BRANCH  14  15
ATOM     15  C   UNL     1       4.599 -29.289  25.838  1.00  0.00    -0.000 C 
BRANCH  15  16
ATOM     16  C   UNL     1       3.310 -28.654  25.289  1.00  0.00    -0.000 C 
BRANCH  16  17
ATOM     17  C   UNL     1       2.812 -29.348  24.009  1.00  0.00    -0.000 C 
BRANCH  17  18
ATOM     18  C   UNL     1       1.797 -28.496  23.224  1.00  0.00    -0.000 C 
BRANCH  18  19
ATOM     19  C   UNL     1       0.519 -29.239  22.794  1.00  0.00    -0.003 C 
ATOM     20  C   UNL     1       0.540 -30.724  23.156  1.00  0.00     0.004 C 
ENDBRANCH  18  19
ENDBRANCH  17  18
ENDBRANCH  16  17
ENDBRANCH  15  16
ENDBRANCH  14  15
ENDBRANCH  13  14
ENDBRANCH  12  13
ENDBRANCH   1  12
TORSDOF 16
ENDMDL
MODEL 2
REMARK VINA RESULT:    -6.069      3.760      5.924
REMARK INTER + INTRA:         -13.153
REMARK INTER:                 -10.424
REMARK INTRA:                  -2.729
REMARK UNBOUND:                -1.408
REMARK SMILES CCCCCCCCCCCCCCCCCC(=O)[O-]
REMARK SMILES IDX 10 1 11 2 12 3 13 4 14 5 15 6 16 7 17 8 18 9 19 10 20 11
REMARK SMILES IDX 9 12 8 13 7 14 6 15 5 16 4 17 3 18 2 19 1 20
REMARK H PARENT
REMARK Flexibility Score: inf
ROOT
ATOM      1  C   UNL     1       8.526 -30.050  21.268  1.00  0.00     0.000 C 
ENDROOT
BRANCH   1   2
ATOM      2  C   UNL     1       7.982 -31.476  21.464  1.00  0.00     0.000 C 
BRANCH   2   3
ATOM      3  C   UNL     1       8.950 -32.551  20.948  1.00  0.00     0.000 C 
BRANCH   3   4
ATOM      4  C   UNL     1      10.425 -32.122  21.054  1.00  0.00     0.000 C 
BRANCH   4   5
ATOM      5  C   UNL     1      11.258 -33.071  21.934  1.00  0.00     0.000 C 
BRANCH   5   6
ATOM      6  C   UNL     1      12.771 -32.773  21.960  1.00  0.00     0.000 C 
BRANCH   6   7
ATOM      7  C   UNL     1      13.512 -33.258  23.222  1.00  0.00     0.006 C 
BRANCH   7   8
ATOM      8  C   UNL     1      12.602 -33.875  24.296  1.00  0.00     0.053 C 
BRANCH   8   9
ATOM      9  C   UNL     1      12.840 -35.346  24.453  1.00  0.00     0.041 C 
ATOM     10  O   UNL     1      11.871 -36.127  24.643  1.00  0.00    -0.550 OA
ATOM     11  O   UNL     1      14.134 -35.849  24.423  1.00  0.00    -0.550 OA
ENDBRANCH   8   9
ENDBRANCH   7   8
ENDBRANCH   6   7
ENDBRANCH   5   6
ENDBRANCH   4   5
ENDBRANCH   3   4
ENDBRANCH   2   3
ENDBRANCH   1   2
BRANCH   1  12
ATOM     12  C   UNL     1       8.099 -29.095  22.394  1.00  0.00     0.000 C 
BRANCH  12  13
ATOM     13  C   UNL     1       7.199 -29.780  23.438  1.00  0.00    -0.000 C 
BRANCH  13  14
ATOM     14  C   UNL     1       7.343 -29.163  24.840  1.00  0.00    -0.000 C 
BRANCH  14  15
ATOM     15  C   UNL     1       8.269 -29.984  25.756  1.00  0.00    -0.000 C 
BRANCH  15  16
ATOM     16  C   UNL     1       8.749 -31.286  25.093  1.00  0.00    -0.000 C 
BRANCH  16  17
ATOM     17  C   UNL     1      10.280 -31.440  25.137  1.00  0.00    -0.000 C 
BRANCH  17  18
ATOM     18  C   UNL     1      11.013 -30.363  24.315  1.00  0.00    -0.000 C 
BRANCH  18  19
ATOM     19  C   UNL     1      12.458 -30.079  24.760  1.00  0.00    -0.003 C 
ATOM     20  C   UNL     1      13.283 -29.360  23.693  1.00  0.00     0.004 C 
ENDBRANCH  18  19
ENDBRANCH  17  18
ENDBRANCH  16  17
ENDBRANCH  15  16
ENDBRANCH  14  15
ENDBRANCH  13  14
ENDBRANCH  12  13
ENDBRANCH   1  12
TORSDOF 16
ENDMDL
MODEL 3
REMARK VINA RESULT:    -5.986      3.583      7.532
REMARK INTER + INTRA:         -12.993
REMARK INTER:                 -10.824
REMARK INTRA:                  -2.169
REMARK UNBOUND:                -1.408
REMARK SMILES CCCCCCCCCCCCCCCCCC(=O)[O-]
REMARK SMILES IDX 10 1 11 2 12 3 13 4 14 5 15 6 16 7 17 8 18 9 19 10 20 11
REMARK SMILES IDX 9 12 8 13 7 14 6 15 5 16 4 17 3 18 2 19 1 20
REMARK H PARENT
REMARK Flexibility Score: inf
ROOT
ATOM      1  C   UNL     1      11.484 -30.526  21.509  1.00  0.00     0.000 C 
ENDROOT
BRANCH   1   2
ATOM      2  C   UNL     1      11.832 -32.025  21.525  1.00  0.00     0.000 C 
BRANCH   2   3
ATOM      3  C   UNL     1      10.593 -32.918  21.348  1.00  0.00     0.000 C 
BRANCH   3   4
ATOM      4  C   UNL     1       9.442 -32.200  20.621  1.00  0.00     0.000 C 
BRANCH   4   5
ATOM      5  C   UNL     1       8.065 -32.517  21.230  1.00  0.00     0.000 C 
BRANCH   5   6
ATOM      6  C   UNL     1       7.314 -31.300  21.809  1.00  0.00     0.000 C 
BRANCH   6   7
ATOM      7  C   UNL     1       7.863 -29.925  21.377  1.00  0.00     0.006 C 
BRANCH   7   8
ATOM      8  C   UNL     1       8.081 -28.937  22.533  1.00  0.00     0.053 C 
BRANCH   8   9
ATOM      9  C   UNL     1       7.846 -29.576  23.867  1.00  0.00     0.041 C 
ATOM     10  O   UNL     1       6.700 -29.554  24.387  1.00  0.00    -0.550 OA
ATOM     11  O   UNL     1       8.901 -30.166  24.551  1.00  0.00    -0.550 OA
ENDBRANCH   8   9
ENDBRANCH   7   8
ENDBRANCH   6   7
ENDBRANCH   5   6
ENDBRANCH   4   5
ENDBRANCH   3   4
ENDBRANCH   2   3
ENDBRANCH   1   2
BRANCH   1  12
ATOM     12  C   UNL     1      11.915 -29.807  22.798  1.00  0.00     0.000 C 
BRANCH  12  13
ATOM     13  C   UNL     1      12.985 -30.590  23.580  1.00  0.00    -0.000 C 
BRANCH  13  14
ATOM     14  C   UNL     1      12.841 -30.429  25.102  1.00  0.00    -0.000 C 
BRANCH  14  15
ATOM     15  C   UNL     1      12.616 -31.772  25.821  1.00  0.00    -0.000 C 
BRANCH  15  16
ATOM     16  C   UNL     1      11.432 -32.561  25.237  1.00  0.00    -0.000 C 
BRANCH  16  17
ATOM     17  C   UNL     1      11.589 -34.081  25.421  1.00  0.00    -0.000 C 
BRANCH  17  18
ATOM     18  C   UNL     1      12.211 -34.771  24.193  1.00  0.00    -0.000 C 
BRANCH  18  19
ATOM     19  C   UNL     1      13.475 -35.599  24.483  1.00  0.00    -0.003 C 
ATOM     20  C   UNL     1      14.533 -34.822  25.268  1.00  0.00     0.004 C 
ENDBRANCH  18  19
ENDBRANCH  17  18
ENDBRANCH  16  17
ENDBRANCH  15  16
ENDBRANCH  14  15
ENDBRANCH  13  14
ENDBRANCH  12  13
ENDBRANCH   1  12
TORSDOF 16
ENDMDL
MODEL 4
REMARK VINA RESULT:    -5.985      1.927      2.333
REMARK INTER + INTRA:         -12.990
REMARK INTER:                 -11.657
REMARK INTRA:                  -1.333
REMARK UNBOUND:                -1.408
REMARK SMILES CCCCCCCCCCCCCCCCCC(=O)[O-]
REMARK SMILES IDX 10 1 11 2 12 3 13 4 14 5 15 6 16 7 17 8 18 9 19 10 20 11
REMARK SMILES IDX 9 12 8 13 7 14 6 15 5 16 4 17 3 18 2 19 1 20
REMARK H PARENT
REMARK Flexibility Score: inf
ROOT
ATOM      1  C   UNL     1       6.505 -31.241  23.301  1.00  0.00     0.000 C 
ENDROOT
BRANCH   1   2
ATOM      2  C   UNL     1       7.524 -31.572  22.197  1.00  0.00     0.000 C 
BRANCH   2   3
ATOM      3  C   UNL     1       7.910 -30.339  21.364  1.00  0.00     0.000 C 
BRANCH   3   4
ATOM      4  C   UNL     1       8.854 -29.385  22.119  1.00  0.00     0.000 C 
BRANCH   4   5
ATOM      5  C   UNL     1      10.196 -30.043  22.484  1.00  0.00     0.000 C 
BRANCH   5   6
ATOM      6  C   UNL     1      10.997 -30.594  21.287  1.00  0.00     0.000 C 
BRANCH   6   7
ATOM      7  C   UNL     1      11.767 -31.902  21.561  1.00  0.00     0.006 C 
BRANCH   7   8
ATOM      8  C   UNL     1      12.643 -31.872  22.822  1.00  0.00     0.053 C 
BRANCH   8   9
ATOM      9  C   UNL     1      12.693 -33.206  23.501  1.00  0.00     0.041 C 
ATOM     10  O   UNL     1      13.789 -33.813  23.625  1.00  0.00    -0.550 OA
ATOM     11  O   UNL     1      11.524 -33.794  23.968  1.00  0.00    -0.550 OA
ENDBRANCH   8   9
ENDBRANCH   7   8
ENDBRANCH   6   7
ENDBRANCH   5   6
ENDBRANCH   4   5
ENDBRANCH   3   4
ENDBRANCH   2   3
ENDBRANCH   1   2
BRANCH   1  12
ATOM     12  C   UNL     1       7.133 -31.243  24.704  1.00  0.00     0.000 C 
BRANCH  12  13
ATOM     13  C   UNL     1       6.603 -30.102  25.590  1.00  0.00    -0.000 C 
BRANCH  13  14
ATOM     14  C   UNL     1       5.369 -29.409  24.987  1.00  0.00    -0.000 C 
BRANCH  14  15
ATOM     15  C   UNL     1       4.301 -29.076  26.045  1.00  0.00    -0.000 C 
BRANCH  15  16
ATOM     16  C   UNL     1       2.911 -28.851  25.427  1.00  0.00    -0.000 C 
BRANCH  16  17
ATOM     17  C   UNL     1       2.822 -29.357  23.976  1.00  0.00    -0.000 C 
BRANCH  17  18
ATOM     18  C   UNL     1       1.842 -28.537  23.116  1.00  0.00    -0.000 C 
BRANCH  18  19
ATOM     19  C   UNL     1       0.558 -29.280  22.707  1.00  0.00    -0.003 C 
ATOM     20  C   UNL     1       0.452 -30.675  23.323  1.00  0.00     0.004 C 
ENDBRANCH  18  19
ENDBRANCH  17  18
ENDBRANCH  16  17
ENDBRANCH  15  16
ENDBRANCH  14  15
ENDBRANCH  13  14
ENDBRANCH  12  13
ENDBRANCH   1  12
TORSDOF 16
ENDMDL
MODEL 5
REMARK VINA RESULT:    -5.948      1.102      2.364
REMARK INTER + INTRA:         -12.919
REMARK INTER:                 -11.067
REMARK INTRA:                  -1.852
REMARK UNBOUND:                -1.408
REMARK SMILES CCCCCCCCCCCCCCCCCC(=O)[O-]
REMARK SMILES IDX 10 1 11 2 12 3 13 4 14 5 15 6 16 7 17 8 18 9 19 10 20 11
REMARK SMILES IDX 9 12 8 13 7 14 6 15 5 16 4 17 3 18 2 19 1 20
REMARK H PARENT
REMARK Flexibility Score: inf
ROOT
ATOM      1  C   UNL     1       8.404 -32.375  20.976  1.00  0.00     0.000 C 
ENDROOT
BRANCH   1   2
ATOM      2  C   UNL     1       9.550 -31.481  20.472  1.00  0.00     0.000 C 
BRANCH   2   3
ATOM      3  C   UNL     1      10.934 -32.025  20.859  1.00  0.00     0.000 C 
BRANCH   3   4
ATOM      4  C   UNL     1      10.852 -33.236  21.807  1.00  0.00     0.000 C 
BRANCH   4   5
ATOM      5  C   UNL     1      11.370 -32.919  23.221  1.00  0.00     0.000 C 
BRANCH   5   6
ATOM      6  C   UNL     1      10.424 -32.059  24.082  1.00  0.00     0.000 C 
BRANCH   6   7
ATOM      7  C   UNL     1      11.109 -31.258  25.208  1.00  0.00     0.006 C 
BRANCH   7   8
ATOM      8  C   UNL     1      12.620 -31.055  25.014  1.00  0.00     0.053 C 
BRANCH   8   9
ATOM      9  C   UNL     1      12.937 -29.697  24.468  1.00  0.00     0.041 C 
ATOM     10  O   UNL     1      13.386 -28.798  25.226  1.00  0.00    -0.550 OA
ATOM     11  O   UNL     1      12.705 -29.414  23.128  1.00  0.00    -0.550 OA
ENDBRANCH   8   9
ENDBRANCH   7   8
ENDBRANCH   6   7
ENDBRANCH   5   6
ENDBRANCH   4   5
ENDBRANCH   3   4
ENDBRANCH   2   3
ENDBRANCH   1   2
BRANCH   1  12
ATOM     12  C   UNL     1       7.445 -31.630  21.919  1.00  0.00     0.000 C 
BRANCH  12  13
ATOM     13  C   UNL     1       7.691 -30.111  21.928  1.00  0.00    -0.000 C 
BRANCH  13  14
ATOM     14  C   UNL     1       7.685 -29.519  23.347  1.00  0.00    -0.000 C 
BRANCH  14  15
ATOM     15  C   UNL     1       7.005 -30.444  24.372  1.00  0.00    -0.000 C 
BRANCH  15  16
ATOM     16  C   UNL     1       5.819 -29.767  25.081  1.00  0.00    -0.000 C 
BRANCH  16  17
ATOM     17  C   UNL     1       4.545 -29.757  24.217  1.00  0.00    -0.000 C 
BRANCH  17  18
ATOM     18  C   UNL     1       3.372 -29.022  24.890  1.00  0.00    -0.000 C 
BRANCH  18  19
ATOM     19  C   UNL     1       2.133 -28.823  23.999  1.00  0.00    -0.003 C 
ATOM     20  C   UNL     1       1.477 -30.139  23.583  1.00  0.00     0.004 C 
ENDBRANCH  18  19
ENDBRANCH  17  18
ENDBRANCH  16  17
ENDBRANCH  15  16
ENDBRANCH  14  15
ENDBRANCH  13  14
ENDBRANCH  12  13
ENDBRANCH   1  12
TORSDOF 16
ENDMDL
MODEL 6
REMARK VINA RESULT:    -5.879      4.014      8.666
REMARK INTER + INTRA:         -12.785
REMARK INTER:                 -11.015
REMARK INTRA:                  -1.770
REMARK UNBOUND:                -1.408
REMARK SMILES CCCCCCCCCCCCCCCCCC(=O)[O-]
REMARK SMILES IDX 10 1 11 2 12 3 13 4 14 5 15 6 16 7 17 8 18 9 19 10 20 11
REMARK SMILES IDX 9 12 8 13 7 14 6 15 5 16 4 17 3 18 2 19 1 20
REMARK H PARENT
REMARK Flexibility Score: inf
ROOT
ATOM      1  C   UNL     1       8.565 -30.093  21.351  1.00  0.00     0.000 C 
ENDROOT
BRANCH   1   2
ATOM      2  C   UNL     1       7.372 -30.538  22.216  1.00  0.00     0.000 C 
BRANCH   2   3
ATOM      3  C   UNL     1       7.461 -30.012  23.657  1.00  0.00     0.000 C 
BRANCH   3   4
ATOM      4  C   UNL     1       6.299 -30.501  24.540  1.00  0.00     0.000 C 
BRANCH   4   5
ATOM      5  C   UNL     1       5.707 -29.382  25.416  1.00  0.00     0.000 C 
BRANCH   5   6
ATOM      6  C   UNL     1       4.181 -29.200  25.295  1.00  0.00     0.000 C 
BRANCH   6   7
ATOM      7  C   UNL     1       3.564 -29.704  23.974  1.00  0.00     0.006 C 
BRANCH   7   8
ATOM      8  C   UNL     1       2.200 -29.083  23.633  1.00  0.00     0.053 C 
BRANCH   8   9
ATOM      9  C   UNL     1       1.063 -29.949  24.080  1.00  0.00     0.041 C 
ATOM     10  O   UNL     1       0.690 -29.935  25.282  1.00  0.00    -0.550 OA
ATOM     11  O   UNL     1       0.437 -30.798  23.175  1.00  0.00    -0.550 OA
ENDBRANCH   8   9
ENDBRANCH   7   8
ENDBRANCH   6   7
ENDBRANCH   5   6
ENDBRANCH   4   5
ENDBRANCH   3   4
ENDBRANCH   2   3
ENDBRANCH   1   2
BRANCH   1  12
ATOM     12  C   UNL     1       9.143 -31.241  20.509  1.00  0.00     0.000 C 
BRANCH  12  13
ATOM     13  C   UNL     1       9.248 -32.557  21.300  1.00  0.00    -0.000 C 
BRANCH  13  14
ATOM     14  C   UNL     1      10.686 -33.099  21.361  1.00  0.00    -0.000 C 
BRANCH  14  15
ATOM     15  C   UNL     1      11.409 -32.713  22.665  1.00  0.00    -0.000 C 
BRANCH  15  16
ATOM     16  C   UNL     1      10.430 -32.376  23.803  1.00  0.00    -0.000 C 
BRANCH  16  17
ATOM     17  C   UNL     1      10.776 -31.051  24.504  1.00  0.00    -0.000 C 
BRANCH  17  18
ATOM     18  C   UNL     1      11.771 -30.191  23.701  1.00  0.00    -0.000 C 
BRANCH  18  19
ATOM     19  C   UNL     1      13.046 -29.791  24.463  1.00  0.00    -0.003 C 
ATOM     20  C   UNL     1      13.865 -28.722  23.740  1.00  0.00     0.004 C 
ENDBRANCH  18  19
ENDBRANCH  17  18
ENDBRANCH  16  17
ENDBRANCH  15  16
ENDBRANCH  14  15
ENDBRANCH  13  14
ENDBRANCH  12  13
ENDBRANCH   1  12
TORSDOF 16
ENDMDL
MODEL 7
REMARK VINA RESULT:    -5.878      4.159      8.202
REMARK INTER + INTRA:         -12.784
REMARK INTER:                 -10.979
REMARK INTRA:                  -1.804
REMARK UNBOUND:                -1.408
REMARK SMILES CCCCCCCCCCCCCCCCCC(=O)[O-]
REMARK SMILES IDX 10 1 11 2 12 3 13 4 14 5 15 6 16 7 17 8 18 9 19 10 20 11
REMARK SMILES IDX 9 12 8 13 7 14 6 15 5 16 4 17 3 18 2 19 1 20
REMARK H PARENT
REMARK Flexibility Score: inf
ROOT
ATOM      1  C   UNL     1       8.938 -31.176  25.820  1.00  0.00     0.000 C 
ENDROOT
BRANCH   1   2
ATOM      2  C   UNL     1       7.530 -31.248  25.204  1.00  0.00     0.000 C 
BRANCH   2   3
ATOM      3  C   UNL     1       7.065 -29.895  24.642  1.00  0.00     0.000 C 
BRANCH   3   4
ATOM      4  C   UNL     1       5.550 -29.855  24.370  1.00  0.00     0.000 C 
BRANCH   4   5
ATOM      5  C   UNL     1       4.748 -29.290  25.555  1.00  0.00     0.000 C 
BRANCH   5   6
ATOM      6  C   UNL     1       3.261 -29.008  25.259  1.00  0.00     0.000 C 
BRANCH   6   7
ATOM      7  C   UNL     1       2.834 -29.218  23.792  1.00  0.00     0.006 C 
BRANCH   7   8
ATOM      8  C   UNL     1       1.354 -28.915  23.512  1.00  0.00     0.053 C 
BRANCH   8   9
ATOM      9  C   UNL     1       0.474 -30.085  23.829  1.00  0.00     0.041 C 
ATOM     10  O   UNL     1      -0.038 -30.201  24.973  1.00  0.00    -0.550 OA
ATOM     11  O   UNL     1       0.245 -31.064  22.870  1.00  0.00    -0.550 OA
ENDBRANCH   8   9
ENDBRANCH   7   8
ENDBRANCH   6   7
ENDBRANCH   5   6
ENDBRANCH   4   5
ENDBRANCH   3   4
ENDBRANCH   2   3
ENDBRANCH   1   2
BRANCH   1  12
ATOM     12  C   UNL     1       9.814 -32.379  25.433  1.00  0.00     0.000 C 
BRANCH  12  13
ATOM     13  C   UNL     1      11.041 -31.970  24.599  1.00  0.00    -0.000 C 
BRANCH  13  14
ATOM     14  C   UNL     1      11.103 -30.456  24.339  1.00  0.00    -0.000 C 
BRANCH  14  15
ATOM     15  C   UNL     1      12.029 -30.094  23.164  1.00  0.00    -0.000 C 
BRANCH  15  16
ATOM     16  C   UNL     1      11.252 -29.590  21.935  1.00  0.00    -0.000 C 
BRANCH  16  17
ATOM     17  C   UNL     1       9.750 -29.912  22.016  1.00  0.00    -0.000 C 
BRANCH  17  18
ATOM     18  C   UNL     1       9.284 -30.877  20.910  1.00  0.00    -0.000 C 
BRANCH  18  19
ATOM     19  C   UNL     1       8.589 -32.154  21.412  1.00  0.00    -0.003 C 
ATOM     20  C   UNL     1       7.099 -31.956  21.689  1.00  0.00     0.004 C 
ENDBRANCH  18  19
ENDBRANCH  17  18
ENDBRANCH  16  17
ENDBRANCH  15  16
ENDBRANCH  14  15
ENDBRANCH  13  14
ENDBRANCH  12  13
ENDBRANCH   1  12
TORSDOF 16
ENDMDL
MODEL 8
REMARK VINA RESULT:    -5.860      3.292      5.284
REMARK INTER + INTRA:         -12.750
REMARK INTER:                 -10.074
REMARK INTRA:                  -2.676
REMARK UNBOUND:                -1.408
REMARK SMILES CCCCCCCCCCCCCCCCCC(=O)[O-]
REMARK SMILES IDX 10 1 11 2 12 3 13 4 14 5 15 6 16 7 17 8 18 9 19 10 20 11
REMARK SMILES IDX 9 12 8 13 7 14 6 15 5 16 4 17 3 18 2 19 1 20
REMARK H PARENT
REMARK Flexibility Score: inf
ROOT
ATOM      1  C   UNL     1      11.480 -31.845  21.181  1.00  0.00     0.000 C 
ENDROOT
BRANCH   1   2
ATOM      2  C   UNL     1      12.159 -31.643  22.547  1.00  0.00     0.000 C 
BRANCH   2   3
ATOM      3  C   UNL     1      11.602 -30.428  23.307  1.00  0.00     0.000 C 
BRANCH   3   4
ATOM      4  C   UNL     1      10.882 -30.823  24.609  1.00  0.00     0.000 C 
BRANCH   4   5
ATOM      5  C   UNL     1      10.368 -32.273  24.588  1.00  0.00     0.000 C 
BRANCH   5   6
ATOM      6  C   UNL     1      10.576 -33.056  25.900  1.00  0.00     0.000 C 
BRANCH   6   7
ATOM      7  C   UNL     1      11.148 -34.479  25.730  1.00  0.00     0.006 C 
BRANCH   7   8
ATOM      8  C   UNL     1      11.908 -34.705  24.415  1.00  0.00     0.053 C 
BRANCH   8   9
ATOM      9  C   UNL     1      13.382 -34.849  24.638  1.00  0.00     0.041 C 
ATOM     10  O   UNL     1      14.096 -33.831  24.834  1.00  0.00    -0.550 OA
ATOM     11  O   UNL     1      13.973 -36.105  24.597  1.00  0.00    -0.550 OA
ENDBRANCH   8   9
ENDBRANCH   7   8
ENDBRANCH   6   7
ENDBRANCH   5   6
ENDBRANCH   4   5
ENDBRANCH   3   4
ENDBRANCH   2   3
ENDBRANCH   1   2
BRANCH   1  12
ATOM     12  C   UNL     1      10.380 -32.919  21.223  1.00  0.00     0.000 C 
BRANCH  12  13
ATOM     13  C   UNL     1       8.992 -32.353  20.877  1.00  0.00    -0.000 C 
BRANCH  13  14
ATOM     14  C   UNL     1       8.955 -30.816  20.900  1.00  0.00    -0.000 C 
BRANCH  14  15
ATOM     15  C   UNL     1       7.907 -30.263  21.882  1.00  0.00    -0.000 C 
BRANCH  15  16
ATOM     16  C   UNL     1       7.081 -31.376  22.550  1.00  0.00    -0.000 C 
BRANCH  16  17
ATOM     17  C   UNL     1       6.346 -30.887  23.811  1.00  0.00    -0.000 C 
BRANCH  17  18
ATOM     18  C   UNL     1       7.035 -31.332  25.115  1.00  0.00    -0.000 C 
BRANCH  18  19
ATOM     19  C   UNL     1       7.348 -30.196  26.104  1.00  0.00    -0.003 C 
ATOM     20  C   UNL     1       7.731 -28.888  25.412  1.00  0.00     0.004 C 
ENDBRANCH  18  19
ENDBRANCH  17  18
ENDBRANCH  16  17
ENDBRANCH  15  16
ENDBRANCH  14  15
ENDBRANCH  13  14
ENDBRANCH  12  13
ENDBRANCH   1  12
TORSDOF 16
ENDMDL
MODEL 9
REMARK VINA RESULT:    -5.736      2.782      5.179
REMARK INTER + INTRA:         -12.509
REMARK INTER:                  -9.970
REMARK INTRA:                  -2.539
REMARK UNBOUND:                -1.408
REMARK SMILES CCCCCCCCCCCCCCCCCC(=O)[O-]
REMARK SMILES IDX 10 1 11 2 12 3 13 4 14 5 15 6 16 7 17 8 18 9 19 10 20 11
REMARK SMILES IDX 9 12 8 13 7 14 6 15 5 16 4 17 3 18 2 19 1 20
REMARK H PARENT
REMARK Flexibility Score: inf
ROOT
ATOM      1  C   UNL     1       9.824 -32.373  25.006  1.00  0.00     0.000 C 
ENDROOT
BRANCH   1   2
ATOM      2  C   UNL     1      10.648 -33.243  25.970  1.00  0.00     0.000 C 
BRANCH   2   3
ATOM      3  C   UNL     1      11.537 -34.258  25.233  1.00  0.00     0.000 C 
BRANCH   3   4
ATOM      4  C   UNL     1      12.966 -33.735  24.999  1.00  0.00     0.000 C 
BRANCH   4   5
ATOM      5  C   UNL     1      13.253 -33.431  23.518  1.00  0.00     0.000 C 
BRANCH   5   6
ATOM      6  C   UNL     1      13.730 -31.993  23.231  1.00  0.00     0.000 C 
BRANCH   6   7
ATOM      7  C   UNL     1      12.639 -30.907  23.331  1.00  0.00     0.006 C 
BRANCH   7   8
ATOM      8  C   UNL     1      12.647 -30.118  24.649  1.00  0.00     0.053 C 
BRANCH   8   9
ATOM      9  C   UNL     1      13.625 -28.984  24.616  1.00  0.00     0.041 C 
ATOM     10  O   UNL     1      14.043 -28.540  23.515  1.00  0.00    -0.550 OA
ATOM     11  O   UNL     1      14.102 -28.441  25.802  1.00  0.00    -0.550 OA
ENDBRANCH   8   9
ENDBRANCH   7   8
ENDBRANCH   6   7
ENDBRANCH   5   6
ENDBRANCH   4   5
ENDBRANCH   3   4
ENDBRANCH   2   3
ENDBRANCH   1   2
BRANCH   1  12
ATOM     12  C   UNL     1       9.140 -31.192  25.715  1.00  0.00     0.000 C 
BRANCH  12  13
ATOM     13  C   UNL     1       7.605 -31.263  25.629  1.00  0.00    -0.000 C 
BRANCH  13  14
ATOM     14  C   UNL     1       7.016 -30.208  24.676  1.00  0.00    -0.000 C 
BRANCH  14  15
ATOM     15  C   UNL     1       6.205 -30.835  23.528  1.00  0.00    -0.000 C 
BRANCH  15  16
ATOM     16  C   UNL     1       7.086 -31.230  22.331  1.00  0.00    -0.000 C 
BRANCH  16  17
ATOM     17  C   UNL     1       8.215 -30.217  22.072  1.00  0.00    -0.000 C 
BRANCH  17  18
ATOM     18  C   UNL     1       9.457 -30.858  21.425  1.00  0.00    -0.000 C 
BRANCH  18  19
ATOM     19  C   UNL     1       9.401 -32.391  21.291  1.00  0.00    -0.003 C 
ATOM     20  C   UNL     1      10.757 -33.012  20.956  1.00  0.00     0.004 C 
ENDBRANCH  18  19
ENDBRANCH  17  18
ENDBRANCH  16  17
ENDBRANCH  15  16
ENDBRANCH  14  15
ENDBRANCH  13  14
ENDBRANCH  12  13
ENDBRANCH   1  12
TORSDOF 16
ENDMDL
