MODEL 1
REMARK VINA RESULT:    -3.123      0.000      0.000
REMARK INTER + INTRA:          -3.316
REMARK INTER:                  -3.306
REMARK INTRA:                  -0.010
REMARK UNBOUND:                -0.010
REMARK SMILES O=Cc1ccco1
REMARK SMILES IDX 5 1 6 2 7 3 3 4 4 5 2 6 1 7
REMARK H PARENT
REMARK Flexibility Score: inf
ROOT
ATOM      1  C   UNL     1      -1.255  32.241 -42.654  1.00  0.00     0.043 A 
ATOM      2  C   UNL     1      -0.200  32.077 -43.530  1.00  0.00     0.196 A 
ATOM      3  O   UNL     1       0.122  30.806 -43.604  1.00  0.00    -0.462 OA
ATOM      4  C   UNL     1      -0.676  30.126 -42.813  1.00  0.00     0.166 A 
ATOM      5  C   UNL     1      -1.565  30.980 -42.189  1.00  0.00     0.054 A 
ENDROOT
BRANCH   4   6
ATOM      6  C   UNL     1      -0.607  28.673 -42.641  1.00  0.00     0.298 C 
ATOM      7  O   UNL     1      -1.602  27.947 -42.901  1.00  0.00    -0.294 OA
ENDBRANCH   4   6
TORSDOF 1
ENDMDL
MODEL 2
REMARK VINA RESULT:    -2.989      1.774      3.270
REMARK INTER + INTRA:          -3.174
REMARK INTER:                  -3.163
REMARK INTRA:                  -0.011
REMARK UNBOUND:                -0.010
REMARK SMILES O=Cc1ccco1
REMARK SMILES IDX 5 1 6 2 7 3 3 4 4 5 2 6 1 7
REMARK H PARENT
REMARK Flexibility Score: inf
ROOT
ATOM      1  C   UNL     1      -1.696  30.928 -42.082  1.00  0.00     0.043 A 
ATOM      2  C   UNL     1      -2.074  29.874 -42.890  1.00  0.00     0.196 A 
ATOM      3  O   UNL     1      -1.799  30.155 -44.143  1.00  0.00    -0.462 OA
ATOM      4  C   UNL     1      -1.257  31.350 -44.195  1.00  0.00     0.166 A 
ATOM      5  C   UNL     1      -1.168  31.884 -42.924  1.00  0.00     0.054 A 
ENDROOT
BRANCH   4   6
ATOM      6  C   UNL     1      -0.822  31.994 -45.436  1.00  0.00     0.298 C 
ATOM      7  O   UNL     1      -0.415  33.185 -45.434  1.00  0.00    -0.294 OA
ENDBRANCH   4   6
TORSDOF 1
ENDMDL
MODEL 3
REMARK VINA RESULT:    -2.921      1.460      3.292
REMARK INTER + INTRA:          -3.102
REMARK INTER:                  -3.091
REMARK INTRA:                  -0.011
REMARK UNBOUND:                -0.010
REMARK SMILES O=Cc1ccco1
REMARK SMILES IDX 5 1 6 2 7 3 3 4 4 5 2 6 1 7
REMARK H PARENT
REMARK Flexibility Score: inf
ROOT
ATOM      1  C   UNL     1      -0.622  28.624 -42.617  1.00  0.00     0.043 A 
ATOM      2  C   UNL     1      -1.787  28.534 -43.353  1.00  0.00     0.196 A 
ATOM      3  O   UNL     1      -2.203  29.739 -43.672  1.00  0.00    -0.462 OA
ATOM      4  C   UNL     1      -1.361  30.617 -43.177  1.00  0.00     0.166 A 
ATOM      5  C   UNL     1      -0.345  29.969 -42.502  1.00  0.00     0.054 A 
ENDROOT
BRANCH   4   6
ATOM      6  C   UNL     1      -1.508  32.065 -43.335  1.00  0.00     0.298 C 
ATOM      7  O   UNL     1      -1.146  32.852 -42.422  1.00  0.00    -0.294 OA
ENDBRANCH   4   6
TORSDOF 1
ENDMDL
MODEL 4
REMARK VINA RESULT:    -2.875      1.907      3.005
REMARK INTER + INTRA:          -3.053
REMARK INTER:                  -3.042
REMARK INTRA:                  -0.011
REMARK UNBOUND:                -0.010
REMARK SMILES O=Cc1ccco1
REMARK SMILES IDX 5 1 6 2 7 3 3 4 4 5 2 6 1 7
REMARK H PARENT
REMARK Flexibility Score: inf
ROOT
ATOM      1  C   UNL     1      -1.046  32.504 -42.527  1.00  0.00     0.043 A 
ATOM      2  C   UNL     1      -1.429  31.197 -42.302  1.00  0.00     0.196 A 
ATOM      3  O   UNL     1      -1.598  30.580 -43.450  1.00  0.00    -0.462 OA
ATOM      4  C   UNL     1      -1.342  31.427 -44.420  1.00  0.00     0.166 A 
ATOM      5  C   UNL     1      -0.988  32.655 -43.897  1.00  0.00     0.054 A 
ENDROOT
BRANCH   4   6
ATOM      6  C   UNL     1      -1.428  31.085 -45.842  1.00  0.00     0.298 C 
ATOM      7  O   UNL     1      -0.664  31.629 -46.682  1.00  0.00    -0.294 OA
ENDBRANCH   4   6
TORSDOF 1
ENDMDL
MODEL 5
REMARK VINA RESULT:    -2.856     13.630     14.904
REMARK INTER + INTRA:          -3.034
REMARK INTER:                  -3.020
REMARK INTRA:                  -0.014
REMARK UNBOUND:                -0.010
REMARK SMILES O=Cc1ccco1
REMARK SMILES IDX 5 1 6 2 7 3 3 4 4 5 2 6 1 7
REMARK H PARENT
REMARK Flexibility Score: inf
ROOT
ATOM      1  C   UNL     1      -9.183  20.875 -32.960  1.00  0.00     0.043 A 
ATOM      2  C   UNL     1      -9.345  21.100 -34.312  1.00  0.00     0.196 A 
ATOM      3  O   UNL     1      -9.114  22.365 -34.582  1.00  0.00    -0.462 OA
ATOM      4  C   UNL     1      -8.807  22.981 -33.464  1.00  0.00     0.166 A 
ATOM      5  C   UNL     1      -8.835  22.090 -32.409  1.00  0.00     0.054 A 
ENDROOT
BRANCH   4   6
ATOM      6  C   UNL     1      -8.487  24.408 -33.383  1.00  0.00     0.298 C 
ATOM      7  O   UNL     1      -9.175  25.258 -34.006  1.00  0.00    -0.294 OA
ENDBRANCH   4   6
TORSDOF 1
ENDMDL
MODEL 6
REMARK VINA RESULT:    -2.788     12.028     12.506
REMARK INTER + INTRA:          -2.961
REMARK INTER:                  -2.950
REMARK INTRA:                  -0.011
REMARK UNBOUND:                -0.010
REMARK SMILES O=Cc1ccco1
REMARK SMILES IDX 5 1 6 2 7 3 3 4 4 5 2 6 1 7
REMARK H PARENT
REMARK Flexibility Score: inf
ROOT
ATOM      1  C   UNL     1     -10.028  26.782 -36.883  1.00  0.00     0.043 A 
ATOM      2  C   UNL     1     -10.218  27.680 -35.852  1.00  0.00     0.196 A 
ATOM      3  O   UNL     1      -9.841  27.137 -34.716  1.00  0.00    -0.462 OA
ATOM      4  C   UNL     1      -9.410  25.921 -34.957  1.00  0.00     0.166 A 
ATOM      5  C   UNL     1      -9.505  25.644 -36.307  1.00  0.00     0.054 A 
ENDROOT
BRANCH   4   6
ATOM      6  C   UNL     1      -8.909  25.015 -33.922  1.00  0.00     0.298 C 
ATOM      7  O   UNL     1      -8.723  23.794 -34.170  1.00  0.00    -0.294 OA
ENDBRANCH   4   6
TORSDOF 1
ENDMDL
MODEL 7
REMARK VINA RESULT:    -2.759     11.215     12.004
REMARK INTER + INTRA:          -2.930
REMARK INTER:                  -2.920
REMARK INTRA:                  -0.010
REMARK UNBOUND:                -0.010
REMARK SMILES O=Cc1ccco1
REMARK SMILES IDX 5 1 6 2 7 3 3 4 4 5 2 6 1 7
REMARK H PARENT
REMARK Flexibility Score: inf
ROOT
ATOM      1  C   UNL     1      -9.652  26.136 -34.875  1.00  0.00     0.043 A 
ATOM      2  C   UNL     1      -9.499  25.527 -36.105  1.00  0.00     0.196 A 
ATOM      3  O   UNL     1      -9.743  26.394 -37.062  1.00  0.00    -0.462 OA
ATOM      4  C   UNL     1     -10.050  27.547 -36.513  1.00  0.00     0.166 A 
ATOM      5  C   UNL     1     -10.009  27.442 -35.136  1.00  0.00     0.054 A 
ENDROOT
BRANCH   4   6
ATOM      6  C   UNL     1     -10.384  28.749 -37.279  1.00  0.00     0.298 C 
ATOM      7  O   UNL     1      -9.772  29.831 -37.077  1.00  0.00    -0.294 OA
ENDBRANCH   4   6
TORSDOF 1
ENDMDL
MODEL 8
REMARK VINA RESULT:    -2.752     11.581     12.252
REMARK INTER + INTRA:          -2.923
REMARK INTER:                  -2.913
REMARK INTRA:                  -0.010
REMARK UNBOUND:                -0.010
REMARK SMILES O=Cc1ccco1
REMARK SMILES IDX 5 1 6 2 7 3 3 4 4 5 2 6 1 7
REMARK H PARENT
REMARK Flexibility Score: inf
ROOT
ATOM      1  C   UNL     1      -9.599  25.380 -38.267  1.00  0.00     0.043 A 
ATOM      2  C   UNL     1      -9.602  24.218 -37.522  1.00  0.00     0.196 A 
ATOM      3  O   UNL     1      -9.582  24.512 -36.242  1.00  0.00    -0.462 OA
ATOM      4  C   UNL     1      -9.564  25.818 -36.113  1.00  0.00     0.166 A 
ATOM      5  C   UNL     1      -9.574  26.417 -37.358  1.00  0.00     0.054 A 
ENDROOT
BRANCH   4   6
ATOM      6  C   UNL     1      -9.538  26.509 -34.822  1.00  0.00     0.298 C 
ATOM      7  O   UNL     1     -10.280  27.503 -34.609  1.00  0.00    -0.294 OA
ENDBRANCH   4   6
TORSDOF 1
ENDMDL
MODEL 9
REMARK VINA RESULT:    -2.696     11.862     12.110
REMARK INTER + INTRA:          -2.864
REMARK INTER:                  -2.852
REMARK INTRA:                  -0.011
REMARK UNBOUND:                -0.010
REMARK SMILES O=Cc1ccco1
REMARK SMILES IDX 5 1 6 2 7 3 3 4 4 5 2 6 1 7
REMARK H PARENT
REMARK Flexibility Score: inf
ROOT
ATOM      1  C   UNL     1      -9.993  27.420 -34.979  1.00  0.00     0.043 A 
ATOM      2  C   UNL     1     -10.359  27.801 -36.254  1.00  0.00     0.196 A 
ATOM      3  O   UNL     1     -10.202  26.792 -37.081  1.00  0.00    -0.462 OA
ATOM      4  C   UNL     1      -9.746  25.764 -36.403  1.00  0.00     0.166 A 
ATOM      5  C   UNL     1      -9.596  26.103 -35.072  1.00  0.00     0.054 A 
ENDROOT
BRANCH   4   6
ATOM      6  C   UNL     1      -9.451  24.461 -37.002  1.00  0.00     0.298 C 
ATOM      7  O   UNL     1      -9.072  23.496 -36.287  1.00  0.00    -0.294 OA
ENDBRANCH   4   6
TORSDOF 1
ENDMDL
