MODEL 1
REMARK VINA RESULT:    -6.911      0.000      0.000
REMARK INTER + INTRA:         -11.230
REMARK INTER:                  -9.134
REMARK INTRA:                  -2.097
REMARK UNBOUND:                -2.097
REMARK SMILES CC[C@@H](C=C[C@@H](C)[C@H]1CC[C@H]2C3=CC[C@@H]4C[C@H](O)CC[C@]4(C)[C@@H]3CC[C@@]12C)C(C)C
REMARK SMILES IDX 6 1 7 2 5 3 4 4 3 5 2 6 1 7 28 8 29 9 30 10 8 11 9 12 26 13
REMARK SMILES IDX 10 14 11 15 25 16 27 17 12 18 24 19 23 20 13 21 21 22 14 23
REMARK SMILES IDX 15 24 20 25 22 26 16 27 19 28 17 29 18 30
REMARK H PARENT 18 31
REMARK Flexibility Score: inf
ROOT
ATOM      1  C   UNL     1     120.308 120.603 132.556  1.00  0.00     0.012 C 
ATOM      2  C   UNL     1     121.728 120.095 132.886  1.00  0.00     0.012 C 
ENDROOT
BRANCH   1   3
ATOM      3  C   UNL     1     119.305 119.502 132.831  1.00  0.00    -0.028 C 
ATOM      4  C   UNL     1     118.158 119.644 133.525  1.00  0.00    -0.027 C 
BRANCH   4   5
ATOM      5  C   UNL     1     117.714 120.911 134.240  1.00  0.00     0.014 C 
BRANCH   5   6
ATOM      6  C   UNL     1     118.071 120.789 135.741  1.00  0.00     0.004 C 
ATOM      7  C   UNL     1     119.335 121.560 136.125  1.00  0.00     0.004 C 
ENDBRANCH   5   6
BRANCH   5   8
ATOM      8  C   UNL     1     116.211 121.242 133.969  1.00  0.00    -0.011 C 
ATOM      9  C   UNL     1     115.225 120.176 134.478  1.00  0.00     0.008 C 
ATOM     10  C   UNL     1     115.962 121.526 132.479  1.00  0.00     0.008 C 
ENDBRANCH   5   8
ENDBRANCH   4   5
ENDBRANCH   1   3
BRANCH   1  11
ATOM     11  C   UNL     1     120.082 121.245 131.140  1.00  0.00     0.002 C 
ATOM     12  C   UNL     1     118.909 120.635 130.354  1.00  0.00     0.005 C 
ATOM     13  C   UNL     1     119.970 122.792 130.953  1.00  0.00    -0.023 C 
ATOM     14  C   UNL     1     118.462 121.692 129.344  1.00  0.00     0.009 C 
ATOM     15  C   UNL     1     119.413 122.880 129.512  1.00  0.00     0.021 C 
ATOM     16  C   UNL     1     118.998 123.452 131.972  1.00  0.00     0.008 C 
ATOM     17  C   UNL     1     121.356 123.485 131.017  1.00  0.00     0.012 C 
ATOM     18  C   UNL     1     118.758 124.215 129.179  1.00  0.00    -0.067 C 
ATOM     19  C   UNL     1     118.525 124.855 131.558  1.00  0.00     0.009 C 
ATOM     20  C   UNL     1     117.798 124.822 130.199  1.00  0.00     0.021 C 
ATOM     21  C   UNL     1     119.105 124.840 128.036  1.00  0.00    -0.027 C 
ATOM     22  C   UNL     1     117.088 126.164 129.720  1.00  0.00    -0.023 C 
ATOM     23  C   UNL     1     118.508 126.134 127.577  1.00  0.00     0.031 C 
ATOM     24  C   UNL     1     117.975 126.992 128.734  1.00  0.00     0.002 C 
ATOM     25  C   UNL     1     116.613 127.100 130.885  1.00  0.00     0.010 C 
ATOM     26  C   UNL     1     115.794 125.743 128.961  1.00  0.00     0.012 C 
ATOM     27  C   UNL     1     119.116 127.743 129.446  1.00  0.00     0.036 C 
ATOM     28  C   UNL     1     117.705 127.983 131.525  1.00  0.00     0.032 C 
ATOM     29  C   UNL     1     118.547 128.723 130.482  1.00  0.00     0.114 C 
BRANCH  29  30
ATOM     30  O   UNL     1     119.596 129.391 131.131  1.00  0.00    -0.393 OA
ATOM     31  H   UNL     1     119.215 130.230 131.503  1.00  0.00     0.210 HD
ENDBRANCH  29  30
ENDBRANCH   1  11
TORSDOF 6
ENDMDL
MODEL 2
REMARK VINA RESULT:    -6.911      3.679      6.526
REMARK INTER + INTRA:         -11.230
REMARK INTER:                  -9.402
REMARK INTRA:                  -1.828
REMARK UNBOUND:                -2.097
REMARK SMILES CC[C@@H](C=C[C@@H](C)[C@H]1CC[C@H]2C3=CC[C@@H]4C[C@H](O)CC[C@]4(C)[C@@H]3CC[C@@]12C)C(C)C
REMARK SMILES IDX 6 1 7 2 5 3 4 4 3 5 2 6 1 7 28 8 29 9 30 10 8 11 9 12 26 13
REMARK SMILES IDX 10 14 11 15 25 16 27 17 12 18 24 19 23 20 13 21 21 22 14 23
REMARK SMILES IDX 15 24 20 25 22 26 16 27 19 28 17 29 18 30
REMARK H PARENT 18 31
REMARK Flexibility Score: inf
ROOT
ATOM      1  C   UNL     1     120.643 121.621 126.924  1.00  0.00     0.012 C 
ATOM      2  C   UNL     1     122.164 121.807 126.738  1.00  0.00     0.012 C 
ENDROOT
BRANCH   1   3
ATOM      3  C   UNL     1     120.007 121.318 125.582  1.00  0.00    -0.028 C 
ATOM      4  C   UNL     1     119.372 120.174 125.259  1.00  0.00    -0.027 C 
BRANCH   4   5
ATOM      5  C   UNL     1     119.264 118.945 126.150  1.00  0.00     0.014 C 
BRANCH   5   6
ATOM      6  C   UNL     1     120.588 118.149 126.063  1.00  0.00     0.004 C 
ATOM      7  C   UNL     1     121.320 118.048 127.402  1.00  0.00     0.004 C 
ENDBRANCH   5   6
BRANCH   5   8
ATOM      8  C   UNL     1     117.990 118.099 125.831  1.00  0.00    -0.011 C 
ATOM      9  C   UNL     1     116.833 118.293 126.827  1.00  0.00     0.008 C 
ATOM     10  C   UNL     1     118.330 116.606 125.697  1.00  0.00     0.008 C 
ENDBRANCH   5   8
ENDBRANCH   4   5
ENDBRANCH   1   3
BRANCH   1  11
ATOM     11  C   UNL     1     119.865 122.755 127.684  1.00  0.00     0.002 C 
ATOM     12  C   UNL     1     119.099 123.718 126.761  1.00  0.00     0.005 C 
ATOM     13  C   UNL     1     118.899 122.431 128.867  1.00  0.00    -0.023 C 
ATOM     14  C   UNL     1     117.983 124.337 127.603  1.00  0.00     0.009 C 
ATOM     15  C   UNL     1     118.146 123.774 129.017  1.00  0.00     0.021 C 
ATOM     16  C   UNL     1     117.917 121.270 128.541  1.00  0.00     0.008 C 
ATOM     17  C   UNL     1     119.672 122.120 130.176  1.00  0.00     0.012 C 
ATOM     18  C   UNL     1     116.825 123.665 129.769  1.00  0.00    -0.067 C 
ATOM     19  C   UNL     1     116.694 121.213 129.471  1.00  0.00     0.009 C 
ATOM     20  C   UNL     1     115.882 122.521 129.408  1.00  0.00     0.021 C 
ATOM     21  C   UNL     1     116.574 124.536 130.767  1.00  0.00    -0.027 C 
ATOM     22  C   UNL     1     114.486 122.550 130.173  1.00  0.00    -0.023 C 
ATOM     23  C   UNL     1     115.301 124.560 131.553  1.00  0.00     0.031 C 
ATOM     24  C   UNL     1     114.595 123.196 131.593  1.00  0.00     0.002 C 
ATOM     25  C   UNL     1     113.787 121.153 130.303  1.00  0.00     0.010 C 
ATOM     26  C   UNL     1     113.522 123.428 129.320  1.00  0.00     0.012 C 
ATOM     27  C   UNL     1     115.245 122.258 132.627  1.00  0.00     0.036 C 
ATOM     28  C   UNL     1     114.313 120.240 131.432  1.00  0.00     0.032 C 
ATOM     29  C   UNL     1     114.423 120.971 132.773  1.00  0.00     0.114 C 
BRANCH  29  30
ATOM     30  O   UNL     1     115.033 120.120 133.708  1.00  0.00    -0.393 OA
ATOM     31  H   UNL     1     114.301 119.644 134.182  1.00  0.00     0.210 HD
ENDBRANCH  29  30
ENDBRANCH   1  11
TORSDOF 6
ENDMDL
MODEL 3
REMARK VINA RESULT:    -6.794      2.956      7.770
REMARK INTER + INTRA:         -11.075
REMARK INTER:                 -10.660
REMARK INTRA:                  -0.415
REMARK UNBOUND:                -2.097
REMARK SMILES CC[C@@H](C=C[C@@H](C)[C@H]1CC[C@H]2C3=CC[C@@H]4C[C@H](O)CC[C@]4(C)[C@@H]3CC[C@@]12C)C(C)C
REMARK SMILES IDX 6 1 7 2 5 3 4 4 3 5 2 6 1 7 28 8 29 9 30 10 8 11 9 12 26 13
REMARK SMILES IDX 10 14 11 15 25 16 27 17 12 18 24 19 23 20 13 21 21 22 14 23
REMARK SMILES IDX 15 24 20 25 22 26 16 27 19 28 17 29 18 30
REMARK H PARENT 18 31
REMARK Flexibility Score: inf
ROOT
ATOM      1  C   UNL     1     118.854 127.931 129.852  1.00  0.00     0.012 C 
ATOM      2  C   UNL     1     120.007 127.236 130.606  1.00  0.00     0.012 C 
ENDROOT
BRANCH   1   3
ATOM      3  C   UNL     1     118.132 128.871 130.796  1.00  0.00    -0.028 C 
ATOM      4  C   UNL     1     118.647 130.002 131.318  1.00  0.00    -0.027 C 
BRANCH   4   5
ATOM      5  C   UNL     1     120.077 130.486 131.133  1.00  0.00     0.014 C 
BRANCH   5   6
ATOM      6  C   UNL     1     120.517 131.242 132.410  1.00  0.00     0.004 C 
ATOM      7  C   UNL     1     119.797 130.764 133.672  1.00  0.00     0.004 C 
ENDBRANCH   5   6
BRANCH   5   8
ATOM      8  C   UNL     1     120.252 131.307 129.815  1.00  0.00    -0.011 C 
ATOM      9  C   UNL     1     121.657 131.906 129.622  1.00  0.00     0.008 C 
ATOM     10  C   UNL     1     119.186 132.408 129.697  1.00  0.00     0.008 C 
ENDBRANCH   5   8
ENDBRANCH   4   5
ENDBRANCH   1   3
BRANCH   1  11
ATOM     11  C   UNL     1     117.845 127.014 129.072  1.00  0.00     0.002 C 
ATOM     12  C   UNL     1     118.432 126.367 127.806  1.00  0.00     0.005 C 
ATOM     13  C   UNL     1     117.036 125.890 129.796  1.00  0.00    -0.023 C 
ATOM     14  C   UNL     1     117.597 125.119 127.524  1.00  0.00     0.009 C 
ATOM     15  C   UNL     1     116.499 125.083 128.589  1.00  0.00     0.021 C 
ATOM     16  C   UNL     1     117.926 125.003 130.713  1.00  0.00     0.008 C 
ATOM     17  C   UNL     1     115.846 126.465 130.607  1.00  0.00     0.012 C 
ATOM     18  C   UNL     1     116.055 123.668 128.937  1.00  0.00    -0.067 C 
ATOM     19  C   UNL     1     117.285 123.657 131.084  1.00  0.00     0.009 C 
ATOM     20  C   UNL     1     116.964 122.824 129.827  1.00  0.00     0.021 C 
ATOM     21  C   UNL     1     114.849 123.243 128.508  1.00  0.00    -0.027 C 
ATOM     22  C   UNL     1     116.466 121.329 130.050  1.00  0.00    -0.023 C 
ATOM     23  C   UNL     1     114.315 121.865 128.748  1.00  0.00     0.031 C 
ATOM     24  C   UNL     1     114.908 121.203 130.000  1.00  0.00     0.002 C 
ATOM     25  C   UNL     1     116.988 120.660 131.369  1.00  0.00     0.010 C 
ATOM     26  C   UNL     1     117.052 120.479 128.884  1.00  0.00     0.012 C 
ATOM     27  C   UNL     1     114.227 121.717 131.283  1.00  0.00     0.036 C 
ATOM     28  C   UNL     1     116.229 121.037 132.660  1.00  0.00     0.032 C 
ATOM     29  C   UNL     1     114.711 120.921 132.502  1.00  0.00     0.114 C 
BRANCH  29  30
ATOM     30  O   UNL     1     114.092 121.408 133.664  1.00  0.00    -0.393 OA
ATOM     31  H   UNL     1     113.359 122.009 133.369  1.00  0.00     0.210 HD
ENDBRANCH  29  30
ENDBRANCH   1  11
TORSDOF 6
ENDMDL
MODEL 4
REMARK VINA RESULT:    -6.654      3.371      6.529
REMARK INTER + INTRA:         -10.891
REMARK INTER:                  -8.620
REMARK INTRA:                  -2.271
REMARK UNBOUND:                -2.097
REMARK SMILES CC[C@@H](C=C[C@@H](C)[C@H]1CC[C@H]2C3=CC[C@@H]4C[C@H](O)CC[C@]4(C)[C@@H]3CC[C@@]12C)C(C)C
REMARK SMILES IDX 6 1 7 2 5 3 4 4 3 5 2 6 1 7 28 8 29 9 30 10 8 11 9 12 26 13
REMARK SMILES IDX 10 14 11 15 25 16 27 17 12 18 24 19 23 20 13 21 21 22 14 23
REMARK SMILES IDX 15 24 20 25 22 26 16 27 19 28 17 29 18 30
REMARK H PARENT 18 31
REMARK Flexibility Score: inf
ROOT
ATOM      1  C   UNL     1     116.230 125.673 129.837  1.00  0.00     0.012 C 
ATOM      2  C   UNL     1     115.646 127.038 129.415  1.00  0.00     0.012 C 
ENDROOT
BRANCH   1   3
ATOM      3  C   UNL     1     115.776 125.347 131.245  1.00  0.00    -0.028 C 
ATOM      4  C   UNL     1     115.268 124.165 131.648  1.00  0.00    -0.027 C 
BRANCH   4   5
ATOM      5  C   UNL     1     114.968 122.981 130.742  1.00  0.00     0.014 C 
BRANCH   5   6
ATOM      6  C   UNL     1     113.445 122.934 130.470  1.00  0.00     0.004 C 
ATOM      7  C   UNL     1     113.073 123.362 129.049  1.00  0.00     0.004 C 
ENDBRANCH   5   6
BRANCH   5   8
ATOM      8  C   UNL     1     115.555 121.647 131.306  1.00  0.00    -0.011 C 
ATOM      9  C   UNL     1     116.960 121.781 131.919  1.00  0.00     0.008 C 
ATOM     10  C   UNL     1     115.543 120.538 130.242  1.00  0.00     0.008 C 
ENDBRANCH   5   8
ENDBRANCH   4   5
ENDBRANCH   1   3
BRANCH   1  11
ATOM     11  C   UNL     1     117.779 125.469 129.671  1.00  0.00     0.002 C 
ATOM     12  C   UNL     1     118.508 125.108 130.977  1.00  0.00     0.005 C 
ATOM     13  C   UNL     1     118.366 124.525 128.574  1.00  0.00    -0.023 C 
ATOM     14  C   UNL     1     119.797 124.391 130.575  1.00  0.00     0.009 C 
ATOM     15  C   UNL     1     119.834 124.394 129.045  1.00  0.00     0.021 C 
ATOM     16  C   UNL     1     117.662 123.139 128.534  1.00  0.00     0.008 C 
ATOM     17  C   UNL     1     118.329 125.180 127.168  1.00  0.00     0.012 C 
ATOM     18  C   UNL     1     120.566 123.189 128.467  1.00  0.00    -0.067 C 
ATOM     19  C   UNL     1     118.470 122.055 127.801  1.00  0.00     0.009 C 
ATOM     20  C   UNL     1     119.847 121.842 128.461  1.00  0.00     0.021 C 
ATOM     21  C   UNL     1     121.785 123.372 127.921  1.00  0.00    -0.027 C 
ATOM     22  C   UNL     1     120.728 120.626 127.932  1.00  0.00    -0.023 C 
ATOM     23  C   UNL     1     122.622 122.267 127.357  1.00  0.00     0.031 C 
ATOM     24  C   UNL     1     121.789 121.071 126.873  1.00  0.00     0.002 C 
ATOM     25  C   UNL     1     119.900 119.428 127.351  1.00  0.00     0.010 C 
ATOM     26  C   UNL     1     121.492 120.055 129.163  1.00  0.00     0.012 C 
ATOM     27  C   UNL     1     121.171 121.343 125.488  1.00  0.00     0.036 C 
ATOM     28  C   UNL     1     119.391 119.603 125.903  1.00  0.00     0.032 C 
ATOM     29  C   UNL     1     120.489 120.079 124.948  1.00  0.00     0.114 C 
BRANCH  29  30
ATOM     30  O   UNL     1     119.920 120.343 123.693  1.00  0.00    -0.393 OA
ATOM     31  H   UNL     1     119.717 119.464 123.279  1.00  0.00     0.210 HD
ENDBRANCH  29  30
ENDBRANCH   1  11
TORSDOF 6
ENDMDL
MODEL 5
REMARK VINA RESULT:    -6.638      3.211      5.412
REMARK INTER + INTRA:         -10.869
REMARK INTER:                  -8.887
REMARK INTRA:                  -1.982
REMARK UNBOUND:                -2.097
REMARK SMILES CC[C@@H](C=C[C@@H](C)[C@H]1CC[C@H]2C3=CC[C@@H]4C[C@H](O)CC[C@]4(C)[C@@H]3CC[C@@]12C)C(C)C
REMARK SMILES IDX 6 1 7 2 5 3 4 4 3 5 2 6 1 7 28 8 29 9 30 10 8 11 9 12 26 13
REMARK SMILES IDX 10 14 11 15 25 16 27 17 12 18 24 19 23 20 13 21 21 22 14 23
REMARK SMILES IDX 15 24 20 25 22 26 16 27 19 28 17 29 18 30
REMARK H PARENT 18 31
REMARK Flexibility Score: inf
ROOT
ATOM      1  C   UNL     1     115.147 120.660 132.488  1.00  0.00     0.012 C 
ATOM      2  C   UNL     1     113.747 120.025 132.356  1.00  0.00     0.012 C 
ENDROOT
BRANCH   1   3
ATOM      3  C   UNL     1     115.346 121.147 133.909  1.00  0.00    -0.028 C 
ATOM      4  C   UNL     1     116.475 121.012 134.632  1.00  0.00    -0.027 C 
BRANCH   4   5
ATOM      5  C   UNL     1     117.720 120.260 134.186  1.00  0.00     0.014 C 
BRANCH   5   6
ATOM      6  C   UNL     1     117.644 118.809 134.718  1.00  0.00     0.004 C 
ATOM      7  C   UNL     1     119.014 118.145 134.862  1.00  0.00     0.004 C 
ENDBRANCH   5   6
BRANCH   5   8
ATOM      8  C   UNL     1     119.032 121.013 134.577  1.00  0.00    -0.011 C 
ATOM      9  C   UNL     1     118.991 121.681 135.963  1.00  0.00     0.008 C 
ATOM     10  C   UNL     1     119.427 122.041 133.504  1.00  0.00     0.008 C 
ENDBRANCH   5   8
ENDBRANCH   4   5
ENDBRANCH   1   3
BRANCH   1  11
ATOM     11  C   UNL     1     115.540 121.765 131.443  1.00  0.00     0.002 C 
ATOM     12  C   UNL     1     116.105 123.051 132.070  1.00  0.00     0.005 C 
ATOM     13  C   UNL     1     116.456 121.444 130.219  1.00  0.00    -0.023 C 
ATOM     14  C   UNL     1     116.949 123.731 130.992  1.00  0.00     0.009 C 
ATOM     15  C   UNL     1     116.820 122.867 129.735  1.00  0.00     0.021 C 
ATOM     16  C   UNL     1     117.728 120.642 130.614  1.00  0.00     0.008 C 
ATOM     17  C   UNL     1     115.684 120.696 129.100  1.00  0.00     0.012 C 
ATOM     18  C   UNL     1     118.058 122.924 128.847  1.00  0.00    -0.067 C 
ATOM     19  C   UNL     1     118.843 120.687 129.556  1.00  0.00     0.009 C 
ATOM     20  C   UNL     1     119.292 122.135 129.279  1.00  0.00     0.021 C 
ATOM     21  C   UNL     1     117.992 123.605 127.686  1.00  0.00    -0.027 C 
ATOM     22  C   UNL     1     120.564 122.337 128.343  1.00  0.00    -0.023 C 
ATOM     23  C   UNL     1     119.146 123.769 126.747  1.00  0.00     0.031 C 
ATOM     24  C   UNL     1     120.174 122.634 126.858  1.00  0.00     0.002 C 
ATOM     25  C   UNL     1     121.588 121.150 128.373  1.00  0.00     0.010 C 
ATOM     26  C   UNL     1     121.335 123.574 128.892  1.00  0.00     0.012 C 
ATOM     27  C   UNL     1     119.706 121.376 126.102  1.00  0.00     0.036 C 
ATOM     28  C   UNL     1     121.224 119.927 127.504  1.00  0.00     0.032 C 
ATOM     29  C   UNL     1     120.818 120.319 126.081  1.00  0.00     0.114 C 
BRANCH  29  30
ATOM     30  O   UNL     1     120.374 119.175 125.400  1.00  0.00    -0.393 OA
ATOM     31  H   UNL     1     119.789 119.489 124.661  1.00  0.00     0.210 HD
ENDBRANCH  29  30
ENDBRANCH   1  11
TORSDOF 6
ENDMDL
MODEL 6
REMARK VINA RESULT:    -6.564      3.847      7.791
REMARK INTER + INTRA:         -10.771
REMARK INTER:                  -8.857
REMARK INTRA:                  -1.914
REMARK UNBOUND:                -2.097
REMARK SMILES CC[C@@H](C=C[C@@H](C)[C@H]1CC[C@H]2C3=CC[C@@H]4C[C@H](O)CC[C@]4(C)[C@@H]3CC[C@@]12C)C(C)C
REMARK SMILES IDX 6 1 7 2 5 3 4 4 3 5 2 6 1 7 28 8 29 9 30 10 8 11 9 12 26 13
REMARK SMILES IDX 10 14 11 15 25 16 27 17 12 18 24 19 23 20 13 21 21 22 14 23
REMARK SMILES IDX 15 24 20 25 22 26 16 27 19 28 17 29 18 30
REMARK H PARENT 18 31
REMARK Flexibility Score: inf
ROOT
ATOM      1  C   UNL     1     113.992 122.883 130.344  1.00  0.00     0.012 C 
ATOM      2  C   UNL     1     112.813 123.238 131.274  1.00  0.00     0.012 C 
ENDROOT
BRANCH   1   3
ATOM      3  C   UNL     1     114.071 123.901 129.224  1.00  0.00    -0.028 C 
ATOM      4  C   UNL     1     115.101 124.742 129.003  1.00  0.00    -0.027 C 
BRANCH   4   5
ATOM      5  C   UNL     1     116.325 124.888 129.894  1.00  0.00     0.014 C 
BRANCH   5   6
ATOM      6  C   UNL     1     116.032 125.961 130.971  1.00  0.00     0.004 C 
ATOM      7  C   UNL     1     116.386 127.379 130.521  1.00  0.00     0.004 C 
ENDBRANCH   5   6
BRANCH   5   8
ATOM      8  C   UNL     1     117.624 125.154 129.068  1.00  0.00    -0.011 C 
ATOM      9  C   UNL     1     117.515 124.785 127.578  1.00  0.00     0.008 C 
ATOM     10  C   UNL     1     118.839 124.455 129.699  1.00  0.00     0.008 C 
ENDBRANCH   5   8
ENDBRANCH   4   5
ENDBRANCH   1   3
BRANCH   1  11
ATOM     11  C   UNL     1     114.059 121.414 129.791  1.00  0.00     0.002 C 
ATOM     12  C   UNL     1     113.503 121.254 128.365  1.00  0.00     0.005 C 
ATOM     13  C   UNL     1     115.381 120.584 129.834  1.00  0.00    -0.023 C 
ATOM     14  C   UNL     1     114.152 120.000 127.780  1.00  0.00     0.009 C 
ATOM     15  C   UNL     1     115.031 119.412 128.886  1.00  0.00     0.021 C 
ATOM     16  C   UNL     1     116.609 121.382 129.311  1.00  0.00     0.008 C 
ATOM     17  C   UNL     1     115.672 120.034 131.255  1.00  0.00     0.012 C 
ATOM     18  C   UNL     1     116.244 118.666 128.347  1.00  0.00    -0.067 C 
ATOM     19  C   UNL     1     117.806 120.495 128.927  1.00  0.00     0.009 C 
ATOM     20  C   UNL     1     117.423 119.485 127.827  1.00  0.00     0.021 C 
ATOM     21  C   UNL     1     116.260 117.319 128.414  1.00  0.00    -0.027 C 
ATOM     22  C   UNL     1     118.598 118.620 127.191  1.00  0.00    -0.023 C 
ATOM     23  C   UNL     1     117.373 116.470 127.884  1.00  0.00     0.031 C 
ATOM     24  C   UNL     1     118.721 117.204 127.843  1.00  0.00     0.002 C 
ATOM     25  C   UNL     1     120.004 119.315 127.217  1.00  0.00     0.010 C 
ATOM     26  C   UNL     1     118.251 118.425 125.685  1.00  0.00     0.012 C 
ATOM     27  C   UNL     1     119.380 117.244 129.235  1.00  0.00     0.036 C 
ATOM     28  C   UNL     1     120.765 119.242 128.559  1.00  0.00     0.032 C 
ATOM     29  C   UNL     1     120.797 117.826 129.140  1.00  0.00     0.114 C 
BRANCH  29  30
ATOM     30  O   UNL     1     121.381 117.868 130.414  1.00  0.00    -0.393 OA
ATOM     31  H   UNL     1     121.002 118.660 130.879  1.00  0.00     0.210 HD
ENDBRANCH  29  30
ENDBRANCH   1  11
TORSDOF 6
ENDMDL
MODEL 7
REMARK VINA RESULT:    -6.378      3.746      6.680
REMARK INTER + INTRA:         -10.525
REMARK INTER:                  -8.628
REMARK INTRA:                  -1.897
REMARK UNBOUND:                -2.097
REMARK SMILES CC[C@@H](C=C[C@@H](C)[C@H]1CC[C@H]2C3=CC[C@@H]4C[C@H](O)CC[C@]4(C)[C@@H]3CC[C@@]12C)C(C)C
REMARK SMILES IDX 6 1 7 2 5 3 4 4 3 5 2 6 1 7 28 8 29 9 30 10 8 11 9 12 26 13
REMARK SMILES IDX 10 14 11 15 25 16 27 17 12 18 24 19 23 20 13 21 21 22 14 23
REMARK SMILES IDX 15 24 20 25 22 26 16 27 19 28 17 29 18 30
REMARK H PARENT 18 31
REMARK Flexibility Score: inf
ROOT
ATOM      1  C   UNL     1     121.231 123.134 128.856  1.00  0.00     0.012 C 
ATOM      2  C   UNL     1     122.238 123.730 129.862  1.00  0.00     0.012 C 
ENDROOT
BRANCH   1   3
ATOM      3  C   UNL     1     121.910 122.958 127.513  1.00  0.00    -0.028 C 
ATOM      4  C   UNL     1     121.732 121.914 126.678  1.00  0.00    -0.027 C 
BRANCH   4   5
ATOM      5  C   UNL     1     120.895 120.680 126.978  1.00  0.00     0.014 C 
BRANCH   5   6
ATOM      6  C   UNL     1     121.801 119.429 126.886  1.00  0.00     0.004 C 
ATOM      7  C   UNL     1     122.926 119.572 125.860  1.00  0.00     0.004 C 
ENDBRANCH   5   6
BRANCH   5   8
ATOM      8  C   UNL     1     119.616 120.607 126.084  1.00  0.00    -0.011 C 
ATOM      9  C   UNL     1     119.087 119.181 125.847  1.00  0.00     0.008 C 
ATOM     10  C   UNL     1     119.833 121.322 124.740  1.00  0.00     0.008 C 
ENDBRANCH   5   8
ENDBRANCH   4   5
ENDBRANCH   1   3
BRANCH   1  11
ATOM     11  C   UNL     1     119.845 123.858 128.708  1.00  0.00     0.002 C 
ATOM     12  C   UNL     1     119.406 124.083 127.251  1.00  0.00     0.005 C 
ATOM     13  C   UNL     1     118.576 123.356 129.469  1.00  0.00    -0.023 C 
ATOM     14  C   UNL     1     117.884 124.223 127.268  1.00  0.00     0.009 C 
ATOM     15  C   UNL     1     117.459 124.137 128.736  1.00  0.00     0.021 C 
ATOM     16  C   UNL     1     118.365 121.821 129.339  1.00  0.00     0.008 C 
ATOM     17  C   UNL     1     118.600 123.764 130.965  1.00  0.00     0.012 C 
ATOM     18  C   UNL     1     116.066 123.546 128.917  1.00  0.00    -0.067 C 
ATOM     19  C   UNL     1     116.939 121.360 129.681  1.00  0.00     0.009 C 
ATOM     20  C   UNL     1     115.898 122.036 128.766  1.00  0.00     0.021 C 
ATOM     21  C   UNL     1     115.056 124.365 129.272  1.00  0.00    -0.027 C 
ATOM     22  C   UNL     1     114.394 121.526 128.872  1.00  0.00    -0.023 C 
ATOM     23  C   UNL     1     113.638 123.915 129.443  1.00  0.00     0.031 C 
ATOM     24  C   UNL     1     113.520 122.428 129.804  1.00  0.00     0.002 C 
ATOM     25  C   UNL     1     114.245 120.032 129.325  1.00  0.00     0.010 C 
ATOM     26  C   UNL     1     113.793 121.595 127.437  1.00  0.00     0.012 C 
ATOM     27  C   UNL     1     113.801 122.189 131.299  1.00  0.00     0.036 C 
ATOM     28  C   UNL     1     114.370 119.774 130.842  1.00  0.00     0.032 C 
ATOM     29  C   UNL     1     113.510 120.730 131.673  1.00  0.00     0.114 C 
BRANCH  29  30
ATOM     30  O   UNL     1     113.782 120.523 133.034  1.00  0.00    -0.393 OA
ATOM     31  H   UNL     1     113.105 119.877 133.367  1.00  0.00     0.210 HD
ENDBRANCH  29  30
ENDBRANCH   1  11
TORSDOF 6
ENDMDL
MODEL 8
REMARK VINA RESULT:    -6.002      2.075      4.149
REMARK INTER + INTRA:         -10.028
REMARK INTER:                  -8.221
REMARK INTRA:                  -1.808
REMARK UNBOUND:                -2.097
REMARK SMILES CC[C@@H](C=C[C@@H](C)[C@H]1CC[C@H]2C3=CC[C@@H]4C[C@H](O)CC[C@]4(C)[C@@H]3CC[C@@]12C)C(C)C
REMARK SMILES IDX 6 1 7 2 5 3 4 4 3 5 2 6 1 7 28 8 29 9 30 10 8 11 9 12 26 13
REMARK SMILES IDX 10 14 11 15 25 16 27 17 12 18 24 19 23 20 13 21 21 22 14 23
REMARK SMILES IDX 15 24 20 25 22 26 16 27 19 28 17 29 18 30
REMARK H PARENT 18 31
REMARK Flexibility Score: inf
ROOT
ATOM      1  C   UNL     1     118.469 119.596 134.275  1.00  0.00     0.012 C 
ATOM      2  C   UNL     1     118.299 118.219 134.950  1.00  0.00     0.012 C 
ENDROOT
BRANCH   1   3
ATOM      3  C   UNL     1     118.942 120.604 135.303  1.00  0.00    -0.028 C 
ATOM      4  C   UNL     1     120.224 120.962 135.514  1.00  0.00    -0.027 C 
BRANCH   4   5
ATOM      5  C   UNL     1     121.435 120.348 134.827  1.00  0.00     0.014 C 
BRANCH   5   6
ATOM      6  C   UNL     1     122.387 119.782 135.907  1.00  0.00     0.004 C 
ATOM      7  C   UNL     1     122.430 118.253 135.933  1.00  0.00     0.004 C 
ENDBRANCH   5   6
BRANCH   5   8
ATOM      8  C   UNL     1     122.116 121.346 133.836  1.00  0.00    -0.011 C 
ATOM      9  C   UNL     1     121.619 122.798 133.956  1.00  0.00     0.008 C 
ATOM     10  C   UNL     1     121.993 120.861 132.383  1.00  0.00     0.008 C 
ENDBRANCH   5   8
ENDBRANCH   4   5
ENDBRANCH   1   3
BRANCH   1  11
ATOM     11  C   UNL     1     117.254 120.148 133.446  1.00  0.00     0.002 C 
ATOM     12  C   UNL     1     116.224 120.926 134.284  1.00  0.00     0.005 C 
ATOM     13  C   UNL     1     117.466 120.980 132.141  1.00  0.00    -0.023 C 
ATOM     14  C   UNL     1     115.486 121.854 133.319  1.00  0.00     0.009 C 
ATOM     15  C   UNL     1     116.050 121.566 131.926  1.00  0.00     0.021 C 
ATOM     16  C   UNL     1     118.521 122.110 132.312  1.00  0.00     0.008 C 
ATOM     17  C   UNL     1     117.844 120.079 130.936  1.00  0.00     0.012 C 
ATOM     18  C   UNL     1     116.014 122.782 131.008  1.00  0.00    -0.067 C 
ATOM     19  C   UNL     1     118.442 123.200 131.231  1.00  0.00     0.009 C 
ATOM     20  C   UNL     1     117.057 123.876 131.219  1.00  0.00     0.021 C 
ATOM     21  C   UNL     1     115.113 122.810 130.005  1.00  0.00    -0.027 C 
ATOM     22  C   UNL     1     116.876 125.149 130.281  1.00  0.00    -0.023 C 
ATOM     23  C   UNL     1     114.950 123.961 129.062  1.00  0.00     0.031 C 
ATOM     24  C   UNL     1     116.232 124.791 128.902  1.00  0.00     0.002 C 
ATOM     25  C   UNL     1     118.192 125.965 130.030  1.00  0.00     0.010 C 
ATOM     26  C   UNL     1     115.911 126.122 131.022  1.00  0.00     0.012 C 
ATOM     27  C   UNL     1     117.224 124.110 127.939  1.00  0.00     0.036 C 
ATOM     28  C   UNL     1     119.144 125.391 128.958  1.00  0.00     0.032 C 
ATOM     29  C   UNL     1     118.417 125.033 127.660  1.00  0.00     0.114 C 
BRANCH  29  30
ATOM     30  O   UNL     1     119.318 124.397 126.792  1.00  0.00    -0.393 OA
ATOM     31  H   UNL     1     118.789 123.758 126.247  1.00  0.00     0.210 HD
ENDBRANCH  29  30
ENDBRANCH   1  11
TORSDOF 6
ENDMDL
MODEL 9
REMARK VINA RESULT:    -5.993      3.528      6.426
REMARK INTER + INTRA:         -10.016
REMARK INTER:                  -7.905
REMARK INTRA:                  -2.111
REMARK UNBOUND:                -2.097
REMARK SMILES CC[C@@H](C=C[C@@H](C)[C@H]1CC[C@H]2C3=CC[C@@H]4C[C@H](O)CC[C@]4(C)[C@@H]3CC[C@@]12C)C(C)C
REMARK SMILES IDX 6 1 7 2 5 3 4 4 3 5 2 6 1 7 28 8 29 9 30 10 8 11 9 12 26 13
REMARK SMILES IDX 10 14 11 15 25 16 27 17 12 18 24 19 23 20 13 21 21 22 14 23
REMARK SMILES IDX 15 24 20 25 22 26 16 27 19 28 17 29 18 30
REMARK H PARENT 18 31
REMARK Flexibility Score: inf
ROOT
ATOM      1  C   UNL     1     116.469 124.285 131.049  1.00  0.00     0.012 C 
ATOM      2  C   UNL     1     116.339 125.787 131.377  1.00  0.00     0.012 C 
ENDROOT
BRANCH   1   3
ATOM      3  C   UNL     1     115.551 123.492 131.956  1.00  0.00    -0.028 C 
ATOM      4  C   UNL     1     114.736 122.492 131.564  1.00  0.00    -0.027 C 
BRANCH   4   5
ATOM      5  C   UNL     1     114.519 122.047 130.126  1.00  0.00     0.014 C 
BRANCH   5   6
ATOM      6  C   UNL     1     113.194 122.657 129.609  1.00  0.00     0.004 C 
ATOM      7  C   UNL     1     113.403 123.766 128.577  1.00  0.00     0.004 C 
ENDBRANCH   5   6
BRANCH   5   8
ATOM      8  C   UNL     1     114.607 120.494 129.973  1.00  0.00    -0.011 C 
ATOM      9  C   UNL     1     116.025 119.920 130.141  1.00  0.00     0.008 C 
ATOM     10  C   UNL     1     114.001 120.029 128.639  1.00  0.00     0.008 C 
ENDBRANCH   5   8
ENDBRANCH   4   5
ENDBRANCH   1   3
BRANCH   1  11
ATOM     11  C   UNL     1     117.916 123.674 131.022  1.00  0.00     0.002 C 
ATOM     12  C   UNL     1     118.106 122.467 131.957  1.00  0.00     0.005 C 
ATOM     13  C   UNL     1     118.619 123.295 129.679  1.00  0.00    -0.023 C 
ATOM     14  C   UNL     1     119.284 121.666 131.404  1.00  0.00     0.009 C 
ATOM     15  C   UNL     1     119.804 122.442 130.191  1.00  0.00     0.021 C 
ATOM     16  C   UNL     1     117.700 122.470 128.732  1.00  0.00     0.008 C 
ATOM     17  C   UNL     1     119.160 124.545 128.937  1.00  0.00     0.012 C 
ATOM     18  C   UNL     1     120.424 121.540 129.130  1.00  0.00    -0.067 C 
ATOM     19  C   UNL     1     118.464 121.717 127.631  1.00  0.00     0.009 C 
ATOM     20  C   UNL     1     119.489 120.735 128.232  1.00  0.00     0.021 C 
ATOM     21  C   UNL     1     121.764 121.543 128.980  1.00  0.00    -0.027 C 
ATOM     22  C   UNL     1     120.229 119.748 127.225  1.00  0.00    -0.023 C 
ATOM     23  C   UNL     1     122.496 120.676 128.004  1.00  0.00     0.031 C 
ATOM     24  C   UNL     1     121.636 120.275 126.796  1.00  0.00     0.002 C 
ATOM     25  C   UNL     1     119.405 119.393 125.940  1.00  0.00     0.010 C 
ATOM     26  C   UNL     1     120.432 118.402 127.983  1.00  0.00     0.012 C 
ATOM     27  C   UNL     1     121.556 121.414 125.762  1.00  0.00     0.036 C 
ATOM     28  C   UNL     1     119.426 120.450 124.815  1.00  0.00     0.032 C 
ATOM     29  C   UNL     1     120.841 120.935 124.492  1.00  0.00     0.114 C 
BRANCH  29  30
ATOM     30  O   UNL     1     120.764 121.985 123.563  1.00  0.00    -0.393 OA
ATOM     31  H   UNL     1     119.971 121.805 122.993  1.00  0.00     0.210 HD
ENDBRANCH  29  30
ENDBRANCH   1  11
TORSDOF 6
ENDMDL
