MODEL 1
REMARK VINA RESULT:    -4.071      0.000      0.000
REMARK INTER + INTRA:          -9.474
REMARK INTER:                  -7.165
REMARK INTRA:                  -2.309
REMARK UNBOUND:                -2.309
REMARK SMILES CCCCCCCCCCCCCCC(=O)[O-]
REMARK SMILES IDX 9 1 10 2 11 3 12 4 13 5 14 6 15 7 16 8 17 9 8 10 7 11 6 12
REMARK SMILES IDX 5 13 4 14 3 15 2 16 1 17
REMARK H PARENT
REMARK Flexibility Score: inf
ROOT
ATOM      1  C   UNL     1      -7.037 -12.904  17.635  1.00  0.00     0.000 C 
ENDROOT
BRANCH   1   2
ATOM      2  C   UNL     1      -6.439 -11.730  16.850  1.00  0.00     0.000 C 
BRANCH   2   3
ATOM      3  C   UNL     1      -7.204 -11.494  15.543  1.00  0.00     0.000 C 
BRANCH   3   4
ATOM      4  C   UNL     1      -7.807 -10.082  15.506  1.00  0.00     0.000 C 
BRANCH   4   5
ATOM      5  C   UNL     1      -9.175 -10.002  16.202  1.00  0.00     0.006 C 
BRANCH   5   6
ATOM      6  C   UNL     1      -9.236  -8.889  17.257  1.00  0.00     0.053 C 
BRANCH   6   7
ATOM      7  C   UNL     1      -9.393  -9.474  18.625  1.00  0.00     0.041 C 
ATOM      8  O   UNL     1     -10.536  -9.578  19.143  1.00  0.00    -0.550 OA
ATOM      9  O   UNL     1      -8.282  -9.952  19.310  1.00  0.00    -0.550 OA
ENDBRANCH   6   7
ENDBRANCH   5   6
ENDBRANCH   4   5
ENDBRANCH   3   4
ENDBRANCH   2   3
ENDBRANCH   1   2
BRANCH   1  10
ATOM     10  C   UNL     1      -7.777 -13.871  16.701  1.00  0.00     0.000 C 
BRANCH  10  11
ATOM     11  C   UNL     1      -9.133 -14.279  17.296  1.00  0.00    -0.000 C 
BRANCH  11  12
ATOM     12  C   UNL     1      -9.780 -13.159  18.126  1.00  0.00    -0.000 C 
BRANCH  12  13
ATOM     13  C   UNL     1     -11.149 -12.729  17.570  1.00  0.00    -0.000 C 
BRANCH  13  14
ATOM     14  C   UNL     1     -11.738 -13.756  16.588  1.00  0.00    -0.000 C 
BRANCH  14  15
ATOM     15  C   UNL     1     -11.987 -13.166  15.189  1.00  0.00    -0.000 C 
BRANCH  15  16
ATOM     16  C   UNL     1     -11.244 -13.936  14.085  1.00  0.00    -0.003 C 
ATOM     17  C   UNL     1      -9.945 -13.253  13.656  1.00  0.00     0.004 C 
ENDBRANCH  15  16
ENDBRANCH  14  15
ENDBRANCH  13  14
ENDBRANCH  12  13
ENDBRANCH  11  12
ENDBRANCH  10  11
ENDBRANCH   1  10
TORSDOF 13
ENDMDL
MODEL 2
REMARK VINA RESULT:    -3.836      1.655      2.457
REMARK INTER + INTRA:          -9.060
REMARK INTER:                  -7.105
REMARK INTRA:                  -1.955
REMARK UNBOUND:                -2.309
REMARK SMILES CCCCCCCCCCCCCCC(=O)[O-]
REMARK SMILES IDX 9 1 10 2 11 3 12 4 13 5 14 6 15 7 16 8 17 9 8 10 7 11 6 12
REMARK SMILES IDX 5 13 4 14 3 15 2 16 1 17
REMARK H PARENT
REMARK Flexibility Score: inf
ROOT
ATOM      1  C   UNL     1      -8.978 -10.652  15.624  1.00  0.00     0.000 C 
ENDROOT
BRANCH   1   2
ATOM      2  C   UNL     1      -8.091  -9.411  15.470  1.00  0.00     0.000 C 
BRANCH   2   3
ATOM      3  C   UNL     1      -7.625  -8.895  16.836  1.00  0.00     0.000 C 
BRANCH   3   4
ATOM      4  C   UNL     1      -8.551  -7.783  17.349  1.00  0.00     0.000 C 
BRANCH   4   5
ATOM      5  C   UNL     1      -9.337  -8.196  18.603  1.00  0.00     0.006 C 
BRANCH   5   6
ATOM      6  C   UNL     1      -8.524  -9.102  19.537  1.00  0.00     0.053 C 
BRANCH   6   7
ATOM      7  C   UNL     1      -8.474  -8.522  20.915  1.00  0.00     0.041 C 
ATOM      8  O   UNL     1      -8.560  -9.272  21.922  1.00  0.00    -0.550 OA
ATOM      9  O   UNL     1      -8.284  -7.156  21.089  1.00  0.00    -0.550 OA
ENDBRANCH   6   7
ENDBRANCH   5   6
ENDBRANCH   4   5
ENDBRANCH   3   4
ENDBRANCH   2   3
ENDBRANCH   1   2
BRANCH   1  10
ATOM     10  C   UNL     1      -8.260 -11.748  16.422  1.00  0.00     0.000 C 
BRANCH  10  11
ATOM     11  C   UNL     1      -9.137 -12.249  17.580  1.00  0.00    -0.000 C 
BRANCH  11  12
ATOM     12  C   UNL     1     -10.506 -11.553  17.632  1.00  0.00    -0.000 C 
BRANCH  12  13
ATOM     13  C   UNL     1     -11.677 -12.549  17.552  1.00  0.00    -0.000 C 
BRANCH  13  14
ATOM     14  C   UNL     1     -11.247 -13.926  17.020  1.00  0.00    -0.000 C 
BRANCH  14  15
ATOM     15  C   UNL     1     -12.174 -14.450  15.909  1.00  0.00    -0.000 C 
BRANCH  15  16
ATOM     16  C   UNL     1     -12.122 -13.581  14.642  1.00  0.00    -0.003 C 
ATOM     17  C   UNL     1     -10.739 -13.564  13.991  1.00  0.00     0.004 C 
ENDBRANCH  15  16
ENDBRANCH  14  15
ENDBRANCH  13  14
ENDBRANCH  12  13
ENDBRANCH  11  12
ENDBRANCH  10  11
ENDBRANCH   1  10
TORSDOF 13
ENDMDL
MODEL 3
REMARK VINA RESULT:    -3.793      1.630      2.469
REMARK INTER + INTRA:          -8.985
REMARK INTER:                  -7.042
REMARK INTRA:                  -1.943
REMARK UNBOUND:                -2.309
REMARK SMILES CCCCCCCCCCCCCCC(=O)[O-]
REMARK SMILES IDX 9 1 10 2 11 3 12 4 13 5 14 6 15 7 16 8 17 9 8 10 7 11 6 12
REMARK SMILES IDX 5 13 4 14 3 15 2 16 1 17
REMARK H PARENT
REMARK Flexibility Score: inf
ROOT
ATOM      1  C   UNL     1      -9.866 -10.552  17.288  1.00  0.00     0.000 C 
ENDROOT
BRANCH   1   2
ATOM      2  C   UNL     1      -9.563 -10.089  15.858  1.00  0.00     0.000 C 
BRANCH   2   3
ATOM      3  C   UNL     1      -8.078 -10.274  15.522  1.00  0.00     0.000 C 
BRANCH   3   4
ATOM      4  C   UNL     1      -7.384  -8.917  15.332  1.00  0.00     0.000 C 
BRANCH   4   5
ATOM      5  C   UNL     1      -6.970  -8.271  16.664  1.00  0.00     0.006 C 
BRANCH   5   6
ATOM      6  C   UNL     1      -7.772  -7.001  16.978  1.00  0.00     0.053 C 
BRANCH   6   7
ATOM      7  C   UNL     1      -8.269  -7.033  18.390  1.00  0.00     0.041 C 
ATOM      8  O   UNL     1      -7.841  -7.903  19.192  1.00  0.00    -0.550 OA
ATOM      9  O   UNL     1      -9.167  -6.070  18.834  1.00  0.00    -0.550 OA
ENDBRANCH   6   7
ENDBRANCH   5   6
ENDBRANCH   4   5
ENDBRANCH   3   4
ENDBRANCH   2   3
ENDBRANCH   1   2
BRANCH   1  10
ATOM     10  C   UNL     1      -8.960 -11.723  17.692  1.00  0.00     0.000 C 
BRANCH  10  11
ATOM     11  C   UNL     1      -9.775 -13.012  17.870  1.00  0.00    -0.000 C 
BRANCH  11  12
ATOM     12  C   UNL     1     -11.247 -12.847  17.457  1.00  0.00    -0.000 C 
BRANCH  12  13
ATOM     13  C   UNL     1     -11.713 -13.947  16.487  1.00  0.00    -0.000 C 
BRANCH  13  14
ATOM     14  C   UNL     1     -12.070 -13.396  15.095  1.00  0.00    -0.000 C 
BRANCH  14  15
ATOM     15  C   UNL     1     -11.140 -13.927  13.991  1.00  0.00    -0.000 C 
BRANCH  15  16
ATOM     16  C   UNL     1      -9.867 -13.080  13.836  1.00  0.00    -0.003 C 
ATOM     17  C   UNL     1      -8.621 -13.774  14.387  1.00  0.00     0.004 C 
ENDBRANCH  15  16
ENDBRANCH  14  15
ENDBRANCH  13  14
ENDBRANCH  12  13
ENDBRANCH  11  12
ENDBRANCH  10  11
ENDBRANCH   1  10
TORSDOF 13
ENDMDL
MODEL 4
REMARK VINA RESULT:    -3.755      2.295      3.317
REMARK INTER + INTRA:          -8.919
REMARK INTER:                  -6.861
REMARK INTRA:                  -2.058
REMARK UNBOUND:                -2.309
REMARK SMILES CCCCCCCCCCCCCCC(=O)[O-]
REMARK SMILES IDX 9 1 10 2 11 3 12 4 13 5 14 6 15 7 16 8 17 9 8 10 7 11 6 12
REMARK SMILES IDX 5 13 4 14 3 15 2 16 1 17
REMARK H PARENT
REMARK Flexibility Score: inf
ROOT
ATOM      1  C   UNL     1      -8.728 -13.110  18.502  1.00  0.00     0.000 C 
ENDROOT
BRANCH   1   2
ATOM      2  C   UNL     1      -8.311 -11.662  18.219  1.00  0.00     0.000 C 
BRANCH   2   3
ATOM      3  C   UNL     1      -9.537 -10.760  18.040  1.00  0.00     0.000 C 
BRANCH   3   4
ATOM      4  C   UNL     1      -9.394  -9.879  16.791  1.00  0.00     0.000 C 
BRANCH   4   5
ATOM      5  C   UNL     1      -7.977  -9.307  16.627  1.00  0.00     0.006 C 
BRANCH   5   6
ATOM      6  C   UNL     1      -7.618  -9.033  15.161  1.00  0.00     0.053 C 
BRANCH   6   7
ATOM      7  C   UNL     1      -7.521  -7.560  14.914  1.00  0.00     0.041 C 
ATOM      8  O   UNL     1      -7.501  -6.755  15.881  1.00  0.00    -0.550 OA
ATOM      9  O   UNL     1      -7.401  -7.078  13.615  1.00  0.00    -0.550 OA
ENDBRANCH   6   7
ENDBRANCH   5   6
ENDBRANCH   4   5
ENDBRANCH   3   4
ENDBRANCH   2   3
ENDBRANCH   1   2
BRANCH   1  10
ATOM     10  C   UNL     1      -7.964 -14.091  17.603  1.00  0.00     0.000 C 
BRANCH  10  11
ATOM     11  C   UNL     1      -7.615 -13.444  16.255  1.00  0.00    -0.000 C 
BRANCH  11  12
ATOM     12  C   UNL     1      -8.237 -14.186  15.061  1.00  0.00    -0.000 C 
BRANCH  12  13
ATOM     13  C   UNL     1      -9.003 -13.244  14.115  1.00  0.00    -0.000 C 
BRANCH  13  14
ATOM     14  C   UNL     1     -10.521 -13.495  14.132  1.00  0.00    -0.000 C 
BRANCH  14  15
ATOM     15  C   UNL     1     -11.266 -12.560  15.099  1.00  0.00    -0.000 C 
BRANCH  15  16
ATOM     16  C   UNL     1     -11.668 -13.264  16.406  1.00  0.00    -0.003 C 
ATOM     17  C   UNL     1     -12.069 -14.723  16.194  1.00  0.00     0.004 C 
ENDBRANCH  15  16
ENDBRANCH  14  15
ENDBRANCH  13  14
ENDBRANCH  12  13
ENDBRANCH  11  12
ENDBRANCH  10  11
ENDBRANCH   1  10
TORSDOF 13
ENDMDL
MODEL 5
REMARK VINA RESULT:    -3.748      2.404      4.950
REMARK INTER + INTRA:          -8.905
REMARK INTER:                  -6.745
REMARK INTRA:                  -2.160
REMARK UNBOUND:                -2.309
REMARK SMILES CCCCCCCCCCCCCCC(=O)[O-]
REMARK SMILES IDX 9 1 10 2 11 3 12 4 13 5 14 6 15 7 16 8 17 9 8 10 7 11 6 12
REMARK SMILES IDX 5 13 4 14 3 15 2 16 1 17
REMARK H PARENT
REMARK Flexibility Score: inf
ROOT
ATOM      1  C   UNL     1      -8.770 -12.952  18.244  1.00  0.00     0.000 C 
ENDROOT
BRANCH   1   2
ATOM      2  C   UNL     1      -8.012 -13.825  17.237  1.00  0.00     0.000 C 
BRANCH   2   3
ATOM      3  C   UNL     1      -8.949 -14.338  16.138  1.00  0.00     0.000 C 
BRANCH   3   4
ATOM      4  C   UNL     1      -8.661 -13.641  14.800  1.00  0.00     0.000 C 
BRANCH   4   5
ATOM      5  C   UNL     1      -9.927 -13.063  14.148  1.00  0.00     0.006 C 
BRANCH   5   6
ATOM      6  C   UNL     1     -11.042 -14.106  13.999  1.00  0.00     0.053 C 
BRANCH   6   7
ATOM      7  C   UNL     1     -12.168 -13.804  14.939  1.00  0.00     0.041 C 
ATOM      8  O   UNL     1     -12.807 -12.725  14.835  1.00  0.00    -0.550 OA
ATOM      9  O   UNL     1     -12.543 -14.738  15.898  1.00  0.00    -0.550 OA
ENDBRANCH   6   7
ENDBRANCH   5   6
ENDBRANCH   4   5
ENDBRANCH   3   4
ENDBRANCH   2   3
ENDBRANCH   1   2
BRANCH   1  10
ATOM     10  C   UNL     1     -10.254 -12.843  17.872  1.00  0.00     0.000 C 
BRANCH  10  11
ATOM     11  C   UNL     1     -10.706 -11.375  17.836  1.00  0.00    -0.000 C 
BRANCH  11  12
ATOM     12  C   UNL     1      -9.548 -10.405  17.553  1.00  0.00    -0.000 C 
BRANCH  12  13
ATOM     13  C   UNL     1      -9.438 -10.037  16.063  1.00  0.00    -0.000 C 
BRANCH  13  14
ATOM     14  C   UNL     1      -8.036  -9.532  15.680  1.00  0.00    -0.000 C 
BRANCH  14  15
ATOM     15  C   UNL     1      -6.985 -10.655  15.666  1.00  0.00    -0.000 C 
BRANCH  15  16
ATOM     16  C   UNL     1      -5.901 -10.460  16.739  1.00  0.00    -0.003 C 
ATOM     17  C   UNL     1      -5.923  -9.062  17.357  1.00  0.00     0.004 C 
ENDBRANCH  15  16
ENDBRANCH  14  15
ENDBRANCH  13  14
ENDBRANCH  12  13
ENDBRANCH  11  12
ENDBRANCH  10  11
ENDBRANCH   1  10
TORSDOF 13
ENDMDL
MODEL 6
REMARK VINA RESULT:    -3.700      2.853      5.555
REMARK INTER + INTRA:          -8.821
REMARK INTER:                  -6.430
REMARK INTRA:                  -2.391
REMARK UNBOUND:                -2.309
REMARK SMILES CCCCCCCCCCCCCCC(=O)[O-]
REMARK SMILES IDX 9 1 10 2 11 3 12 4 13 5 14 6 15 7 16 8 17 9 8 10 7 11 6 12
REMARK SMILES IDX 5 13 4 14 3 15 2 16 1 17
REMARK H PARENT
REMARK Flexibility Score: inf
ROOT
ATOM      1  C   UNL     1      -9.764  -9.234  18.443  1.00  0.00     0.000 C 
ENDROOT
BRANCH   1   2
ATOM      2  C   UNL     1      -8.762 -10.365  18.702  1.00  0.00     0.000 C 
BRANCH   2   3
ATOM      3  C   UNL     1      -9.050 -11.572  17.801  1.00  0.00     0.000 C 
BRANCH   3   4
ATOM      4  C   UNL     1     -10.274 -11.314  16.911  1.00  0.00     0.000 C 
BRANCH   4   5
ATOM      5  C   UNL     1      -9.955 -11.435  15.413  1.00  0.00     0.006 C 
BRANCH   5   6
ATOM      6  C   UNL     1      -9.502 -12.847  15.018  1.00  0.00     0.053 C 
BRANCH   6   7
ATOM      7  C   UNL     1     -10.360 -13.382  13.915  1.00  0.00     0.041 C 
ATOM      8  O   UNL     1      -9.894 -13.505  12.752  1.00  0.00    -0.550 OA
ATOM      9  O   UNL     1     -11.661 -13.792  14.181  1.00  0.00    -0.550 OA
ENDBRANCH   6   7
ENDBRANCH   5   6
ENDBRANCH   4   5
ENDBRANCH   3   4
ENDBRANCH   2   3
ENDBRANCH   1   2
BRANCH   1  10
ATOM     10  C   UNL     1      -9.053  -7.876  18.358  1.00  0.00     0.000 C 
BRANCH  10  11
ATOM     11  C   UNL     1      -7.837  -7.950  17.424  1.00  0.00    -0.000 C 
BRANCH  11  12
ATOM     12  C   UNL     1      -8.226  -7.911  15.938  1.00  0.00    -0.000 C 
BRANCH  12  13
ATOM     13  C   UNL     1      -7.440  -8.932  15.096  1.00  0.00    -0.000 C 
BRANCH  13  14
ATOM     14  C   UNL     1      -6.340  -9.643  15.903  1.00  0.00    -0.000 C 
BRANCH  14  15
ATOM     15  C   UNL     1      -6.194 -11.127  15.528  1.00  0.00    -0.000 C 
BRANCH  15  16
ATOM     16  C   UNL     1      -5.565 -11.960  16.657  1.00  0.00    -0.003 C 
ATOM     17  C   UNL     1      -6.008 -13.423  16.633  1.00  0.00     0.004 C 
ENDBRANCH  15  16
ENDBRANCH  14  15
ENDBRANCH  13  14
ENDBRANCH  12  13
ENDBRANCH  11  12
ENDBRANCH  10  11
ENDBRANCH   1  10
TORSDOF 13
ENDMDL
MODEL 7
REMARK VINA RESULT:    -3.688      2.298      4.874
REMARK INTER + INTRA:          -8.801
REMARK INTER:                  -6.630
REMARK INTRA:                  -2.171
REMARK UNBOUND:                -2.309
REMARK SMILES CCCCCCCCCCCCCCC(=O)[O-]
REMARK SMILES IDX 9 1 10 2 11 3 12 4 13 5 14 6 15 7 16 8 17 9 8 10 7 11 6 12
REMARK SMILES IDX 5 13 4 14 3 15 2 16 1 17
REMARK H PARENT
REMARK Flexibility Score: inf
ROOT
ATOM      1  C   UNL     1      -6.840 -12.701  16.612  1.00  0.00     0.000 C 
ENDROOT
BRANCH   1   2
ATOM      2  C   UNL     1      -8.135 -13.432  16.238  1.00  0.00     0.000 C 
BRANCH   2   3
ATOM      3  C   UNL     1      -8.348 -13.432  14.719  1.00  0.00     0.000 C 
BRANCH   3   4
ATOM      4  C   UNL     1      -9.664 -12.732  14.349  1.00  0.00     0.000 C 
BRANCH   4   5
ATOM      5  C   UNL     1     -10.726 -13.708  13.817  1.00  0.00     0.006 C 
BRANCH   5   6
ATOM      6  C   UNL     1     -11.965 -13.780  14.720  1.00  0.00     0.053 C 
BRANCH   6   7
ATOM      7  C   UNL     1     -11.611 -14.373  16.047  1.00  0.00     0.041 C 
ATOM      8  O   UNL     1     -11.938 -13.785  17.111  1.00  0.00    -0.550 OA
ATOM      9  O   UNL     1     -10.962 -15.600  16.111  1.00  0.00    -0.550 OA
ENDBRANCH   6   7
ENDBRANCH   5   6
ENDBRANCH   4   5
ENDBRANCH   3   4
ENDBRANCH   2   3
ENDBRANCH   1   2
BRANCH   1  10
ATOM     10  C   UNL     1      -6.401 -11.748  15.492  1.00  0.00     0.000 C 
BRANCH  10  11
ATOM     11  C   UNL     1      -6.434 -10.288  15.968  1.00  0.00    -0.000 C 
BRANCH  11  12
ATOM     12  C   UNL     1      -7.595  -9.490  15.353  1.00  0.00    -0.000 C 
BRANCH  12  13
ATOM     13  C   UNL     1      -8.632  -9.054  16.404  1.00  0.00    -0.000 C 
BRANCH  13  14
ATOM     14  C   UNL     1      -9.730 -10.109  16.624  1.00  0.00    -0.000 C 
BRANCH  14  15
ATOM     15  C   UNL     1      -9.753 -10.650  18.064  1.00  0.00    -0.000 C 
BRANCH  15  16
ATOM     16  C   UNL     1      -8.857  -9.836  19.012  1.00  0.00    -0.003 C 
ATOM     17  C   UNL     1      -7.707 -10.658  19.592  1.00  0.00     0.004 C 
ENDBRANCH  15  16
ENDBRANCH  14  15
ENDBRANCH  13  14
ENDBRANCH  12  13
ENDBRANCH  11  12
ENDBRANCH  10  11
ENDBRANCH   1  10
TORSDOF 13
ENDMDL
MODEL 8
REMARK VINA RESULT:    -3.687      2.206      5.490
REMARK INTER + INTRA:          -8.799
REMARK INTER:                  -6.917
REMARK INTRA:                  -1.882
REMARK UNBOUND:                -2.309
REMARK SMILES CCCCCCCCCCCCCCC(=O)[O-]
REMARK SMILES IDX 9 1 10 2 11 3 12 4 13 5 14 6 15 7 16 8 17 9 8 10 7 11 6 12
REMARK SMILES IDX 5 13 4 14 3 15 2 16 1 17
REMARK H PARENT
REMARK Flexibility Score: inf
ROOT
ATOM      1  C   UNL     1      -7.279  -8.956  15.351  1.00  0.00     0.000 C 
ENDROOT
BRANCH   1   2
ATOM      2  C   UNL     1      -7.754 -10.363  15.730  1.00  0.00     0.000 C 
BRANCH   2   3
ATOM      3  C   UNL     1      -9.285 -10.447  15.728  1.00  0.00     0.000 C 
BRANCH   3   4
ATOM      4  C   UNL     1      -9.761 -11.802  15.183  1.00  0.00     0.000 C 
BRANCH   4   5
ATOM      5  C   UNL     1      -9.350 -12.980  16.080  1.00  0.00     0.006 C 
BRANCH   5   6
ATOM      6  C   UNL     1      -9.803 -12.798  17.535  1.00  0.00     0.053 C 
BRANCH   6   7
ATOM      7  C   UNL     1     -11.296 -12.859  17.629  1.00  0.00     0.041 C 
ATOM      8  O   UNL     1     -11.920 -13.848  17.165  1.00  0.00    -0.550 OA
ATOM      9  O   UNL     1     -11.995 -11.845  18.274  1.00  0.00    -0.550 OA
ENDBRANCH   6   7
ENDBRANCH   5   6
ENDBRANCH   4   5
ENDBRANCH   3   4
ENDBRANCH   2   3
ENDBRANCH   1   2
BRANCH   1  10
ATOM     10  C   UNL     1      -8.250  -7.887  15.870  1.00  0.00     0.000 C 
BRANCH  10  11
ATOM     11  C   UNL     1      -7.576  -6.997  16.924  1.00  0.00    -0.000 C 
BRANCH  11  12
ATOM     12  C   UNL     1      -7.953  -7.390  18.361  1.00  0.00    -0.000 C 
BRANCH  12  13
ATOM     13  C   UNL     1      -9.369  -7.985  18.458  1.00  0.00    -0.000 C 
BRANCH  13  14
ATOM     14  C   UNL     1      -9.390  -9.351  19.165  1.00  0.00    -0.000 C 
BRANCH  14  15
ATOM     15  C   UNL     1      -7.979  -9.906  19.426  1.00  0.00    -0.000 C 
BRANCH  15  16
ATOM     16  C   UNL     1      -7.668 -10.039  20.926  1.00  0.00    -0.003 C 
ATOM     17  C   UNL     1      -8.576  -9.174  21.799  1.00  0.00     0.004 C 
ENDBRANCH  15  16
ENDBRANCH  14  15
ENDBRANCH  13  14
ENDBRANCH  12  13
ENDBRANCH  11  12
ENDBRANCH  10  11
ENDBRANCH   1  10
TORSDOF 13
ENDMDL
MODEL 9
REMARK VINA RESULT:    -3.656      1.923      3.186
REMARK INTER + INTRA:          -8.743
REMARK INTER:                  -6.781
REMARK INTRA:                  -1.963
REMARK UNBOUND:                -2.309
REMARK SMILES CCCCCCCCCCCCCCC(=O)[O-]
REMARK SMILES IDX 9 1 10 2 11 3 12 4 13 5 14 6 15 7 16 8 17 9 8 10 7 11 6 12
REMARK SMILES IDX 5 13 4 14 3 15 2 16 1 17
REMARK H PARENT
REMARK Flexibility Score: inf
ROOT
ATOM      1  C   UNL     1      -9.492 -10.499  16.131  1.00  0.00     0.000 C 
ENDROOT
BRANCH   1   2
ATOM      2  C   UNL     1     -10.150 -10.920  17.451  1.00  0.00     0.000 C 
BRANCH   2   3
ATOM      3  C   UNL     1     -10.079  -9.791  18.486  1.00  0.00     0.000 C 
BRANCH   3   4
ATOM      4  C   UNL     1      -8.730  -9.800  19.219  1.00  0.00     0.000 C 
BRANCH   4   5
ATOM      5  C   UNL     1      -8.047  -8.423  19.222  1.00  0.00     0.006 C 
BRANCH   5   6
ATOM      6  C   UNL     1      -8.668  -7.454  18.207  1.00  0.00     0.053 C 
BRANCH   6   7
ATOM      7  C   UNL     1      -7.669  -7.089  17.154  1.00  0.00     0.041 C 
ATOM      8  O   UNL     1      -6.572  -6.564  17.477  1.00  0.00    -0.550 OA
ATOM      9  O   UNL     1      -7.929  -7.375  15.819  1.00  0.00    -0.550 OA
ENDBRANCH   6   7
ENDBRANCH   5   6
ENDBRANCH   4   5
ENDBRANCH   3   4
ENDBRANCH   2   3
ENDBRANCH   1   2
BRANCH   1  10
ATOM     10  C   UNL     1      -8.655 -11.642  15.543  1.00  0.00     0.000 C 
BRANCH  10  11
ATOM     11  C   UNL     1      -7.860 -12.363  16.642  1.00  0.00    -0.000 C 
BRANCH  11  12
ATOM     12  C   UNL     1      -8.002 -13.892  16.571  1.00  0.00    -0.000 C 
BRANCH  12  13
ATOM     13  C   UNL     1      -9.261 -14.401  17.295  1.00  0.00    -0.000 C 
BRANCH  13  14
ATOM     14  C   UNL     1     -10.312 -14.969  16.326  1.00  0.00    -0.000 C 
BRANCH  14  15
ATOM     15  C   UNL     1     -11.661 -14.236  16.418  1.00  0.00    -0.000 C 
BRANCH  15  16
ATOM     16  C   UNL     1     -11.937 -13.357  15.187  1.00  0.00    -0.003 C 
ATOM     17  C   UNL     1     -11.172 -13.816  13.946  1.00  0.00     0.004 C 
ENDBRANCH  15  16
ENDBRANCH  14  15
ENDBRANCH  13  14
ENDBRANCH  12  13
ENDBRANCH  11  12
ENDBRANCH  10  11
ENDBRANCH   1  10
TORSDOF 13
ENDMDL
