MODEL 1
REMARK VINA RESULT:    -5.134      0.000      0.000
REMARK INTER + INTRA:          -5.284
REMARK INTER:                  -5.284
REMARK INTRA:                   0.000
REMARK UNBOUND:                 0.000
REMARK SMILES Nc1ncnc2nc[nH]c12
REMARK SMILES IDX 8 1 7 2 6 3 5 4 4 5 3 6 2 7 10 8 9 9 1 11
REMARK H PARENT 9 10 1 12 1 13
REMARK Flexibility Score: inf
ROOT
ATOM      1  C   UNL     1     -14.387 -33.642 -13.970  1.00  0.00     0.199 A 
ATOM      2  N   UNL     1     -13.682 -33.887 -15.108  1.00  0.00    -0.217 NA
ATOM      3  C   UNL     1     -14.306 -34.969 -15.604  1.00  0.00     0.182 A 
ATOM      4  N   UNL     1     -13.995 -35.629 -16.745  1.00  0.00    -0.215 NA
ATOM      5  C   UNL     1     -14.750 -36.717 -17.087  1.00  0.00     0.226 A 
ATOM      6  N   UNL     1     -15.793 -37.120 -16.291  1.00  0.00    -0.217 NA
ATOM      7  C   UNL     1     -16.107 -36.454 -15.139  1.00  0.00     0.152 A 
ATOM      8  C   UNL     1     -15.329 -35.349 -14.805  1.00  0.00     0.127 A 
ATOM      9  N   UNL     1     -15.401 -34.519 -13.757  1.00  0.00    -0.340 N 
ATOM     10  H   UNL     1     -16.072 -34.532 -12.958  1.00  0.00     0.168 HD
ENDROOT
BRANCH   7  11
ATOM     11  N   UNL     1     -17.196 -36.892 -14.325  1.00  0.00    -0.382 N 
ATOM     12  H   UNL     1     -17.482 -37.896 -14.293  1.00  0.00     0.158 HD
ATOM     13  H   UNL     1     -17.724 -36.204 -13.745  1.00  0.00     0.158 HD
ENDBRANCH   7  11
TORSDOF 1
ENDMDL
MODEL 2
REMARK VINA RESULT:    -4.866      1.182      2.399
REMARK INTER + INTRA:          -5.008
REMARK INTER:                  -5.008
REMARK INTRA:                   0.000
REMARK UNBOUND:                 0.000
REMARK SMILES Nc1ncnc2nc[nH]c12
REMARK SMILES IDX 8 1 7 2 6 3 5 4 4 5 3 6 2 7 10 8 9 9 1 11
REMARK H PARENT 9 10 1 12 1 13
REMARK Flexibility Score: inf
ROOT
ATOM      1  C   UNL     1     -13.375 -33.776 -14.897  1.00  0.00     0.199 A 
ATOM      2  N   UNL     1     -14.539 -33.649 -14.201  1.00  0.00    -0.217 NA
ATOM      3  C   UNL     1     -15.290 -34.635 -14.719  1.00  0.00     0.182 A 
ATOM      4  N   UNL     1     -16.561 -34.951 -14.370  1.00  0.00    -0.215 NA
ATOM      5  C   UNL     1     -17.166 -35.995 -15.014  1.00  0.00     0.226 A 
ATOM      6  N   UNL     1     -16.497 -36.697 -15.984  1.00  0.00    -0.217 NA
ATOM      7  C   UNL     1     -15.214 -36.380 -16.336  1.00  0.00     0.152 A 
ATOM      8  C   UNL     1     -14.612 -35.315 -15.672  1.00  0.00     0.127 A 
ATOM      9  N   UNL     1     -13.389 -34.786 -15.803  1.00  0.00    -0.340 N 
ATOM     10  H   UNL     1     -12.620 -35.073 -16.447  1.00  0.00     0.168 HD
ENDROOT
BRANCH   7  11
ATOM     11  N   UNL     1     -14.538 -37.125 -17.349  1.00  0.00    -0.382 N 
ATOM     12  H   UNL     1     -13.640 -36.789 -17.764  1.00  0.00     0.158 HD
ATOM     13  H   UNL     1     -14.938 -38.026 -17.690  1.00  0.00     0.158 HD
ENDBRANCH   7  11
TORSDOF 1
ENDMDL
MODEL 3
REMARK VINA RESULT:    -4.783      1.112      2.974
REMARK INTER + INTRA:          -4.923
REMARK INTER:                  -4.923
REMARK INTRA:                   0.000
REMARK UNBOUND:                 0.000
REMARK SMILES Nc1ncnc2nc[nH]c12
REMARK SMILES IDX 8 1 7 2 6 3 5 4 4 5 3 6 2 7 10 8 9 9 1 11
REMARK H PARENT 9 10 1 12 1 13
REMARK Flexibility Score: inf
ROOT
ATOM      1  C   UNL     1     -17.932 -36.382 -14.439  1.00  0.00     0.199 A 
ATOM      2  N   UNL     1     -17.449 -37.124 -15.473  1.00  0.00    -0.217 NA
ATOM      3  C   UNL     1     -16.232 -36.590 -15.665  1.00  0.00     0.182 A 
ATOM      4  N   UNL     1     -15.320 -36.969 -16.592  1.00  0.00    -0.215 NA
ATOM      5  C   UNL     1     -14.127 -36.301 -16.636  1.00  0.00     0.226 A 
ATOM      6  N   UNL     1     -13.871 -35.275 -15.761  1.00  0.00    -0.217 NA
ATOM      7  C   UNL     1     -14.791 -34.892 -14.825  1.00  0.00     0.152 A 
ATOM      8  C   UNL     1     -15.999 -35.581 -14.793  1.00  0.00     0.127 A 
ATOM      9  N   UNL     1     -17.068 -35.430 -14.001  1.00  0.00    -0.340 N 
ATOM     10  H   UNL     1     -17.215 -34.746 -13.227  1.00  0.00     0.168 HD
ENDROOT
BRANCH   7  11
ATOM     11  N   UNL     1     -14.503 -33.821 -13.925  1.00  0.00    -0.382 N 
ATOM     12  H   UNL     1     -14.185 -32.889 -14.273  1.00  0.00     0.158 HD
ATOM     13  H   UNL     1     -14.609 -33.960 -12.896  1.00  0.00     0.158 HD
ENDBRANCH   7  11
TORSDOF 1
ENDMDL
MODEL 4
REMARK VINA RESULT:    -4.367      1.173      3.261
REMARK INTER + INTRA:          -4.495
REMARK INTER:                  -4.495
REMARK INTRA:                   0.000
REMARK UNBOUND:                 0.000
REMARK SMILES Nc1ncnc2nc[nH]c12
REMARK SMILES IDX 8 1 7 2 6 3 5 4 4 5 3 6 2 7 10 8 9 9 1 11
REMARK H PARENT 9 10 1 12 1 13
REMARK Flexibility Score: inf
ROOT
ATOM      1  C   UNL     1     -17.885 -36.645 -14.749  1.00  0.00     0.199 A 
ATOM      2  N   UNL     1     -17.425 -35.564 -14.061  1.00  0.00    -0.217 NA
ATOM      3  C   UNL     1     -16.231 -35.345 -14.636  1.00  0.00     0.182 A 
ATOM      4  N   UNL     1     -15.348 -34.368 -14.318  1.00  0.00    -0.215 NA
ATOM      5  C   UNL     1     -14.176 -34.305 -15.021  1.00  0.00     0.226 A 
ATOM      6  N   UNL     1     -13.912 -35.209 -16.018  1.00  0.00    -0.217 NA
ATOM      7  C   UNL     1     -14.803 -36.194 -16.340  1.00  0.00     0.152 A 
ATOM      8  C   UNL     1     -15.990 -36.246 -15.616  1.00  0.00     0.127 A 
ATOM      9  N   UNL     1     -17.030 -37.085 -15.707  1.00  0.00    -0.340 N 
ATOM     10  H   UNL     1     -17.163 -37.891 -16.357  1.00  0.00     0.168 HD
ENDROOT
BRANCH   7  11
ATOM     11  N   UNL     1     -14.505 -37.125 -17.382  1.00  0.00    -0.382 N 
ATOM     12  H   UNL     1     -13.566 -37.151 -17.837  1.00  0.00     0.158 HD
ATOM     13  H   UNL     1     -15.234 -37.800 -17.703  1.00  0.00     0.158 HD
ENDBRANCH   7  11
TORSDOF 1
ENDMDL
MODEL 5
REMARK VINA RESULT:    -4.130      0.712      2.877
REMARK INTER + INTRA:          -4.250
REMARK INTER:                  -4.250
REMARK INTRA:                   0.000
REMARK UNBOUND:                 0.000
REMARK SMILES Nc1ncnc2nc[nH]c12
REMARK SMILES IDX 8 1 7 2 6 3 5 4 4 5 3 6 2 7 10 8 9 9 1 11
REMARK H PARENT 9 10 1 12 1 13
REMARK Flexibility Score: inf
ROOT
ATOM      1  C   UNL     1     -14.896 -37.116 -17.154  1.00  0.00     0.199 A 
ATOM      2  N   UNL     1     -13.890 -36.212 -17.000  1.00  0.00    -0.217 NA
ATOM      3  C   UNL     1     -14.336 -35.460 -15.981  1.00  0.00     0.182 A 
ATOM      4  N   UNL     1     -13.703 -34.401 -15.420  1.00  0.00    -0.215 NA
ATOM      5  C   UNL     1     -14.319 -33.755 -14.384  1.00  0.00     0.226 A 
ATOM      6  N   UNL     1     -15.544 -34.176 -13.930  1.00  0.00    -0.217 NA
ATOM      7  C   UNL     1     -16.183 -35.245 -14.494  1.00  0.00     0.152 A 
ATOM      8  C   UNL     1     -15.543 -35.891 -15.548  1.00  0.00     0.127 A 
ATOM      9  N   UNL     1     -15.921 -36.946 -16.281  1.00  0.00    -0.340 N 
ATOM     10  H   UNL     1     -16.795 -37.512 -16.209  1.00  0.00     0.168 HD
ENDROOT
BRANCH   7  11
ATOM     11  N   UNL     1     -17.458 -35.665 -14.006  1.00  0.00    -0.382 N 
ATOM     12  H   UNL     1     -17.707 -36.676 -13.934  1.00  0.00     0.158 HD
ATOM     13  H   UNL     1     -18.164 -34.955 -13.711  1.00  0.00     0.158 HD
ENDBRANCH   7  11
TORSDOF 1
ENDMDL
MODEL 6
REMARK VINA RESULT:    -3.942      1.600      2.917
REMARK INTER + INTRA:          -4.057
REMARK INTER:                  -4.057
REMARK INTRA:                   0.000
REMARK UNBOUND:                 0.000
REMARK SMILES Nc1ncnc2nc[nH]c12
REMARK SMILES IDX 8 1 7 2 6 3 5 4 4 5 3 6 2 7 10 8 9 9 1 11
REMARK H PARENT 9 10 1 12 1 13
REMARK Flexibility Score: inf
ROOT
ATOM      1  C   UNL     1     -12.757 -36.100 -15.505  1.00  0.00     0.199 A 
ATOM      2  N   UNL     1     -13.603 -37.125 -15.210  1.00  0.00    -0.217 NA
ATOM      3  C   UNL     1     -14.790 -36.501 -15.131  1.00  0.00     0.182 A 
ATOM      4  N   UNL     1     -15.987 -37.073 -14.857  1.00  0.00    -0.215 NA
ATOM      5  C   UNL     1     -17.093 -36.270 -14.820  1.00  0.00     0.226 A 
ATOM      6  N   UNL     1     -16.984 -34.922 -15.055  1.00  0.00    -0.217 NA
ATOM      7  C   UNL     1     -15.776 -34.344 -15.332  1.00  0.00     0.152 A 
ATOM      8  C   UNL     1     -14.661 -35.175 -15.366  1.00  0.00     0.127 A 
ATOM      9  N   UNL     1     -13.373 -34.895 -15.607  1.00  0.00    -0.340 N 
ATOM     10  H   UNL     1     -12.935 -33.973 -15.823  1.00  0.00     0.168 HD
ENDROOT
BRANCH   7  11
ATOM     11  N   UNL     1     -15.686 -32.939 -15.573  1.00  0.00    -0.382 N 
ATOM     12  H   UNL     1     -15.352 -32.281 -14.835  1.00  0.00     0.158 HD
ATOM     13  H   UNL     1     -15.957 -32.550 -16.503  1.00  0.00     0.158 HD
ENDBRANCH   7  11
TORSDOF 1
ENDMDL
MODEL 7
REMARK VINA RESULT:    -3.926      1.082      3.802
REMARK INTER + INTRA:          -4.041
REMARK INTER:                  -4.041
REMARK INTRA:                   0.000
REMARK UNBOUND:                 0.000
REMARK SMILES Nc1ncnc2nc[nH]c12
REMARK SMILES IDX 8 1 7 2 6 3 5 4 4 5 3 6 2 7 10 8 9 9 1 11
REMARK H PARENT 9 10 1 12 1 13
REMARK Flexibility Score: inf
ROOT
ATOM      1  C   UNL     1     -15.314 -37.125 -16.808  1.00  0.00     0.199 A 
ATOM      2  N   UNL     1     -16.262 -36.397 -16.156  1.00  0.00    -0.217 NA
ATOM      3  C   UNL     1     -15.523 -35.479 -15.511  1.00  0.00     0.182 A 
ATOM      4  N   UNL     1     -15.982 -34.493 -14.703  1.00  0.00    -0.215 NA
ATOM      5  C   UNL     1     -15.071 -33.649 -14.131  1.00  0.00     0.226 A 
ATOM      6  N   UNL     1     -13.729 -33.805 -14.374  1.00  0.00    -0.217 NA
ATOM      7  C   UNL     1     -13.264 -34.799 -15.190  1.00  0.00     0.152 A 
ATOM      8  C   UNL     1     -14.204 -35.649 -15.764  1.00  0.00     0.127 A 
ATOM      9  N   UNL     1     -14.047 -36.692 -16.589  1.00  0.00    -0.340 N 
ATOM     10  H   UNL     1     -13.163 -37.089 -16.978  1.00  0.00     0.168 HD
ENDROOT
BRANCH   7  11
ATOM     11  N   UNL     1     -11.863 -34.942 -15.428  1.00  0.00    -0.382 N 
ATOM     12  H   UNL     1     -11.243 -34.110 -15.545  1.00  0.00     0.158 HD
ATOM     13  H   UNL     1     -11.438 -35.893 -15.487  1.00  0.00     0.158 HD
ENDBRANCH   7  11
TORSDOF 1
ENDMDL
MODEL 8
REMARK VINA RESULT:    -3.885      2.052      2.962
REMARK INTER + INTRA:          -3.998
REMARK INTER:                  -3.998
REMARK INTRA:                   0.000
REMARK UNBOUND:                 0.000
REMARK SMILES Nc1ncnc2nc[nH]c12
REMARK SMILES IDX 8 1 7 2 6 3 5 4 4 5 3 6 2 7 10 8 9 9 1 11
REMARK H PARENT 9 10 1 12 1 13
REMARK Flexibility Score: inf
ROOT
ATOM      1  C   UNL     1     -14.401 -32.548 -11.341  1.00  0.00     0.199 A 
ATOM      2  N   UNL     1     -13.343 -32.217 -12.132  1.00  0.00    -0.217 NA
ATOM      3  C   UNL     1     -13.575 -32.943 -13.238  1.00  0.00     0.182 A 
ATOM      4  N   UNL     1     -12.809 -32.981 -14.355  1.00  0.00    -0.215 NA
ATOM      5  C   UNL     1     -13.210 -33.786 -15.386  1.00  0.00     0.226 A 
ATOM      6  N   UNL     1     -14.359 -34.529 -15.282  1.00  0.00    -0.217 NA
ATOM      7  C   UNL     1     -15.133 -34.491 -14.156  1.00  0.00     0.152 A 
ATOM      8  C   UNL     1     -14.711 -33.668 -13.116  1.00  0.00     0.127 A 
ATOM      9  N   UNL     1     -15.256 -33.432 -11.916  1.00  0.00    -0.340 N 
ATOM     10  H   UNL     1     -16.129 -33.830 -11.506  1.00  0.00     0.168 HD
ENDROOT
BRANCH   7  11
ATOM     11  N   UNL     1     -16.324 -35.274 -14.071  1.00  0.00    -0.382 N 
ATOM     12  H   UNL     1     -16.345 -36.177 -13.547  1.00  0.00     0.158 HD
ATOM     13  H   UNL     1     -17.199 -34.947 -14.537  1.00  0.00     0.158 HD
ENDBRANCH   7  11
TORSDOF 1
ENDMDL
MODEL 9
REMARK VINA RESULT:    -3.785      1.386      3.315
REMARK INTER + INTRA:          -3.896
REMARK INTER:                  -3.896
REMARK INTRA:                   0.000
REMARK UNBOUND:                 0.000
REMARK SMILES Nc1ncnc2nc[nH]c12
REMARK SMILES IDX 8 1 7 2 6 3 5 4 4 5 3 6 2 7 10 8 9 9 1 11
REMARK H PARENT 9 10 1 12 1 13
REMARK Flexibility Score: inf
ROOT
ATOM      1  C   UNL     1     -16.334 -35.908 -15.213  1.00  0.00     0.199 A 
ATOM      2  N   UNL     1     -15.287 -35.631 -16.037  1.00  0.00    -0.217 NA
ATOM      3  C   UNL     1     -14.570 -34.762 -15.305  1.00  0.00     0.182 A 
ATOM      4  N   UNL     1     -13.409 -34.165 -15.667  1.00  0.00    -0.215 NA
ATOM      5  C   UNL     1     -12.822 -33.304 -14.782  1.00  0.00     0.226 A 
ATOM      6  N   UNL     1     -13.401 -33.057 -13.562  1.00  0.00    -0.217 NA
ATOM      7  C   UNL     1     -14.573 -33.659 -13.196  1.00  0.00     0.152 A 
ATOM      8  C   UNL     1     -15.157 -34.532 -14.108  1.00  0.00     0.127 A 
ATOM      9  N   UNL     1     -16.283 -35.252 -14.026  1.00  0.00    -0.340 N 
ATOM     10  H   UNL     1     -16.969 -35.305 -13.240  1.00  0.00     0.168 HD
ENDROOT
BRANCH   7  11
ATOM     11  N   UNL     1     -15.158 -33.386 -11.922  1.00  0.00    -0.382 N 
ATOM     12  H   UNL     1     -15.567 -34.147 -11.337  1.00  0.00     0.158 HD
ATOM     13  H   UNL     1     -15.181 -32.408 -11.556  1.00  0.00     0.158 HD
ENDBRANCH   7  11
TORSDOF 1
ENDMDL
