MODEL 1
REMARK VINA RESULT:    -2.369      0.000      0.000
REMARK INTER + INTRA:          -8.343
REMARK INTER:                  -5.970
REMARK INTRA:                  -2.373
REMARK UNBOUND:                -2.373
REMARK SMILES CCCCCCCCCCCCCCCCCCCCCCCCCCCC(=O)[O-]
REMARK SMILES IDX 15 1 16 2 17 3 18 4 19 5 20 6 21 7 22 8 23 9 24 10 25 11
REMARK SMILES IDX 26 12 27 13 28 14 29 15 30 16 14 17 13 18 12 19 11 20 10 21
REMARK SMILES IDX 9 22 8 23 7 24 6 25 5 26 4 27 3 28 2 29 1 30
REMARK H PARENT
REMARK Flexibility Score: inf
ROOT
ATOM      1  C   UNL     1      -8.757  -5.439  -4.854  1.00  0.00     0.000 C 
ENDROOT
BRANCH   1   2
ATOM      2  C   UNL     1     -10.192  -4.892  -4.947  1.00  0.00     0.000 C 
BRANCH   2   3
ATOM      3  C   UNL     1     -10.243  -3.356  -4.985  1.00  0.00     0.000 C 
BRANCH   3   4
ATOM      4  C   UNL     1     -11.111  -2.763  -3.859  1.00  0.00     0.000 C 
BRANCH   4   5
ATOM      5  C   UNL     1     -11.125  -3.641  -2.599  1.00  0.00     0.000 C 
BRANCH   5   6
ATOM      6  C   UNL     1     -10.730  -2.871  -1.331  1.00  0.00     0.000 C 
BRANCH   6   7
ATOM      7  C   UNL     1     -10.117  -3.816  -0.290  1.00  0.00     0.000 C 
BRANCH   7   8
ATOM      8  C   UNL     1      -8.682  -4.211  -0.671  1.00  0.00     0.000 C 
BRANCH   8   9
ATOM      9  C   UNL     1      -8.081  -3.281  -1.740  1.00  0.00     0.000 C 
BRANCH   9  10
ATOM     10  C   UNL     1      -7.772  -1.877  -1.200  1.00  0.00     0.000 C 
BRANCH  10  11
ATOM     11  C   UNL     1      -7.339  -0.936  -2.334  1.00  0.00     0.000 C 
BRANCH  11  12
ATOM     12  C   UNL     1      -7.281   0.537  -1.897  1.00  0.00     0.006 C 
BRANCH  12  13
ATOM     13  C   UNL     1      -7.834   0.761  -0.483  1.00  0.00     0.053 C 
BRANCH  13  14
ATOM     14  C   UNL     1      -8.199   2.199  -0.281  1.00  0.00     0.041 C 
ATOM     15  O   UNL     1      -8.586   2.896  -1.256  1.00  0.00    -0.550 OA
ATOM     16  O   UNL     1      -8.103   2.773   0.981  1.00  0.00    -0.550 OA
ENDBRANCH  13  14
ENDBRANCH  12  13
ENDBRANCH  11  12
ENDBRANCH  10  11
ENDBRANCH   9  10
ENDBRANCH   8   9
ENDBRANCH   7   8
ENDBRANCH   6   7
ENDBRANCH   5   6
ENDBRANCH   4   5
ENDBRANCH   3   4
ENDBRANCH   2   3
ENDBRANCH   1   2
BRANCH   1  17
ATOM     17  C   UNL     1      -8.186  -5.847  -6.225  1.00  0.00     0.000 C 
BRANCH  17  18
ATOM     18  C   UNL     1      -9.146  -5.662  -7.414  1.00  0.00     0.000 C 
BRANCH  18  19
ATOM     19  C   UNL     1      -8.685  -4.563  -8.387  1.00  0.00     0.000 C 
BRANCH  19  20
ATOM     20  C   UNL     1      -7.771  -5.097  -9.503  1.00  0.00     0.000 C 
BRANCH  20  21
ATOM     21  C   UNL     1      -7.859  -6.615  -9.756  1.00  0.00     0.000 C 
BRANCH  21  22
ATOM     22  C   UNL     1      -6.540  -7.373  -9.489  1.00  0.00    -0.000 C 
BRANCH  22  23
ATOM     23  C   UNL     1      -5.396  -6.431  -9.070  1.00  0.00    -0.000 C 
BRANCH  23  24
ATOM     24  C   UNL     1      -4.502  -7.034  -7.975  1.00  0.00    -0.000 C 
BRANCH  24  25
ATOM     25  C   UNL     1      -5.040  -6.771  -6.558  1.00  0.00    -0.000 C 
BRANCH  25  26
ATOM     26  C   UNL     1      -4.626  -5.393  -6.015  1.00  0.00    -0.000 C 
BRANCH  26  27
ATOM     27  C   UNL     1      -3.132  -5.261  -5.660  1.00  0.00    -0.000 C 
BRANCH  27  28
ATOM     28  C   UNL     1      -2.640  -3.800  -5.569  1.00  0.00    -0.000 C 
BRANCH  28  29
ATOM     29  C   UNL     1      -3.719  -2.791  -5.991  1.00  0.00    -0.003 C 
ATOM     30  C   UNL     1      -3.156  -1.374  -6.046  1.00  0.00     0.004 C 
ENDBRANCH  28  29
ENDBRANCH  27  28
ENDBRANCH  26  27
ENDBRANCH  25  26
ENDBRANCH  24  25
ENDBRANCH  23  24
ENDBRANCH  22  23
ENDBRANCH  21  22
ENDBRANCH  20  21
ENDBRANCH  19  20
ENDBRANCH  18  19
ENDBRANCH  17  18
ENDBRANCH   1  17
TORSDOF 26
ENDMDL
MODEL 2
REMARK VINA RESULT:    -2.233      2.729      7.860
REMARK INTER + INTRA:          -8.000
REMARK INTER:                  -6.299
REMARK INTRA:                  -1.700
REMARK UNBOUND:                -2.373
REMARK SMILES CCCCCCCCCCCCCCCCCCCCCCCCCCCC(=O)[O-]
REMARK SMILES IDX 15 1 16 2 17 3 18 4 19 5 20 6 21 7 22 8 23 9 24 10 25 11
REMARK SMILES IDX 26 12 27 13 28 14 29 15 30 16 14 17 13 18 12 19 11 20 10 21
REMARK SMILES IDX 9 22 8 23 7 24 6 25 5 26 4 27 3 28 2 29 1 30
REMARK H PARENT
REMARK Flexibility Score: inf
ROOT
ATOM      1  C   UNL     1     -11.120  -4.941  -6.689  1.00  0.00     0.000 C 
ENDROOT
BRANCH   1   2
ATOM      2  C   UNL     1     -10.571  -4.587  -8.082  1.00  0.00     0.000 C 
BRANCH   2   3
ATOM      3  C   UNL     1     -10.297  -5.828  -8.947  1.00  0.00     0.000 C 
BRANCH   3   4
ATOM      4  C   UNL     1      -9.224  -5.575 -10.023  1.00  0.00     0.000 C 
BRANCH   4   5
ATOM      5  C   UNL     1      -8.367  -4.336  -9.724  1.00  0.00     0.000 C 
BRANCH   5   6
ATOM      6  C   UNL     1      -6.878  -4.668  -9.549  1.00  0.00     0.000 C 
BRANCH   6   7
ATOM      7  C   UNL     1      -6.652  -6.185  -9.590  1.00  0.00     0.000 C 
BRANCH   7   8
ATOM      8  C   UNL     1      -6.284  -6.731  -8.202  1.00  0.00     0.000 C 
BRANCH   8   9
ATOM      9  C   UNL     1      -7.248  -6.247  -7.104  1.00  0.00     0.000 C 
BRANCH   9  10
ATOM     10  C   UNL     1      -6.542  -5.990  -5.765  1.00  0.00     0.000 C 
BRANCH  10  11
ATOM     11  C   UNL     1      -5.233  -6.789  -5.672  1.00  0.00     0.000 C 
BRANCH  11  12
ATOM     12  C   UNL     1      -3.985  -5.913  -5.873  1.00  0.00     0.006 C 
BRANCH  12  13
ATOM     13  C   UNL     1      -4.324  -4.430  -6.073  1.00  0.00     0.053 C 
BRANCH  13  14
ATOM     14  C   UNL     1      -3.201  -3.563  -5.596  1.00  0.00     0.041 C 
ATOM     15  O   UNL     1      -2.026  -4.015  -5.555  1.00  0.00    -0.550 OA
ATOM     16  O   UNL     1      -3.451  -2.259  -5.186  1.00  0.00    -0.550 OA
ENDBRANCH  13  14
ENDBRANCH  12  13
ENDBRANCH  11  12
ENDBRANCH  10  11
ENDBRANCH   9  10
ENDBRANCH   8   9
ENDBRANCH   7   8
ENDBRANCH   6   7
ENDBRANCH   5   6
ENDBRANCH   4   5
ENDBRANCH   3   4
ENDBRANCH   2   3
ENDBRANCH   1   2
BRANCH   1  17
ATOM     17  C   UNL     1     -10.172  -5.855  -5.890  1.00  0.00     0.000 C 
BRANCH  17  18
ATOM     18  C   UNL     1      -9.945  -5.440  -4.426  1.00  0.00     0.000 C 
BRANCH  18  19
ATOM     19  C   UNL     1     -11.125  -4.644  -3.843  1.00  0.00     0.000 C 
BRANCH  19  20
ATOM     20  C   UNL     1     -10.716  -3.246  -3.349  1.00  0.00     0.000 C 
BRANCH  20  21
ATOM     21  C   UNL     1     -11.053  -2.943  -1.875  1.00  0.00     0.000 C 
BRANCH  21  22
ATOM     22  C   UNL     1     -10.041  -3.528  -0.866  1.00  0.00    -0.000 C 
BRANCH  22  23
ATOM     23  C   UNL     1      -8.662  -3.788  -1.502  1.00  0.00    -0.000 C 
BRANCH  23  24
ATOM     24  C   UNL     1      -8.130  -2.576  -2.282  1.00  0.00    -0.000 C 
BRANCH  24  25
ATOM     25  C   UNL     1      -7.490  -1.516  -1.368  1.00  0.00    -0.000 C 
BRANCH  25  26
ATOM     26  C   UNL     1      -7.833  -0.080  -1.798  1.00  0.00    -0.000 C 
BRANCH  26  27
ATOM     27  C   UNL     1      -8.225   0.864  -0.644  1.00  0.00    -0.000 C 
BRANCH  27  28
ATOM     28  C   UNL     1      -9.002   2.118  -1.101  1.00  0.00    -0.000 C 
BRANCH  28  29
ATOM     29  C   UNL     1      -8.332   3.422  -0.642  1.00  0.00    -0.003 C 
ATOM     30  C   UNL     1      -8.931   4.629  -1.359  1.00  0.00     0.004 C 
ENDBRANCH  28  29
ENDBRANCH  27  28
ENDBRANCH  26  27
ENDBRANCH  25  26
ENDBRANCH  24  25
ENDBRANCH  23  24
ENDBRANCH  22  23
ENDBRANCH  21  22
ENDBRANCH  20  21
ENDBRANCH  19  20
ENDBRANCH  18  19
ENDBRANCH  17  18
ENDBRANCH   1  17
TORSDOF 26
ENDMDL
MODEL 3
REMARK VINA RESULT:    -1.450      2.773      8.622
REMARK INTER + INTRA:          -6.027
REMARK INTER:                  -4.254
REMARK INTRA:                  -1.773
REMARK UNBOUND:                -2.373
REMARK SMILES CCCCCCCCCCCCCCCCCCCCCCCCCCCC(=O)[O-]
REMARK SMILES IDX 15 1 16 2 17 3 18 4 19 5 20 6 21 7 22 8 23 9 24 10 25 11
REMARK SMILES IDX 26 12 27 13 28 14 29 15 30 16 14 17 13 18 12 19 11 20 10 21
REMARK SMILES IDX 9 22 8 23 7 24 6 25 5 26 4 27 3 28 2 29 1 30
REMARK H PARENT
REMARK Flexibility Score: inf
ROOT
ATOM      1  C   UNL     1     -10.890  -4.918  -5.276  1.00  0.00     0.000 C 
ENDROOT
BRANCH   1   2
ATOM      2  C   UNL     1     -10.646  -5.213  -6.766  1.00  0.00     0.000 C 
BRANCH   2   3
ATOM      3  C   UNL     1     -10.098  -3.996  -7.532  1.00  0.00     0.000 C 
BRANCH   3   4
ATOM      4  C   UNL     1      -9.668  -4.345  -8.969  1.00  0.00     0.000 C 
BRANCH   4   5
ATOM      5  C   UNL     1      -8.144  -4.309  -9.156  1.00  0.00     0.000 C 
BRANCH   5   6
ATOM      6  C   UNL     1      -7.613  -5.506  -9.958  1.00  0.00     0.000 C 
BRANCH   6   7
ATOM      7  C   UNL     1      -7.308  -6.689  -9.031  1.00  0.00     0.000 C 
BRANCH   7   8
ATOM      8  C   UNL     1      -5.916  -6.554  -8.395  1.00  0.00     0.000 C 
BRANCH   8   9
ATOM      9  C   UNL     1      -5.826  -7.248  -7.025  1.00  0.00     0.000 C 
BRANCH   9  10
ATOM     10  C   UNL     1      -5.916  -6.260  -5.852  1.00  0.00     0.000 C 
BRANCH  10  11
ATOM     11  C   UNL     1      -4.535  -5.674  -5.522  1.00  0.00     0.000 C 
BRANCH  11  12
ATOM     12  C   UNL     1      -4.286  -4.317  -6.201  1.00  0.00     0.006 C 
BRANCH  12  13
ATOM     13  C   UNL     1      -3.020  -3.618  -5.688  1.00  0.00     0.053 C 
BRANCH  13  14
ATOM     14  C   UNL     1      -3.221  -2.136  -5.634  1.00  0.00     0.041 C 
ATOM     15  O   UNL     1      -2.790  -1.404  -6.564  1.00  0.00    -0.550 OA
ATOM     16  O   UNL     1      -3.877  -1.560  -4.553  1.00  0.00    -0.550 OA
ENDBRANCH  13  14
ENDBRANCH  12  13
ENDBRANCH  11  12
ENDBRANCH  10  11
ENDBRANCH   9  10
ENDBRANCH   8   9
ENDBRANCH   7   8
ENDBRANCH   6   7
ENDBRANCH   5   6
ENDBRANCH   4   5
ENDBRANCH   3   4
ENDBRANCH   2   3
ENDBRANCH   1   2
BRANCH   1  17
ATOM     17  C   UNL     1     -10.253  -3.592  -4.819  1.00  0.00     0.000 C 
BRANCH  17  18
ATOM     18  C   UNL     1     -11.026  -2.841  -3.721  1.00  0.00     0.000 C 
BRANCH  18  19
ATOM     19  C   UNL     1     -10.935  -3.531  -2.349  1.00  0.00     0.000 C 
BRANCH  19  20
ATOM     20  C   UNL     1     -10.005  -2.794  -1.370  1.00  0.00     0.000 C 
BRANCH  20  21
ATOM     21  C   UNL     1      -8.497  -2.943  -1.654  1.00  0.00     0.000 C 
BRANCH  21  22
ATOM     22  C   UNL     1      -7.742  -1.600  -1.762  1.00  0.00    -0.000 C 
BRANCH  22  23
ATOM     23  C   UNL     1      -8.309  -0.531  -0.809  1.00  0.00    -0.000 C 
BRANCH  23  24
ATOM     24  C   UNL     1      -7.659   0.847  -1.011  1.00  0.00    -0.000 C 
BRANCH  24  25
ATOM     25  C   UNL     1      -8.615   2.008  -0.684  1.00  0.00    -0.000 C 
BRANCH  25  26
ATOM     26  C   UNL     1      -8.204   3.322  -1.369  1.00  0.00    -0.000 C 
BRANCH  26  27
ATOM     27  C   UNL     1      -9.345   4.344  -1.545  1.00  0.00    -0.000 C 
BRANCH  27  28
ATOM     28  C   UNL     1      -8.888   5.814  -1.433  1.00  0.00    -0.000 C 
BRANCH  28  29
ATOM     29  C   UNL     1      -9.164   6.410  -0.045  1.00  0.00    -0.003 C 
ATOM     30  C   UNL     1      -9.240   7.933  -0.105  1.00  0.00     0.004 C 
ENDBRANCH  28  29
ENDBRANCH  27  28
ENDBRANCH  26  27
ENDBRANCH  25  26
ENDBRANCH  24  25
ENDBRANCH  23  24
ENDBRANCH  22  23
ENDBRANCH  21  22
ENDBRANCH  20  21
ENDBRANCH  19  20
ENDBRANCH  18  19
ENDBRANCH  17  18
ENDBRANCH   1  17
TORSDOF 26
ENDMDL
MODEL 4
REMARK VINA RESULT:    -1.417      3.559      9.571
REMARK INTER + INTRA:          -5.945
REMARK INTER:                  -3.736
REMARK INTRA:                  -2.209
REMARK UNBOUND:                -2.373
REMARK SMILES CCCCCCCCCCCCCCCCCCCCCCCCCCCC(=O)[O-]
REMARK SMILES IDX 15 1 16 2 17 3 18 4 19 5 20 6 21 7 22 8 23 9 24 10 25 11
REMARK SMILES IDX 26 12 27 13 28 14 29 15 30 16 14 17 13 18 12 19 11 20 10 21
REMARK SMILES IDX 9 22 8 23 7 24 6 25 5 26 4 27 3 28 2 29 1 30
REMARK H PARENT
REMARK Flexibility Score: inf
ROOT
ATOM      1  C   UNL     1     -11.098  -2.964  -3.543  1.00  0.00     0.000 C 
ENDROOT
BRANCH   1   2
ATOM      2  C   UNL     1     -10.793  -3.736  -4.839  1.00  0.00     0.000 C 
BRANCH   2   3
ATOM      3  C   UNL     1     -10.283  -5.163  -4.576  1.00  0.00     0.000 C 
BRANCH   3   4
ATOM      4  C   UNL     1      -9.327  -5.663  -5.676  1.00  0.00     0.000 C 
BRANCH   4   5
ATOM      5  C   UNL     1      -8.841  -4.532  -6.596  1.00  0.00     0.000 C 
BRANCH   5   6
ATOM      6  C   UNL     1      -8.897  -4.908  -8.083  1.00  0.00     0.000 C 
BRANCH   6   7
ATOM      7  C   UNL     1      -7.592  -4.520  -8.790  1.00  0.00     0.000 C 
BRANCH   7   8
ATOM      8  C   UNL     1      -7.211  -5.552  -9.863  1.00  0.00     0.000 C 
BRANCH   8   9
ATOM      9  C   UNL     1      -6.408  -6.730  -9.286  1.00  0.00     0.000 C 
BRANCH   9  10
ATOM     10  C   UNL     1      -5.456  -6.305  -8.159  1.00  0.00     0.000 C 
BRANCH  10  11
ATOM     11  C   UNL     1      -5.918  -6.869  -6.807  1.00  0.00     0.000 C 
BRANCH  11  12
ATOM     12  C   UNL     1      -5.230  -6.191  -5.611  1.00  0.00     0.006 C 
BRANCH  12  13
ATOM     13  C   UNL     1      -3.706  -6.376  -5.617  1.00  0.00     0.053 C 
BRANCH  13  14
ATOM     14  C   UNL     1      -3.014  -5.049  -5.632  1.00  0.00     0.041 C 
ATOM     15  O   UNL     1      -1.757  -4.990  -5.577  1.00  0.00    -0.550 OA
ATOM     16  O   UNL     1      -3.756  -3.876  -5.695  1.00  0.00    -0.550 OA
ENDBRANCH  13  14
ENDBRANCH  12  13
ENDBRANCH  11  12
ENDBRANCH  10  11
ENDBRANCH   9  10
ENDBRANCH   8   9
ENDBRANCH   7   8
ENDBRANCH   6   7
ENDBRANCH   5   6
ENDBRANCH   4   5
ENDBRANCH   3   4
ENDBRANCH   2   3
ENDBRANCH   1   2
BRANCH   1  17
ATOM     17  C   UNL     1     -11.071  -3.864  -2.293  1.00  0.00     0.000 C 
BRANCH  17  18
ATOM     18  C   UNL     1     -10.123  -3.397  -1.174  1.00  0.00     0.000 C 
BRANCH  18  19
ATOM     19  C   UNL     1      -8.644  -3.678  -1.489  1.00  0.00     0.000 C 
BRANCH  19  20
ATOM     20  C   UNL     1      -7.734  -2.469  -1.214  1.00  0.00     0.000 C 
BRANCH  20  21
ATOM     21  C   UNL     1      -8.190  -1.142  -1.854  1.00  0.00     0.000 C 
BRANCH  21  22
ATOM     22  C   UNL     1      -7.569   0.114  -1.205  1.00  0.00    -0.000 C 
BRANCH  22  23
ATOM     23  C   UNL     1      -8.636   1.077  -0.652  1.00  0.00    -0.000 C 
BRANCH  23  24
ATOM     24  C   UNL     1      -8.155   2.536  -0.611  1.00  0.00    -0.000 C 
BRANCH  24  25
ATOM     25  C   UNL     1      -9.075   3.487  -1.396  1.00  0.00    -0.000 C 
BRANCH  25  26
ATOM     26  C   UNL     1      -8.545   4.931  -1.426  1.00  0.00    -0.000 C 
BRANCH  26  27
ATOM     27  C   UNL     1      -9.588   6.010  -1.075  1.00  0.00    -0.000 C 
BRANCH  27  28
ATOM     28  C   UNL     1      -9.110   7.013  -0.004  1.00  0.00    -0.000 C 
BRANCH  28  29
ATOM     29  C   UNL     1      -9.257   8.473  -0.460  1.00  0.00    -0.003 C 
ATOM     30  C   UNL     1      -9.124   9.434   0.717  1.00  0.00     0.004 C 
ENDBRANCH  28  29
ENDBRANCH  27  28
ENDBRANCH  26  27
ENDBRANCH  25  26
ENDBRANCH  24  25
ENDBRANCH  23  24
ENDBRANCH  22  23
ENDBRANCH  21  22
ENDBRANCH  20  21
ENDBRANCH  19  20
ENDBRANCH  18  19
ENDBRANCH  17  18
ENDBRANCH   1  17
TORSDOF 26
ENDMDL
MODEL 5
REMARK VINA RESULT:    -1.184      1.448      2.258
REMARK INTER + INTRA:          -5.358
REMARK INTER:                  -2.680
REMARK INTRA:                  -2.678
REMARK UNBOUND:                -2.373
REMARK SMILES CCCCCCCCCCCCCCCCCCCCCCCCCCCC(=O)[O-]
REMARK SMILES IDX 15 1 16 2 17 3 18 4 19 5 20 6 21 7 22 8 23 9 24 10 25 11
REMARK SMILES IDX 26 12 27 13 28 14 29 15 30 16 14 17 13 18 12 19 11 20 10 21
REMARK SMILES IDX 9 22 8 23 7 24 6 25 5 26 4 27 3 28 2 29 1 30
REMARK H PARENT
REMARK Flexibility Score: inf
ROOT
ATOM      1  C   UNL     1      -9.299  -4.326  -5.329  1.00  0.00     0.000 C 
ENDROOT
BRANCH   1   2
ATOM      2  C   UNL     1     -10.078  -5.325  -4.457  1.00  0.00     0.000 C 
BRANCH   2   3
ATOM      3  C   UNL     1     -11.125  -4.643  -3.560  1.00  0.00     0.000 C 
BRANCH   3   4
ATOM      4  C   UNL     1     -10.612  -3.325  -2.948  1.00  0.00     0.000 C 
BRANCH   4   5
ATOM      5  C   UNL     1     -10.843  -3.248  -1.431  1.00  0.00     0.000 C 
BRANCH   5   6
ATOM      6  C   UNL     1      -9.672  -2.597  -0.682  1.00  0.00     0.000 C 
BRANCH   6   7
ATOM      7  C   UNL     1      -8.330  -3.049  -1.274  1.00  0.00     0.000 C 
BRANCH   7   8
ATOM      8  C   UNL     1      -7.353  -1.871  -1.402  1.00  0.00     0.000 C 
BRANCH   8   9
ATOM      9  C   UNL     1      -8.010  -0.626  -2.021  1.00  0.00     0.000 C 
BRANCH   9  10
ATOM     10  C   UNL     1      -7.431   0.687  -1.473  1.00  0.00     0.000 C 
BRANCH  10  11
ATOM     11  C   UNL     1      -8.365   1.300  -0.418  1.00  0.00     0.000 C 
BRANCH  11  12
ATOM     12  C   UNL     1      -8.273   2.834  -0.360  1.00  0.00     0.006 C 
BRANCH  12  13
ATOM     13  C   UNL     1      -9.075   3.521  -1.474  1.00  0.00     0.053 C 
BRANCH  13  14
ATOM     14  C   UNL     1      -8.794   4.991  -1.495  1.00  0.00     0.041 C 
ATOM     15  O   UNL     1      -8.906   5.672  -0.442  1.00  0.00    -0.550 OA
ATOM     16  O   UNL     1      -8.418   5.613  -2.680  1.00  0.00    -0.550 OA
ENDBRANCH  13  14
ENDBRANCH  12  13
ENDBRANCH  11  12
ENDBRANCH  10  11
ENDBRANCH   9  10
ENDBRANCH   8   9
ENDBRANCH   7   8
ENDBRANCH   6   7
ENDBRANCH   5   6
ENDBRANCH   4   5
ENDBRANCH   3   4
ENDBRANCH   2   3
ENDBRANCH   1   2
BRANCH   1  17
ATOM     17  C   UNL     1      -9.555  -4.522  -6.834  1.00  0.00     0.000 C 
BRANCH  17  18
ATOM     18  C   UNL     1     -10.877  -5.228  -7.185  1.00  0.00     0.000 C 
BRANCH  18  19
ATOM     19  C   UNL     1     -11.125  -5.309  -8.701  1.00  0.00     0.000 C 
BRANCH  19  20
ATOM     20  C   UNL     1      -9.826  -5.454  -9.512  1.00  0.00     0.000 C 
BRANCH  20  21
ATOM     21  C   UNL     1      -9.416  -6.902  -9.848  1.00  0.00     0.000 C 
BRANCH  21  22
ATOM     22  C   UNL     1      -7.949  -7.235  -9.502  1.00  0.00    -0.000 C 
BRANCH  22  23
ATOM     23  C   UNL     1      -6.996  -6.060  -9.793  1.00  0.00    -0.000 C 
BRANCH  23  24
ATOM     24  C   UNL     1      -5.723  -6.101  -8.933  1.00  0.00    -0.000 C 
BRANCH  24  25
ATOM     25  C   UNL     1      -5.870  -7.010  -7.699  1.00  0.00    -0.000 C 
BRANCH  25  26
ATOM     26  C   UNL     1      -6.069  -6.213  -6.399  1.00  0.00    -0.000 C 
BRANCH  26  27
ATOM     27  C   UNL     1      -5.168  -4.970  -6.258  1.00  0.00    -0.000 C 
BRANCH  27  28
ATOM     28  C   UNL     1      -3.690  -5.301  -5.958  1.00  0.00    -0.000 C 
BRANCH  28  29
ATOM     29  C   UNL     1      -2.785  -4.063  -6.032  1.00  0.00    -0.003 C 
ATOM     30  C   UNL     1      -3.549  -2.799  -5.647  1.00  0.00     0.004 C 
ENDBRANCH  28  29
ENDBRANCH  27  28
ENDBRANCH  26  27
ENDBRANCH  25  26
ENDBRANCH  24  25
ENDBRANCH  23  24
ENDBRANCH  22  23
ENDBRANCH  21  22
ENDBRANCH  20  21
ENDBRANCH  19  20
ENDBRANCH  18  19
ENDBRANCH  17  18
ENDBRANCH   1  17
TORSDOF 26
ENDMDL
MODEL 6
REMARK VINA RESULT:    -0.904      2.044      3.063
REMARK INTER + INTRA:          -4.650
REMARK INTER:                  -2.889
REMARK INTRA:                  -1.761
REMARK UNBOUND:                -2.373
REMARK SMILES CCCCCCCCCCCCCCCCCCCCCCCCCCCC(=O)[O-]
REMARK SMILES IDX 15 1 16 2 17 3 18 4 19 5 20 6 21 7 22 8 23 9 24 10 25 11
REMARK SMILES IDX 26 12 27 13 28 14 29 15 30 16 14 17 13 18 12 19 11 20 10 21
REMARK SMILES IDX 9 22 8 23 7 24 6 25 5 26 4 27 3 28 2 29 1 30
REMARK H PARENT
REMARK Flexibility Score: inf
ROOT
ATOM      1  C   UNL     1     -11.069  -5.894  -5.205  1.00  0.00     0.000 C 
ENDROOT
BRANCH   1   2
ATOM      2  C   UNL     1     -10.856  -4.438  -4.756  1.00  0.00     0.000 C 
BRANCH   2   3
ATOM      3  C   UNL     1      -9.490  -4.215  -4.086  1.00  0.00     0.000 C 
BRANCH   3   4
ATOM      4  C   UNL     1      -9.505  -3.045  -3.084  1.00  0.00     0.000 C 
BRANCH   4   5
ATOM      5  C   UNL     1      -8.638  -3.318  -1.845  1.00  0.00     0.000 C 
BRANCH   5   6
ATOM      6  C   UNL     1      -8.192  -2.031  -1.135  1.00  0.00     0.000 C 
BRANCH   6   7
ATOM      7  C   UNL     1      -7.389  -1.136  -2.087  1.00  0.00     0.000 C 
BRANCH   7   8
ATOM      8  C   UNL     1      -7.105   0.236  -1.455  1.00  0.00     0.000 C 
BRANCH   8   9
ATOM      9  C   UNL     1      -8.355   0.851  -0.802  1.00  0.00     0.000 C 
BRANCH   9  10
ATOM     10  C   UNL     1      -8.114   2.279  -0.290  1.00  0.00     0.000 C 
BRANCH  10  11
ATOM     11  C   UNL     1      -8.470   3.316  -1.366  1.00  0.00     0.000 C 
BRANCH  11  12
ATOM     12  C   UNL     1      -9.221   4.531  -0.798  1.00  0.00     0.006 C 
BRANCH  12  13
ATOM     13  C   UNL     1      -8.642   5.868  -1.282  1.00  0.00     0.053 C 
BRANCH  13  14
ATOM     14  C   UNL     1      -9.170   7.000  -0.458  1.00  0.00     0.041 C 
ATOM     15  O   UNL     1      -8.588   8.117  -0.469  1.00  0.00    -0.550 OA
ATOM     16  O   UNL     1     -10.300   6.821   0.331  1.00  0.00    -0.550 OA
ENDBRANCH  13  14
ENDBRANCH  12  13
ENDBRANCH  11  12
ENDBRANCH  10  11
ENDBRANCH   9  10
ENDBRANCH   8   9
ENDBRANCH   7   8
ENDBRANCH   6   7
ENDBRANCH   5   6
ENDBRANCH   4   5
ENDBRANCH   3   4
ENDBRANCH   2   3
ENDBRANCH   1   2
BRANCH   1  17
ATOM     17  C   UNL     1     -10.679  -6.127  -6.676  1.00  0.00     0.000 C 
BRANCH  17  18
ATOM     18  C   UNL     1     -10.285  -4.859  -7.455  1.00  0.00     0.000 C 
BRANCH  18  19
ATOM     19  C   UNL     1     -10.168  -5.104  -8.970  1.00  0.00     0.000 C 
BRANCH  19  20
ATOM     20  C   UNL     1      -9.311  -4.044  -9.682  1.00  0.00     0.000 C 
BRANCH  20  21
ATOM     21  C   UNL     1      -7.808  -4.073  -9.338  1.00  0.00     0.000 C 
BRANCH  21  22
ATOM     22  C   UNL     1      -7.063  -5.312  -9.880  1.00  0.00    -0.000 C 
BRANCH  22  23
ATOM     23  C   UNL     1      -7.000  -6.456  -8.851  1.00  0.00    -0.000 C 
BRANCH  23  24
ATOM     24  C   UNL     1      -5.788  -6.343  -7.912  1.00  0.00    -0.000 C 
BRANCH  24  25
ATOM     25  C   UNL     1      -6.160  -6.559  -6.434  1.00  0.00    -0.000 C 
BRANCH  25  26
ATOM     26  C   UNL     1      -4.943  -6.459  -5.499  1.00  0.00    -0.000 C 
BRANCH  26  27
ATOM     27  C   UNL     1      -3.657  -5.930  -6.165  1.00  0.00    -0.000 C 
BRANCH  27  28
ATOM     28  C   UNL     1      -3.131  -4.617  -5.547  1.00  0.00    -0.000 C 
BRANCH  28  29
ATOM     29  C   UNL     1      -3.927  -3.389  -6.013  1.00  0.00    -0.003 C 
ATOM     30  C   UNL     1      -3.062  -2.132  -5.992  1.00  0.00     0.004 C 
ENDBRANCH  28  29
ENDBRANCH  27  28
ENDBRANCH  26  27
ENDBRANCH  25  26
ENDBRANCH  24  25
ENDBRANCH  23  24
ENDBRANCH  22  23
ENDBRANCH  21  22
ENDBRANCH  20  21
ENDBRANCH  19  20
ENDBRANCH  18  19
ENDBRANCH  17  18
ENDBRANCH   1  17
TORSDOF 26
ENDMDL
MODEL 7
REMARK VINA RESULT:    -0.829      4.970     11.477
REMARK INTER + INTRA:          -4.462
REMARK INTER:                  -2.948
REMARK INTRA:                  -1.514
REMARK UNBOUND:                -2.373
REMARK SMILES CCCCCCCCCCCCCCCCCCCCCCCCCCCC(=O)[O-]
REMARK SMILES IDX 15 1 16 2 17 3 18 4 19 5 20 6 21 7 22 8 23 9 24 10 25 11
REMARK SMILES IDX 26 12 27 13 28 14 29 15 30 16 14 17 13 18 12 19 11 20 10 21
REMARK SMILES IDX 9 22 8 23 7 24 6 25 5 26 4 27 3 28 2 29 1 30
REMARK H PARENT
REMARK Flexibility Score: inf
ROOT
ATOM      1  C   UNL     1      -8.000  -2.194  -2.188  1.00  0.00     0.000 C 
ENDROOT
BRANCH   1   2
ATOM      2  C   UNL     1      -9.094  -2.426  -1.131  1.00  0.00     0.000 C 
BRANCH   2   3
ATOM      3  C   UNL     1      -9.813  -3.775  -1.304  1.00  0.00     0.000 C 
BRANCH   3   4
ATOM      4  C   UNL     1     -11.062  -3.671  -2.199  1.00  0.00     0.000 C 
BRANCH   4   5
ATOM      5  C   UNL     1     -10.944  -4.513  -3.479  1.00  0.00     0.000 C 
BRANCH   5   6
ATOM      6  C   UNL     1     -10.593  -3.672  -4.715  1.00  0.00     0.000 C 
BRANCH   6   7
ATOM      7  C   UNL     1      -9.726  -4.478  -5.691  1.00  0.00     0.000 C 
BRANCH   7   8
ATOM      8  C   UNL     1     -10.417  -4.629  -7.055  1.00  0.00     0.000 C 
BRANCH   8   9
ATOM      9  C   UNL     1      -9.491  -4.259  -8.227  1.00  0.00     0.000 C 
BRANCH   9  10
ATOM     10  C   UNL     1      -8.500  -5.379  -8.577  1.00  0.00     0.000 C 
BRANCH  10  11
ATOM     11  C   UNL     1      -7.082  -4.818  -8.761  1.00  0.00     0.000 C 
BRANCH  11  12
ATOM     12  C   UNL     1      -6.037  -5.544  -7.898  1.00  0.00     0.006 C 
BRANCH  12  13
ATOM     13  C   UNL     1      -6.231  -5.298  -6.395  1.00  0.00     0.053 C 
BRANCH  13  14
ATOM     14  C   UNL     1      -5.953  -6.545  -5.616  1.00  0.00     0.041 C 
ATOM     15  O   UNL     1      -4.945  -7.250  -5.888  1.00  0.00    -0.550 OA
ATOM     16  O   UNL     1      -6.812  -6.937  -4.596  1.00  0.00    -0.550 OA
ENDBRANCH  13  14
ENDBRANCH  12  13
ENDBRANCH  11  12
ENDBRANCH  10  11
ENDBRANCH   9  10
ENDBRANCH   8   9
ENDBRANCH   7   8
ENDBRANCH   6   7
ENDBRANCH   5   6
ENDBRANCH   4   5
ENDBRANCH   3   4
ENDBRANCH   2   3
ENDBRANCH   1   2
BRANCH   1  17
ATOM     17  C   UNL     1      -7.368  -0.793  -2.095  1.00  0.00     0.000 C 
BRANCH  17  18
ATOM     18  C   UNL     1      -7.911   0.094  -0.960  1.00  0.00     0.000 C 
BRANCH  18  19
ATOM     19  C   UNL     1      -7.507   1.570  -1.112  1.00  0.00     0.000 C 
BRANCH  19  20
ATOM     20  C   UNL     1      -8.503   2.534  -0.445  1.00  0.00     0.000 C 
BRANCH  20  21
ATOM     21  C   UNL     1      -9.217   3.510  -1.402  1.00  0.00     0.000 C 
BRANCH  21  22
ATOM     22  C   UNL     1      -8.546   4.898  -1.500  1.00  0.00    -0.000 C 
BRANCH  22  23
ATOM     23  C   UNL     1      -9.500   6.040  -1.102  1.00  0.00    -0.000 C 
BRANCH  23  24
ATOM     24  C   UNL     1      -8.929   6.928   0.015  1.00  0.00    -0.000 C 
BRANCH  24  25
ATOM     25  C   UNL     1      -9.241   8.420  -0.196  1.00  0.00    -0.000 C 
BRANCH  25  26
ATOM     26  C   UNL     1      -8.984   9.261   1.066  1.00  0.00    -0.000 C 
BRANCH  26  27
ATOM     27  C   UNL     1     -10.207   9.434   1.988  1.00  0.00    -0.000 C 
BRANCH  27  28
ATOM     28  C   UNL     1      -9.861  10.005   3.380  1.00  0.00    -0.000 C 
BRANCH  28  29
ATOM     29  C   UNL     1     -10.831   9.521   4.469  1.00  0.00    -0.003 C 
ATOM     30  C   UNL     1     -10.404  10.020   5.847  1.00  0.00     0.004 C 
ENDBRANCH  28  29
ENDBRANCH  27  28
ENDBRANCH  26  27
ENDBRANCH  25  26
ENDBRANCH  24  25
ENDBRANCH  23  24
ENDBRANCH  22  23
ENDBRANCH  21  22
ENDBRANCH  20  21
ENDBRANCH  19  20
ENDBRANCH  18  19
ENDBRANCH  17  18
ENDBRANCH   1  17
TORSDOF 26
ENDMDL
MODEL 8
REMARK VINA RESULT:    -0.828      1.712      5.524
REMARK INTER + INTRA:          -4.459
REMARK INTER:                  -5.655
REMARK INTRA:                   1.196
REMARK UNBOUND:                -2.373
REMARK SMILES CCCCCCCCCCCCCCCCCCCCCCCCCCCC(=O)[O-]
REMARK SMILES IDX 15 1 16 2 17 3 18 4 19 5 20 6 21 7 22 8 23 9 24 10 25 11
REMARK SMILES IDX 26 12 27 13 28 14 29 15 30 16 14 17 13 18 12 19 11 20 10 21
REMARK SMILES IDX 9 22 8 23 7 24 6 25 5 26 4 27 3 28 2 29 1 30
REMARK H PARENT
REMARK Flexibility Score: inf
ROOT
ATOM      1  C   UNL     1      -3.353  -3.206  -5.792  1.00  0.00     0.000 C 
ENDROOT
BRANCH   1   2
ATOM      2  C   UNL     1      -4.752  -3.472  -6.377  1.00  0.00     0.000 C 
BRANCH   2   3
ATOM      3  C   UNL     1      -5.379  -4.775  -5.853  1.00  0.00     0.000 C 
BRANCH   3   4
ATOM      4  C   UNL     1      -6.845  -4.946  -6.292  1.00  0.00     0.000 C 
BRANCH   4   5
ATOM      5  C   UNL     1      -7.577  -6.039  -5.498  1.00  0.00     0.000 C 
BRANCH   5   6
ATOM      6  C   UNL     1      -8.833  -5.519  -4.785  1.00  0.00     0.000 C 
BRANCH   6   7
ATOM      7  C   UNL     1      -9.692  -4.682  -5.741  1.00  0.00     0.000 C 
BRANCH   7   8
ATOM      8  C   UNL     1      -9.990  -3.294  -5.153  1.00  0.00     0.000 C 
BRANCH   8   9
ATOM      9  C   UNL     1     -11.125  -3.327  -4.114  1.00  0.00     0.000 C 
BRANCH   9  10
ATOM     10  C   UNL     1     -10.726  -4.054  -2.821  1.00  0.00     0.000 C 
BRANCH  10  11
ATOM     11  C   UNL     1     -10.869  -3.128  -1.605  1.00  0.00     0.000 C 
BRANCH  11  12
ATOM     12  C   UNL     1      -9.564  -2.991  -0.803  1.00  0.00     0.006 C 
BRANCH  12  13
ATOM     13  C   UNL     1      -8.316  -2.969  -1.697  1.00  0.00     0.053 C 
BRANCH  13  14
ATOM     14  C   UNL     1      -7.731  -1.592  -1.750  1.00  0.00     0.041 C 
ATOM     15  O   UNL     1      -7.377  -1.097  -2.853  1.00  0.00    -0.550 OA
ATOM     16  O   UNL     1      -7.566  -0.858  -0.582  1.00  0.00    -0.550 OA
ENDBRANCH  13  14
ENDBRANCH  12  13
ENDBRANCH  11  12
ENDBRANCH  10  11
ENDBRANCH   9  10
ENDBRANCH   8   9
ENDBRANCH   7   8
ENDBRANCH   6   7
ENDBRANCH   5   6
ENDBRANCH   4   5
ENDBRANCH   3   4
ENDBRANCH   2   3
ENDBRANCH   1   2
BRANCH   1  17
ATOM     17  C   UNL     1      -2.724  -4.462  -5.160  1.00  0.00     0.000 C 
BRANCH  17  18
ATOM     18  C   UNL     1      -2.805  -5.736  -6.019  1.00  0.00     0.000 C 
BRANCH  18  19
ATOM     19  C   UNL     1      -3.974  -6.653  -5.615  1.00  0.00     0.000 C 
BRANCH  19  20
ATOM     20  C   UNL     1      -4.572  -7.418  -6.807  1.00  0.00     0.000 C 
BRANCH  20  21
ATOM     21  C   UNL     1      -4.471  -6.701  -8.169  1.00  0.00     0.000 C 
BRANCH  21  22
ATOM     22  C   UNL     1      -5.649  -6.996  -9.123  1.00  0.00    -0.000 C 
BRANCH  22  23
ATOM     23  C   UNL     1      -6.061  -5.760  -9.946  1.00  0.00    -0.000 C 
BRANCH  23  24
ATOM     24  C   UNL     1      -6.982  -4.808  -9.167  1.00  0.00    -0.000 C 
BRANCH  24  25
ATOM     25  C   UNL     1      -7.620  -3.733 -10.064  1.00  0.00    -0.000 C 
BRANCH  25  26
ATOM     26  C   UNL     1      -9.091  -3.462  -9.707  1.00  0.00    -0.000 C 
BRANCH  26  27
ATOM     27  C   UNL     1     -10.073  -4.575 -10.125  1.00  0.00    -0.000 C 
BRANCH  27  28
ATOM     28  C   UNL     1     -10.877  -5.171  -8.949  1.00  0.00    -0.000 C 
BRANCH  28  29
ATOM     29  C   UNL     1     -10.408  -6.585  -8.577  1.00  0.00    -0.003 C 
ATOM     30  C   UNL     1     -10.835  -7.602  -9.632  1.00  0.00     0.004 C 
ENDBRANCH  28  29
ENDBRANCH  27  28
ENDBRANCH  26  27
ENDBRANCH  25  26
ENDBRANCH  24  25
ENDBRANCH  23  24
ENDBRANCH  22  23
ENDBRANCH  21  22
ENDBRANCH  20  21
ENDBRANCH  19  20
ENDBRANCH  18  19
ENDBRANCH  17  18
ENDBRANCH   1  17
TORSDOF 26
ENDMDL
