MODEL 1
REMARK VINA RESULT:    -3.854      0.000      0.000
REMARK INTER + INTRA:          -6.453
REMARK INTER:                  -5.882
REMARK INTRA:                  -0.571
REMARK UNBOUND:                -0.571
REMARK SMILES CC1=CCC[C@@H](C)C(=O)C[C@@H](C(C)C)C(=O)C1
REMARK SMILES IDX 8 1 9 2 6 3 7 4 5 5 4 6 3 7 2 8 1 9 10 11 11 12 15 13 16 14
REMARK SMILES IDX 17 15 12 17 13 18 14 19
REMARK H PARENT
REMARK Flexibility Score: 70.00
ROOT
ATOM      1  C   UNL     1       3.772   2.406 107.158  1.00  0.00     0.136 C 
ATOM      2  O   UNL     1       2.751   1.830 106.809  1.00  0.00    -0.299 OA
ENDROOT
BRANCH   1   3
ATOM      3  C   UNL     1       4.039   3.826 106.686  1.00  0.00     0.053 C 
ATOM      4  C   UNL     1       2.801   4.725 106.825  1.00  0.00     0.016 C 
BRANCH   3   5
ATOM      5  C   UNL     1       4.650   3.900 105.264  1.00  0.00     0.015 C 
BRANCH   5   6
ATOM      6  C   UNL     1       5.514   2.717 104.775  1.00  0.00     0.028 C 
BRANCH   6   7
ATOM      7  C   UNL     1       7.016   2.878 104.825  1.00  0.00    -0.028 C 
ATOM      8  C   UNL     1       7.853   2.394 105.775  1.00  0.00    -0.070 CG0
ATOM      9  C   UNL     1       9.294   2.841 105.732  1.00  0.00     0.039 C 
ATOM     10  G   UNL     1       7.450   1.372 106.821  1.00  0.00     0.000 G0
ENDBRANCH   6   7
ENDBRANCH   5   6
ENDBRANCH   3   5
ENDBRANCH   1   3
BRANCH   1  11
ATOM     11  C   UNL     1       4.736   1.676 108.073  1.00  0.00     0.087 C 
BRANCH  11  12
ATOM     12  C   UNL     1       5.895   2.573 108.577  1.00  0.00     0.066 C 
BRANCH  12  13
ATOM     13  C   UNL     1       7.247   2.002 108.183  1.00  0.00     0.140 C 
ATOM     14  O   UNL     1       8.166   2.009 108.988  1.00  0.00    -0.299 OA
BRANCH  13  15
ATOM     15  C   UNL     1       7.459   1.347 106.835  1.00  0.00     0.106 CG0
ATOM     16  G   UNL     1       7.853   2.392 105.809  1.00  0.00     0.000 G0
ENDBRANCH  13  15
ENDBRANCH  12  13
BRANCH  12  17
ATOM     17  C   UNL     1       5.775   2.925 110.093  1.00  0.00    -0.006 C 
ATOM     18  C   UNL     1       5.077   4.262 110.403  1.00  0.00     0.008 C 
ATOM     19  C   UNL     1       5.093   1.788 110.870  1.00  0.00     0.008 C 
ENDBRANCH  12  17
ENDBRANCH  11  12
ENDBRANCH   1  11
TORSDOF 1
ENDMDL
MODEL 2
REMARK VINA RESULT:    -3.634      1.800      3.753
REMARK INTER + INTRA:          -6.117
REMARK INTER:                  -5.856
REMARK INTRA:                  -0.261
REMARK UNBOUND:                -0.571
REMARK SMILES CC1=CCC[C@@H](C)C(=O)C[C@@H](C(C)C)C(=O)C1
REMARK SMILES IDX 8 1 9 2 6 3 7 4 5 5 4 6 3 7 2 8 1 9 10 11 11 12 15 13 16 14
REMARK SMILES IDX 17 15 12 17 13 18 14 19
REMARK H PARENT
REMARK Flexibility Score: 70.00
ROOT
ATOM      1  C   UNL     1       5.552   3.649 108.864  1.00  0.00     0.136 C 
ATOM      2  O   UNL     1       5.180   4.346 109.796  1.00  0.00    -0.299 OA
ENDROOT
BRANCH   1   3
ATOM      3  C   UNL     1       6.027   2.228 109.123  1.00  0.00     0.053 C 
ATOM      4  C   UNL     1       5.492   1.672 110.451  1.00  0.00     0.016 C 
BRANCH   3   5
ATOM      5  C   UNL     1       7.562   2.058 109.001  1.00  0.00     0.015 C 
BRANCH   5   6
ATOM      6  C   UNL     1       8.121   1.289 107.784  1.00  0.00     0.028 C 
BRANCH   6   7
ATOM      7  C   UNL     1       8.996   2.050 106.815  1.00  0.00    -0.028 C 
ATOM      8  C   UNL     1       8.714   2.338 105.521  1.00  0.00    -0.070 CG0
ATOM      9  C   UNL     1       9.816   2.938 104.681  1.00  0.00     0.039 C 
ATOM     10  G   UNL     1       7.344   2.172 104.894  1.00  0.00     0.000 G0
ENDBRANCH   6   7
ENDBRANCH   5   6
ENDBRANCH   3   5
ENDBRANCH   1   3
BRANCH   1  11
ATOM     11  C   UNL     1       5.507   4.230 107.464  1.00  0.00     0.087 C 
BRANCH  11  12
ATOM     12  C   UNL     1       5.377   3.151 106.359  1.00  0.00     0.066 C 
BRANCH  12  13
ATOM     13  C   UNL     1       6.440   3.325 105.288  1.00  0.00     0.140 C 
ATOM     14  O   UNL     1       6.619   4.424 104.785  1.00  0.00    -0.299 OA
BRANCH  13  15
ATOM     15  C   UNL     1       7.343   2.179 104.886  1.00  0.00     0.106 CG0
ATOM     16  G   UNL     1       8.711   2.355 105.515  1.00  0.00     0.000 G0
ENDBRANCH  13  15
ENDBRANCH  12  13
BRANCH  12  17
ATOM     17  C   UNL     1       3.926   3.030 105.796  1.00  0.00    -0.006 C 
ATOM     18  C   UNL     1       3.015   2.036 106.540  1.00  0.00     0.008 C 
ATOM     19  C   UNL     1       3.247   4.406 105.725  1.00  0.00     0.008 C 
ENDBRANCH  12  17
ENDBRANCH  11  12
ENDBRANCH   1  11
TORSDOF 1
ENDMDL
MODEL 3
REMARK VINA RESULT:    -3.621      2.170      4.310
REMARK INTER + INTRA:          -6.098
REMARK INTER:                  -5.931
REMARK INTRA:                  -0.167
REMARK UNBOUND:                -0.571
REMARK SMILES CC1=CCC[C@@H](C)C(=O)C[C@@H](C(C)C)C(=O)C1
REMARK SMILES IDX 8 1 9 2 6 3 7 4 5 5 4 6 3 7 2 8 1 9 10 11 11 12 15 13 16 14
REMARK SMILES IDX 17 15 12 17 13 18 14 19
REMARK H PARENT
REMARK Flexibility Score: 70.00
ROOT
ATOM      1  C   UNL     1       5.332   3.821 109.210  1.00  0.00     0.136 C 
ATOM      2  O   UNL     1       4.811   4.403 110.151  1.00  0.00    -0.299 OA
ENDROOT
BRANCH   1   3
ATOM      3  C   UNL     1       5.715   2.356 109.346  1.00  0.00     0.053 C 
ATOM      4  C   UNL     1       7.054   2.041 108.663  1.00  0.00     0.016 C 
BRANCH   3   5
ATOM      5  C   UNL     1       4.596   1.381 108.902  1.00  0.00     0.015 C 
BRANCH   5   6
ATOM      6  C   UNL     1       4.901   0.382 107.765  1.00  0.00     0.028 C 
BRANCH   6   7
ATOM      7  C   UNL     1       4.116   0.520 106.480  1.00  0.00    -0.028 C 
ATOM      8  C   UNL     1       4.297   1.453 105.515  1.00  0.00    -0.070 CG0
ATOM      9  C   UNL     1       3.272   1.525 104.409  1.00  0.00     0.039 C 
ATOM     10  G   UNL     1       5.505   2.367 105.433  1.00  0.00     0.000 G0
ENDBRANCH   6   7
ENDBRANCH   5   6
ENDBRANCH   3   5
ENDBRANCH   1   3
BRANCH   1  11
ATOM     11  C   UNL     1       5.562   4.588 107.923  1.00  0.00     0.087 C 
BRANCH  11  12
ATOM     12  C   UNL     1       4.460   4.341 106.861  1.00  0.00     0.066 C 
BRANCH  12  13
ATOM     13  C   UNL     1       5.052   3.828 105.559  1.00  0.00     0.140 C 
ATOM     14  O   UNL     1       5.232   4.601 104.630  1.00  0.00    -0.299 OA
BRANCH  13  15
ATOM     15  C   UNL     1       5.502   2.391 105.415  1.00  0.00     0.106 CG0
ATOM     16  G   UNL     1       4.306   1.463 105.514  1.00  0.00     0.000 G0
ENDBRANCH  13  15
ENDBRANCH  12  13
BRANCH  12  17
ATOM     17  C   UNL     1       3.503   5.562 106.683  1.00  0.00    -0.006 C 
ATOM     18  C   UNL     1       2.025   5.206 106.436  1.00  0.00     0.008 C 
ATOM     19  C   UNL     1       3.614   6.526 107.874  1.00  0.00     0.008 C 
ENDBRANCH  12  17
ENDBRANCH  11  12
ENDBRANCH   1  11
TORSDOF 1
ENDMDL
MODEL 4
REMARK VINA RESULT:    -3.587      2.041      2.734
REMARK INTER + INTRA:          -6.045
REMARK INTER:                  -5.987
REMARK INTRA:                  -0.058
REMARK UNBOUND:                -0.571
REMARK SMILES CC1=CCC[C@@H](C)C(=O)C[C@@H](C(C)C)C(=O)C1
REMARK SMILES IDX 8 1 9 2 6 3 7 4 5 5 4 6 3 7 2 8 1 9 10 11 11 12 15 13 16 14
REMARK SMILES IDX 17 15 12 17 13 18 14 19
REMARK H PARENT
REMARK Flexibility Score: 70.00
ROOT
ATOM      1  C   UNL     1       3.798   4.815 108.223  1.00  0.00     0.136 C 
ATOM      2  O   UNL     1       3.913   5.161 109.390  1.00  0.00    -0.299 OA
ENDROOT
BRANCH   1   3
ATOM      3  C   UNL     1       3.564   5.860 107.144  1.00  0.00     0.053 C 
ATOM      4  C   UNL     1       3.167   7.223 107.732  1.00  0.00     0.016 C 
BRANCH   3   5
ATOM      5  C   UNL     1       2.580   5.398 106.040  1.00  0.00     0.015 C 
BRANCH   5   6
ATOM      6  C   UNL     1       3.148   5.068 104.642  1.00  0.00     0.028 C 
BRANCH   6   7
ATOM      7  C   UNL     1       4.650   5.090 104.472  1.00  0.00    -0.028 C 
ATOM      8  C   UNL     1       5.526   4.138 104.874  1.00  0.00    -0.070 CG0
ATOM      9  C   UNL     1       6.998   4.456 104.779  1.00  0.00     0.039 C 
ATOM     10  G   UNL     1       5.120   2.750 105.331  1.00  0.00     0.000 G0
ENDBRANCH   6   7
ENDBRANCH   5   6
ENDBRANCH   3   5
ENDBRANCH   1   3
BRANCH   1  11
ATOM     11  C   UNL     1       3.913   3.340 107.892  1.00  0.00     0.087 C 
BRANCH  11  12
ATOM     12  C   UNL     1       5.367   2.810 107.972  1.00  0.00     0.066 C 
BRANCH  12  13
ATOM     13  C   UNL     1       5.878   2.386 106.604  1.00  0.00     0.140 C 
ATOM     14  O   UNL     1       6.876   1.687 106.520  1.00  0.00    -0.299 OA
BRANCH  13  15
ATOM     15  C   UNL     1       5.125   2.746 105.341  1.00  0.00     0.106 CG0
ATOM     16  G   UNL     1       5.535   4.128 104.871  1.00  0.00     0.000 G0
ENDBRANCH  13  15
ENDBRANCH  12  13
BRANCH  12  17
ATOM     17  C   UNL     1       5.559   1.727 109.080  1.00  0.00    -0.006 C 
ATOM     18  C   UNL     1       5.526   2.256 110.526  1.00  0.00     0.008 C 
ATOM     19  C   UNL     1       4.541   0.588 108.919  1.00  0.00     0.008 C 
ENDBRANCH  12  17
ENDBRANCH  11  12
ENDBRANCH   1  11
TORSDOF 1
ENDMDL
MODEL 5
REMARK VINA RESULT:    -3.407      1.873      3.739
REMARK INTER + INTRA:          -5.772
REMARK INTER:                  -5.331
REMARK INTRA:                  -0.440
REMARK UNBOUND:                -0.571
REMARK SMILES CC1=CCC[C@@H](C)C(=O)C[C@@H](C(C)C)C(=O)C1
REMARK SMILES IDX 8 1 9 2 6 3 7 4 5 5 4 6 3 7 2 8 1 9 10 11 11 12 15 13 16 14
REMARK SMILES IDX 17 15 12 17 13 18 14 19
REMARK H PARENT
REMARK Flexibility Score: 70.00
ROOT
ATOM      1  C   UNL     1       5.260   1.999 108.352  1.00  0.00     0.136 C 
ATOM      2  O   UNL     1       4.353   1.386 108.896  1.00  0.00    -0.299 OA
ENDROOT
BRANCH   1   3
ATOM      3  C   UNL     1       5.577   3.422 108.784  1.00  0.00     0.053 C 
ATOM      4  C   UNL     1       5.838   3.524 110.294  1.00  0.00     0.016 C 
BRANCH   3   5
ATOM      5  C   UNL     1       4.531   4.460 108.306  1.00  0.00     0.015 C 
BRANCH   5   6
ATOM      6  C   UNL     1       4.740   5.133 106.932  1.00  0.00     0.028 C 
BRANCH   6   7
ATOM      7  C   UNL     1       4.285   4.378 105.705  1.00  0.00    -0.028 C 
ATOM      8  C   UNL     1       5.068   3.911 104.702  1.00  0.00    -0.070 CG0
ATOM      9  C   UNL     1       4.381   3.357 103.477  1.00  0.00     0.039 C 
ATOM     10  G   UNL     1       6.581   3.836 104.771  1.00  0.00     0.000 G0
ENDBRANCH   6   7
ENDBRANCH   5   6
ENDBRANCH   3   5
ENDBRANCH   1   3
BRANCH   1  11
ATOM     11  C   UNL     1       6.054   1.300 107.266  1.00  0.00     0.087 C 
BRANCH  11  12
ATOM     12  C   UNL     1       7.214   2.164 106.708  1.00  0.00     0.066 C 
BRANCH  12  13
ATOM     13  C   UNL     1       7.024   2.459 105.230  1.00  0.00     0.140 C 
ATOM     14  O   UNL     1       7.152   1.561 104.411  1.00  0.00    -0.299 OA
BRANCH  13  15
ATOM     15  C   UNL     1       6.595   3.830 104.753  1.00  0.00     0.106 CG0
ATOM     16  G   UNL     1       5.081   3.908 104.703  1.00  0.00     0.000 G0
ENDBRANCH  13  15
ENDBRANCH  12  13
BRANCH  12  17
ATOM     17  C   UNL     1       8.623   1.589 107.062  1.00  0.00    -0.006 C 
ATOM     18  C   UNL     1       9.810   2.304 106.390  1.00  0.00     0.008 C 
ATOM     19  C   UNL     1       8.834   1.547 108.583  1.00  0.00     0.008 C 
ENDBRANCH  12  17
ENDBRANCH  11  12
ENDBRANCH   1  11
TORSDOF 1
ENDMDL
MODEL 6
REMARK VINA RESULT:    -3.405      2.743      4.457
REMARK INTER + INTRA:          -5.769
REMARK INTER:                  -5.331
REMARK INTRA:                  -0.438
REMARK UNBOUND:                -0.571
REMARK SMILES CC1=CCC[C@@H](C)C(=O)C[C@@H](C(C)C)C(=O)C1
REMARK SMILES IDX 8 1 9 2 6 3 7 4 5 5 4 6 3 7 2 8 1 9 10 11 11 12 15 13 16 14
REMARK SMILES IDX 17 15 12 17 13 18 14 19
REMARK H PARENT
REMARK Flexibility Score: 70.00
ROOT
ATOM      1  C   UNL     1       6.550   3.691 105.539  1.00  0.00     0.136 C 
ATOM      2  O   UNL     1       7.598   3.996 104.987  1.00  0.00    -0.299 OA
ENDROOT
BRANCH   1   3
ATOM      3  C   UNL     1       5.424   3.066 104.731  1.00  0.00     0.053 C 
ATOM      4  C   UNL     1       5.920   1.926 103.830  1.00  0.00     0.016 C 
BRANCH   3   5
ATOM      5  C   UNL     1       4.582   4.102 103.944  1.00  0.00     0.015 C 
BRANCH   5   6
ATOM      6  C   UNL     1       3.280   4.629 104.586  1.00  0.00     0.028 C 
BRANCH   6   7
ATOM      7  C   UNL     1       3.388   5.814 105.518  1.00  0.00    -0.028 C 
ATOM      8  C   UNL     1       3.132   5.825 106.849  1.00  0.00    -0.070 CG0
ATOM      9  C   UNL     1       3.116   7.164 107.547  1.00  0.00     0.039 C 
ATOM     10  G   UNL     1       2.947   4.576 107.688  1.00  0.00     0.000 G0
ENDBRANCH   6   7
ENDBRANCH   5   6
ENDBRANCH   3   5
ENDBRANCH   1   3
BRANCH   1  11
ATOM     11  C   UNL     1       6.422   3.935 107.030  1.00  0.00     0.087 C 
BRANCH  11  12
ATOM     12  C   UNL     1       5.208   3.208 107.663  1.00  0.00     0.066 C 
BRANCH  12  13
ATOM     13  C   UNL     1       4.270   4.189 108.346  1.00  0.00     0.140 C 
ATOM     14  O   UNL     1       4.606   4.721 109.393  1.00  0.00    -0.299 OA
BRANCH  13  15
ATOM     15  C   UNL     1       2.955   4.588 107.710  1.00  0.00     0.106 CG0
ATOM     16  G   UNL     1       3.150   5.821 106.850  1.00  0.00     0.000 G0
ENDBRANCH  13  15
ENDBRANCH  12  13
BRANCH  12  17
ATOM     17  C   UNL     1       5.625   2.002 108.563  1.00  0.00    -0.006 C 
ATOM     18  C   UNL     1       5.036   0.640 108.150  1.00  0.00     0.008 C 
ATOM     19  C   UNL     1       7.154   1.897 108.669  1.00  0.00     0.008 C 
ENDBRANCH  12  17
ENDBRANCH  11  12
ENDBRANCH   1  11
TORSDOF 1
ENDMDL
MODEL 7
REMARK VINA RESULT:    -3.329      1.925      3.656
REMARK INTER + INTRA:          -5.652
REMARK INTER:                  -5.184
REMARK INTRA:                  -0.468
REMARK UNBOUND:                -0.571
REMARK SMILES CC1=CCC[C@@H](C)C(=O)C[C@@H](C(C)C)C(=O)C1
REMARK SMILES IDX 8 1 9 2 6 3 7 4 5 5 4 6 3 7 2 8 1 9 10 11 11 12 15 13 16 14
REMARK SMILES IDX 17 15 12 17 13 18 14 19
REMARK H PARENT
REMARK Flexibility Score: 70.00
ROOT
ATOM      1  C   UNL     1       5.647   2.156 109.975  1.00  0.00     0.136 C 
ATOM      2  O   UNL     1       5.753   2.233 111.190  1.00  0.00    -0.299 OA
ENDROOT
BRANCH   1   3
ATOM      3  C   UNL     1       5.149   0.868 109.339  1.00  0.00     0.053 C 
ATOM      4  C   UNL     1       3.822   0.394 109.951  1.00  0.00     0.016 C 
BRANCH   3   5
ATOM      5  C   UNL     1       6.211  -0.260 109.316  1.00  0.00     0.015 C 
BRANCH   5   6
ATOM      6  C   UNL     1       7.410  -0.120 108.353  1.00  0.00     0.028 C 
BRANCH   6   7
ATOM      7  C   UNL     1       7.113  -0.034 106.873  1.00  0.00    -0.028 C 
ATOM      8  C   UNL     1       7.062   1.091 106.119  1.00  0.00    -0.070 CG0
ATOM      9  C   UNL     1       6.555   0.963 104.703  1.00  0.00     0.039 C 
ATOM     10  G   UNL     1       7.558   2.446 106.583  1.00  0.00     0.000 G0
ENDBRANCH   6   7
ENDBRANCH   5   6
ENDBRANCH   3   5
ENDBRANCH   1   3
BRANCH   1  11
ATOM     11  C   UNL     1       6.004   3.370 109.140  1.00  0.00     0.087 C 
BRANCH  11  12
ATOM     12  C   UNL     1       5.357   3.353 107.732  1.00  0.00     0.066 C 
BRANCH  12  13
ATOM     13  C   UNL     1       6.409   3.441 106.638  1.00  0.00     0.140 C 
ATOM     14  O   UNL     1       6.370   4.358 105.832  1.00  0.00    -0.299 OA
BRANCH  13  15
ATOM     15  C   UNL     1       7.559   2.458 106.576  1.00  0.00     0.106 CG0
ATOM     16  G   UNL     1       7.057   1.105 106.112  1.00  0.00     0.000 G0
ENDBRANCH  13  15
ENDBRANCH  12  13
BRANCH  12  17
ATOM     17  C   UNL     1       4.202   4.393 107.582  1.00  0.00    -0.006 C 
ATOM     18  C   UNL     1       2.878   3.827 107.036  1.00  0.00     0.008 C 
ATOM     19  C   UNL     1       3.948   5.128 108.907  1.00  0.00     0.008 C 
ENDBRANCH  12  17
ENDBRANCH  11  12
ENDBRANCH   1  11
TORSDOF 1
ENDMDL
MODEL 8
REMARK VINA RESULT:    -3.328      1.190      1.562
REMARK INTER + INTRA:          -5.650
REMARK INTER:                  -5.535
REMARK INTRA:                  -0.115
REMARK UNBOUND:                -0.571
REMARK SMILES CC1=CCC[C@@H](C)C(=O)C[C@@H](C(C)C)C(=O)C1
REMARK SMILES IDX 8 1 9 2 6 3 7 4 5 5 4 6 3 7 2 8 1 9 10 11 11 12 15 13 16 14
REMARK SMILES IDX 17 15 12 17 13 18 14 19
REMARK H PARENT
REMARK Flexibility Score: 70.00
ROOT
ATOM      1  C   UNL     1       4.281   2.957 106.730  1.00  0.00     0.136 C 
ATOM      2  O   UNL     1       4.103   4.158 106.879  1.00  0.00    -0.299 OA
ENDROOT
BRANCH   1   3
ATOM      3  C   UNL     1       4.042   2.319 105.371  1.00  0.00     0.053 C 
ATOM      4  C   UNL     1       2.934   1.257 105.416  1.00  0.00     0.016 C 
BRANCH   3   5
ATOM      5  C   UNL     1       5.334   1.780 104.707  1.00  0.00     0.015 C 
BRANCH   5   6
ATOM      6  C   UNL     1       6.644   2.575 104.898  1.00  0.00     0.028 C 
BRANCH   6   7
ATOM      7  C   UNL     1       7.909   1.789 105.159  1.00  0.00    -0.028 C 
ATOM      8  C   UNL     1       8.228   1.117 106.291  1.00  0.00    -0.070 CG0
ATOM      9  C   UNL     1       9.628   0.565 106.408  1.00  0.00     0.039 C 
ATOM     10  G   UNL     1       7.243   0.815 107.405  1.00  0.00     0.000 G0
ENDBRANCH   6   7
ENDBRANCH   5   6
ENDBRANCH   3   5
ENDBRANCH   1   3
BRANCH   1  11
ATOM     11  C   UNL     1       4.757   2.145 107.919  1.00  0.00     0.087 C 
BRANCH  11  12
ATOM     12  C   UNL     1       5.984   2.769 108.632  1.00  0.00     0.066 C 
BRANCH  12  13
ATOM     13  C   UNL     1       7.231   1.926 108.424  1.00  0.00     0.140 C 
ATOM     14  O   UNL     1       8.214   2.117 109.124  1.00  0.00    -0.299 OA
BRANCH  13  15
ATOM     15  C   UNL     1       7.255   0.795 107.419  1.00  0.00     0.106 CG0
ATOM     16  G   UNL     1       8.218   1.124 106.295  1.00  0.00     0.000 G0
ENDBRANCH  13  15
ENDBRANCH  12  13
BRANCH  12  17
ATOM     17  C   UNL     1       5.702   3.124 110.126  1.00  0.00    -0.006 C 
ATOM     18  C   UNL     1       4.821   4.366 110.350  1.00  0.00     0.008 C 
ATOM     19  C   UNL     1       5.107   1.921 110.875  1.00  0.00     0.008 C 
ENDBRANCH  12  17
ENDBRANCH  11  12
ENDBRANCH   1  11
TORSDOF 1
ENDMDL
MODEL 9
REMARK VINA RESULT:    -3.266      1.753      3.927
REMARK INTER + INTRA:          -5.556
REMARK INTER:                  -5.124
REMARK INTRA:                  -0.432
REMARK UNBOUND:                -0.571
REMARK SMILES CC1=CCC[C@@H](C)C(=O)C[C@@H](C(C)C)C(=O)C1
REMARK SMILES IDX 8 1 9 2 6 3 7 4 5 5 4 6 3 7 2 8 1 9 10 11 11 12 15 13 16 14
REMARK SMILES IDX 17 15 12 17 13 18 14 19
REMARK H PARENT
REMARK Flexibility Score: 70.00
ROOT
ATOM      1  C   UNL     1       8.074   0.961 108.023  1.00  0.00     0.136 C 
ATOM      2  O   UNL     1       9.002   0.466 108.648  1.00  0.00    -0.299 OA
ENDROOT
BRANCH   1   3
ATOM      3  C   UNL     1       7.744   0.451 106.629  1.00  0.00     0.053 C 
ATOM      4  C   UNL     1       7.846  -1.078 106.531  1.00  0.00     0.016 C 
BRANCH   3   5
ATOM      5  C   UNL     1       8.547   1.158 105.508  1.00  0.00     0.015 C 
BRANCH   5   6
ATOM      6  C   UNL     1       8.268   2.652 105.236  1.00  0.00     0.028 C 
BRANCH   6   7
ATOM      7  C   UNL     1       6.896   3.028 104.727  1.00  0.00    -0.028 C 
ATOM      8  C   UNL     1       5.900   3.615 105.435  1.00  0.00    -0.070 CG0
ATOM      9  C   UNL     1       4.544   3.722 104.780  1.00  0.00     0.039 C 
ATOM     10  G   UNL     1       6.087   4.243 106.802  1.00  0.00     0.000 G0
ENDBRANCH   6   7
ENDBRANCH   5   6
ENDBRANCH   3   5
ENDBRANCH   1   3
BRANCH   1  11
ATOM     11  C   UNL     1       7.269   2.065 108.679  1.00  0.00     0.087 C 
BRANCH  11  12
ATOM     12  C   UNL     1       5.776   2.060 108.264  1.00  0.00     0.066 C 
BRANCH  12  13
ATOM     13  C   UNL     1       5.314   3.445 107.842  1.00  0.00     0.140 C 
ATOM     14  O   UNL     1       4.352   3.957 108.393  1.00  0.00    -0.299 OA
BRANCH  13  15
ATOM     15  C   UNL     1       6.075   4.242 106.805  1.00  0.00     0.106 CG0
ATOM     16  G   UNL     1       5.898   3.612 105.437  1.00  0.00     0.000 G0
ENDBRANCH  13  15
ENDBRANCH  12  13
BRANCH  12  17
ATOM     17  C   UNL     1       4.853   1.382 109.325  1.00  0.00    -0.006 C 
ATOM     18  C   UNL     1       4.651  -0.134 109.146  1.00  0.00     0.008 C 
ATOM     19  C   UNL     1       5.344   1.677 110.751  1.00  0.00     0.008 C 
ENDBRANCH  12  17
ENDBRANCH  11  12
ENDBRANCH   1  11
TORSDOF 1
ENDMDL
