MODEL 1
REMARK VINA RESULT:    -7.015      0.000      0.000
REMARK INTER + INTRA:         -11.444
REMARK INTER:                  -9.681
REMARK INTRA:                  -1.763
REMARK UNBOUND:                -1.763
REMARK SMILES CC[C@@H](CC[C@H](C)[C@H]1CC[C@@H]2[C@@H]3CC=C4C[C@@H](O)CC[C@]4(C)[C@@H]3CC[C@@]21C)C(C)C
REMARK SMILES IDX 5 1 4 2 3 3 2 4 1 5 28 6 29 7 30 8 6 9 7 10 8 11 9 12 26 13
REMARK SMILES IDX 10 14 11 15 25 16 27 17 12 18 24 19 23 20 13 21 21 22 14 23
REMARK SMILES IDX 15 24 20 25 22 26 16 27 19 28 17 29 18 30
REMARK H PARENT 18 31
REMARK Flexibility Score: inf
ROOT
ATOM      1  C   UNL     1      46.627  -0.404  22.092  1.00  0.00     0.004 C 
ENDROOT
BRANCH   1   2
ATOM      2  C   UNL     1      46.004  -0.355  23.500  1.00  0.00     0.004 C 
BRANCH   2   3
ATOM      3  C   UNL     1      44.739   0.562  23.554  1.00  0.00    -0.009 C 
BRANCH   3   4
ATOM      4  C   UNL     1      43.717   0.021  24.596  1.00  0.00     0.000 C 
ATOM      5  C   UNL     1      44.366  -0.800  25.715  1.00  0.00     0.004 C 
ENDBRANCH   3   4
BRANCH   3   6
ATOM      6  C   UNL     1      44.112   0.723  22.124  1.00  0.00    -0.014 C 
ATOM      7  C   UNL     1      43.687   2.183  21.869  1.00  0.00     0.007 C 
ATOM      8  C   UNL     1      42.889  -0.183  21.883  1.00  0.00     0.007 C 
ENDBRANCH   3   6
ENDBRANCH   2   3
ENDBRANCH   1   2
BRANCH   1   9
ATOM      9  C   UNL     1      48.037   0.254  22.045  1.00  0.00    -0.011 C 
ATOM     10  C   UNL     1      49.072  -0.817  22.456  1.00  0.00     0.008 C 
BRANCH   9  11
ATOM     11  C   UNL     1      48.075   1.564  22.930  1.00  0.00    -0.002 C 
ATOM     12  C   UNL     1      49.427   1.791  23.630  1.00  0.00     0.005 C 
ATOM     13  C   UNL     1      47.848   2.933  22.164  1.00  0.00    -0.026 C 
ATOM     14  C   UNL     1      50.265   2.551  22.630  1.00  0.00     0.005 C 
ATOM     15  C   UNL     1      49.290   3.506  21.925  1.00  0.00    -0.001 C 
ATOM     16  C   UNL     1      47.017   3.879  23.077  1.00  0.00     0.007 C 
ATOM     17  C   UNL     1      47.087   2.810  20.808  1.00  0.00     0.012 C 
ATOM     18  C   UNL     1      49.496   5.023  22.280  1.00  0.00     0.000 C 
ATOM     19  C   UNL     1      46.988   5.352  22.618  1.00  0.00     0.005 C 
ATOM     20  C   UNL     1      48.259   5.850  21.862  1.00  0.00     0.003 C 
ATOM     21  C   UNL     1      49.903   5.342  23.745  1.00  0.00     0.031 C 
ATOM     22  C   UNL     1      48.523   7.395  22.022  1.00  0.00    -0.008 C 
ATOM     23  C   UNL     1      49.714   6.786  24.149  1.00  0.00    -0.027 C 
ATOM     24  C   UNL     1      49.017   7.699  23.436  1.00  0.00    -0.065 C 
ATOM     25  C   UNL     1      47.222   8.208  21.704  1.00  0.00     0.014 C 
ATOM     26  C   UNL     1      49.626   7.847  21.022  1.00  0.00     0.016 C 
ATOM     27  C   UNL     1      48.970   9.129  23.937  1.00  0.00     0.063 C 
ATOM     28  C   UNL     1      47.283   9.678  22.147  1.00  0.00     0.033 C 
ATOM     29  C   UNL     1      47.614   9.783  23.638  1.00  0.00     0.118 C 
BRANCH  29  30
ATOM     30  O   UNL     1      47.646  11.137  24.004  1.00  0.00    -0.393 OA
ATOM     31  H   UNL     1      46.899  11.583  23.523  1.00  0.00     0.210 HD
ENDBRANCH  29  30
ENDBRANCH   9  11
ENDBRANCH   1   9
TORSDOF 7
ENDMDL
MODEL 2
REMARK VINA RESULT:    -6.923      3.674      9.716
REMARK INTER + INTRA:         -11.316
REMARK INTER:                 -10.560
REMARK INTRA:                  -0.756
REMARK UNBOUND:                -1.763
REMARK SMILES CC[C@@H](CC[C@H](C)[C@H]1CC[C@@H]2[C@@H]3CC=C4C[C@@H](O)CC[C@]4(C)[C@@H]3CC[C@@]21C)C(C)C
REMARK SMILES IDX 5 1 4 2 3 3 2 4 1 5 28 6 29 7 30 8 6 9 7 10 8 11 9 12 26 13
REMARK SMILES IDX 10 14 11 15 25 16 27 17 12 18 24 19 23 20 13 21 21 22 14 23
REMARK SMILES IDX 15 24 20 25 22 26 16 27 19 28 17 29 18 30
REMARK H PARENT 18 31
REMARK Flexibility Score: inf
ROOT
ATOM      1  C   UNL     1      47.437  11.704  19.993  1.00  0.00     0.004 C 
ENDROOT
BRANCH   1   2
ATOM      2  C   UNL     1      47.388  13.217  20.277  1.00  0.00     0.004 C 
BRANCH   2   3
ATOM      3  C   UNL     1      48.123  14.049  19.176  1.00  0.00    -0.009 C 
BRANCH   3   4
ATOM      4  C   UNL     1      49.364  13.276  18.644  1.00  0.00     0.000 C 
ATOM      5  C   UNL     1      49.409  13.175  17.117  1.00  0.00     0.004 C 
ENDBRANCH   3   4
BRANCH   3   6
ATOM      6  C   UNL     1      48.489  15.477  19.716  1.00  0.00    -0.014 C 
ATOM      7  C   UNL     1      50.005  15.737  19.605  1.00  0.00     0.007 C 
ATOM      8  C   UNL     1      48.068  15.707  21.180  1.00  0.00     0.007 C 
ENDBRANCH   3   6
ENDBRANCH   2   3
ENDBRANCH   1   2
BRANCH   1   9
ATOM      9  C   UNL     1      46.512  10.892  20.946  1.00  0.00    -0.011 C 
ATOM     10  C   UNL     1      45.676  11.901  21.766  1.00  0.00     0.008 C 
BRANCH   9  11
ATOM     11  C   UNL     1      47.357   9.887  21.827  1.00  0.00    -0.002 C 
ATOM     12  C   UNL     1      46.648   9.465  23.127  1.00  0.00     0.005 C 
ATOM     13  C   UNL     1      47.708   8.494  21.157  1.00  0.00    -0.026 C 
ATOM     14  C   UNL     1      45.800   8.275  22.743  1.00  0.00     0.005 C 
ATOM     15  C   UNL     1      46.636   7.494  21.718  1.00  0.00    -0.001 C 
ATOM     16  C   UNL     1      49.141   8.080  21.597  1.00  0.00     0.007 C 
ATOM     17  C   UNL     1      47.682   8.489  19.598  1.00  0.00     0.012 C 
ATOM     18  C   UNL     1      47.185   6.118  22.243  1.00  0.00     0.000 C 
ATOM     19  C   UNL     1      49.504   6.610  21.299  1.00  0.00     0.005 C 
ATOM     20  C   UNL     1      48.315   5.600  21.323  1.00  0.00     0.003 C 
ATOM     21  C   UNL     1      47.620   6.068  23.733  1.00  0.00     0.031 C 
ATOM     22  C   UNL     1      48.740   4.133  21.711  1.00  0.00    -0.008 C 
ATOM     23  C   UNL     1      48.487   4.884  24.095  1.00  0.00    -0.027 C 
ATOM     24  C   UNL     1      49.077   4.060  23.200  1.00  0.00    -0.065 C 
ATOM     25  C   UNL     1      49.962   3.672  20.845  1.00  0.00     0.014 C 
ATOM     26  C   UNL     1      47.563   3.154  21.438  1.00  0.00     0.016 C 
ATOM     27  C   UNL     1      49.865   2.874  23.716  1.00  0.00     0.063 C 
ATOM     28  C   UNL     1      50.650   2.402  21.368  1.00  0.00     0.033 C 
ATOM     29  C   UNL     1      51.082   2.579  22.827  1.00  0.00     0.118 C 
BRANCH  29  30
ATOM     30  O   UNL     1      51.717   1.406  23.261  1.00  0.00    -0.393 OA
ATOM     31  H   UNL     1      51.315   0.655  22.751  1.00  0.00     0.210 HD
ENDBRANCH  29  30
ENDBRANCH   9  11
ENDBRANCH   1   9
TORSDOF 7
ENDMDL
MODEL 3
REMARK VINA RESULT:    -6.662      3.509      8.157
REMARK INTER + INTRA:         -10.956
REMARK INTER:                  -8.969
REMARK INTRA:                  -1.987
REMARK UNBOUND:                -1.763
REMARK SMILES CC[C@@H](CC[C@H](C)[C@H]1CC[C@@H]2[C@@H]3CC=C4C[C@@H](O)CC[C@]4(C)[C@@H]3CC[C@@]21C)C(C)C
REMARK SMILES IDX 5 1 4 2 3 3 2 4 1 5 28 6 29 7 30 8 6 9 7 10 8 11 9 12 26 13
REMARK SMILES IDX 10 14 11 15 25 16 27 17 12 18 24 19 23 20 13 21 21 22 14 23
REMARK SMILES IDX 15 24 20 25 22 26 16 27 19 28 17 29 18 30
REMARK H PARENT 18 31
REMARK Flexibility Score: inf
ROOT
ATOM      1  C   UNL     1      49.091   7.363  21.685  1.00  0.00     0.004 C 
ENDROOT
BRANCH   1   2
ATOM      2  C   UNL     1      49.967   7.265  22.949  1.00  0.00     0.004 C 
BRANCH   2   3
ATOM      3  C   UNL     1      49.443   8.181  24.103  1.00  0.00    -0.009 C 
BRANCH   3   4
ATOM      4  C   UNL     1      49.657   7.494  25.483  1.00  0.00     0.000 C 
ATOM      5  C   UNL     1      50.418   6.168  25.392  1.00  0.00     0.004 C 
ENDBRANCH   3   4
BRANCH   3   6
ATOM      6  C   UNL     1      47.946   8.580  23.855  1.00  0.00    -0.014 C 
ATOM      7  C   UNL     1      47.747  10.101  24.010  1.00  0.00     0.007 C 
ATOM      8  C   UNL     1      46.955   7.867  24.795  1.00  0.00     0.007 C 
ENDBRANCH   3   6
ENDBRANCH   2   3
ENDBRANCH   1   2
BRANCH   1   9
ATOM      9  C   UNL     1      48.337   6.035  21.383  1.00  0.00    -0.011 C 
ATOM     10  C   UNL     1      46.854   6.381  21.126  1.00  0.00     0.008 C 
BRANCH   9  11
ATOM     11  C   UNL     1      48.563   4.984  22.544  1.00  0.00    -0.002 C 
ATOM     12  C   UNL     1      47.261   4.545  23.236  1.00  0.00     0.005 C 
ATOM     13  C   UNL     1      49.213   3.602  22.119  1.00  0.00    -0.026 C 
ATOM     14  C   UNL     1      46.749   3.388  22.411  1.00  0.00     0.005 C 
ATOM     15  C   UNL     1      48.001   2.615  21.974  1.00  0.00    -0.001 C 
ATOM     16  C   UNL     1      50.176   3.140  23.250  1.00  0.00     0.007 C 
ATOM     17  C   UNL     1      50.037   3.640  20.796  1.00  0.00     0.012 C 
ATOM     18  C   UNL     1      48.170   1.211  22.661  1.00  0.00     0.000 C 
ATOM     19  C   UNL     1      50.634   1.670  23.143  1.00  0.00     0.005 C 
ATOM     20  C   UNL     1      49.614   0.691  22.482  1.00  0.00     0.003 C 
ATOM     21  C   UNL     1      47.728   1.110  24.147  1.00  0.00     0.031 C 
ATOM     22  C   UNL     1      49.753  -0.797  22.984  1.00  0.00    -0.008 C 
ATOM     23  C   UNL     1      48.252  -0.105  24.877  1.00  0.00    -0.027 C 
ATOM     24  C   UNL     1      49.228  -0.919  24.414  1.00  0.00    -0.065 C 
ATOM     25  C   UNL     1      51.246  -1.265  22.901  1.00  0.00     0.014 C 
ATOM     26  C   UNL     1      48.906  -1.738  22.081  1.00  0.00     0.016 C 
ATOM     27  C   UNL     1      49.603  -2.139  25.231  1.00  0.00     0.063 C 
ATOM     28  C   UNL     1      51.533  -2.566  23.667  1.00  0.00     0.033 C 
ATOM     29  C   UNL     1      51.105  -2.440  25.132  1.00  0.00     0.118 C 
BRANCH  29  30
ATOM     30  O   UNL     1      51.397  -3.640  25.798  1.00  0.00    -0.393 OA
ATOM     31  H   UNL     1      52.374  -3.792  25.702  1.00  0.00     0.210 HD
ENDBRANCH  29  30
ENDBRANCH   9  11
ENDBRANCH   1   9
TORSDOF 7
ENDMDL
MODEL 4
REMARK VINA RESULT:    -6.495      3.396      8.269
REMARK INTER + INTRA:         -10.726
REMARK INTER:                  -8.742
REMARK INTRA:                  -1.984
REMARK UNBOUND:                -1.763
REMARK SMILES CC[C@@H](CC[C@H](C)[C@H]1CC[C@@H]2[C@@H]3CC=C4C[C@@H](O)CC[C@]4(C)[C@@H]3CC[C@@]21C)C(C)C
REMARK SMILES IDX 5 1 4 2 3 3 2 4 1 5 28 6 29 7 30 8 6 9 7 10 8 11 9 12 26 13
REMARK SMILES IDX 10 14 11 15 25 16 27 17 12 18 24 19 23 20 13 21 21 22 14 23
REMARK SMILES IDX 15 24 20 25 22 26 16 27 19 28 17 29 18 30
REMARK H PARENT 18 31
REMARK Flexibility Score: inf
ROOT
ATOM      1  C   UNL     1      46.598   5.641  21.074  1.00  0.00     0.004 C 
ENDROOT
BRANCH   1   2
ATOM      2  C   UNL     1      47.011   5.846  22.544  1.00  0.00     0.004 C 
BRANCH   2   3
ATOM      3  C   UNL     1      48.469   6.392  22.677  1.00  0.00    -0.009 C 
BRANCH   3   4
ATOM      4  C   UNL     1      49.251   6.193  21.346  1.00  0.00     0.000 C 
ATOM      5  C   UNL     1      49.778   7.501  20.749  1.00  0.00     0.004 C 
ENDBRANCH   3   4
BRANCH   3   6
ATOM      6  C   UNL     1      49.195   5.736  23.905  1.00  0.00    -0.014 C 
ATOM      7  C   UNL     1      48.177   5.286  24.972  1.00  0.00     0.007 C 
ATOM      8  C   UNL     1      50.221   6.665  24.581  1.00  0.00     0.007 C 
ENDBRANCH   3   6
ENDBRANCH   2   3
ENDBRANCH   1   2
BRANCH   1   9
ATOM      9  C   UNL     1      46.209   4.165  20.769  1.00  0.00    -0.011 C 
ATOM     10  C   UNL     1      44.739   4.152  20.293  1.00  0.00     0.008 C 
BRANCH   9  11
ATOM     11  C   UNL     1      46.491   3.239  22.020  1.00  0.00    -0.002 C 
ATOM     12  C   UNL     1      45.303   2.336  22.395  1.00  0.00     0.005 C 
ATOM     13  C   UNL     1      47.680   2.202  21.868  1.00  0.00    -0.026 C 
ATOM     14  C   UNL     1      45.472   1.094  21.551  1.00  0.00     0.005 C 
ATOM     15  C   UNL     1      46.986   0.844  21.495  1.00  0.00    -0.001 C 
ATOM     16  C   UNL     1      48.419   2.094  23.232  1.00  0.00     0.007 C 
ATOM     17  C   UNL     1      48.745   2.574  20.792  1.00  0.00     0.012 C 
ATOM     18  C   UNL     1      47.466  -0.419  22.299  1.00  0.00     0.000 C 
ATOM     19  C   UNL     1      49.387   0.897  23.345  1.00  0.00     0.005 C 
ATOM     20  C   UNL     1      48.995  -0.370  22.522  1.00  0.00     0.003 C 
ATOM     21  C   UNL     1      46.724  -0.714  23.631  1.00  0.00     0.031 C 
ATOM     22  C   UNL     1      49.525  -1.717  23.145  1.00  0.00    -0.008 C 
ATOM     23  C   UNL     1      47.444  -1.672  24.552  1.00  0.00    -0.027 C 
ATOM     24  C   UNL     1      48.730  -2.061  24.405  1.00  0.00    -0.065 C 
ATOM     25  C   UNL     1      51.054  -1.604  23.470  1.00  0.00     0.014 C 
ATOM     26  C   UNL     1      49.336  -2.878  22.128  1.00  0.00     0.016 C 
ATOM     27  C   UNL     1      49.296  -3.080  25.373  1.00  0.00     0.063 C 
ATOM     28  C   UNL     1      51.582  -2.730  24.372  1.00  0.00     0.033 C 
ATOM     29  C   UNL     1      50.777  -2.808  25.672  1.00  0.00     0.118 C 
BRANCH  29  30
ATOM     30  O   UNL     1      51.300  -3.836  26.471  1.00  0.00    -0.393 OA
ATOM     31  H   UNL     1      50.866  -3.756  27.362  1.00  0.00     0.210 HD
ENDBRANCH  29  30
ENDBRANCH   9  11
ENDBRANCH   1   9
TORSDOF 7
ENDMDL
MODEL 5
REMARK VINA RESULT:    -6.480      3.582      7.447
REMARK INTER + INTRA:         -10.706
REMARK INTER:                  -8.767
REMARK INTRA:                  -1.939
REMARK UNBOUND:                -1.763
REMARK SMILES CC[C@@H](CC[C@H](C)[C@H]1CC[C@@H]2[C@@H]3CC=C4C[C@@H](O)CC[C@]4(C)[C@@H]3CC[C@@]21C)C(C)C
REMARK SMILES IDX 5 1 4 2 3 3 2 4 1 5 28 6 29 7 30 8 6 9 7 10 8 11 9 12 26 13
REMARK SMILES IDX 10 14 11 15 25 16 27 17 12 18 24 19 23 20 13 21 21 22 14 23
REMARK SMILES IDX 15 24 20 25 22 26 16 27 19 28 17 29 18 30
REMARK H PARENT 18 31
REMARK Flexibility Score: inf
ROOT
ATOM      1  C   UNL     1      47.261   9.152  25.453  1.00  0.00     0.004 C 
ENDROOT
BRANCH   1   2
ATOM      2  C   UNL     1      47.648   8.236  26.629  1.00  0.00     0.004 C 
BRANCH   2   3
ATOM      3  C   UNL     1      46.405   7.802  27.473  1.00  0.00    -0.009 C 
BRANCH   3   4
ATOM      4  C   UNL     1      46.634   6.396  28.098  1.00  0.00     0.000 C 
ATOM      5  C   UNL     1      48.060   5.868  27.905  1.00  0.00     0.004 C 
ENDBRANCH   3   4
BRANCH   3   6
ATOM      6  C   UNL     1      45.098   7.870  26.606  1.00  0.00    -0.014 C 
ATOM      7  C   UNL     1      43.962   8.573  27.376  1.00  0.00     0.007 C 
ATOM      8  C   UNL     1      44.589   6.488  26.153  1.00  0.00     0.007 C 
ENDBRANCH   3   6
ENDBRANCH   2   3
ENDBRANCH   1   2
BRANCH   1   9
ATOM      9  C   UNL     1      47.793   8.621  24.089  1.00  0.00    -0.011 C 
ATOM     10  C   UNL     1      47.240   9.539  22.976  1.00  0.00     0.008 C 
BRANCH   9  11
ATOM     11  C   UNL     1      47.434   7.092  23.904  1.00  0.00    -0.002 C 
ATOM     12  C   UNL     1      46.577   6.809  22.657  1.00  0.00     0.005 C 
ATOM     13  C   UNL     1      48.660   6.104  23.712  1.00  0.00    -0.026 C 
ATOM     14  C   UNL     1      47.569   6.621  21.533  1.00  0.00     0.005 C 
ATOM     15  C   UNL     1      48.759   5.880  22.161  1.00  0.00    -0.001 C 
ATOM     16  C   UNL     1      48.341   4.771  24.448  1.00  0.00     0.007 C 
ATOM     17  C   UNL     1      50.019   6.627  24.267  1.00  0.00     0.012 C 
ATOM     18  C   UNL     1      48.918   4.390  21.689  1.00  0.00     0.000 C 
ATOM     19  C   UNL     1      49.278   3.599  24.089  1.00  0.00     0.005 C 
ATOM     20  C   UNL     1      49.860   3.618  22.641  1.00  0.00     0.003 C 
ATOM     21  C   UNL     1      47.605   3.595  21.449  1.00  0.00     0.031 C 
ATOM     22  C   UNL     1      50.195   2.185  22.076  1.00  0.00    -0.008 C 
ATOM     23  C   UNL     1      47.782   2.096  21.381  1.00  0.00    -0.027 C 
ATOM     24  C   UNL     1      48.903   1.436  21.748  1.00  0.00    -0.065 C 
ATOM     25  C   UNL     1      51.054   1.378  23.109  1.00  0.00     0.014 C 
ATOM     26  C   UNL     1      51.019   2.315  20.765  1.00  0.00     0.016 C 
ATOM     27  C   UNL     1      48.955  -0.067  21.562  1.00  0.00     0.063 C 
ATOM     28  C   UNL     1      51.150  -0.124  22.799  1.00  0.00     0.033 C 
ATOM     29  C   UNL     1      49.755  -0.744  22.684  1.00  0.00     0.118 C 
BRANCH  29  30
ATOM     30  O   UNL     1      49.886  -2.115  22.416  1.00  0.00    -0.393 OA
ATOM     31  H   UNL     1      50.854  -2.329  22.474  1.00  0.00     0.210 HD
ENDBRANCH  29  30
ENDBRANCH   9  11
ENDBRANCH   1   9
TORSDOF 7
ENDMDL
MODEL 6
REMARK VINA RESULT:    -6.427      2.033      4.248
REMARK INTER + INTRA:         -10.632
REMARK INTER:                  -8.789
REMARK INTRA:                  -1.843
REMARK UNBOUND:                -1.763
REMARK SMILES CC[C@@H](CC[C@H](C)[C@H]1CC[C@@H]2[C@@H]3CC=C4C[C@@H](O)CC[C@]4(C)[C@@H]3CC[C@@]21C)C(C)C
REMARK SMILES IDX 5 1 4 2 3 3 2 4 1 5 28 6 29 7 30 8 6 9 7 10 8 11 9 12 26 13
REMARK SMILES IDX 10 14 11 15 25 16 27 17 12 18 24 19 23 20 13 21 21 22 14 23
REMARK SMILES IDX 15 24 20 25 22 26 16 27 19 28 17 29 18 30
REMARK H PARENT 18 31
REMARK Flexibility Score: inf
ROOT
ATOM      1  C   UNL     1      49.508   2.459  21.051  1.00  0.00     0.004 C 
ENDROOT
BRANCH   1   2
ATOM      2  C   UNL     1      48.185   2.430  20.263  1.00  0.00     0.004 C 
BRANCH   2   3
ATOM      3  C   UNL     1      47.222   1.306  20.767  1.00  0.00    -0.009 C 
BRANCH   3   4
ATOM      4  C   UNL     1      45.784   1.867  20.964  1.00  0.00     0.000 C 
ATOM      5  C   UNL     1      45.532   3.174  20.206  1.00  0.00     0.004 C 
ENDBRANCH   3   4
BRANCH   3   6
ATOM      6  C   UNL     1      47.790   0.635  22.069  1.00  0.00    -0.014 C 
ATOM      7  C   UNL     1      48.111  -0.853  21.827  1.00  0.00     0.007 C 
ATOM      8  C   UNL     1      46.837   0.733  23.276  1.00  0.00     0.007 C 
ENDBRANCH   3   6
ENDBRANCH   2   3
ENDBRANCH   1   2
BRANCH   1   9
ATOM      9  C   UNL     1      49.672   3.765  21.883  1.00  0.00    -0.011 C 
ATOM     10  C   UNL     1      50.275   3.381  23.253  1.00  0.00     0.008 C 
BRANCH   9  11
ATOM     11  C   UNL     1      48.300   4.547  21.977  1.00  0.00    -0.002 C 
ATOM     12  C   UNL     1      47.639   4.461  23.364  1.00  0.00     0.005 C 
ATOM     13  C   UNL     1      48.368   6.111  21.723  1.00  0.00    -0.026 C 
ATOM     14  C   UNL     1      48.238   5.598  24.157  1.00  0.00     0.005 C 
ATOM     15  C   UNL     1      48.398   6.751  23.156  1.00  0.00    -0.001 C 
ATOM     16  C   UNL     1      47.090   6.541  20.948  1.00  0.00     0.007 C 
ATOM     17  C   UNL     1      49.598   6.591  20.894  1.00  0.00     0.012 C 
ATOM     18  C   UNL     1      47.417   7.957  23.394  1.00  0.00     0.000 C 
ATOM     19  C   UNL     1      46.846   8.065  20.908  1.00  0.00     0.005 C 
ATOM     20  C   UNL     1      47.364   8.865  22.144  1.00  0.00     0.003 C 
ATOM     21  C   UNL     1      45.985   7.599  23.877  1.00  0.00     0.031 C 
ATOM     22  C   UNL     1      46.548  10.183  22.430  1.00  0.00    -0.008 C 
ATOM     23  C   UNL     1      44.974   8.711  23.721  1.00  0.00    -0.027 C 
ATOM     24  C   UNL     1      45.172   9.835  22.997  1.00  0.00    -0.065 C 
ATOM     25  C   UNL     1      46.408  11.033  21.121  1.00  0.00     0.014 C 
ATOM     26  C   UNL     1      47.297  11.047  23.484  1.00  0.00     0.016 C 
ATOM     27  C   UNL     1      44.087  10.893  22.987  1.00  0.00     0.063 C 
ATOM     28  C   UNL     1      45.363  12.155  21.217  1.00  0.00     0.033 C 
ATOM     29  C   UNL     1      43.998  11.593  21.623  1.00  0.00     0.118 C 
BRANCH  29  30
ATOM     30  O   UNL     1      43.071  12.644  21.685  1.00  0.00    -0.393 OA
ATOM     31  H   UNL     1      42.187  12.237  21.884  1.00  0.00     0.210 HD
ENDBRANCH  29  30
ENDBRANCH   9  11
ENDBRANCH   1   9
TORSDOF 7
ENDMDL
MODEL 7
REMARK VINA RESULT:    -6.420      1.853      3.211
REMARK INTER + INTRA:         -10.623
REMARK INTER:                  -8.994
REMARK INTRA:                  -1.629
REMARK UNBOUND:                -1.763
REMARK SMILES CC[C@@H](CC[C@H](C)[C@H]1CC[C@@H]2[C@@H]3CC=C4C[C@@H](O)CC[C@]4(C)[C@@H]3CC[C@@]21C)C(C)C
REMARK SMILES IDX 5 1 4 2 3 3 2 4 1 5 28 6 29 7 30 8 6 9 7 10 8 11 9 12 26 13
REMARK SMILES IDX 10 14 11 15 25 16 27 17 12 18 24 19 23 20 13 21 21 22 14 23
REMARK SMILES IDX 15 24 20 25 22 26 16 27 19 28 17 29 18 30
REMARK H PARENT 18 31
REMARK Flexibility Score: inf
ROOT
ATOM      1  C   UNL     1      48.138   1.873  21.864  1.00  0.00     0.004 C 
ENDROOT
BRANCH   1   2
ATOM      2  C   UNL     1      46.819   1.328  21.284  1.00  0.00     0.004 C 
BRANCH   2   3
ATOM      3  C   UNL     1      45.570   1.857  22.061  1.00  0.00    -0.009 C 
BRANCH   3   4
ATOM      4  C   UNL     1      45.620   1.405  23.549  1.00  0.00     0.000 C 
ATOM      5  C   UNL     1      45.661   2.574  24.539  1.00  0.00     0.004 C 
ENDBRANCH   3   4
BRANCH   3   6
ATOM      6  C   UNL     1      44.245   1.415  21.342  1.00  0.00    -0.014 C 
ATOM      7  C   UNL     1      43.433   2.641  20.881  1.00  0.00     0.007 C 
ATOM      8  C   UNL     1      43.334   0.536  22.220  1.00  0.00     0.007 C 
ENDBRANCH   3   6
ENDBRANCH   2   3
ENDBRANCH   1   2
BRANCH   1   9
ATOM      9  C   UNL     1      48.521   3.257  21.265  1.00  0.00    -0.011 C 
ATOM     10  C   UNL     1      49.967   3.157  20.728  1.00  0.00     0.008 C 
BRANCH   9  11
ATOM     11  C   UNL     1      48.305   4.409  22.327  1.00  0.00    -0.002 C 
ATOM     12  C   UNL     1      49.579   5.221  22.619  1.00  0.00     0.005 C 
ATOM     13  C   UNL     1      47.260   5.535  21.935  1.00  0.00    -0.026 C 
ATOM     14  C   UNL     1      49.599   6.312  21.575  1.00  0.00     0.005 C 
ATOM     15  C   UNL     1      48.130   6.720  21.387  1.00  0.00    -0.001 C 
ATOM     16  C   UNL     1      46.486   5.958  23.216  1.00  0.00     0.007 C 
ATOM     17  C   UNL     1      46.201   5.109  20.873  1.00  0.00     0.012 C 
ATOM     18  C   UNL     1      47.778   8.148  21.941  1.00  0.00     0.000 C 
ATOM     19  C   UNL     1      45.669   7.260  23.072  1.00  0.00     0.005 C 
ATOM     20  C   UNL     1      46.247   8.314  22.076  1.00  0.00     0.003 C 
ATOM     21  C   UNL     1      48.497   8.580  23.249  1.00  0.00     0.031 C 
ATOM     22  C   UNL     1      45.863   9.799  22.436  1.00  0.00    -0.008 C 
ATOM     23  C   UNL     1      47.864   9.757  23.954  1.00  0.00    -0.027 C 
ATOM     24  C   UNL     1      46.642  10.259  23.668  1.00  0.00    -0.065 C 
ATOM     25  C   UNL     1      44.320   9.920  22.682  1.00  0.00     0.014 C 
ATOM     26  C   UNL     1      46.234  10.740  21.255  1.00  0.00     0.016 C 
ATOM     27  C   UNL     1      46.168  11.487  24.419  1.00  0.00     0.063 C 
ATOM     28  C   UNL     1      43.898  11.236  23.353  1.00  0.00     0.033 C 
ATOM     29  C   UNL     1      44.654  11.442  24.669  1.00  0.00     0.118 C 
BRANCH  29  30
ATOM     30  O   UNL     1      44.230  12.644  25.256  1.00  0.00    -0.393 OA
ATOM     31  H   UNL     1      45.014  13.254  25.258  1.00  0.00     0.210 HD
ENDBRANCH  29  30
ENDBRANCH   9  11
ENDBRANCH   1   9
TORSDOF 7
ENDMDL
MODEL 8
REMARK VINA RESULT:    -6.409      1.301      1.965
REMARK INTER + INTRA:         -10.608
REMARK INTER:                  -8.465
REMARK INTRA:                  -2.143
REMARK UNBOUND:                -1.763
REMARK SMILES CC[C@@H](CC[C@H](C)[C@H]1CC[C@@H]2[C@@H]3CC=C4C[C@@H](O)CC[C@]4(C)[C@@H]3CC[C@@]21C)C(C)C
REMARK SMILES IDX 5 1 4 2 3 3 2 4 1 5 28 6 29 7 30 8 6 9 7 10 8 11 9 12 26 13
REMARK SMILES IDX 10 14 11 15 25 16 27 17 12 18 24 19 23 20 13 21 21 22 14 23
REMARK SMILES IDX 15 24 20 25 22 26 16 27 19 28 17 29 18 30
REMARK H PARENT 18 31
REMARK Flexibility Score: inf
ROOT
ATOM      1  C   UNL     1      46.665   0.241  22.337  1.00  0.00     0.004 C 
ENDROOT
BRANCH   1   2
ATOM      2  C   UNL     1      46.045   0.674  23.679  1.00  0.00     0.004 C 
BRANCH   2   3
ATOM      3  C   UNL     1      44.489   0.803  23.598  1.00  0.00    -0.009 C 
BRANCH   3   4
ATOM      4  C   UNL     1      44.033   0.986  22.122  1.00  0.00     0.000 C 
ATOM      5  C   UNL     1      42.881   0.060  21.721  1.00  0.00     0.004 C 
ENDBRANCH   3   4
BRANCH   3   6
ATOM      6  C   UNL     1      43.981   1.957  24.533  1.00  0.00    -0.014 C 
ATOM      7  C   UNL     1      43.380   3.112  23.707  1.00  0.00     0.007 C 
ATOM      8  C   UNL     1      45.078   2.537  25.446  1.00  0.00     0.007 C 
ENDBRANCH   3   6
ENDBRANCH   2   3
ENDBRANCH   1   2
BRANCH   1   9
ATOM      9  C   UNL     1      47.853   1.153  21.913  1.00  0.00    -0.011 C 
ATOM     10  C   UNL     1      49.160   0.359  22.130  1.00  0.00     0.008 C 
BRANCH   9  11
ATOM     11  C   UNL     1      47.802   2.536  22.679  1.00  0.00    -0.002 C 
ATOM     12  C   UNL     1      49.177   3.012  23.178  1.00  0.00     0.005 C 
ATOM     13  C   UNL     1      47.287   3.781  21.843  1.00  0.00    -0.026 C 
ATOM     14  C   UNL     1      49.772   3.779  22.020  1.00  0.00     0.005 C 
ATOM     15  C   UNL     1      48.591   4.519  21.374  1.00  0.00    -0.001 C 
ATOM     16  C   UNL     1      46.439   4.689  22.778  1.00  0.00     0.007 C 
ATOM     17  C   UNL     1      46.399   3.425  20.612  1.00  0.00     0.012 C 
ATOM     18  C   UNL     1      48.612   6.077  21.578  1.00  0.00     0.000 C 
ATOM     19  C   UNL     1      46.140   6.093  22.212  1.00  0.00     0.005 C 
ATOM     20  C   UNL     1      47.226   6.683  21.260  1.00  0.00     0.003 C 
ATOM     21  C   UNL     1      49.137   6.589  22.948  1.00  0.00     0.031 C 
ATOM     22  C   UNL     1      47.278   8.258  21.261  1.00  0.00    -0.008 C 
ATOM     23  C   UNL     1      48.786   8.026  23.257  1.00  0.00    -0.027 C 
ATOM     24  C   UNL     1      47.884   8.763  22.571  1.00  0.00    -0.065 C 
ATOM     25  C   UNL     1      45.843   8.852  21.052  1.00  0.00     0.014 C 
ATOM     26  C   UNL     1      48.177   8.757  20.094  1.00  0.00     0.016 C 
ATOM     27  C   UNL     1      47.686  10.214  22.959  1.00  0.00     0.063 C 
ATOM     28  C   UNL     1      45.739  10.353  21.365  1.00  0.00     0.033 C 
ATOM     29  C   UNL     1      46.222  10.646  22.787  1.00  0.00     0.118 C 
BRANCH  29  30
ATOM     30  O   UNL     1      46.098  12.021  23.038  1.00  0.00    -0.393 OA
ATOM     31  H   UNL     1      46.714  12.484  22.412  1.00  0.00     0.210 HD
ENDBRANCH  29  30
ENDBRANCH   9  11
ENDBRANCH   1   9
TORSDOF 7
ENDMDL
MODEL 9
REMARK VINA RESULT:    -6.354     12.689     15.794
REMARK INTER + INTRA:         -10.532
REMARK INTER:                  -8.772
REMARK INTRA:                  -1.759
REMARK UNBOUND:                -1.763
REMARK SMILES CC[C@@H](CC[C@H](C)[C@H]1CC[C@@H]2[C@@H]3CC=C4C[C@@H](O)CC[C@]4(C)[C@@H]3CC[C@@]21C)C(C)C
REMARK SMILES IDX 5 1 4 2 3 3 2 4 1 5 28 6 29 7 30 8 6 9 7 10 8 11 9 12 26 13
REMARK SMILES IDX 10 14 11 15 25 16 27 17 12 18 24 19 23 20 13 21 21 22 14 23
REMARK SMILES IDX 15 24 20 25 22 26 16 27 19 28 17 29 18 30
REMARK H PARENT 18 31
REMARK Flexibility Score: inf
ROOT
ATOM      1  C   UNL     1      53.994  11.935  10.202  1.00  0.00     0.004 C 
ENDROOT
BRANCH   1   2
ATOM      2  C   UNL     1      52.455  11.864  10.196  1.00  0.00     0.004 C 
BRANCH   2   3
ATOM      3  C   UNL     1      51.873  11.536  11.609  1.00  0.00    -0.009 C 
BRANCH   3   4
ATOM      4  C   UNL     1      52.841  12.025  12.725  1.00  0.00     0.000 C 
ATOM      5  C   UNL     1      52.327  13.253  13.483  1.00  0.00     0.004 C 
ENDBRANCH   3   4
BRANCH   3   6
ATOM      6  C   UNL     1      51.540  10.007  11.728  1.00  0.00    -0.014 C 
ATOM      7  C   UNL     1      50.785   9.508  10.480  1.00  0.00     0.007 C 
ATOM      8  C   UNL     1      50.700   9.655  12.971  1.00  0.00     0.007 C 
ENDBRANCH   3   6
ENDBRANCH   2   3
ENDBRANCH   1   2
BRANCH   1   9
ATOM      9  C   UNL     1      54.647  10.655   9.603  1.00  0.00    -0.011 C 
ATOM     10  C   UNL     1      53.778  10.195   8.410  1.00  0.00     0.008 C 
BRANCH   9  11
ATOM     11  C   UNL     1      54.848   9.551  10.719  1.00  0.00    -0.002 C 
ATOM     12  C   UNL     1      54.574   8.121  10.223  1.00  0.00     0.005 C 
ATOM     13  C   UNL     1      56.306   9.433  11.329  1.00  0.00    -0.026 C 
ATOM     14  C   UNL     1      55.886   7.647   9.645  1.00  0.00     0.005 C 
ATOM     15  C   UNL     1      56.970   8.236  10.560  1.00  0.00    -0.001 C 
ATOM     16  C   UNL     1      56.182   9.118  12.847  1.00  0.00     0.007 C 
ATOM     17  C   UNL     1      57.184  10.713  11.191  1.00  0.00     0.012 C 
ATOM     18  C   UNL     1      57.717   7.176  11.447  1.00  0.00     0.000 C 
ATOM     19  C   UNL     1      57.493   8.653  13.516  1.00  0.00     0.005 C 
ATOM     20  C   UNL     1      58.482   7.873  12.595  1.00  0.00     0.003 C 
ATOM     21  C   UNL     1      56.860   6.000  11.990  1.00  0.00     0.031 C 
ATOM     22  C   UNL     1      59.399   6.854  13.373  1.00  0.00    -0.008 C 
ATOM     23  C   UNL     1      57.493   5.235  13.130  1.00  0.00    -0.027 C 
ATOM     24  C   UNL     1      58.576   5.648  13.826  1.00  0.00    -0.065 C 
ATOM     25  C   UNL     1      60.075   7.555  14.601  1.00  0.00     0.014 C 
ATOM     26  C   UNL     1      60.528   6.339  12.435  1.00  0.00     0.016 C 
ATOM     27  C   UNL     1      59.137   4.740  14.901  1.00  0.00     0.063 C 
ATOM     28  C   UNL     1      60.715   6.578  15.599  1.00  0.00     0.033 C 
ATOM     29  C   UNL     1      59.691   5.548  16.084  1.00  0.00     0.118 C 
BRANCH  29  30
ATOM     30  O   UNL     1      60.310   4.686  17.002  1.00  0.00    -0.393 OA
ATOM     31  H   UNL     1      60.664   5.254  17.736  1.00  0.00     0.210 HD
ENDBRANCH  29  30
ENDBRANCH   9  11
ENDBRANCH   1   9
TORSDOF 7
ENDMDL
