MODEL 1
REMARK VINA RESULT:    -7.281      0.000      0.000
REMARK INTER + INTRA:          -7.920
REMARK INTER:                  -7.920
REMARK INTRA:                   0.000
REMARK UNBOUND:                 0.000
REMARK SMILES Cc1cc(O)c2c(c1)C(=O)c1cc(O)cc(O)c1C2=O
REMARK SMILES IDX 1 1 2 2 8 3 7 4 6 5 4 6 3 7 19 8 20 9 18 10 11 11 9 12 10 13
REMARK SMILES IDX 12 14 13 15 15 16 16 17 5 18 17 20 14 22
REMARK H PARENT 5 19 17 21 14 23
REMARK Flexibility Score: inf
ROOT
ATOM      1  C   UNL     1      11.346  12.889 -20.000  1.00  0.00     0.044 C 
ATOM      2  C   UNL     1      10.080  12.649 -20.771  1.00  0.00    -0.047 A 
ATOM      3  C   UNL     1       9.010  11.973 -20.176  1.00  0.00     0.016 A 
ATOM      4  C   UNL     1       7.812  11.769 -20.880  1.00  0.00     0.038 A 
ATOM      5  C   UNL     1       7.681  12.251 -22.201  1.00  0.00     0.076 A 
ATOM      6  C   UNL     1       8.738  13.009 -22.769  1.00  0.00     0.127 A 
ATOM      7  C   UNL     1       9.929  13.182 -22.056  1.00  0.00     0.050 A 
ATOM      8  C   UNL     1       6.459  11.887 -22.964  1.00  0.00     0.201 C 
ATOM      9  O   UNL     1       6.514  11.769 -24.218  1.00  0.00    -0.288 OA
ATOM     10  C   UNL     1       5.229  11.483 -22.237  1.00  0.00     0.076 A 
ATOM     11  C   UNL     1       5.362  11.005 -20.914  1.00  0.00     0.041 A 
ATOM     12  C   UNL     1       6.680  11.057 -20.239  1.00  0.00     0.194 C 
ATOM     13  O   UNL     1       6.833  10.518 -19.109  1.00  0.00    -0.289 OA
ATOM     14  C   UNL     1       4.242  10.485 -20.242  1.00  0.00     0.059 A 
ATOM     15  C   UNL     1       2.992  10.452 -20.867  1.00  0.00     0.120 A 
ATOM     16  C   UNL     1       2.849  10.960 -22.157  1.00  0.00     0.093 A 
ATOM     17  C   UNL     1       3.943  11.501 -22.840  1.00  0.00     0.131 A 
ENDROOT
BRANCH   6  18
ATOM     18  O   UNL     1       8.634  13.636 -24.013  1.00  0.00    -0.507 OA
ATOM     19  H   UNL     1       9.294  14.322 -24.349  1.00  0.00     0.293 HD
ENDBRANCH   6  18
BRANCH  17  20
ATOM     20  O   UNL     1       3.703  12.075 -24.090  1.00  0.00    -0.507 OA
ATOM     21  H   UNL     1       4.392  12.606 -24.603  1.00  0.00     0.293 HD
ENDBRANCH  17  20
BRANCH  15  22
ATOM     22  O   UNL     1       1.883   9.925 -20.209  1.00  0.00    -0.508 OA
ATOM     23  H   UNL     1       1.954   9.097 -19.630  1.00  0.00     0.293 HD
ENDBRANCH  15  22
TORSDOF 3
ENDMDL
MODEL 2
REMARK VINA RESULT:    -7.108      1.185      6.297
REMARK INTER + INTRA:          -7.731
REMARK INTER:                  -7.731
REMARK INTRA:                   0.000
REMARK UNBOUND:                 0.000
REMARK SMILES Cc1cc(O)c2c(c1)C(=O)c1cc(O)cc(O)c1C2=O
REMARK SMILES IDX 1 1 2 2 8 3 7 4 6 5 4 6 3 7 19 8 20 9 18 10 11 11 9 12 10 13
REMARK SMILES IDX 12 14 13 15 15 16 16 17 5 18 17 20 14 22
REMARK H PARENT 5 19 17 21 14 23
REMARK Flexibility Score: inf
ROOT
ATOM      1  C   UNL     1       1.627  11.337 -23.018  1.00  0.00     0.044 C 
ATOM      2  C   UNL     1       2.953  11.325 -22.314  1.00  0.00    -0.047 A 
ATOM      3  C   UNL     1       4.118  11.681 -23.001  1.00  0.00     0.016 A 
ATOM      4  C   UNL     1       5.360  11.699 -22.344  1.00  0.00     0.038 A 
ATOM      5  C   UNL     1       5.436  11.359 -20.976  1.00  0.00     0.076 A 
ATOM      6  C   UNL     1       4.241  11.081 -20.264  1.00  0.00     0.127 A 
ATOM      7  C   UNL     1       3.019  11.049 -20.945  1.00  0.00     0.050 A 
ATOM      8  C   UNL     1       6.781  11.245 -20.354  1.00  0.00     0.201 C 
ATOM      9  O   UNL     1       6.967  10.441 -19.402  1.00  0.00    -0.288 OA
ATOM     10  C   UNL     1       7.941  11.937 -20.975  1.00  0.00     0.076 A 
ATOM     11  C   UNL     1       7.860  12.280 -22.343  1.00  0.00     0.041 A 
ATOM     12  C   UNL     1       6.588  12.085 -23.079  1.00  0.00     0.194 C 
ATOM     13  O   UNL     1       6.546  12.269 -24.327  1.00  0.00    -0.289 OA
ATOM     14  C   UNL     1       8.985  12.809 -22.999  1.00  0.00     0.059 A 
ATOM     15  C   UNL     1      10.179  13.014 -22.304  1.00  0.00     0.120 A 
ATOM     16  C   UNL     1      10.251  12.714 -20.944  1.00  0.00     0.093 A 
ATOM     17  C   UNL     1       9.140  12.206 -20.264  1.00  0.00     0.131 A 
ENDROOT
BRANCH   6  18
ATOM     18  O   UNL     1       4.216  10.871 -18.883  1.00  0.00    -0.507 OA
ATOM     19  H   UNL     1       3.811  11.523 -18.226  1.00  0.00     0.293 HD
ENDBRANCH   6  18
BRANCH  17  20
ATOM     20  O   UNL     1       9.259  12.018 -18.885  1.00  0.00    -0.507 OA
ATOM     21  H   UNL     1       8.724  12.534 -18.202  1.00  0.00     0.293 HD
ENDBRANCH  17  20
BRANCH  15  22
ATOM     22  O   UNL     1      11.300  13.526 -22.954  1.00  0.00    -0.508 OA
ATOM     23  H   UNL     1      11.904  14.210 -22.513  1.00  0.00     0.293 HD
ENDBRANCH  15  22
TORSDOF 3
ENDMDL
MODEL 3
REMARK VINA RESULT:    -7.064      1.315      3.411
REMARK INTER + INTRA:          -7.683
REMARK INTER:                  -7.683
REMARK INTRA:                   0.000
REMARK UNBOUND:                 0.000
REMARK SMILES Cc1cc(O)c2c(c1)C(=O)c1cc(O)cc(O)c1C2=O
REMARK SMILES IDX 1 1 2 2 8 3 7 4 6 5 4 6 3 7 19 8 20 9 18 10 11 11 9 12 10 13
REMARK SMILES IDX 12 14 13 15 15 16 16 17 5 18 17 20 14 22
REMARK H PARENT 5 19 17 21 14 23
REMARK Flexibility Score: inf
ROOT
ATOM      1  C   UNL     1      10.401  13.194 -22.095  1.00  0.00     0.044 C 
ATOM      2  C   UNL     1       9.074  12.615 -21.700  1.00  0.00    -0.047 A 
ATOM      3  C   UNL     1       8.050  12.494 -22.645  1.00  0.00     0.016 A 
ATOM      4  C   UNL     1       6.813  11.928 -22.291  1.00  0.00     0.038 A 
ATOM      5  C   UNL     1       6.599  11.474 -20.972  1.00  0.00     0.076 A 
ATOM      6  C   UNL     1       7.669  11.522 -20.041  1.00  0.00     0.127 A 
ATOM      7  C   UNL     1       8.884  12.109 -20.410  1.00  0.00     0.050 A 
ATOM      8  C   UNL     1       5.235  11.020 -20.597  1.00  0.00     0.201 C 
ATOM      9  O   UNL     1       4.832  11.154 -19.411  1.00  0.00    -0.288 OA
ATOM     10  C   UNL     1       4.286  10.584 -21.655  1.00  0.00     0.076 A 
ATOM     11  C   UNL     1       4.505  11.037 -22.976  1.00  0.00     0.041 A 
ATOM     12  C   UNL     1       5.736  11.797 -23.301  1.00  0.00     0.194 C 
ATOM     13  O   UNL     1       5.876  12.311 -24.445  1.00  0.00    -0.289 OA
ATOM     14  C   UNL     1       3.557  10.761 -23.976  1.00  0.00     0.059 A 
ATOM     15  C   UNL     1       2.405  10.028 -23.677  1.00  0.00     0.120 A 
ATOM     16  C   UNL     1       2.206   9.545 -22.385  1.00  0.00     0.093 A 
ATOM     17  C   UNL     1       3.143   9.788 -21.377  1.00  0.00     0.131 A 
ENDROOT
BRANCH   6  18
ATOM     18  O   UNL     1       7.582  10.969 -18.761  1.00  0.00    -0.507 OA
ATOM     19  H   UNL     1       7.864  10.024 -18.541  1.00  0.00     0.293 HD
ENDBRANCH   6  18
BRANCH  17  20
ATOM     20  O   UNL     1       2.921   9.195 -20.132  1.00  0.00    -0.507 OA
ATOM     21  H   UNL     1       3.636   9.092 -19.427  1.00  0.00     0.293 HD
ENDBRANCH  17  20
BRANCH  15  22
ATOM     22  O   UNL     1       1.457   9.764 -24.663  1.00  0.00    -0.508 OA
ATOM     23  H   UNL     1       0.666   9.155 -24.490  1.00  0.00     0.293 HD
ENDBRANCH  15  22
TORSDOF 3
ENDMDL
MODEL 4
REMARK VINA RESULT:    -6.569      2.453      6.530
REMARK INTER + INTRA:          -7.145
REMARK INTER:                  -7.145
REMARK INTRA:                   0.000
REMARK UNBOUND:                 0.000
REMARK SMILES Cc1cc(O)c2c(c1)C(=O)c1cc(O)cc(O)c1C2=O
REMARK SMILES IDX 1 1 2 2 8 3 7 4 6 5 4 6 3 7 19 8 20 9 18 10 11 11 9 12 10 13
REMARK SMILES IDX 12 14 13 15 15 16 16 17 5 18 17 20 14 22
REMARK H PARENT 5 19 17 21 14 23
REMARK Flexibility Score: inf
ROOT
ATOM      1  C   UNL     1       4.945  11.020 -21.465  1.00  0.00     0.044 C 
ATOM      2  C   UNL     1       6.247  11.606 -21.929  1.00  0.00    -0.047 A 
ATOM      3  C   UNL     1       7.276  11.846 -21.013  1.00  0.00     0.016 A 
ATOM      4  C   UNL     1       8.509  12.368 -21.441  1.00  0.00     0.038 A 
ATOM      5  C   UNL     1       8.715  12.652 -22.809  1.00  0.00     0.076 A 
ATOM      6  C   UNL     1       7.698  12.327 -23.744  1.00  0.00     0.127 A 
ATOM      7  C   UNL     1       6.472  11.827 -23.291  1.00  0.00     0.050 A 
ATOM      8  C   UNL     1       9.971  13.340 -23.203  1.00  0.00     0.201 C 
ATOM      9  O   UNL     1       9.983  14.102 -24.206  1.00  0.00    -0.288 OA
ATOM     10  C   UNL     1      11.157  13.277 -22.310  1.00  0.00     0.076 A 
ATOM     11  C   UNL     1      10.949  12.988 -20.942  1.00  0.00     0.041 A 
ATOM     12  C   UNL     1       9.596  12.613 -20.465  1.00  0.00     0.194 C 
ATOM     13  O   UNL     1       9.378  12.479 -19.229  1.00  0.00    -0.289 OA
ATOM     14  C   UNL     1      12.026  13.055 -20.041  1.00  0.00     0.059 A 
ATOM     15  C   UNL     1      13.306  13.389 -20.490  1.00  0.00     0.120 A 
ATOM     16  C   UNL     1      13.524  13.634 -21.845  1.00  0.00     0.093 A 
ATOM     17  C   UNL     1      12.474  13.555 -22.765  1.00  0.00     0.131 A 
ENDROOT
BRANCH   6  18
ATOM     18  O   UNL     1       7.875  12.448 -25.125  1.00  0.00    -0.507 OA
ATOM     19  H   UNL     1       7.632  11.723 -25.784  1.00  0.00     0.293 HD
ENDBRANCH   6  18
BRANCH  17  20
ATOM     20  O   UNL     1      12.785  13.721 -24.116  1.00  0.00    -0.507 OA
ATOM     21  H   UNL     1      12.121  13.586 -24.864  1.00  0.00     0.293 HD
ENDBRANCH  17  20
BRANCH  15  22
ATOM     22  O   UNL     1      14.373  13.469 -19.598  1.00  0.00    -0.508 OA
ATOM     23  H   UNL     1      14.286  13.946 -18.709  1.00  0.00     0.293 HD
ENDBRANCH  15  22
TORSDOF 3
ENDMDL
MODEL 5
REMARK VINA RESULT:    -6.449      1.597      2.316
REMARK INTER + INTRA:          -7.014
REMARK INTER:                  -7.014
REMARK INTRA:                   0.000
REMARK UNBOUND:                 0.000
REMARK SMILES Cc1cc(O)c2c(c1)C(=O)c1cc(O)cc(O)c1C2=O
REMARK SMILES IDX 1 1 2 2 8 3 7 4 6 5 4 6 3 7 19 8 20 9 18 10 11 11 9 12 10 13
REMARK SMILES IDX 12 14 13 15 15 16 16 17 5 18 17 20 14 22
REMARK H PARENT 5 19 17 21 14 23
REMARK Flexibility Score: inf
ROOT
ATOM      1  C   UNL     1       9.740  13.003 -22.746  1.00  0.00     0.044 C 
ATOM      2  C   UNL     1       8.334  12.543 -22.999  1.00  0.00    -0.047 A 
ATOM      3  C   UNL     1       7.533  12.111 -21.937  1.00  0.00     0.016 A 
ATOM      4  C   UNL     1       6.206  11.704 -22.160  1.00  0.00     0.038 A 
ATOM      5  C   UNL     1       5.673  11.732 -23.468  1.00  0.00     0.076 A 
ATOM      6  C   UNL     1       6.462  12.251 -24.526  1.00  0.00     0.127 A 
ATOM      7  C   UNL     1       7.787  12.631 -24.283  1.00  0.00     0.050 A 
ATOM      8  C   UNL     1       4.321  11.156 -23.687  1.00  0.00     0.201 C 
ATOM      9  O   UNL     1       4.033  10.636 -24.799  1.00  0.00    -0.288 OA
ATOM     10  C   UNL     1       3.380  11.026 -22.545  1.00  0.00     0.076 A 
ATOM     11  C   UNL     1       3.917  11.002 -21.237  1.00  0.00     0.041 A 
ATOM     12  C   UNL     1       5.362  11.255 -21.028  1.00  0.00     0.194 C 
ATOM     13  O   UNL     1       5.869  11.110 -19.881  1.00  0.00    -0.289 OA
ATOM     14  C   UNL     1       3.076  10.744 -20.141  1.00  0.00     0.059 A 
ATOM     15  C   UNL     1       1.709  10.526 -20.332  1.00  0.00     0.120 A 
ATOM     16  C   UNL     1       1.169  10.588 -21.616  1.00  0.00     0.093 A 
ATOM     17  C   UNL     1       1.980  10.864 -22.721  1.00  0.00     0.131 A 
ENDROOT
BRANCH   6  18
ATOM     18  O   UNL     1       5.963  12.441 -25.817  1.00  0.00    -0.507 OA
ATOM     19  H   UNL     1       6.445  12.138 -26.652  1.00  0.00     0.293 HD
ENDBRANCH   6  18
BRANCH  17  20
ATOM     20  O   UNL     1       1.355  11.003 -23.962  1.00  0.00    -0.507 OA
ATOM     21  H   UNL     1       1.814  10.821 -24.843  1.00  0.00     0.293 HD
ENDBRANCH  17  20
BRANCH  15  22
ATOM     22  O   UNL     1       0.875  10.256 -19.249  1.00  0.00    -0.508 OA
ATOM     23  H   UNL     1       1.041  10.663 -18.337  1.00  0.00     0.293 HD
ENDBRANCH  15  22
TORSDOF 3
ENDMDL
MODEL 6
REMARK VINA RESULT:    -6.406      1.594      5.596
REMARK INTER + INTRA:          -6.968
REMARK INTER:                  -6.968
REMARK INTRA:                   0.000
REMARK UNBOUND:                 0.000
REMARK SMILES Cc1cc(O)c2c(c1)C(=O)c1cc(O)cc(O)c1C2=O
REMARK SMILES IDX 1 1 2 2 8 3 7 4 6 5 4 6 3 7 19 8 20 9 18 10 11 11 9 12 10 13
REMARK SMILES IDX 12 14 13 15 15 16 16 17 5 18 17 20 14 22
REMARK H PARENT 5 19 17 21 14 23
REMARK Flexibility Score: inf
ROOT
ATOM      1  C   UNL     1       3.007   9.556 -20.185  1.00  0.00     0.044 C 
ATOM      2  C   UNL     1       4.144  10.285 -20.839  1.00  0.00    -0.047 A 
ATOM      3  C   UNL     1       5.302  10.580 -20.112  1.00  0.00     0.016 A 
ATOM      4  C   UNL     1       6.384  11.237 -20.722  1.00  0.00     0.038 A 
ATOM      5  C   UNL     1       6.305  11.604 -22.084  1.00  0.00     0.076 A 
ATOM      6  C   UNL     1       5.164  11.227 -22.837  1.00  0.00     0.127 A 
ATOM      7  C   UNL     1       4.091  10.592 -22.202  1.00  0.00     0.050 A 
ATOM      8  C   UNL     1       7.403  12.427 -22.654  1.00  0.00     0.201 C 
ATOM      9  O   UNL     1       7.161  13.233 -23.592  1.00  0.00    -0.288 OA
ATOM     10  C   UNL     1       8.736  12.435 -21.997  1.00  0.00     0.076 A 
ATOM     11  C   UNL     1       8.812  12.064 -20.636  1.00  0.00     0.041 A 
ATOM     12  C   UNL     1       7.609  11.539 -19.946  1.00  0.00     0.194 C 
ATOM     13  O   UNL     1       7.638  11.326 -18.702  1.00  0.00    -0.289 OA
ATOM     14  C   UNL     1      10.028  12.191 -19.943  1.00  0.00     0.059 A 
ATOM     15  C   UNL     1      11.169  12.667 -20.595  1.00  0.00     0.120 A 
ATOM     16  C   UNL     1      11.108  12.996 -21.948  1.00  0.00     0.093 A 
ATOM     17  C   UNL     1       9.915  12.859 -22.665  1.00  0.00     0.131 A 
ENDROOT
BRANCH   6  18
ATOM     18  O   UNL     1       5.069  11.430 -24.216  1.00  0.00    -0.507 OA
ATOM     19  H   UNL     1       4.209  11.329 -24.738  1.00  0.00     0.293 HD
ENDBRANCH   6  18
BRANCH  17  20
ATOM     20  O   UNL     1       9.954  13.119 -24.037  1.00  0.00    -0.507 OA
ATOM     21  H   UNL     1       9.638  13.984 -24.451  1.00  0.00     0.293 HD
ENDBRANCH  17  20
BRANCH  15  22
ATOM     22  O   UNL     1      12.373  12.806 -19.908  1.00  0.00    -0.508 OA
ATOM     23  H   UNL     1      12.431  12.666 -18.907  1.00  0.00     0.293 HD
ENDBRANCH  15  22
TORSDOF 3
ENDMDL
MODEL 7
REMARK VINA RESULT:    -6.307      1.464      2.461
REMARK INTER + INTRA:          -6.860
REMARK INTER:                  -6.860
REMARK INTRA:                   0.000
REMARK UNBOUND:                 0.000
REMARK SMILES Cc1cc(O)c2c(c1)C(=O)c1cc(O)cc(O)c1C2=O
REMARK SMILES IDX 1 1 2 2 8 3 7 4 6 5 4 6 3 7 19 8 20 9 18 10 11 11 9 12 10 13
REMARK SMILES IDX 12 14 13 15 15 16 16 17 5 18 17 20 14 22
REMARK H PARENT 5 19 17 21 14 23
REMARK Flexibility Score: inf
ROOT
ATOM      1  C   UNL     1      13.181  15.039 -20.504  1.00  0.00     0.044 C 
ATOM      2  C   UNL     1      11.943  14.422 -21.088  1.00  0.00    -0.047 A 
ATOM      3  C   UNL     1      11.140  13.584 -20.308  1.00  0.00     0.016 A 
ATOM      4  C   UNL     1       9.964  13.023 -20.837  1.00  0.00     0.038 A 
ATOM      5  C   UNL     1       9.586  13.309 -22.167  1.00  0.00     0.076 A 
ATOM      6  C   UNL     1      10.359  14.226 -22.925  1.00  0.00     0.127 A 
ATOM      7  C   UNL     1      11.536  14.755 -22.384  1.00  0.00     0.050 A 
ATOM      8  C   UNL     1       8.422  12.583 -22.737  1.00  0.00     0.201 C 
ATOM      9  O   UNL     1       8.377  12.341 -23.973  1.00  0.00    -0.288 OA
ATOM     10  C   UNL     1       7.409  11.984 -21.830  1.00  0.00     0.076 A 
ATOM     11  C   UNL     1       7.789  11.703 -20.498  1.00  0.00     0.041 A 
ATOM     12  C   UNL     1       9.115  12.142 -20.001  1.00  0.00     0.194 C 
ATOM     13  O   UNL     1       9.510  11.785 -18.857  1.00  0.00    -0.289 OA
ATOM     14  C   UNL     1       6.907  11.013 -19.650  1.00  0.00     0.059 A 
ATOM     15  C   UNL     1       5.648  10.615 -20.109  1.00  0.00     0.120 A 
ATOM     16  C   UNL     1       5.254  10.926 -21.409  1.00  0.00     0.093 A 
ATOM     17  C   UNL     1       6.105  11.630 -22.267  1.00  0.00     0.131 A 
ENDROOT
BRANCH   6  18
ATOM     18  O   UNL     1       9.978  14.666 -24.195  1.00  0.00    -0.507 OA
ATOM     19  H   UNL     1      10.392  15.463 -24.657  1.00  0.00     0.293 HD
ENDBRANCH   6  18
BRANCH  17  20
ATOM     20  O   UNL     1       5.606  11.986 -23.522  1.00  0.00    -0.507 OA
ATOM     21  H   UNL     1       5.698  11.408 -24.344  1.00  0.00     0.293 HD
ENDBRANCH  17  20
BRANCH  15  22
ATOM     22  O   UNL     1       4.776   9.919 -19.275  1.00  0.00    -0.508 OA
ATOM     23  H   UNL     1       4.503  10.283 -18.370  1.00  0.00     0.293 HD
ENDBRANCH  15  22
TORSDOF 3
ENDMDL
MODEL 8
REMARK VINA RESULT:    -6.182      3.160      5.820
REMARK INTER + INTRA:          -6.724
REMARK INTER:                  -6.724
REMARK INTRA:                   0.000
REMARK UNBOUND:                 0.000
REMARK SMILES Cc1cc(O)c2c(c1)C(=O)c1cc(O)cc(O)c1C2=O
REMARK SMILES IDX 1 1 2 2 8 3 7 4 6 5 4 6 3 7 19 8 20 9 18 10 11 11 9 12 10 13
REMARK SMILES IDX 12 14 13 15 15 16 16 17 5 18 17 20 14 22
REMARK H PARENT 5 19 17 21 14 23
REMARK Flexibility Score: inf
ROOT
ATOM      1  C   UNL     1       2.752  13.158 -18.885  1.00  0.00     0.044 C 
ATOM      2  C   UNL     1       2.869  12.358 -20.150  1.00  0.00    -0.047 A 
ATOM      3  C   UNL     1       4.057  12.379 -20.888  1.00  0.00     0.016 A 
ATOM      4  C   UNL     1       4.186  11.613 -22.058  1.00  0.00     0.038 A 
ATOM      5  C   UNL     1       3.110  10.811 -22.496  1.00  0.00     0.076 A 
ATOM      6  C   UNL     1       1.939  10.728 -21.699  1.00  0.00     0.127 A 
ATOM      7  C   UNL     1       1.826  11.516 -20.548  1.00  0.00     0.050 A 
ATOM      8  C   UNL     1       3.229  10.133 -23.813  1.00  0.00     0.201 C 
ATOM      9  O   UNL     1       2.196   9.910 -24.500  1.00  0.00    -0.288 OA
ATOM     10  C   UNL     1       4.572   9.889 -24.398  1.00  0.00     0.076 A 
ATOM     11  C   UNL     1       5.649  10.691 -23.955  1.00  0.00     0.041 A 
ATOM     12  C   UNL     1       5.452  11.635 -22.830  1.00  0.00     0.194 C 
ATOM     13  O   UNL     1       6.370  12.441 -22.514  1.00  0.00    -0.289 OA
ATOM     14  C   UNL     1       6.903  10.585 -24.581  1.00  0.00     0.059 A 
ATOM     15  C   UNL     1       7.098   9.682 -25.629  1.00  0.00     0.120 A 
ATOM     16  C   UNL     1       6.050   8.861 -26.042  1.00  0.00     0.093 A 
ATOM     17  C   UNL     1       4.798   8.932 -25.422  1.00  0.00     0.131 A 
ENDROOT
BRANCH   6  18
ATOM     18  O   UNL     1       0.888   9.855 -21.988  1.00  0.00    -0.507 OA
ATOM     19  H   UNL     1       0.457   9.252 -21.302  1.00  0.00     0.293 HD
ENDBRANCH   6  18
BRANCH  17  20
ATOM     20  O   UNL     1       3.826   8.015 -25.827  1.00  0.00    -0.507 OA
ATOM     21  H   UNL     1       3.338   8.070 -26.709  1.00  0.00     0.293 HD
ENDBRANCH  17  20
BRANCH  15  22
ATOM     22  O   UNL     1       8.336   9.584 -26.261  1.00  0.00    -0.508 OA
ATOM     23  H   UNL     1       8.451   9.071 -27.126  1.00  0.00     0.293 HD
ENDBRANCH  15  22
TORSDOF 3
ENDMDL
MODEL 9
REMARK VINA RESULT:    -6.175      2.570      4.836
REMARK INTER + INTRA:          -6.717
REMARK INTER:                  -6.717
REMARK INTRA:                   0.000
REMARK UNBOUND:                 0.000
REMARK SMILES Cc1cc(O)c2c(c1)C(=O)c1cc(O)cc(O)c1C2=O
REMARK SMILES IDX 1 1 2 2 8 3 7 4 6 5 4 6 3 7 19 8 20 9 18 10 11 11 9 12 10 13
REMARK SMILES IDX 12 14 13 15 15 16 16 17 5 18 17 20 14 22
REMARK H PARENT 5 19 17 21 14 23
REMARK Flexibility Score: inf
ROOT
ATOM      1  C   UNL     1      14.507  14.200 -24.057  1.00  0.00     0.044 C 
ATOM      2  C   UNL     1      13.388  13.827 -23.128  1.00  0.00    -0.047 A 
ATOM      3  C   UNL     1      12.093  13.645 -23.623  1.00  0.00     0.016 A 
ATOM      4  C   UNL     1      11.045  13.269 -22.766  1.00  0.00     0.038 A 
ATOM      5  C   UNL     1      11.298  13.069 -21.392  1.00  0.00     0.076 A 
ATOM      6  C   UNL     1      12.629  13.172 -20.911  1.00  0.00     0.127 A 
ATOM      7  C   UNL     1      13.652  13.568 -21.779  1.00  0.00     0.050 A 
ATOM      8  C   UNL     1      10.142  12.818 -20.493  1.00  0.00     0.201 C 
ATOM      9  O   UNL     1      10.189  13.190 -19.290  1.00  0.00    -0.288 OA
ATOM     10  C   UNL     1       8.868  12.302 -21.058  1.00  0.00     0.076 A 
ATOM     11  C   UNL     1       8.619  12.500 -22.435  1.00  0.00     0.041 A 
ATOM     12  C   UNL     1       9.677  13.072 -23.301  1.00  0.00     0.194 C 
ATOM     13  O   UNL     1       9.419  13.368 -24.501  1.00  0.00    -0.289 OA
ATOM     14  C   UNL     1       7.370  12.150 -22.977  1.00  0.00     0.059 A 
ATOM     15  C   UNL     1       6.377  11.592 -22.168  1.00  0.00     0.120 A 
ATOM     16  C   UNL     1       6.633  11.358 -20.818  1.00  0.00     0.093 A 
ATOM     17  C   UNL     1       7.874  11.678 -20.258  1.00  0.00     0.131 A 
ENDROOT
BRANCH   6  18
ATOM     18  O   UNL     1      12.984  12.856 -19.597  1.00  0.00    -0.507 OA
ATOM     19  H   UNL     1      13.729  12.216 -19.358  1.00  0.00     0.293 HD
ENDBRANCH   6  18
BRANCH  17  20
ATOM     20  O   UNL     1       8.089  11.330 -18.923  1.00  0.00    -0.507 OA
ATOM     21  H   UNL     1       8.952  11.509 -18.430  1.00  0.00     0.293 HD
ENDBRANCH  17  20
BRANCH  15  22
ATOM     22  O   UNL     1       5.134  11.256 -22.699  1.00  0.00    -0.508 OA
ATOM     23  H   UNL     1       4.334  11.076 -22.105  1.00  0.00     0.293 HD
ENDBRANCH  15  22
TORSDOF 3
ENDMDL
