MODEL 1
REMARK VINA RESULT:    -5.236      0.000      0.000
REMARK INTER + INTRA:          -5.533
REMARK INTER:                  -5.542
REMARK INTRA:                   0.009
REMARK UNBOUND:                 0.009
REMARK SMILES C=C1CC[C@@H](C(C)C)[C@@H]2C=C(C)CC[C@H]12
REMARK SMILES IDX 12 1 11 2 10 3 9 4 15 5 14 6 13 7 2 8 1 9 3 10 4 11 5 12
REMARK SMILES IDX 6 13 7 14 8 15
REMARK H PARENT
REMARK Flexibility Score: inf
ROOT
ATOM      1  C   UNL     1      26.882  23.660  13.666  1.00  0.00     0.039 C 
ATOM      2  C   UNL     1      28.084  24.085  12.869  1.00  0.00    -0.077 C 
ATOM      3  C   UNL     1      28.043  25.257  12.200  1.00  0.00    -0.024 C 
ATOM      4  C   UNL     1      29.219  25.809  11.414  1.00  0.00     0.022 C 
ATOM      5  C   UNL     1      30.153  24.660  10.954  1.00  0.00     0.022 C 
ATOM      6  C   UNL     1      30.508  23.757  12.143  1.00  0.00     0.013 C 
ATOM      7  C   UNL     1      29.243  23.118  12.727  1.00  0.00     0.031 C 
ATOM      8  C   UNL     1      31.398  25.194  10.274  1.00  0.00    -0.074 C 
ATOM      9  C   UNL     1      32.125  24.398   9.473  1.00  0.00     0.008 C 
ATOM     10  C   UNL     1      31.766  26.646  10.432  1.00  0.00     0.031 C 
ATOM     11  C   UNL     1      31.449  27.108  11.854  1.00  0.00     0.009 C 
ATOM     12  C   UNL     1      29.950  26.925  12.242  1.00  0.00    -0.001 C 
ENDROOT
BRANCH  12  13
ATOM     13  C   UNL     1      29.146  28.270  12.243  1.00  0.00    -0.014 C 
ATOM     14  C   UNL     1      27.928  28.273  11.301  1.00  0.00     0.007 C 
ATOM     15  C   UNL     1      30.052  29.474  11.937  1.00  0.00     0.007 C 
ENDBRANCH  12  13
TORSDOF 1
ENDMDL
MODEL 2
REMARK VINA RESULT:    -5.100      1.441      5.187
REMARK INTER + INTRA:          -5.389
REMARK INTER:                  -5.208
REMARK INTRA:                  -0.181
REMARK UNBOUND:                 0.009
REMARK SMILES C=C1CC[C@@H](C(C)C)[C@@H]2C=C(C)CC[C@H]12
REMARK SMILES IDX 12 1 11 2 10 3 9 4 15 5 14 6 13 7 2 8 1 9 3 10 4 11 5 12
REMARK SMILES IDX 6 13 7 14 8 15
REMARK H PARENT
REMARK Flexibility Score: inf
ROOT
ATOM      1  C   UNL     1      32.125  27.130   9.615  1.00  0.00     0.039 C 
ATOM      2  C   UNL     1      31.100  26.339  10.381  1.00  0.00    -0.077 C 
ATOM      3  C   UNL     1      31.274  25.007  10.520  1.00  0.00    -0.024 C 
ATOM      4  C   UNL     1      30.335  24.124  11.322  1.00  0.00     0.022 C 
ATOM      5  C   UNL     1      28.921  24.756  11.391  1.00  0.00     0.022 C 
ATOM      6  C   UNL     1      29.016  26.219  11.847  1.00  0.00     0.013 C 
ATOM      7  C   UNL     1      29.839  27.039  10.848  1.00  0.00     0.031 C 
ATOM      8  C   UNL     1      27.998  23.956  12.289  1.00  0.00    -0.074 C 
ATOM      9  C   UNL     1      26.666  24.092  12.182  1.00  0.00     0.008 C 
ATOM     10  C   UNL     1      28.580  22.944  13.240  1.00  0.00     0.031 C 
ATOM     11  C   UNL     1      29.892  23.472  13.818  1.00  0.00     0.009 C 
ATOM     12  C   UNL     1      30.956  23.807  12.728  1.00  0.00    -0.001 C 
ENDROOT
BRANCH  12  13
ATOM     13  C   UNL     1      32.097  22.737  12.633  1.00  0.00    -0.014 C 
ATOM     14  C   UNL     1      32.058  21.890  11.348  1.00  0.00     0.007 C 
ATOM     15  C   UNL     1      32.123  21.822  13.868  1.00  0.00     0.007 C 
ENDBRANCH  12  13
TORSDOF 1
ENDMDL
MODEL 3
REMARK VINA RESULT:    -4.165      1.235      3.746
REMARK INTER + INTRA:          -4.399
REMARK INTER:                  -4.519
REMARK INTRA:                   0.120
REMARK UNBOUND:                 0.009
REMARK SMILES C=C1CC[C@@H](C(C)C)[C@@H]2C=C(C)CC[C@H]12
REMARK SMILES IDX 12 1 11 2 10 3 9 4 15 5 14 6 13 7 2 8 1 9 3 10 4 11 5 12
REMARK SMILES IDX 6 13 7 14 8 15
REMARK H PARENT
REMARK Flexibility Score: inf
ROOT
ATOM      1  C   UNL     1      26.970  23.664  12.910  1.00  0.00     0.039 C 
ATOM      2  C   UNL     1      27.975  24.694  12.473  1.00  0.00    -0.077 C 
ATOM      3  C   UNL     1      29.282  24.484  12.739  1.00  0.00    -0.024 C 
ATOM      4  C   UNL     1      30.385  25.428  12.292  1.00  0.00     0.022 C 
ATOM      5  C   UNL     1      29.828  26.863  12.103  1.00  0.00     0.022 C 
ATOM      6  C   UNL     1      28.573  26.833  11.219  1.00  0.00     0.013 C 
ATOM      7  C   UNL     1      27.473  25.995  11.879  1.00  0.00     0.031 C 
ATOM      8  C   UNL     1      30.880  27.798  11.539  1.00  0.00    -0.074 C 
ATOM      9  C   UNL     1      30.741  29.127  11.665  1.00  0.00     0.008 C 
ATOM     10  C   UNL     1      32.125  27.224  10.914  1.00  0.00     0.031 C 
ATOM     11  C   UNL     1      31.777  25.955  10.138  1.00  0.00     0.009 C 
ATOM     12  C   UNL     1      31.106  24.857  11.020  1.00  0.00    -0.001 C 
ENDROOT
BRANCH  12  13
ATOM     13  C   UNL     1      32.076  23.680  11.380  1.00  0.00    -0.014 C 
ATOM     14  C   UNL     1      31.771  22.367  10.635  1.00  0.00     0.007 C 
ATOM     15  C   UNL     1      32.125  23.427  12.896  1.00  0.00     0.007 C 
ENDBRANCH  12  13
TORSDOF 1
ENDMDL
MODEL 4
REMARK VINA RESULT:    -4.150      1.568      3.525
REMARK INTER + INTRA:          -4.383
REMARK INTER:                  -4.193
REMARK INTRA:                  -0.190
REMARK UNBOUND:                 0.009
REMARK SMILES C=C1CC[C@@H](C(C)C)[C@@H]2C=C(C)CC[C@H]12
REMARK SMILES IDX 12 1 11 2 10 3 9 4 15 5 14 6 13 7 2 8 1 9 3 10 4 11 5 12
REMARK SMILES IDX 6 13 7 14 8 15
REMARK H PARENT
REMARK Flexibility Score: inf
ROOT
ATOM      1  C   UNL     1      30.972  21.244  14.730  1.00  0.00     0.039 C 
ATOM      2  C   UNL     1      30.927  22.429  13.805  1.00  0.00    -0.077 C 
ATOM      3  C   UNL     1      29.879  22.560  12.963  1.00  0.00    -0.024 C 
ATOM      4  C   UNL     1      29.703  23.745  12.031  1.00  0.00     0.022 C 
ATOM      5  C   UNL     1      31.076  24.387  11.703  1.00  0.00     0.022 C 
ATOM      6  C   UNL     1      31.855  24.663  12.997  1.00  0.00     0.013 C 
ATOM      7  C   UNL     1      32.125  23.356  13.749  1.00  0.00     0.031 C 
ATOM      8  C   UNL     1      30.917  25.647  10.874  1.00  0.00    -0.074 C 
ATOM      9  C   UNL     1      31.953  26.125  10.166  1.00  0.00     0.008 C 
ATOM     10  C   UNL     1      29.567  26.307  10.778  1.00  0.00     0.031 C 
ATOM     11  C   UNL     1      28.851  26.219  12.125  1.00  0.00     0.009 C 
ATOM     12  C   UNL     1      28.659  24.755  12.626  1.00  0.00    -0.001 C 
ENDROOT
BRANCH  12  13
ATOM     13  C   UNL     1      27.189  24.236  12.463  1.00  0.00    -0.014 C 
ATOM     14  C   UNL     1      26.687  23.390  13.648  1.00  0.00     0.007 C 
ATOM     15  C   UNL     1      27.002  23.464  11.146  1.00  0.00     0.007 C 
ENDBRANCH  12  13
TORSDOF 1
ENDMDL
MODEL 5
REMARK VINA RESULT:    -4.135      1.626      3.671
REMARK INTER + INTRA:          -4.368
REMARK INTER:                  -4.246
REMARK INTRA:                  -0.122
REMARK UNBOUND:                 0.009
REMARK SMILES C=C1CC[C@@H](C(C)C)[C@@H]2C=C(C)CC[C@H]12
REMARK SMILES IDX 12 1 11 2 10 3 9 4 15 5 14 6 13 7 2 8 1 9 3 10 4 11 5 12
REMARK SMILES IDX 6 13 7 14 8 15
REMARK H PARENT
REMARK Flexibility Score: inf
ROOT
ATOM      1  C   UNL     1      26.786  25.782  11.876  1.00  0.00     0.039 C 
ATOM      2  C   UNL     1      27.823  24.806  12.361  1.00  0.00    -0.077 C 
ATOM      3  C   UNL     1      29.042  24.809  11.781  1.00  0.00    -0.024 C 
ATOM      4  C   UNL     1      30.180  23.909  12.230  1.00  0.00     0.022 C 
ATOM      5  C   UNL     1      29.626  22.635  12.919  1.00  0.00     0.022 C 
ATOM      6  C   UNL     1      28.608  23.019  14.003  1.00  0.00     0.013 C 
ATOM      7  C   UNL     1      27.419  23.761  13.382  1.00  0.00     0.031 C 
ATOM      8  C   UNL     1      30.742  21.780  13.487  1.00  0.00    -0.074 C 
ATOM      9  C   UNL     1      30.526  20.484  13.765  1.00  0.00     0.008 C 
ATOM     10  C   UNL     1      32.117  22.370  13.655  1.00  0.00     0.031 C 
ATOM     11  C   UNL     1      32.005  23.826  14.105  1.00  0.00     0.009 C 
ATOM     12  C   UNL     1      31.194  24.717  13.115  1.00  0.00    -0.001 C 
ENDROOT
BRANCH  12  13
ATOM     13  C   UNL     1      32.101  25.658  12.250  1.00  0.00    -0.014 C 
ATOM     14  C   UNL     1      31.738  27.150  12.357  1.00  0.00     0.007 C 
ATOM     15  C   UNL     1      32.125  25.225  10.775  1.00  0.00     0.007 C 
ENDBRANCH  12  13
TORSDOF 1
ENDMDL
MODEL 6
REMARK VINA RESULT:    -3.483      1.612      2.590
REMARK INTER + INTRA:          -3.678
REMARK INTER:                  -3.389
REMARK INTRA:                  -0.289
REMARK UNBOUND:                 0.009
REMARK SMILES C=C1CC[C@@H](C(C)C)[C@@H]2C=C(C)CC[C@H]12
REMARK SMILES IDX 12 1 11 2 10 3 9 4 15 5 14 6 13 7 2 8 1 9 3 10 4 11 5 12
REMARK SMILES IDX 6 13 7 14 8 15
REMARK H PARENT
REMARK Flexibility Score: inf
ROOT
ATOM      1  C   UNL     1      26.139  23.502  11.170  1.00  0.00     0.039 C 
ATOM      2  C   UNL     1      27.482  23.707  11.814  1.00  0.00    -0.077 C 
ATOM      3  C   UNL     1      28.484  24.236  11.080  1.00  0.00    -0.024 C 
ATOM      4  C   UNL     1      29.860  24.539  11.646  1.00  0.00     0.022 C 
ATOM      5  C   UNL     1      30.159  23.632  12.867  1.00  0.00     0.022 C 
ATOM      6  C   UNL     1      28.995  23.690  13.868  1.00  0.00     0.013 C 
ATOM      7  C   UNL     1      27.704  23.181  13.219  1.00  0.00     0.031 C 
ATOM      8  C   UNL     1      31.473  24.000  13.526  1.00  0.00    -0.074 C 
ATOM      9  C   UNL     1      32.098  23.121  14.326  1.00  0.00     0.008 C 
ATOM     10  C   UNL     1      32.119  25.323  13.207  1.00  0.00     0.031 C 
ATOM     11  C   UNL     1      31.046  26.399  13.056  1.00  0.00     0.009 C 
ATOM     12  C   UNL     1      29.996  26.074  11.950  1.00  0.00    -0.001 C 
ENDROOT
BRANCH  12  13
ATOM     13  C   UNL     1      30.202  26.911  10.641  1.00  0.00    -0.014 C 
ATOM     14  C   UNL     1      31.549  26.657   9.940  1.00  0.00     0.007 C 
ATOM     15  C   UNL     1      30.012  28.416  10.893  1.00  0.00     0.007 C 
ENDBRANCH  12  13
TORSDOF 1
ENDMDL
MODEL 7
REMARK VINA RESULT:    -3.408      0.910      3.744
REMARK INTER + INTRA:          -3.598
REMARK INTER:                  -3.952
REMARK INTRA:                   0.353
REMARK UNBOUND:                 0.009
REMARK SMILES C=C1CC[C@@H](C(C)C)[C@@H]2C=C(C)CC[C@H]12
REMARK SMILES IDX 12 1 11 2 10 3 9 4 15 5 14 6 13 7 2 8 1 9 3 10 4 11 5 12
REMARK SMILES IDX 6 13 7 14 8 15
REMARK H PARENT
REMARK Flexibility Score: inf
ROOT
ATOM      1  C   UNL     1      32.125  27.196   9.128  1.00  0.00     0.039 C 
ATOM      2  C   UNL     1      31.360  26.285  10.048  1.00  0.00    -0.077 C 
ATOM      3  C   UNL     1      30.746  26.813  11.128  1.00  0.00    -0.024 C 
ATOM      4  C   UNL     1      29.899  25.996  12.088  1.00  0.00     0.022 C 
ATOM      5  C   UNL     1      30.336  24.508  12.066  1.00  0.00     0.022 C 
ATOM      6  C   UNL     1      30.394  23.994  10.621  1.00  0.00     0.013 C 
ATOM      7  C   UNL     1      31.424  24.789   9.810  1.00  0.00     0.031 C 
ATOM      8  C   UNL     1      29.426  23.649  12.922  1.00  0.00    -0.074 C 
ATOM      9  C   UNL     1      29.840  22.446  13.351  1.00  0.00     0.008 C 
ATOM     10  C   UNL     1      28.092  24.191  13.363  1.00  0.00     0.031 C 
ATOM     11  C   UNL     1      27.474  25.022  12.239  1.00  0.00     0.009 C 
ATOM     12  C   UNL     1      28.374  26.212  11.786  1.00  0.00    -0.001 C 
ENDROOT
BRANCH  12  13
ATOM     13  C   UNL     1      27.868  27.600  12.309  1.00  0.00    -0.014 C 
ATOM     14  C   UNL     1      26.932  28.335  11.331  1.00  0.00     0.007 C 
ATOM     15  C   UNL     1      29.035  28.516  12.712  1.00  0.00     0.007 C 
ENDBRANCH  12  13
TORSDOF 1
ENDMDL
MODEL 8
REMARK VINA RESULT:    -3.366      1.524      2.841
REMARK INTER + INTRA:          -3.554
REMARK INTER:                  -3.457
REMARK INTRA:                  -0.097
REMARK UNBOUND:                 0.009
REMARK SMILES C=C1CC[C@@H](C(C)C)[C@@H]2C=C(C)CC[C@H]12
REMARK SMILES IDX 12 1 11 2 10 3 9 4 15 5 14 6 13 7 2 8 1 9 3 10 4 11 5 12
REMARK SMILES IDX 6 13 7 14 8 15
REMARK H PARENT
REMARK Flexibility Score: inf
ROOT
ATOM      1  C   UNL     1      26.545  28.635  11.732  1.00  0.00     0.039 C 
ATOM      2  C   UNL     1      27.660  27.634  11.598  1.00  0.00    -0.077 C 
ATOM      3  C   UNL     1      28.712  27.931  10.805  1.00  0.00    -0.024 C 
ATOM      4  C   UNL     1      29.916  27.020  10.644  1.00  0.00     0.022 C 
ATOM      5  C   UNL     1      29.528  25.548  10.938  1.00  0.00     0.022 C 
ATOM      6  C   UNL     1      28.790  25.452  12.281  1.00  0.00     0.013 C 
ATOM      7  C   UNL     1      27.496  26.272  12.242  1.00  0.00     0.031 C 
ATOM      8  C   UNL     1      30.739  24.636  10.905  1.00  0.00    -0.074 C 
ATOM      9  C   UNL     1      30.584  23.312  10.744  1.00  0.00     0.008 C 
ATOM     10  C   UNL     1      32.120  25.234  10.967  1.00  0.00     0.031 C 
ATOM     11  C   UNL     1      32.125  26.429  11.919  1.00  0.00     0.009 C 
ATOM     12  C   UNL     1      31.113  27.544  11.514  1.00  0.00    -0.001 C 
ENDROOT
BRANCH  12  13
ATOM     13  C   UNL     1      31.802  28.793  10.865  1.00  0.00    -0.014 C 
ATOM     14  C   UNL     1      31.025  30.109  11.058  1.00  0.00     0.007 C 
ATOM     15  C   UNL     1      32.096  28.568   9.372  1.00  0.00     0.007 C 
ENDBRANCH  12  13
TORSDOF 1
ENDMDL
