MODEL 1
REMARK VINA RESULT:    -2.889      0.000      0.000
REMARK INTER + INTRA:          -3.074
REMARK INTER:                  -3.058
REMARK INTRA:                  -0.016
REMARK UNBOUND:                -0.016
REMARK SMILES O=Cc1ccco1
REMARK SMILES IDX 5 1 6 2 7 3 3 4 4 5 2 6 1 7
REMARK H PARENT
REMARK Flexibility Score: inf
ROOT
ATOM      1  C   UNL     1      36.416  -7.392  25.587  1.00  0.00     0.043 A 
ATOM      2  C   UNL     1      35.062  -7.416  25.318  1.00  0.00     0.196 A 
ATOM      3  O   UNL     1      34.714  -6.310  24.702  1.00  0.00    -0.462 OA
ATOM      4  C   UNL     1      35.780  -5.560  24.554  1.00  0.00     0.166 A 
ATOM      5  C   UNL     1      36.884  -6.193  25.093  1.00  0.00     0.054 A 
ENDROOT
BRANCH   4   6
ATOM      6  C   UNL     1      35.768  -4.246  23.906  1.00  0.00     0.298 C 
ATOM      7  O   UNL     1      34.722  -3.811  23.355  1.00  0.00    -0.294 OA
ENDBRANCH   4   6
TORSDOF 1
ENDMDL
MODEL 2
REMARK VINA RESULT:    -2.749     13.135     14.137
REMARK INTER + INTRA:          -2.926
REMARK INTER:                  -2.910
REMARK INTRA:                  -0.016
REMARK UNBOUND:                -0.016
REMARK SMILES O=Cc1ccco1
REMARK SMILES IDX 5 1 6 2 7 3 3 4 4 5 2 6 1 7
REMARK H PARENT
REMARK Flexibility Score: inf
ROOT
ATOM      1  C   UNL     1      35.891 -11.800  39.354  1.00  0.00     0.043 A 
ATOM      2  C   UNL     1      37.085 -11.107  39.334  1.00  0.00     0.196 A 
ATOM      3  O   UNL     1      37.125 -10.326  38.280  1.00  0.00    -0.462 OA
ATOM      4  C   UNL     1      36.009 -10.475  37.606  1.00  0.00     0.166 A 
ATOM      5  C   UNL     1      35.192 -11.393  38.238  1.00  0.00     0.054 A 
ENDROOT
BRANCH   4   6
ATOM      6  C   UNL     1      35.705  -9.756  36.366  1.00  0.00     0.298 C 
ATOM      7  O   UNL     1      36.539  -8.956  35.866  1.00  0.00    -0.294 OA
ENDBRANCH   4   6
TORSDOF 1
ENDMDL
MODEL 3
REMARK VINA RESULT:    -2.625      1.235      1.659
REMARK INTER + INTRA:          -2.794
REMARK INTER:                  -2.783
REMARK INTRA:                  -0.011
REMARK UNBOUND:                -0.016
REMARK SMILES O=Cc1ccco1
REMARK SMILES IDX 5 1 6 2 7 3 3 4 4 5 2 6 1 7
REMARK H PARENT
REMARK Flexibility Score: inf
ROOT
ATOM      1  C   UNL     1      34.470  -7.966  25.849  1.00  0.00     0.043 A 
ATOM      2  C   UNL     1      35.495  -7.597  26.697  1.00  0.00     0.196 A 
ATOM      3  O   UNL     1      36.105  -6.537  26.218  1.00  0.00    -0.462 OA
ATOM      4  C   UNL     1      35.525  -6.194  25.092  1.00  0.00     0.166 A 
ATOM      5  C   UNL     1      34.487  -7.060  24.810  1.00  0.00     0.054 A 
ENDROOT
BRANCH   4   6
ATOM      6  C   UNL     1      35.945  -5.051  24.276  1.00  0.00     0.298 C 
ATOM      7  O   UNL     1      35.096  -4.360  23.654  1.00  0.00    -0.294 OA
ENDBRANCH   4   6
TORSDOF 1
ENDMDL
MODEL 4
REMARK VINA RESULT:    -2.595      1.911      3.578
REMARK INTER + INTRA:          -2.763
REMARK INTER:                  -2.747
REMARK INTRA:                  -0.016
REMARK UNBOUND:                -0.016
REMARK SMILES O=Cc1ccco1
REMARK SMILES IDX 5 1 6 2 7 3 3 4 4 5 2 6 1 7
REMARK H PARENT
REMARK Flexibility Score: inf
ROOT
ATOM      1  C   UNL     1      35.520  -5.128  24.354  1.00  0.00     0.043 A 
ATOM      2  C   UNL     1      36.875  -5.260  24.583  1.00  0.00     0.196 A 
ATOM      3  O   UNL     1      37.125  -6.448  25.083  1.00  0.00    -0.462 OA
ATOM      4  C   UNL     1      35.992  -7.102  25.193  1.00  0.00     0.166 A 
ATOM      5  C   UNL     1      34.946  -6.318  24.747  1.00  0.00     0.054 A 
ENDROOT
BRANCH   4   6
ATOM      6  C   UNL     1      35.888  -8.467  25.717  1.00  0.00     0.298 C 
ATOM      7  O   UNL     1      36.912  -9.191  25.833  1.00  0.00    -0.294 OA
ENDBRANCH   4   6
TORSDOF 1
ENDMDL
MODEL 5
REMARK VINA RESULT:    -2.579     13.462     14.620
REMARK INTER + INTRA:          -2.746
REMARK INTER:                  -2.732
REMARK INTRA:                  -0.014
REMARK UNBOUND:                -0.016
REMARK SMILES O=Cc1ccco1
REMARK SMILES IDX 5 1 6 2 7 3 3 4 4 5 2 6 1 7
REMARK H PARENT
REMARK Flexibility Score: inf
ROOT
ATOM      1  C   UNL     1      34.713 -11.162  36.111  1.00  0.00     0.043 A 
ATOM      2  C   UNL     1      33.816 -11.183  37.161  1.00  0.00     0.196 A 
ATOM      3  O   UNL     1      34.469 -11.199  38.300  1.00  0.00    -0.462 OA
ATOM      4  C   UNL     1      35.756 -11.189  38.045  1.00  0.00     0.166 A 
ATOM      5  C   UNL     1      35.969 -11.166  36.680  1.00  0.00     0.054 A 
ENDROOT
BRANCH   4   6
ATOM      6  C   UNL     1      36.792 -11.203  39.082  1.00  0.00     0.298 C 
ATOM      7  O   UNL     1      36.694 -11.968  40.077  1.00  0.00    -0.294 OA
ENDBRANCH   4   6
TORSDOF 1
ENDMDL
MODEL 6
REMARK VINA RESULT:    -2.569      8.631      9.087
REMARK INTER + INTRA:          -2.735
REMARK INTER:                  -2.724
REMARK INTRA:                  -0.011
REMARK UNBOUND:                -0.016
REMARK SMILES O=Cc1ccco1
REMARK SMILES IDX 5 1 6 2 7 3 3 4 4 5 2 6 1 7
REMARK H PARENT
REMARK Flexibility Score: inf
ROOT
ATOM      1  C   UNL     1      37.122  -3.939  33.226  1.00  0.00     0.043 A 
ATOM      2  C   UNL     1      36.594  -2.949  34.030  1.00  0.00     0.196 A 
ATOM      3  O   UNL     1      35.286  -3.061  34.067  1.00  0.00    -0.462 OA
ATOM      4  C   UNL     1      34.932  -4.082  33.323  1.00  0.00     0.166 A 
ATOM      5  C   UNL     1      36.050  -4.674  32.767  1.00  0.00     0.054 A 
ENDROOT
BRANCH   4   6
ATOM      6  C   UNL     1      33.543  -4.507  33.129  1.00  0.00     0.298 C 
ATOM      7  O   UNL     1      33.152  -4.937  32.012  1.00  0.00    -0.294 OA
ENDBRANCH   4   6
TORSDOF 1
ENDMDL
MODEL 7
REMARK VINA RESULT:    -2.121      1.090      2.839
REMARK INTER + INTRA:          -2.261
REMARK INTER:                  -2.247
REMARK INTRA:                  -0.014
REMARK UNBOUND:                -0.016
REMARK SMILES O=Cc1ccco1
REMARK SMILES IDX 5 1 6 2 7 3 3 4 4 5 2 6 1 7
REMARK H PARENT
REMARK Flexibility Score: inf
ROOT
ATOM      1  C   UNL     1      37.125  -5.123  24.416  1.00  0.00     0.043 A 
ATOM      2  C   UNL     1      35.896  -4.692  23.957  1.00  0.00     0.196 A 
ATOM      3  O   UNL     1      34.955  -5.501  24.389  1.00  0.00    -0.462 OA
ATOM      4  C   UNL     1      35.513  -6.444  25.111  1.00  0.00     0.166 A 
ATOM      5  C   UNL     1      36.880  -6.256  25.163  1.00  0.00     0.054 A 
ENDROOT
BRANCH   4   6
ATOM      6  C   UNL     1      34.763  -7.526  25.755  1.00  0.00     0.298 C 
ATOM      7  O   UNL     1      33.779  -8.058  25.178  1.00  0.00    -0.294 OA
ENDBRANCH   4   6
TORSDOF 1
ENDMDL
MODEL 8
REMARK VINA RESULT:    -1.329      8.189      8.596
REMARK INTER + INTRA:          -1.422
REMARK INTER:                  -1.411
REMARK INTRA:                  -0.011
REMARK UNBOUND:                -0.016
REMARK SMILES O=Cc1ccco1
REMARK SMILES IDX 5 1 6 2 7 3 3 4 4 5 2 6 1 7
REMARK H PARENT
REMARK Flexibility Score: inf
ROOT
ATOM      1  C   UNL     1      32.939  -4.675  32.615  1.00  0.00     0.043 A 
ATOM      2  C   UNL     1      33.599  -5.292  31.570  1.00  0.00     0.196 A 
ATOM      3  O   UNL     1      34.893  -5.101  31.690  1.00  0.00    -0.462 OA
ATOM      4  C   UNL     1      35.112  -4.385  32.768  1.00  0.00     0.166 A 
ATOM      5  C   UNL     1      33.915  -4.087  33.391  1.00  0.00     0.054 A 
ENDROOT
BRANCH   4   6
ATOM      6  C   UNL     1      36.446  -3.976  33.217  1.00  0.00     0.298 C 
ATOM      7  O   UNL     1      36.617  -2.875  33.803  1.00  0.00    -0.294 OA
ENDBRANCH   4   6
TORSDOF 1
ENDMDL
