MODEL 1
REMARK VINA RESULT:    -4.685      0.000      0.000
REMARK INTER + INTRA:          -4.685
REMARK INTER:                  -4.685
REMARK INTRA:                   0.000
REMARK UNBOUND:                 0.000
REMARK SMILES Cc1cccc2ccccc12
REMARK SMILES IDX 1 1 2 2 3 3 4 4 5 5 6 6 7 7 8 8 9 9 10 10 11 11
REMARK H PARENT
REMARK Flexibility Score: inf
ROOT
ATOM      1  C   UNL     1      54.154  57.450 246.539  1.00  0.00     0.045 C 
ATOM      2  C   UNL     1      53.486  58.623 245.866  1.00  0.00    -0.043 A 
ATOM      3  C   UNL     1      54.227  59.389 244.951  1.00  0.00     0.004 A 
ATOM      4  C   UNL     1      53.650  60.483 244.304  1.00  0.00     0.001 A 
ATOM      5  C   UNL     1      52.326  60.832 244.559  1.00  0.00     0.009 A 
ATOM      6  C   UNL     1      51.561  60.088 245.467  1.00  0.00    -0.018 A 
ATOM      7  C   UNL     1      50.227  60.445 245.719  1.00  0.00     0.009 A 
ATOM      8  C   UNL     1      49.460  59.709 246.623  1.00  0.00     0.001 A 
ATOM      9  C   UNL     1      50.014  58.611 247.281  1.00  0.00     0.001 A 
ATOM     10  C   UNL     1      51.340  58.241 247.041  1.00  0.00     0.009 A 
ATOM     11  C   UNL     1      52.136  58.971 246.133  1.00  0.00    -0.015 A 
ENDROOT
TORSDOF 0
ENDMDL
MODEL 2
REMARK VINA RESULT:    -4.660      0.680      3.456
REMARK INTER + INTRA:          -4.660
REMARK INTER:                  -4.660
REMARK INTRA:                   0.000
REMARK UNBOUND:                 0.000
REMARK SMILES Cc1cccc2ccccc12
REMARK SMILES IDX 1 1 2 2 3 3 4 4 5 5 6 6 7 7 8 8 9 9 10 10 11 11
REMARK H PARENT
REMARK Flexibility Score: inf
ROOT
ATOM      1  C   UNL     1      51.130  57.074 247.889  1.00  0.00     0.045 C 
ATOM      2  C   UNL     1      50.735  58.306 247.114  1.00  0.00    -0.043 A 
ATOM      3  C   UNL     1      49.419  58.785 247.228  1.00  0.00     0.004 A 
ATOM      4  C   UNL     1      49.010  59.921 246.531  1.00  0.00     0.001 A 
ATOM      5  C   UNL     1      49.905  60.601 245.707  1.00  0.00     0.009 A 
ATOM      6  C   UNL     1      51.224  60.149 245.572  1.00  0.00    -0.018 A 
ATOM      7  C   UNL     1      52.121  60.837 244.740  1.00  0.00     0.009 A 
ATOM      8  C   UNL     1      53.436  60.392 244.601  1.00  0.00     0.001 A 
ATOM      9  C   UNL     1      53.869  59.259 245.289  1.00  0.00     0.001 A 
ATOM     10  C   UNL     1      52.990  58.561 246.121  1.00  0.00     0.009 A 
ATOM     11  C   UNL     1      51.655  58.992 246.277  1.00  0.00    -0.015 A 
ENDROOT
TORSDOF 0
ENDMDL
MODEL 3
REMARK VINA RESULT:    -4.660      5.461      8.026
REMARK INTER + INTRA:          -4.660
REMARK INTER:                  -4.660
REMARK INTRA:                   0.000
REMARK UNBOUND:                 0.000
REMARK SMILES Cc1cccc2ccccc12
REMARK SMILES IDX 1 1 2 2 3 3 4 4 5 5 6 6 7 7 8 8 9 9 10 10 11 11
REMARK H PARENT
REMARK Flexibility Score: inf
ROOT
ATOM      1  C   UNL     1      56.554  57.864 246.357  1.00  0.00     0.045 C 
ATOM      2  C   UNL     1      57.685  58.842 246.162  1.00  0.00    -0.043 A 
ATOM      3  C   UNL     1      57.392  60.215 246.107  1.00  0.00     0.004 A 
ATOM      4  C   UNL     1      58.406  61.155 245.929  1.00  0.00     0.001 A 
ATOM      5  C   UNL     1      59.732  60.744 245.802  1.00  0.00     0.009 A 
ATOM      6  C   UNL     1      60.057  59.382 245.854  1.00  0.00    -0.018 A 
ATOM      7  C   UNL     1      61.394  58.975 245.726  1.00  0.00     0.009 A 
ATOM      8  C   UNL     1      61.726  57.620 245.775  1.00  0.00     0.001 A 
ATOM      9  C   UNL     1      60.728  56.661 245.953  1.00  0.00     0.001 A 
ATOM     10  C   UNL     1      59.392  57.049 246.082  1.00  0.00     0.009 A 
ATOM     11  C   UNL     1      59.033  58.413 246.035  1.00  0.00    -0.015 A 
ENDROOT
TORSDOF 0
ENDMDL
MODEL 4
REMARK VINA RESULT:    -4.624      1.798      3.596
REMARK INTER + INTRA:          -4.624
REMARK INTER:                  -4.624
REMARK INTRA:                   0.000
REMARK UNBOUND:                 0.000
REMARK SMILES Cc1cccc2ccccc12
REMARK SMILES IDX 1 1 2 2 3 3 4 4 5 5 6 6 7 7 8 8 9 9 10 10 11 11
REMARK H PARENT
REMARK Flexibility Score: inf
ROOT
ATOM      1  C   UNL     1      57.249  60.851 245.991  1.00  0.00     0.045 C 
ATOM      2  C   UNL     1      56.153  59.815 245.985  1.00  0.00    -0.043 A 
ATOM      3  C   UNL     1      56.498  58.463 246.151  1.00  0.00     0.004 A 
ATOM      4  C   UNL     1      55.517  57.471 246.152  1.00  0.00     0.001 A 
ATOM      5  C   UNL     1      54.175  57.809 245.987  1.00  0.00     0.009 A 
ATOM      6  C   UNL     1      53.799  59.148 245.819  1.00  0.00    -0.018 A 
ATOM      7  C   UNL     1      52.446  59.482 245.654  1.00  0.00     0.009 A 
ATOM      8  C   UNL     1      52.064  60.813 245.486  1.00  0.00     0.001 A 
ATOM      9  C   UNL     1      53.027  61.823 245.481  1.00  0.00     0.001 A 
ATOM     10  C   UNL     1      54.378  61.509 245.645  1.00  0.00     0.009 A 
ATOM     11  C   UNL     1      54.788  60.169 245.816  1.00  0.00    -0.015 A 
ENDROOT
TORSDOF 0
ENDMDL
MODEL 5
REMARK VINA RESULT:    -4.590      0.747      2.611
REMARK INTER + INTRA:          -4.590
REMARK INTER:                  -4.590
REMARK INTRA:                   0.000
REMARK UNBOUND:                 0.000
REMARK SMILES Cc1cccc2ccccc12
REMARK SMILES IDX 1 1 2 2 3 3 4 4 5 5 6 6 7 7 8 8 9 9 10 10 11 11
REMARK H PARENT
REMARK Flexibility Score: inf
ROOT
ATOM      1  C   UNL     1      52.876  60.880 244.122  1.00  0.00     0.045 C 
ATOM      2  C   UNL     1      52.678  59.819 245.174  1.00  0.00    -0.043 A 
ATOM      3  C   UNL     1      53.744  58.953 245.472  1.00  0.00     0.004 A 
ATOM      4  C   UNL     1      53.606  57.957 246.438  1.00  0.00     0.001 A 
ATOM      5  C   UNL     1      52.403  57.805 247.125  1.00  0.00     0.009 A 
ATOM      6  C   UNL     1      51.321  58.652 246.850  1.00  0.00    -0.018 A 
ATOM      7  C   UNL     1      50.112  58.493 247.545  1.00  0.00     0.009 A 
ATOM      8  C   UNL     1      49.030  59.332 247.277  1.00  0.00     0.001 A 
ATOM      9  C   UNL     1      49.144  60.336 246.315  1.00  0.00     0.001 A 
ATOM     10  C   UNL     1      50.340  60.508 245.615  1.00  0.00     0.009 A 
ATOM     11  C   UNL     1      51.448  59.671 245.868  1.00  0.00    -0.015 A 
ENDROOT
TORSDOF 0
ENDMDL
MODEL 6
REMARK VINA RESULT:    -4.572      7.866     10.063
REMARK INTER + INTRA:          -4.572
REMARK INTER:                  -4.572
REMARK INTRA:                   0.000
REMARK UNBOUND:                 0.000
REMARK SMILES Cc1cccc2ccccc12
REMARK SMILES IDX 1 1 2 2 3 3 4 4 5 5 6 6 7 7 8 8 9 9 10 10 11 11
REMARK H PARENT
REMARK Flexibility Score: inf
ROOT
ATOM      1  C   UNL     1      62.147  61.538 248.050  1.00  0.00     0.045 C 
ATOM      2  C   UNL     1      62.427  60.226 247.362  1.00  0.00    -0.043 A 
ATOM      3  C   UNL     1      63.639  59.567 247.626  1.00  0.00     0.004 A 
ATOM      4  C   UNL     1      63.940  58.352 247.012  1.00  0.00     0.001 A 
ATOM      5  C   UNL     1      63.038  57.771 246.123  1.00  0.00     0.009 A 
ATOM      6  C   UNL     1      61.820  58.403 245.838  1.00  0.00    -0.018 A 
ATOM      7  C   UNL     1      60.916  57.813 244.941  1.00  0.00     0.009 A 
ATOM      8  C   UNL     1      59.702  58.437 244.652  1.00  0.00     0.001 A 
ATOM      9  C   UNL     1      59.379  59.653 245.254  1.00  0.00     0.001 A 
ATOM     10  C   UNL     1      60.267  60.254 246.150  1.00  0.00     0.009 A 
ATOM     11  C   UNL     1      61.501  59.642 246.457  1.00  0.00    -0.015 A 
ENDROOT
TORSDOF 0
ENDMDL
MODEL 7
REMARK VINA RESULT:    -4.568      0.849      4.180
REMARK INTER + INTRA:          -4.568
REMARK INTER:                  -4.568
REMARK INTRA:                   0.000
REMARK UNBOUND:                 0.000
REMARK SMILES Cc1cccc2ccccc12
REMARK SMILES IDX 1 1 2 2 3 3 4 4 5 5 6 6 7 7 8 8 9 9 10 10 11 11
REMARK H PARENT
REMARK Flexibility Score: inf
ROOT
ATOM      1  C   UNL     1      49.107  60.525 246.184  1.00  0.00     0.045 C 
ATOM      2  C   UNL     1      50.232  59.570 246.494  1.00  0.00    -0.043 A 
ATOM      3  C   UNL     1      50.017  58.555 247.441  1.00  0.00     0.004 A 
ATOM      4  C   UNL     1      51.028  57.649 247.759  1.00  0.00     0.001 A 
ATOM      5  C   UNL     1      52.273  57.739 247.139  1.00  0.00     0.009 A 
ATOM      6  C   UNL     1      52.519  58.740 246.190  1.00  0.00    -0.018 A 
ATOM      7  C   UNL     1      53.775  58.825 245.569  1.00  0.00     0.009 A 
ATOM      8  C   UNL     1      54.027  59.820 244.624  1.00  0.00     0.001 A 
ATOM      9  C   UNL     1      53.031  60.737 244.290  1.00  0.00     0.001 A 
ATOM     10  C   UNL     1      51.775  60.667 244.898  1.00  0.00     0.009 A 
ATOM     11  C   UNL     1      51.497  59.670 245.857  1.00  0.00    -0.015 A 
ENDROOT
TORSDOF 0
ENDMDL
MODEL 8
REMARK VINA RESULT:    -4.536      1.572      4.568
REMARK INTER + INTRA:          -4.536
REMARK INTER:                  -4.536
REMARK INTRA:                   0.000
REMARK UNBOUND:                 0.000
REMARK SMILES Cc1cccc2ccccc12
REMARK SMILES IDX 1 1 2 2 3 3 4 4 5 5 6 6 7 7 8 8 9 9 10 10 11 11
REMARK H PARENT
REMARK Flexibility Score: inf
ROOT
ATOM      1  C   UNL     1      53.273  62.349 245.618  1.00  0.00     0.045 C 
ATOM      2  C   UNL     1      53.118  60.887 245.954  1.00  0.00    -0.043 A 
ATOM      3  C   UNL     1      51.845  60.404 246.299  1.00  0.00     0.004 A 
ATOM      4  C   UNL     1      51.654  59.059 246.616  1.00  0.00     0.001 A 
ATOM      5  C   UNL     1      52.729  58.172 246.596  1.00  0.00     0.009 A 
ATOM      6  C   UNL     1      54.011  58.624 246.256  1.00  0.00    -0.018 A 
ATOM      7  C   UNL     1      55.090  57.726 246.237  1.00  0.00     0.009 A 
ATOM      8  C   UNL     1      56.369  58.169 245.900  1.00  0.00     0.001 A 
ATOM      9  C   UNL     1      56.584  59.509 245.578  1.00  0.00     0.001 A 
ATOM     10  C   UNL     1      55.522  60.416 245.591  1.00  0.00     0.009 A 
ATOM     11  C   UNL     1      54.220  59.991 245.930  1.00  0.00    -0.015 A 
ENDROOT
TORSDOF 0
ENDMDL
MODEL 9
REMARK VINA RESULT:    -4.525      8.161     10.152
REMARK INTER + INTRA:          -4.525
REMARK INTER:                  -4.525
REMARK INTRA:                   0.000
REMARK UNBOUND:                 0.000
REMARK SMILES Cc1cccc2ccccc12
REMARK SMILES IDX 1 1 2 2 3 3 4 4 5 5 6 6 7 7 8 8 9 9 10 10 11 11
REMARK H PARENT
REMARK Flexibility Score: inf
ROOT
ATOM      1  C   UNL     1      64.529  57.954 247.149  1.00  0.00     0.045 C 
ATOM      2  C   UNL     1      63.417  58.974 247.174  1.00  0.00    -0.043 A 
ATOM      3  C   UNL     1      63.573  60.126 247.962  1.00  0.00     0.004 A 
ATOM      4  C   UNL     1      62.572  61.096 248.015  1.00  0.00     0.001 A 
ATOM      5  C   UNL     1      61.397  60.934 247.283  1.00  0.00     0.009 A 
ATOM      6  C   UNL     1      61.212  59.796 246.487  1.00  0.00    -0.018 A 
ATOM      7  C   UNL     1      60.026  59.639 245.752  1.00  0.00     0.009 A 
ATOM      8  C   UNL     1      59.834  58.508 244.958  1.00  0.00     0.001 A 
ATOM      9  C   UNL     1      60.821  57.525 244.889  1.00  0.00     0.001 A 
ATOM     10  C   UNL     1      62.008  57.665 245.613  1.00  0.00     0.009 A 
ATOM     11  C   UNL     1      62.224  58.800 246.424  1.00  0.00    -0.015 A 
ENDROOT
TORSDOF 0
ENDMDL
