MODEL 1
REMARK VINA RESULT:    -3.662      0.000      0.000
REMARK INTER + INTRA:          -4.921
REMARK INTER:                  -4.732
REMARK INTRA:                  -0.189
REMARK UNBOUND:                -0.189
REMARK SMILES CCO[C@H]1O[C@@H](CO)[C@@H](O)[C@@H](O)[C@H]1O
REMARK SMILES IDX 4 1 13 2 11 3 9 4 6 5 5 6 3 7 2 8 1 9 14 10 12 12 7 14 8 15
REMARK SMILES IDX 10 17
REMARK H PARENT 14 11 12 13 8 16 10 18
REMARK Flexibility Score: inf
ROOT
ATOM      1  C   UNL     1       7.177   6.030   2.719  1.00  0.00     0.281 C 
ATOM      2  C   UNL     1       8.596   5.591   3.124  1.00  0.00     0.202 C 
ATOM      3  C   UNL     1       9.124   4.500   2.193  1.00  0.00     0.179 C 
ATOM      4  C   UNL     1       8.105   3.353   2.115  1.00  0.00     0.177 C 
ATOM      5  C   UNL     1       6.642   3.840   1.897  1.00  0.00     0.178 C 
ATOM      6  O   UNL     1       6.260   4.944   2.713  1.00  0.00    -0.341 OA
ENDROOT
BRANCH   1   7
ATOM      7  O   UNL     1       7.198   6.685   1.459  1.00  0.00    -0.350 OA
BRANCH   7   8
ATOM      8  C   UNL     1       6.861   8.057   1.559  1.00  0.00     0.160 C 
ATOM      9  C   UNL     1       7.865   8.936   0.818  1.00  0.00     0.035 C 
ENDBRANCH   7   8
ENDBRANCH   1   7
BRANCH   2  10
ATOM     10  O   UNL     1       9.472   6.690   3.107  1.00  0.00    -0.385 OA
ATOM     11  H   UNL     1      10.077   6.588   3.887  1.00  0.00     0.211 HD
ENDBRANCH   2  10
BRANCH   3  12
ATOM     12  O   UNL     1       9.400   5.035   0.922  1.00  0.00    -0.387 OA
ATOM     13  H   UNL     1       8.555   5.005   0.403  1.00  0.00     0.211 HD
ENDBRANCH   3  12
BRANCH   5  14
ATOM     14  C   UNL     1       6.179   3.992   0.430  1.00  0.00     0.191 C 
BRANCH  14  15
ATOM     15  O   UNL     1       5.060   3.204   0.142  1.00  0.00    -0.394 OA
ATOM     16  H   UNL     1       5.176   2.890  -0.792  1.00  0.00     0.210 HD
ENDBRANCH  14  15
ENDBRANCH   5  14
BRANCH   4  17
ATOM     17  O   UNL     1       8.488   2.434   1.123  1.00  0.00    -0.387 OA
ATOM     18  H   UNL     1       7.676   1.916   0.881  1.00  0.00     0.211 HD
ENDBRANCH   4  17
TORSDOF 7
ENDMDL
MODEL 2
REMARK VINA RESULT:    -3.458      2.166      3.112
REMARK INTER + INTRA:          -4.657
REMARK INTER:                  -3.953
REMARK INTRA:                  -0.704
REMARK UNBOUND:                -0.189
REMARK SMILES CCO[C@H]1O[C@@H](CO)[C@@H](O)[C@@H](O)[C@H]1O
REMARK SMILES IDX 4 1 13 2 11 3 9 4 6 5 5 6 3 7 2 8 1 9 14 10 12 12 7 14 8 15
REMARK SMILES IDX 10 17
REMARK H PARENT 14 11 12 13 8 16 10 18
REMARK Flexibility Score: inf
ROOT
ATOM      1  C   UNL     1       9.837   8.057   2.221  1.00  0.00     0.281 C 
ATOM      2  C   UNL     1      11.338   7.715   2.281  1.00  0.00     0.202 C 
ATOM      3  C   UNL     1      11.579   6.236   1.982  1.00  0.00     0.179 C 
ATOM      4  C   UNL     1      10.697   5.375   2.900  1.00  0.00     0.177 C 
ATOM      5  C   UNL     1       9.220   5.863   2.972  1.00  0.00     0.178 C 
ATOM      6  O   UNL     1       9.071   7.272   3.125  1.00  0.00    -0.341 OA
ENDROOT
BRANCH   1   7
ATOM      7  O   UNL     1       9.348   7.928   0.894  1.00  0.00    -0.350 OA
BRANCH   7   8
ATOM      8  C   UNL     1       8.557   9.035   0.501  1.00  0.00     0.160 C 
ATOM      9  C   UNL     1       7.086   8.824   0.848  1.00  0.00     0.035 C 
ENDBRANCH   7   8
ENDBRANCH   1   7
BRANCH   2  10
ATOM     10  O   UNL     1      12.056   8.504   1.366  1.00  0.00    -0.385 OA
ATOM     11  H   UNL     1      12.373   9.302   1.863  1.00  0.00     0.211 HD
ENDBRANCH   2  10
BRANCH   3  12
ATOM     12  O   UNL     1      11.333   5.966   0.625  1.00  0.00    -0.387 OA
ATOM     13  H   UNL     1      11.955   6.532   0.097  1.00  0.00     0.211 HD
ENDBRANCH   3  12
BRANCH   5  14
ATOM     14  C   UNL     1       8.248   5.269   1.928  1.00  0.00     0.191 C 
BRANCH  14  15
ATOM     15  O   UNL     1       8.902   4.884   0.753  1.00  0.00    -0.394 OA
ATOM     16  H   UNL     1       9.714   4.390   1.038  1.00  0.00     0.210 HD
ENDBRANCH  14  15
ENDBRANCH   5  14
BRANCH   4  17
ATOM     17  O   UNL     1      10.769   4.026   2.511  1.00  0.00    -0.387 OA
ATOM     18  H   UNL     1      10.643   3.483   3.333  1.00  0.00     0.211 HD
ENDBRANCH   4  17
TORSDOF 7
ENDMDL
MODEL 3
REMARK VINA RESULT:    -3.447      2.278      4.442
REMARK INTER + INTRA:          -4.643
REMARK INTER:                  -4.156
REMARK INTRA:                  -0.487
REMARK UNBOUND:                -0.189
REMARK SMILES CCO[C@H]1O[C@@H](CO)[C@@H](O)[C@@H](O)[C@H]1O
REMARK SMILES IDX 4 1 13 2 11 3 9 4 6 5 5 6 3 7 2 8 1 9 14 10 12 12 7 14 8 15
REMARK SMILES IDX 10 17
REMARK H PARENT 14 11 12 13 8 16 10 18
REMARK Flexibility Score: inf
ROOT
ATOM      1  C   UNL     1      10.903   5.900   2.735  1.00  0.00     0.281 C 
ATOM      2  C   UNL     1       9.894   4.766   3.005  1.00  0.00     0.202 C 
ATOM      3  C   UNL     1       8.619   4.955   2.184  1.00  0.00     0.179 C 
ATOM      4  C   UNL     1       8.061   6.367   2.418  1.00  0.00     0.177 C 
ATOM      5  C   UNL     1       9.145   7.482   2.331  1.00  0.00     0.178 C 
ATOM      6  O   UNL     1      10.358   7.181   3.016  1.00  0.00    -0.341 OA
ENDROOT
BRANCH   1   7
ATOM      7  O   UNL     1      11.383   5.833   1.399  1.00  0.00    -0.350 OA
BRANCH   7   8
ATOM      8  C   UNL     1      12.771   6.098   1.313  1.00  0.00     0.160 C 
ATOM      9  C   UNL     1      13.582   5.116   2.154  1.00  0.00     0.035 C 
ENDBRANCH   7   8
ENDBRANCH   1   7
BRANCH   2  10
ATOM     10  O   UNL     1      10.468   3.519   2.704  1.00  0.00    -0.385 OA
ATOM     11  H   UNL     1      10.496   3.004   3.551  1.00  0.00     0.211 HD
ENDBRANCH   2  10
BRANCH   3  12
ATOM     12  O   UNL     1       8.875   4.718   0.822  1.00  0.00    -0.387 OA
ATOM     13  H   UNL     1       9.655   5.278   0.571  1.00  0.00     0.211 HD
ENDBRANCH   3  12
BRANCH   5  14
ATOM     14  C   UNL     1       9.385   8.100   0.935  1.00  0.00     0.191 C 
BRANCH  14  15
ATOM     15  O   UNL     1       8.333   8.931   0.534  1.00  0.00    -0.394 OA
ATOM     16  H   UNL     1       8.210   9.593   1.264  1.00  0.00     0.210 HD
ENDBRANCH  14  15
ENDBRANCH   5  14
BRANCH   4  17
ATOM     17  O   UNL     1       6.999   6.619   1.533  1.00  0.00    -0.387 OA
ATOM     18  H   UNL     1       6.315   7.127   2.043  1.00  0.00     0.211 HD
ENDBRANCH   4  17
TORSDOF 7
ENDMDL
MODEL 4
REMARK VINA RESULT:    -3.370      1.919      4.415
REMARK INTER + INTRA:          -4.544
REMARK INTER:                  -3.879
REMARK INTRA:                  -0.664
REMARK UNBOUND:                -0.189
REMARK SMILES CCO[C@H]1O[C@@H](CO)[C@@H](O)[C@@H](O)[C@H]1O
REMARK SMILES IDX 4 1 13 2 11 3 9 4 6 5 5 6 3 7 2 8 1 9 14 10 12 12 7 14 8 15
REMARK SMILES IDX 10 17
REMARK H PARENT 14 11 12 13 8 16 10 18
REMARK Flexibility Score: inf
ROOT
ATOM      1  C   UNL     1       8.740   5.434   2.655  1.00  0.00     0.281 C 
ATOM      2  C   UNL     1       8.102   6.822   2.854  1.00  0.00     0.202 C 
ATOM      3  C   UNL     1       8.909   7.908   2.143  1.00  0.00     0.179 C 
ATOM      4  C   UNL     1      10.381   7.821   2.574  1.00  0.00     0.177 C 
ATOM      5  C   UNL     1      10.947   6.370   2.549  1.00  0.00     0.178 C 
ATOM      6  O   UNL     1      10.083   5.389   3.116  1.00  0.00    -0.341 OA
ENDROOT
BRANCH   1   7
ATOM      7  O   UNL     1       8.657   5.037   1.293  1.00  0.00    -0.350 OA
BRANCH   7   8
ATOM      8  C   UNL     1       8.090   3.749   1.141  1.00  0.00     0.160 C 
ATOM      9  C   UNL     1       6.662   3.825   0.607  1.00  0.00     0.035 C 
ENDBRANCH   7   8
ENDBRANCH   1   7
BRANCH   2  10
ATOM     10  O   UNL     1       6.781   6.826   2.375  1.00  0.00    -0.385 OA
ATOM     11  H   UNL     1       6.239   7.338   3.030  1.00  0.00     0.211 HD
ENDBRANCH   2  10
BRANCH   3  12
ATOM     12  O   UNL     1       8.769   7.786   0.750  1.00  0.00    -0.387 OA
ATOM     13  H   UNL     1       8.784   8.705   0.373  1.00  0.00     0.211 HD
ENDBRANCH   3  12
BRANCH   5  14
ATOM     14  C   UNL     1      11.588   5.906   1.221  1.00  0.00     0.191 C 
BRANCH  14  15
ATOM     15  O   UNL     1      10.799   6.225   0.111  1.00  0.00    -0.394 OA
ATOM     16  H   UNL     1      10.191   6.954   0.403  1.00  0.00     0.210 HD
ENDBRANCH  14  15
ENDBRANCH   5  14
BRANCH   4  17
ATOM     17  O   UNL     1      11.165   8.687   1.793  1.00  0.00    -0.387 OA
ATOM     18  H   UNL     1      10.953   8.488   0.843  1.00  0.00     0.211 HD
ENDBRANCH   4  17
TORSDOF 7
ENDMDL
MODEL 5
REMARK VINA RESULT:    -2.923      8.753     10.546
REMARK INTER + INTRA:          -3.967
REMARK INTER:                  -3.554
REMARK INTRA:                  -0.413
REMARK UNBOUND:                -0.189
REMARK SMILES CCO[C@H]1O[C@@H](CO)[C@@H](O)[C@@H](O)[C@H]1O
REMARK SMILES IDX 4 1 13 2 11 3 9 4 6 5 5 6 3 7 2 8 1 9 14 10 12 12 7 14 8 15
REMARK SMILES IDX 10 17
REMARK H PARENT 14 11 12 13 8 16 10 18
REMARK Flexibility Score: inf
ROOT
ATOM      1  C   UNL     1      17.873   7.768   0.118  1.00  0.00     0.281 C 
ATOM      2  C   UNL     1      18.267   9.017   0.929  1.00  0.00     0.202 C 
ATOM      3  C   UNL     1      17.444   9.125   2.213  1.00  0.00     0.179 C 
ATOM      4  C   UNL     1      15.948   9.036   1.873  1.00  0.00     0.177 C 
ATOM      5  C   UNL     1      15.605   7.876   0.892  1.00  0.00     0.178 C 
ATOM      6  O   UNL     1      16.492   7.758  -0.216  1.00  0.00    -0.341 OA
ENDROOT
BRANCH   1   7
ATOM      7  O   UNL     1      18.236   6.585   0.816  1.00  0.00    -0.350 OA
BRANCH   7   8
ATOM      8  C   UNL     1      19.062   5.735   0.042  1.00  0.00     0.160 C 
ATOM      9  C   UNL     1      20.503   5.743   0.547  1.00  0.00     0.035 C 
ENDBRANCH   7   8
ENDBRANCH   1   7
BRANCH   2  10
ATOM     10  O   UNL     1      19.635   8.982   1.247  1.00  0.00    -0.385 OA
ATOM     11  H   UNL     1      19.784   8.165   1.789  1.00  0.00     0.211 HD
ENDBRANCH   2  10
BRANCH   3  12
ATOM     12  O   UNL     1      17.829   8.126   3.124  1.00  0.00    -0.387 OA
ATOM     13  H   UNL     1      18.724   8.378   3.472  1.00  0.00     0.211 HD
ENDBRANCH   3  12
BRANCH   5  14
ATOM     14  C   UNL     1      15.265   6.511   1.534  1.00  0.00     0.191 C 
BRANCH  14  15
ATOM     15  O   UNL     1      13.923   6.426   1.921  1.00  0.00    -0.394 OA
ATOM     16  H   UNL     1      13.478   7.234   1.555  1.00  0.00     0.210 HD
ENDBRANCH  14  15
ENDBRANCH   5  14
BRANCH   4  17
ATOM     17  O   UNL     1      15.190   8.946   3.054  1.00  0.00    -0.387 OA
ATOM     18  H   UNL     1      14.412   8.364   2.852  1.00  0.00     0.211 HD
ENDBRANCH   4  17
TORSDOF 7
ENDMDL
MODEL 6
REMARK VINA RESULT:    -2.737      1.850      4.281
REMARK INTER + INTRA:          -3.726
REMARK INTER:                  -3.020
REMARK INTRA:                  -0.707
REMARK UNBOUND:                -0.189
REMARK SMILES CCO[C@H]1O[C@@H](CO)[C@@H](O)[C@@H](O)[C@H]1O
REMARK SMILES IDX 4 1 13 2 11 3 9 4 6 5 5 6 3 7 2 8 1 9 14 10 12 12 7 14 8 15
REMARK SMILES IDX 10 17
REMARK H PARENT 14 11 12 13 8 16 10 18
REMARK Flexibility Score: inf
ROOT
ATOM      1  C   UNL     1       6.189   3.839   2.260  1.00  0.00     0.281 C 
ATOM      2  C   UNL     1       6.119   4.350   0.808  1.00  0.00     0.202 C 
ATOM      3  C   UNL     1       7.516   4.507   0.210  1.00  0.00     0.179 C 
ATOM      4  C   UNL     1       8.381   5.368   1.143  1.00  0.00     0.177 C 
ATOM      5  C   UNL     1       8.281   4.950   2.640  1.00  0.00     0.178 C 
ATOM      6  O   UNL     1       6.955   4.697   3.094  1.00  0.00    -0.341 OA
ENDROOT
BRANCH   1   7
ATOM      7  O   UNL     1       6.691   2.511   2.298  1.00  0.00    -0.350 OA
BRANCH   7   8
ATOM      8  C   UNL     1       5.858   1.641   3.043  1.00  0.00     0.160 C 
ATOM      9  C   UNL     1       4.427   2.169   3.123  1.00  0.00     0.035 C 
ENDBRANCH   7   8
ENDBRANCH   1   7
BRANCH   2  10
ATOM     10  O   UNL     1       5.363   3.469   0.016  1.00  0.00    -0.385 OA
ATOM     11  H   UNL     1       5.208   2.654   0.560  1.00  0.00     0.211 HD
ENDBRANCH   2  10
BRANCH   3  12
ATOM     12  O   UNL     1       8.095   3.245  -0.015  1.00  0.00    -0.387 OA
ATOM     13  H   UNL     1       8.937   3.212   0.510  1.00  0.00     0.211 HD
ENDBRANCH   3  12
BRANCH   5  14
ATOM     14  C   UNL     1       9.293   3.887   3.125  1.00  0.00     0.191 C 
BRANCH  14  15
ATOM     15  O   UNL     1       9.688   3.022   2.098  1.00  0.00    -0.394 OA
ATOM     16  H   UNL     1      10.002   3.601   1.355  1.00  0.00     0.210 HD
ENDBRANCH  14  15
ENDBRANCH   5  14
BRANCH   4  17
ATOM     17  O   UNL     1       9.716   5.366   0.701  1.00  0.00    -0.387 OA
ATOM     18  H   UNL     1       9.932   6.299   0.435  1.00  0.00     0.211 HD
ENDBRANCH   4  17
TORSDOF 7
ENDMDL
MODEL 7
REMARK VINA RESULT:    -2.235      3.034      5.203
REMARK INTER + INTRA:          -3.077
REMARK INTER:                  -2.611
REMARK INTRA:                  -0.466
REMARK UNBOUND:                -0.189
REMARK SMILES CCO[C@H]1O[C@@H](CO)[C@@H](O)[C@@H](O)[C@H]1O
REMARK SMILES IDX 4 1 13 2 11 3 9 4 6 5 5 6 3 7 2 8 1 9 14 10 12 12 7 14 8 15
REMARK SMILES IDX 10 17
REMARK H PARENT 14 11 12 13 8 16 10 18
REMARK Flexibility Score: inf
ROOT
ATOM      1  C   UNL     1       9.587   7.073   1.440  1.00  0.00     0.281 C 
ATOM      2  C   UNL     1      10.185   5.692   1.110  1.00  0.00     0.202 C 
ATOM      3  C   UNL     1      11.574   5.530   1.727  1.00  0.00     0.179 C 
ATOM      4  C   UNL     1      12.460   6.718   1.319  1.00  0.00     0.177 C 
ATOM      5  C   UNL     1      11.756   8.098   1.480  1.00  0.00     0.178 C 
ATOM      6  O   UNL     1      10.417   8.138   0.996  1.00  0.00    -0.341 OA
ENDROOT
BRANCH   1   7
ATOM      7  O   UNL     1       9.320   7.182   2.831  1.00  0.00    -0.350 OA
BRANCH   7   8
ATOM      8  C   UNL     1       8.083   7.819   3.094  1.00  0.00     0.160 C 
ATOM      9  C   UNL     1       6.952   7.205   2.273  1.00  0.00     0.035 C 
ENDBRANCH   7   8
ENDBRANCH   1   7
BRANCH   2  10
ATOM     10  O   UNL     1       9.341   4.670   1.575  1.00  0.00    -0.385 OA
ATOM     11  H   UNL     1       9.643   4.442   2.493  1.00  0.00     0.211 HD
ENDBRANCH   2  10
BRANCH   3  12
ATOM     12  O   UNL     1      11.476   5.413   3.125  1.00  0.00    -0.387 OA
ATOM     13  H   UNL     1      12.327   5.754   3.507  1.00  0.00     0.211 HD
ENDBRANCH   3  12
BRANCH   5  14
ATOM     14  C   UNL     1      11.918   8.795   2.851  1.00  0.00     0.191 C 
BRANCH  14  15
ATOM     15  O   UNL     1      13.249   9.125   3.124  1.00  0.00    -0.394 OA
ATOM     16  H   UNL     1      13.718   8.267   3.294  1.00  0.00     0.210 HD
ENDBRANCH  14  15
ENDBRANCH   5  14
BRANCH   4  17
ATOM     17  O   UNL     1      13.674   6.679   2.026  1.00  0.00    -0.387 OA
ATOM     18  H   UNL     1      14.045   5.765   1.910  1.00  0.00     0.211 HD
ENDBRANCH   4  17
TORSDOF 7
ENDMDL
MODEL 8
REMARK VINA RESULT:    -2.212      2.176      4.376
REMARK INTER + INTRA:          -3.048
REMARK INTER:                  -2.762
REMARK INTRA:                  -0.286
REMARK UNBOUND:                -0.189
REMARK SMILES CCO[C@H]1O[C@@H](CO)[C@@H](O)[C@@H](O)[C@H]1O
REMARK SMILES IDX 4 1 13 2 11 3 9 4 6 5 5 6 3 7 2 8 1 9 14 10 12 12 7 14 8 15
REMARK SMILES IDX 10 17
REMARK H PARENT 14 11 12 13 8 16 10 18
REMARK Flexibility Score: inf
ROOT
ATOM      1  C   UNL     1      10.563   6.204   1.426  1.00  0.00     0.281 C 
ATOM      2  C   UNL     1      10.508   7.694   1.039  1.00  0.00     0.202 C 
ATOM      3  C   UNL     1       9.351   8.405   1.742  1.00  0.00     0.179 C 
ATOM      4  C   UNL     1       8.045   7.636   1.488  1.00  0.00     0.177 C 
ATOM      5  C   UNL     1       8.182   6.099   1.699  1.00  0.00     0.178 C 
ATOM      6  O   UNL     1       9.352   5.526   1.123  1.00  0.00    -0.341 OA
ENDROOT
BRANCH   1   7
ATOM      7  O   UNL     1      10.900   6.057   2.799  1.00  0.00    -0.350 OA
BRANCH   7   8
ATOM      8  C   UNL     1      11.666   4.892   3.043  1.00  0.00     0.160 C 
ATOM      9  C   UNL     1      13.072   5.013   2.461  1.00  0.00     0.035 C 
ENDBRANCH   7   8
ENDBRANCH   1   7
BRANCH   2  10
ATOM     10  O   UNL     1      11.718   8.330   1.365  1.00  0.00    -0.385 OA
ATOM     11  H   UNL     1      11.775   8.351   2.355  1.00  0.00     0.211 HD
ENDBRANCH   2  10
BRANCH   3  12
ATOM     12  O   UNL     1       9.619   8.531   3.116  1.00  0.00    -0.387 OA
ATOM     13  H   UNL     1      10.315   7.860   3.341  1.00  0.00     0.211 HD
ENDBRANCH   3  12
BRANCH   5  14
ATOM     14  C   UNL     1       7.898   5.574   3.125  1.00  0.00     0.191 C 
BRANCH  14  15
ATOM     15  O   UNL     1       7.262   4.328   3.115  1.00  0.00    -0.394 OA
ATOM     16  H   UNL     1       7.639   3.819   3.880  1.00  0.00     0.210 HD
ENDBRANCH  14  15
ENDBRANCH   5  14
BRANCH   4  17
ATOM     17  O   UNL     1       7.011   8.169   2.276  1.00  0.00    -0.387 OA
ATOM     18  H   UNL     1       6.265   8.390   1.659  1.00  0.00     0.211 HD
ENDBRANCH   4  17
TORSDOF 7
ENDMDL
