MODEL 1
REMARK VINA RESULT:    10.571      0.000      0.000
REMARK INTER + INTRA:          13.375
REMARK INTER:                  13.043
REMARK INTRA:                   0.332
REMARK UNBOUND:                 0.332
REMARK SMILES Oc1cc(O)c2cc(O)c(-c3cc(O)c(O)c(O)c3)[o+]c2c1
REMARK SMILES IDX 10 1 20 2 21 3 22 4 2 5 3 6 4 7 6 8 7 9 8 10 11 11 12 12
REMARK SMILES IDX 13 13 19 14 15 15 17 16 14 17 16 19 18 21 9 23 1 25 5 27
REMARK H PARENT 14 18 16 20 18 22 9 24 1 26 5 28
REMARK Flexibility Score: inf
ROOT
ATOM      1  C   UNL     1       3.272 135.195 155.426  1.00  0.00     0.402 A 
ATOM      2  O   UNL     1       2.957 133.912 155.280  1.00  0.00    -0.202 OA
ATOM      3  C   UNL     1       3.367 133.172 154.255  1.00  0.00     0.368 A 
ATOM      4  C   UNL     1       2.980 131.831 154.187  1.00  0.00     0.162 A 
ATOM      5  C   UNL     1       3.394 131.031 153.121  1.00  0.00     0.128 A 
ATOM      6  C   UNL     1       4.200 131.573 152.114  1.00  0.00     0.093 A 
ATOM      7  C   UNL     1       4.601 132.914 152.159  1.00  0.00     0.136 A 
ATOM      8  C   UNL     1       4.185 133.731 153.243  1.00  0.00     0.125 A 
ATOM      9  C   UNL     1       4.548 135.080 153.378  1.00  0.00     0.078 A 
ATOM     10  C   UNL     1       4.103 135.820 154.477  1.00  0.00     0.223 A 
ENDROOT
BRANCH   1  11
ATOM     11  C   UNL     1       2.744 135.916 156.607  1.00  0.00     0.091 A 
ATOM     12  C   UNL     1       2.787 137.319 156.688  1.00  0.00     0.068 A 
ATOM     13  C   UNL     1       2.261 137.983 157.804  1.00  0.00     0.162 A 
ATOM     14  C   UNL     1       2.137 135.190 157.644  1.00  0.00     0.068 A 
ATOM     15  C   UNL     1       1.675 137.247 158.848  1.00  0.00     0.200 A 
ATOM     16  C   UNL     1       1.611 135.846 158.762  1.00  0.00     0.162 A 
BRANCH  13  17
ATOM     17  O   UNL     1       2.314 139.375 157.877  1.00  0.00    -0.504 OA
ATOM     18  H   UNL     1       3.091 139.898 157.490  1.00  0.00     0.293 HD
ENDBRANCH  13  17
BRANCH  15  19
ATOM     19  O   UNL     1       1.151 137.893 159.969  1.00  0.00    -0.502 OA
ATOM     20  H   UNL     1       1.712 138.500 160.554  1.00  0.00     0.293 HD
ENDBRANCH  15  19
BRANCH  16  21
ATOM     21  O   UNL     1       1.029 135.086 159.776  1.00  0.00    -0.504 OA
ATOM     22  H   UNL     1       1.545 134.373 160.279  1.00  0.00     0.293 HD
ENDBRANCH  16  21
ENDBRANCH   1  11
BRANCH  10  23
ATOM     23  O   UNL     1       4.505 137.147 154.637  1.00  0.00    -0.500 OA
ATOM     24  H   UNL     1       5.406 137.386 155.034  1.00  0.00     0.294 HD
ENDBRANCH  10  23
BRANCH   5  25
ATOM     25  O   UNL     1       2.999 129.696 153.071  1.00  0.00    -0.507 OA
ATOM     26  H   UNL     1       3.584 128.956 153.440  1.00  0.00     0.293 HD
ENDBRANCH   5  25
BRANCH   7  27
ATOM     27  O   UNL     1       5.403 133.383 151.114  1.00  0.00    -0.507 OA
ATOM     28  H   UNL     1       6.409 133.453 151.154  1.00  0.00     0.293 HD
ENDBRANCH   7  27
TORSDOF 7
ENDMDL
MODEL 2
REMARK VINA RESULT:    12.514      1.214      7.043
REMARK INTER + INTRA:          15.772
REMARK INTER:                  15.716
REMARK INTRA:                   0.056
REMARK UNBOUND:                 0.332
REMARK SMILES Oc1cc(O)c2cc(O)c(-c3cc(O)c(O)c(O)c3)[o+]c2c1
REMARK SMILES IDX 10 1 20 2 21 3 22 4 2 5 3 6 4 7 6 8 7 9 8 10 11 11 12 12
REMARK SMILES IDX 13 13 19 14 15 15 17 16 14 17 16 19 18 21 9 23 1 25 5 27
REMARK H PARENT 14 18 16 20 18 22 9 24 1 26 5 28
REMARK Flexibility Score: inf
ROOT
ATOM      1  C   UNL     1       3.468 134.866 154.517  1.00  0.00     0.402 A 
ATOM      2  O   UNL     1       2.826 134.436 155.600  1.00  0.00    -0.202 OA
ATOM      3  C   UNL     1       2.538 135.219 156.636  1.00  0.00     0.368 A 
ATOM      4  C   UNL     1       1.863 134.675 157.731  1.00  0.00     0.162 A 
ATOM      5  C   UNL     1       1.550 135.472 158.833  1.00  0.00     0.128 A 
ATOM      6  C   UNL     1       1.914 136.823 158.842  1.00  0.00     0.093 A 
ATOM      7  C   UNL     1       2.591 137.392 157.756  1.00  0.00     0.136 A 
ATOM      8  C   UNL     1       2.909 136.586 156.633  1.00  0.00     0.125 A 
ATOM      9  C   UNL     1       3.573 137.072 155.496  1.00  0.00     0.078 A 
ATOM     10  C   UNL     1       3.849 136.218 154.424  1.00  0.00     0.223 A 
ENDROOT
BRANCH   1  11
ATOM     11  C   UNL     1       3.741 133.894 153.434  1.00  0.00     0.091 A 
ATOM     12  C   UNL     1       2.759 132.989 152.997  1.00  0.00     0.068 A 
ATOM     13  C   UNL     1       3.030 132.092 151.955  1.00  0.00     0.162 A 
ATOM     14  C   UNL     1       4.988 133.911 152.791  1.00  0.00     0.068 A 
ATOM     15  C   UNL     1       4.289 132.101 151.331  1.00  0.00     0.200 A 
ATOM     16  C   UNL     1       5.268 133.018 151.751  1.00  0.00     0.162 A 
BRANCH  13  17
ATOM     17  O   UNL     1       2.049 131.194 151.533  1.00  0.00    -0.504 OA
ATOM     18  H   UNL     1       2.238 130.497 150.823  1.00  0.00     0.293 HD
ENDBRANCH  13  17
BRANCH  15  19
ATOM     19  O   UNL     1       4.578 131.211 150.296  1.00  0.00    -0.502 OA
ATOM     20  H   UNL     1       4.200 131.328 149.362  1.00  0.00     0.293 HD
ENDBRANCH  15  19
BRANCH  16  21
ATOM     21  O   UNL     1       6.525 133.058 151.148  1.00  0.00    -0.504 OA
ATOM     22  H   UNL     1       6.907 132.265 150.646  1.00  0.00     0.293 HD
ENDBRANCH  16  21
ENDBRANCH   1  11
BRANCH  10  23
ATOM     23  O   UNL     1       4.464 136.713 153.274  1.00  0.00    -0.500 OA
ATOM     24  H   UNL     1       4.044 136.607 152.358  1.00  0.00     0.294 HD
ENDBRANCH  10  23
BRANCH   5  25
ATOM     25  O   UNL     1       0.876 134.912 159.916  1.00  0.00    -0.507 OA
ATOM     26  H   UNL     1      -0.063 134.544 159.823  1.00  0.00     0.293 HD
ENDBRANCH   5  25
BRANCH   7  27
ATOM     27  O   UNL     1       2.923 138.747 157.843  1.00  0.00    -0.507 OA
ATOM     28  H   UNL     1       3.477 139.244 157.161  1.00  0.00     0.293 HD
ENDBRANCH   7  27
TORSDOF 7
ENDMDL
