MODEL 1
REMARK VINA RESULT:    -6.010      0.000      0.000
REMARK INTER + INTRA:          -7.546
REMARK INTER:                  -7.240
REMARK INTRA:                  -0.306
REMARK UNBOUND:                -0.306
REMARK SMILES O=c1c(O)c(-c2ccc(O)c(O)c2)oc2cc(O)cc(O)c12
REMARK SMILES IDX 5 1 3 2 2 3 1 4 22 5 20 6 19 7 17 8 16 9 15 10 14 11 6 12
REMARK SMILES IDX 7 13 8 14 9 15 13 16 11 17 10 18 12 20 4 22 21 24 18 26
REMARK H PARENT 10 19 12 21 4 23 21 25 18 27
REMARK Flexibility Score: inf
ROOT
ATOM      1  C   UNL     1     -18.539  -8.908   3.361  1.00  0.00     0.180 A 
ATOM      2  C   UNL     1     -18.999  -8.960   4.688  1.00  0.00     0.208 A 
ATOM      3  C   UNL     1     -18.345  -8.194   5.666  1.00  0.00     0.238 A 
ATOM      4  O   UNL     1     -18.795  -8.203   6.841  1.00  0.00    -0.285 OA
ATOM      5  C   UNL     1     -17.229  -7.400   5.308  1.00  0.00     0.111 A 
ATOM      6  C   UNL     1     -16.466  -6.615   6.225  1.00  0.00     0.134 A 
ATOM      7  C   UNL     1     -15.465  -5.765   5.739  1.00  0.00     0.093 A 
ATOM      8  C   UNL     1     -15.154  -5.721   4.381  1.00  0.00     0.123 A 
ATOM      9  C   UNL     1     -15.855  -6.528   3.483  1.00  0.00     0.094 A 
ATOM     10  C   UNL     1     -16.884  -7.358   3.933  1.00  0.00     0.146 A 
ATOM     11  O   UNL     1     -17.532  -8.103   3.045  1.00  0.00    -0.452 OA
ENDROOT
BRANCH   1  12
ATOM     12  C   UNL     1     -19.161  -9.706   2.280  1.00  0.00     0.025 A 
ATOM     13  C   UNL     1     -20.142  -9.155   1.435  1.00  0.00     0.016 A 
ATOM     14  C   UNL     1     -20.733  -9.934   0.437  1.00  0.00     0.051 A 
ATOM     15  C   UNL     1     -20.363 -11.276   0.276  1.00  0.00     0.157 A 
ATOM     16  C   UNL     1     -18.809 -11.057   2.127  1.00  0.00     0.062 A 
ATOM     17  C   UNL     1     -19.402 -11.839   1.125  1.00  0.00     0.158 A 
BRANCH  15  18
ATOM     18  O   UNL     1     -20.948 -12.056  -0.720  1.00  0.00    -0.504 OA
ATOM     19  H   UNL     1     -21.954 -12.087  -0.845  1.00  0.00     0.293 HD
ENDBRANCH  15  18
BRANCH  17  20
ATOM     20  O   UNL     1     -19.041 -13.176   0.967  1.00  0.00    -0.504 OA
ATOM     21  H   UNL     1     -18.323 -13.458   0.309  1.00  0.00     0.293 HD
ENDBRANCH  17  20
ENDBRANCH   1  12
BRANCH   2  22
ATOM     22  O   UNL     1     -20.115  -9.735   5.015  1.00  0.00    -0.502 OA
ATOM     23  H   UNL     1     -20.502 -10.426   4.384  1.00  0.00     0.293 HD
ENDBRANCH   2  22
BRANCH   6  24
ATOM     24  O   UNL     1     -16.632  -6.653   7.612  1.00  0.00    -0.507 OA
ATOM     25  H   UNL     1     -17.216  -6.022   8.139  1.00  0.00     0.293 HD
ENDBRANCH   6  24
BRANCH   8  26
ATOM     26  O   UNL     1     -14.141  -4.876   3.934  1.00  0.00    -0.508 OA
ATOM     27  H   UNL     1     -13.407  -4.553   4.554  1.00  0.00     0.293 HD
ENDBRANCH   8  26
TORSDOF 6
ENDMDL
MODEL 2
REMARK VINA RESULT:    -5.566      1.160      2.863
REMARK INTER + INTRA:          -7.011
REMARK INTER:                  -6.726
REMARK INTRA:                  -0.285
REMARK UNBOUND:                -0.306
REMARK SMILES O=c1c(O)c(-c2ccc(O)c(O)c2)oc2cc(O)cc(O)c12
REMARK SMILES IDX 5 1 3 2 2 3 1 4 22 5 20 6 19 7 17 8 16 9 15 10 14 11 6 12
REMARK SMILES IDX 7 13 8 14 9 15 13 16 11 17 10 18 12 20 4 22 21 24 18 26
REMARK H PARENT 10 19 12 21 4 23 21 25 18 27
REMARK Flexibility Score: inf
ROOT
ATOM      1  C   UNL     1     -17.888  -8.556   2.543  1.00  0.00     0.180 A 
ATOM      2  C   UNL     1     -17.006  -7.645   1.935  1.00  0.00     0.208 A 
ATOM      3  C   UNL     1     -16.241  -6.793   2.747  1.00  0.00     0.238 A 
ATOM      4  O   UNL     1     -15.414  -6.018   2.199  1.00  0.00    -0.285 OA
ATOM      5  C   UNL     1     -16.379  -6.850   4.154  1.00  0.00     0.111 A 
ATOM      6  C   UNL     1     -15.683  -6.005   5.071  1.00  0.00     0.134 A 
ATOM      7  C   UNL     1     -15.797  -6.238   6.448  1.00  0.00     0.093 A 
ATOM      8  C   UNL     1     -16.631  -7.239   6.941  1.00  0.00     0.123 A 
ATOM      9  C   UNL     1     -17.363  -8.032   6.055  1.00  0.00     0.094 A 
ATOM     10  C   UNL     1     -17.241  -7.848   4.676  1.00  0.00     0.146 A 
ATOM     11  O   UNL     1     -17.946  -8.630   3.867  1.00  0.00    -0.452 OA
ENDROOT
BRANCH   1  12
ATOM     12  C   UNL     1     -18.745  -9.469   1.754  1.00  0.00     0.025 A 
ATOM     13  C   UNL     1     -19.898  -9.004   1.096  1.00  0.00     0.016 A 
ATOM     14  C   UNL     1     -20.706  -9.890   0.377  1.00  0.00     0.051 A 
ATOM     15  C   UNL     1     -20.382 -11.251   0.317  1.00  0.00     0.157 A 
ATOM     16  C   UNL     1     -18.437 -10.839   1.707  1.00  0.00     0.062 A 
ATOM     17  C   UNL     1     -19.248 -11.727   0.985  1.00  0.00     0.158 A 
BRANCH  15  18
ATOM     18  O   UNL     1     -21.184 -12.137  -0.402  1.00  0.00    -0.504 OA
ATOM     19  H   UNL     1     -20.980 -13.129  -0.432  1.00  0.00     0.293 HD
ENDBRANCH  15  18
BRANCH  17  20
ATOM     20  O   UNL     1     -18.932 -13.083   0.928  1.00  0.00    -0.504 OA
ATOM     21  H   UNL     1     -19.361 -13.755   1.554  1.00  0.00     0.293 HD
ENDBRANCH  17  20
ENDBRANCH   1  12
BRANCH   2  22
ATOM     22  O   UNL     1     -16.870  -7.621   0.544  1.00  0.00    -0.502 OA
ATOM     23  H   UNL     1     -17.563  -8.021  -0.077  1.00  0.00     0.293 HD
ENDBRANCH   2  22
BRANCH   6  24
ATOM     24  O   UNL     1     -14.895  -4.916   4.686  1.00  0.00    -0.507 OA
ATOM     25  H   UNL     1     -15.128  -4.271   3.948  1.00  0.00     0.293 HD
ENDBRANCH   6  24
BRANCH   8  26
ATOM     26  O   UNL     1     -16.734  -7.432   8.317  1.00  0.00    -0.508 OA
ATOM     27  H   UNL     1     -17.633  -7.536   8.773  1.00  0.00     0.293 HD
ENDBRANCH   8  26
TORSDOF 6
ENDMDL
MODEL 3
REMARK VINA RESULT:    -5.536     13.118     14.215
REMARK INTER + INTRA:          -6.975
REMARK INTER:                  -6.739
REMARK INTRA:                  -0.236
REMARK UNBOUND:                -0.306
REMARK SMILES O=c1c(O)c(-c2ccc(O)c(O)c2)oc2cc(O)cc(O)c12
REMARK SMILES IDX 5 1 3 2 2 3 1 4 22 5 20 6 19 7 17 8 16 9 15 10 14 11 6 12
REMARK SMILES IDX 7 13 8 14 9 15 13 16 11 17 10 18 12 20 4 22 21 24 18 26
REMARK H PARENT 10 19 12 21 4 23 21 25 18 27
REMARK Flexibility Score: inf
ROOT
ATOM      1  C   UNL     1     -14.113 -18.072  13.481  1.00  0.00     0.180 A 
ATOM      2  C   UNL     1     -12.805 -18.386  13.890  1.00  0.00     0.208 A 
ATOM      3  C   UNL     1     -11.882 -17.345  14.075  1.00  0.00     0.238 A 
ATOM      4  O   UNL     1     -10.729 -17.628  14.493  1.00  0.00    -0.285 OA
ATOM      5  C   UNL     1     -12.272 -16.006  13.833  1.00  0.00     0.111 A 
ATOM      6  C   UNL     1     -11.406 -14.876  13.950  1.00  0.00     0.134 A 
ATOM      7  C   UNL     1     -11.933 -13.586  13.814  1.00  0.00     0.093 A 
ATOM      8  C   UNL     1     -13.277 -13.386  13.501  1.00  0.00     0.123 A 
ATOM      9  C   UNL     1     -14.119 -14.486  13.326  1.00  0.00     0.094 A 
ATOM     10  C   UNL     1     -13.631 -15.783  13.491  1.00  0.00     0.146 A 
ATOM     11  O   UNL     1     -14.467 -16.802  13.326  1.00  0.00    -0.452 OA
ENDROOT
BRANCH   1  12
ATOM     12  C   UNL     1     -15.136 -19.115  13.241  1.00  0.00     0.025 A 
ATOM     13  C   UNL     1     -16.194 -19.325  14.144  1.00  0.00     0.016 A 
ATOM     14  C   UNL     1     -17.133 -20.333  13.910  1.00  0.00     0.051 A 
ATOM     15  C   UNL     1     -17.023 -21.152  12.779  1.00  0.00     0.157 A 
ATOM     16  C   UNL     1     -15.019 -19.954  12.120  1.00  0.00     0.062 A 
ATOM     17  C   UNL     1     -15.962 -20.964  11.885  1.00  0.00     0.158 A 
BRANCH  15  18
ATOM     18  O   UNL     1     -17.959 -22.157  12.540  1.00  0.00    -0.504 OA
ATOM     19  H   UNL     1     -18.445 -22.619  13.301  1.00  0.00     0.293 HD
ENDBRANCH  15  18
BRANCH  17  20
ATOM     20  O   UNL     1     -15.851 -21.786  10.764  1.00  0.00    -0.504 OA
ATOM     21  H   UNL     1     -16.578 -22.448  10.517  1.00  0.00     0.293 HD
ENDBRANCH  17  20
ENDBRANCH   1  12
BRANCH   2  22
ATOM     22  O   UNL     1     -12.448 -19.713  14.144  1.00  0.00    -0.502 OA
ATOM     23  H   UNL     1     -11.720 -19.964  14.802  1.00  0.00     0.293 HD
ENDBRANCH   2  22
BRANCH   6  24
ATOM     24  O   UNL     1     -10.029 -14.967  14.169  1.00  0.00    -0.507 OA
ATOM     25  H   UNL     1      -9.323 -14.597  13.551  1.00  0.00     0.293 HD
ENDBRANCH   6  24
BRANCH   8  26
ATOM     26  O   UNL     1     -13.764 -12.089  13.358  1.00  0.00    -0.508 OA
ATOM     27  H   UNL     1     -13.159 -11.322  13.088  1.00  0.00     0.293 HD
ENDBRANCH   8  26
TORSDOF 6
ENDMDL
MODEL 4
REMARK VINA RESULT:    -5.526      1.477      2.240
REMARK INTER + INTRA:          -6.963
REMARK INTER:                  -6.640
REMARK INTRA:                  -0.323
REMARK UNBOUND:                -0.306
REMARK SMILES O=c1c(O)c(-c2ccc(O)c(O)c2)oc2cc(O)cc(O)c12
REMARK SMILES IDX 5 1 3 2 2 3 1 4 22 5 20 6 19 7 17 8 16 9 15 10 14 11 6 12
REMARK SMILES IDX 7 13 8 14 9 15 13 16 11 17 10 18 12 20 4 22 21 24 18 26
REMARK H PARENT 10 19 12 21 4 23 21 25 18 27
REMARK Flexibility Score: inf
ROOT
ATOM      1  C   UNL     1     -19.089 -10.551   2.234  1.00  0.00     0.180 A 
ATOM      2  C   UNL     1     -19.848 -10.628   3.415  1.00  0.00     0.208 A 
ATOM      3  C   UNL     1     -19.585  -9.722   4.454  1.00  0.00     0.238 A 
ATOM      4  O   UNL     1     -20.303  -9.762   5.486  1.00  0.00    -0.285 OA
ATOM      5  C   UNL     1     -18.555  -8.762   4.307  1.00  0.00     0.111 A 
ATOM      6  C   UNL     1     -18.175  -7.822   5.312  1.00  0.00     0.134 A 
ATOM      7  C   UNL     1     -17.232  -6.832   5.010  1.00  0.00     0.093 A 
ATOM      8  C   UNL     1     -16.608  -6.789   3.764  1.00  0.00     0.123 A 
ATOM      9  C   UNL     1     -16.928  -7.740   2.795  1.00  0.00     0.094 A 
ATOM     10  C   UNL     1     -17.892  -8.717   3.054  1.00  0.00     0.146 A 
ATOM     11  O   UNL     1     -18.175  -9.597   2.101  1.00  0.00    -0.452 OA
ENDROOT
BRANCH   1  12
ATOM     12  C   UNL     1     -19.291 -11.486   1.104  1.00  0.00     0.025 A 
ATOM     13  C   UNL     1     -20.234 -11.222   0.094  1.00  0.00     0.016 A 
ATOM     14  C   UNL     1     -20.425 -12.132  -0.949  1.00  0.00     0.051 A 
ATOM     15  C   UNL     1     -19.688 -13.322  -0.992  1.00  0.00     0.157 A 
ATOM     16  C   UNL     1     -18.570 -12.691   1.066  1.00  0.00     0.062 A 
ATOM     17  C   UNL     1     -18.761 -13.604   0.019  1.00  0.00     0.158 A 
BRANCH  15  18
ATOM     18  O   UNL     1     -19.874 -14.231  -2.033  1.00  0.00    -0.504 OA
ATOM     19  H   UNL     1     -19.266 -14.238  -2.844  1.00  0.00     0.293 HD
ENDBRANCH  15  18
BRANCH  17  20
ATOM     20  O   UNL     1     -18.034 -14.792  -0.024  1.00  0.00    -0.504 OA
ATOM     21  H   UNL     1     -17.028 -14.794  -0.144  1.00  0.00     0.293 HD
ENDBRANCH  17  20
ENDBRANCH   1  12
BRANCH   2  22
ATOM     22  O   UNL     1     -20.874 -11.571   3.530  1.00  0.00    -0.502 OA
ATOM     23  H   UNL     1     -20.737 -12.473   3.970  1.00  0.00     0.293 HD
ENDBRANCH   2  22
BRANCH   6  24
ATOM     24  O   UNL     1     -18.670  -7.833   6.619  1.00  0.00    -0.507 OA
ATOM     25  H   UNL     1     -19.081  -7.038   7.085  1.00  0.00     0.293 HD
ENDBRANCH   6  24
BRANCH   8  26
ATOM     26  O   UNL     1     -15.662  -5.800   3.503  1.00  0.00    -0.508 OA
ATOM     27  H   UNL     1     -15.183  -5.745   2.612  1.00  0.00     0.293 HD
ENDBRANCH   8  26
TORSDOF 6
ENDMDL
MODEL 5
REMARK VINA RESULT:    -5.413      2.813      6.966
REMARK INTER + INTRA:          -6.827
REMARK INTER:                  -6.521
REMARK INTRA:                  -0.306
REMARK UNBOUND:                -0.306
REMARK SMILES O=c1c(O)c(-c2ccc(O)c(O)c2)oc2cc(O)cc(O)c12
REMARK SMILES IDX 5 1 3 2 2 3 1 4 22 5 20 6 19 7 17 8 16 9 15 10 14 11 6 12
REMARK SMILES IDX 7 13 8 14 9 15 13 16 11 17 10 18 12 20 4 22 21 24 18 26
REMARK H PARENT 10 19 12 21 4 23 21 25 18 27
REMARK Flexibility Score: inf
ROOT
ATOM      1  C   UNL     1     -19.213 -10.094   3.599  1.00  0.00     0.180 A 
ATOM      2  C   UNL     1     -19.120  -9.213   2.508  1.00  0.00     0.208 A 
ATOM      3  C   UNL     1     -18.781  -9.725   1.245  1.00  0.00     0.238 A 
ATOM      4  O   UNL     1     -18.753  -8.939   0.263  1.00  0.00    -0.285 OA
ATOM      5  C   UNL     1     -18.523 -11.108   1.093  1.00  0.00     0.111 A 
ATOM      6  C   UNL     1     -18.131 -11.729  -0.132  1.00  0.00     0.134 A 
ATOM      7  C   UNL     1     -18.031 -13.125  -0.197  1.00  0.00     0.093 A 
ATOM      8  C   UNL     1     -18.241 -13.915   0.932  1.00  0.00     0.123 A 
ATOM      9  C   UNL     1     -18.565 -13.313   2.149  1.00  0.00     0.094 A 
ATOM     10  C   UNL     1     -18.710 -11.927   2.237  1.00  0.00     0.146 A 
ATOM     11  O   UNL     1     -19.029 -11.395   3.411  1.00  0.00    -0.452 OA
ENDROOT
BRANCH   1  12
ATOM     12  C   UNL     1     -19.541  -9.626   4.965  1.00  0.00     0.025 A 
ATOM     13  C   UNL     1     -20.859  -9.669   5.457  1.00  0.00     0.016 A 
ATOM     14  C   UNL     1     -21.149  -9.199   6.740  1.00  0.00     0.051 A 
ATOM     15  C   UNL     1     -20.133  -8.668   7.544  1.00  0.00     0.157 A 
ATOM     16  C   UNL     1     -18.531  -9.074   5.768  1.00  0.00     0.062 A 
ATOM     17  C   UNL     1     -18.822  -8.603   7.057  1.00  0.00     0.158 A 
BRANCH  15  18
ATOM     18  O   UNL     1     -20.418  -8.200   8.826  1.00  0.00    -0.504 OA
ATOM     19  H   UNL     1     -19.853  -7.481   9.264  1.00  0.00     0.293 HD
ENDBRANCH  15  18
BRANCH  17  20
ATOM     20  O   UNL     1     -17.814  -8.068   7.857  1.00  0.00    -0.504 OA
ATOM     21  H   UNL     1     -17.505  -7.108   7.751  1.00  0.00     0.293 HD
ENDBRANCH  17  20
ENDBRANCH   1  12
BRANCH   2  22
ATOM     22  O   UNL     1     -19.401  -7.854   2.677  1.00  0.00    -0.502 OA
ATOM     23  H   UNL     1     -20.324  -7.466   2.526  1.00  0.00     0.293 HD
ENDBRANCH   2  22
BRANCH   6  24
ATOM     24  O   UNL     1     -17.808 -11.026  -1.295  1.00  0.00    -0.507 OA
ATOM     25  H   UNL     1     -18.461 -10.481  -1.838  1.00  0.00     0.293 HD
ENDBRANCH   6  24
BRANCH   8  26
ATOM     26  O   UNL     1     -18.116 -15.299   0.835  1.00  0.00    -0.508 OA
ATOM     27  H   UNL     1     -18.814 -15.923   1.222  1.00  0.00     0.293 HD
ENDBRANCH   8  26
TORSDOF 6
ENDMDL
MODEL 6
REMARK VINA RESULT:    -5.387      2.443      4.618
REMARK INTER + INTRA:          -6.796
REMARK INTER:                  -6.549
REMARK INTRA:                  -0.247
REMARK UNBOUND:                -0.306
REMARK SMILES O=c1c(O)c(-c2ccc(O)c(O)c2)oc2cc(O)cc(O)c12
REMARK SMILES IDX 5 1 3 2 2 3 1 4 22 5 20 6 19 7 17 8 16 9 15 10 14 11 6 12
REMARK SMILES IDX 7 13 8 14 9 15 13 16 11 17 10 18 12 20 4 22 21 24 18 26
REMARK H PARENT 10 19 12 21 4 23 21 25 18 27
REMARK Flexibility Score: inf
ROOT
ATOM      1  C   UNL     1     -18.806 -11.076   1.030  1.00  0.00     0.180 A 
ATOM      2  C   UNL     1     -17.920 -10.033   0.706  1.00  0.00     0.208 A 
ATOM      3  C   UNL     1     -17.750  -8.977   1.615  1.00  0.00     0.238 A 
ATOM      4  O   UNL     1     -16.916  -8.074   1.343  1.00  0.00    -0.285 OA
ATOM      5  C   UNL     1     -18.478  -8.968   2.829  1.00  0.00     0.111 A 
ATOM      6  C   UNL     1     -18.413  -7.928   3.805  1.00  0.00     0.134 A 
ATOM      7  C   UNL     1     -19.076  -8.087   5.028  1.00  0.00     0.093 A 
ATOM      8  C   UNL     1     -19.853  -9.215   5.284  1.00  0.00     0.123 A 
ATOM      9  C   UNL     1     -19.971 -10.211   4.313  1.00  0.00     0.094 A 
ATOM     10  C   UNL     1     -19.292 -10.098   3.098  1.00  0.00     0.146 A 
ATOM     11  O   UNL     1     -19.424 -11.072   2.205  1.00  0.00    -0.452 OA
ENDROOT
BRANCH   1  12
ATOM     12  C   UNL     1     -19.057 -12.210   0.113  1.00  0.00     0.025 A 
ATOM     13  C   UNL     1     -18.509 -13.483   0.355  1.00  0.00     0.016 A 
ATOM     14  C   UNL     1     -18.740 -14.533  -0.538  1.00  0.00     0.051 A 
ATOM     15  C   UNL     1     -19.508 -14.324  -1.690  1.00  0.00     0.157 A 
ATOM     16  C   UNL     1     -19.809 -12.002  -1.055  1.00  0.00     0.062 A 
ATOM     17  C   UNL     1     -20.041 -13.056  -1.951  1.00  0.00     0.158 A 
BRANCH  15  18
ATOM     18  O   UNL     1     -19.742 -15.369  -2.582  1.00  0.00    -0.504 OA
ATOM     19  H   UNL     1     -19.003 -15.742  -3.167  1.00  0.00     0.293 HD
ENDBRANCH  15  18
BRANCH  17  20
ATOM     20  O   UNL     1     -20.800 -12.849  -3.101  1.00  0.00    -0.504 OA
ATOM     21  H   UNL     1     -20.661 -12.036  -3.690  1.00  0.00     0.293 HD
ENDBRANCH  17  20
ENDBRANCH   1  12
BRANCH   2  22
ATOM     22  O   UNL     1     -17.196 -10.072  -0.489  1.00  0.00    -0.502 OA
ATOM     23  H   UNL     1     -17.067 -10.926  -1.019  1.00  0.00     0.293 HD
ENDBRANCH   2  22
BRANCH   6  24
ATOM     24  O   UNL     1     -17.740  -6.718   3.613  1.00  0.00    -0.507 OA
ATOM     25  H   UNL     1     -16.737  -6.620   3.565  1.00  0.00     0.293 HD
ENDBRANCH   6  24
BRANCH   8  26
ATOM     26  O   UNL     1     -20.512  -9.333   6.506  1.00  0.00    -0.508 OA
ATOM     27  H   UNL     1     -21.424  -8.918   6.660  1.00  0.00     0.293 HD
ENDBRANCH   8  26
TORSDOF 6
ENDMDL
MODEL 7
REMARK VINA RESULT:    -5.376     15.634     17.806
REMARK INTER + INTRA:          -6.783
REMARK INTER:                  -6.523
REMARK INTRA:                  -0.260
REMARK UNBOUND:                -0.306
REMARK SMILES O=c1c(O)c(-c2ccc(O)c(O)c2)oc2cc(O)cc(O)c12
REMARK SMILES IDX 5 1 3 2 2 3 1 4 22 5 20 6 19 7 17 8 16 9 15 10 14 11 6 12
REMARK SMILES IDX 7 13 8 14 9 15 13 16 11 17 10 18 12 20 4 22 21 24 18 26
REMARK H PARENT 10 19 12 21 4 23 21 25 18 27
REMARK Flexibility Score: inf
ROOT
ATOM      1  C   UNL     1     -12.723 -21.260  12.711  1.00  0.00     0.180 A 
ATOM      2  C   UNL     1     -14.062 -21.282  12.283  1.00  0.00     0.208 A 
ATOM      3  C   UNL     1     -14.407 -22.060  11.167  1.00  0.00     0.238 A 
ATOM      4  O   UNL     1     -15.616 -22.118  10.822  1.00  0.00    -0.285 OA
ATOM      5  C   UNL     1     -13.408 -22.791  10.481  1.00  0.00     0.111 A 
ATOM      6  C   UNL     1     -13.639 -23.580   9.313  1.00  0.00     0.134 A 
ATOM      7  C   UNL     1     -12.602 -24.366   8.796  1.00  0.00     0.093 A 
ATOM      8  C   UNL     1     -11.328 -24.342   9.362  1.00  0.00     0.123 A 
ATOM      9  C   UNL     1     -11.077 -23.528  10.468  1.00  0.00     0.094 A 
ATOM     10  C   UNL     1     -12.100 -22.761  11.029  1.00  0.00     0.146 A 
ATOM     11  O   UNL     1     -11.821 -22.009  12.087  1.00  0.00    -0.452 OA
ENDROOT
BRANCH   1  12
ATOM     12  C   UNL     1     -12.277 -20.446  13.864  1.00  0.00     0.025 A 
ATOM     13  C   UNL     1     -12.008 -21.033  15.114  1.00  0.00     0.016 A 
ATOM     14  C   UNL     1     -11.612 -20.241  16.196  1.00  0.00     0.051 A 
ATOM     15  C   UNL     1     -11.492 -18.853  16.048  1.00  0.00     0.157 A 
ATOM     16  C   UNL     1     -12.175 -19.052  13.729  1.00  0.00     0.062 A 
ATOM     17  C   UNL     1     -11.777 -18.257  14.814  1.00  0.00     0.158 A 
BRANCH  15  18
ATOM     18  O   UNL     1     -11.095 -18.060  17.124  1.00  0.00    -0.504 OA
ATOM     19  H   UNL     1     -11.610 -17.227  17.385  1.00  0.00     0.293 HD
ENDBRANCH  15  18
BRANCH  17  20
ATOM     20  O   UNL     1     -11.663 -16.875  14.672  1.00  0.00    -0.504 OA
ATOM     21  H   UNL     1     -11.615 -16.261  15.477  1.00  0.00     0.293 HD
ENDBRANCH  17  20
ENDBRANCH   1  12
BRANCH   2  22
ATOM     22  O   UNL     1     -15.036 -20.569  12.988  1.00  0.00    -0.502 OA
ATOM     23  H   UNL     1     -15.632 -19.879  12.545  1.00  0.00     0.293 HD
ENDBRANCH   2  22
BRANCH   6  24
ATOM     24  O   UNL     1     -14.849 -23.605   8.614  1.00  0.00    -0.507 OA
ATOM     25  H   UNL     1     -15.746 -23.809   9.027  1.00  0.00     0.293 HD
ENDBRANCH   6  24
BRANCH   8  26
ATOM     26  O   UNL     1     -10.316 -25.124   8.811  1.00  0.00    -0.508 OA
ATOM     27  H   UNL     1      -9.410 -25.210   9.256  1.00  0.00     0.293 HD
ENDBRANCH   8  26
TORSDOF 6
ENDMDL
MODEL 8
REMARK VINA RESULT:    -5.335     14.888     16.967
REMARK INTER + INTRA:          -6.733
REMARK INTER:                  -6.433
REMARK INTRA:                  -0.300
REMARK UNBOUND:                -0.306
REMARK SMILES O=c1c(O)c(-c2ccc(O)c(O)c2)oc2cc(O)cc(O)c12
REMARK SMILES IDX 5 1 3 2 2 3 1 4 22 5 20 6 19 7 17 8 16 9 15 10 14 11 6 12
REMARK SMILES IDX 7 13 8 14 9 15 13 16 11 17 10 18 12 20 4 22 21 24 18 26
REMARK H PARENT 10 19 12 21 4 23 21 25 18 27
REMARK Flexibility Score: inf
ROOT
ATOM      1  C   UNL     1     -12.875 -19.546  14.032  1.00  0.00     0.180 A 
ATOM      2  C   UNL     1     -12.973 -20.895  13.647  1.00  0.00     0.208 A 
ATOM      3  C   UNL     1     -14.127 -21.331  12.977  1.00  0.00     0.238 A 
ATOM      4  O   UNL     1     -14.185 -22.526  12.588  1.00  0.00    -0.285 OA
ATOM      5  C   UNL     1     -15.177 -20.417  12.717  1.00  0.00     0.111 A 
ATOM      6  C   UNL     1     -16.409 -20.759  12.081  1.00  0.00     0.134 A 
ATOM      7  C   UNL     1     -17.321 -19.748  11.756  1.00  0.00     0.093 A 
ATOM      8  C   UNL     1     -17.077 -18.420  12.101  1.00  0.00     0.123 A 
ATOM      9  C   UNL     1     -15.902 -18.083  12.775  1.00  0.00     0.094 A 
ATOM     10  C   UNL     1     -14.957 -19.064  13.080  1.00  0.00     0.146 A 
ATOM     11  O   UNL     1     -13.848 -18.700  13.714  1.00  0.00    -0.452 OA
ENDROOT
BRANCH   1  12
ATOM     12  C   UNL     1     -11.701 -19.018  14.762  1.00  0.00     0.025 A 
ATOM     13  C   UNL     1     -11.734 -18.817  16.154  1.00  0.00     0.016 A 
ATOM     14  C   UNL     1     -10.621 -18.294  16.818  1.00  0.00     0.051 A 
ATOM     15  C   UNL     1      -9.467 -17.953  16.102  1.00  0.00     0.157 A 
ATOM     16  C   UNL     1     -10.547 -18.655  14.047  1.00  0.00     0.062 A 
ATOM     17  C   UNL     1      -9.431 -18.131  14.714  1.00  0.00     0.158 A 
BRANCH  15  18
ATOM     18  O   UNL     1      -8.354 -17.433  16.762  1.00  0.00    -0.504 OA
ATOM     19  H   UNL     1      -7.507 -17.978  16.880  1.00  0.00     0.293 HD
ENDBRANCH  15  18
BRANCH  17  20
ATOM     20  O   UNL     1      -8.283 -17.785  14.003  1.00  0.00    -0.504 OA
ATOM     21  H   UNL     1      -7.924 -16.837  14.003  1.00  0.00     0.293 HD
ENDBRANCH  17  20
ENDBRANCH   1  12
BRANCH   2  22
ATOM     22  O   UNL     1     -11.915 -21.775  13.896  1.00  0.00    -0.502 OA
ATOM     23  H   UNL     1     -10.983 -21.623  13.530  1.00  0.00     0.293 HD
ENDBRANCH   2  22
BRANCH   6  24
ATOM     24  O   UNL     1     -16.793 -22.068  11.776  1.00  0.00    -0.507 OA
ATOM     25  H   UNL     1     -17.093 -22.752  12.454  1.00  0.00     0.293 HD
ENDBRANCH   6  24
BRANCH   8  26
ATOM     26  O   UNL     1     -18.015 -17.441  11.776  1.00  0.00    -0.508 OA
ATOM     27  H   UNL     1     -18.523 -17.463  10.899  1.00  0.00     0.293 HD
ENDBRANCH   8  26
TORSDOF 6
ENDMDL
MODEL 9
REMARK VINA RESULT:    -5.316     11.832     14.089
REMARK INTER + INTRA:          -6.710
REMARK INTER:                  -6.524
REMARK INTRA:                  -0.186
REMARK UNBOUND:                -0.306
REMARK SMILES O=c1c(O)c(-c2ccc(O)c(O)c2)oc2cc(O)cc(O)c12
REMARK SMILES IDX 5 1 3 2 2 3 1 4 22 5 20 6 19 7 17 8 16 9 15 10 14 11 6 12
REMARK SMILES IDX 7 13 8 14 9 15 13 16 11 17 10 18 12 20 4 22 21 24 18 26
REMARK H PARENT 10 19 12 21 4 23 21 25 18 27
REMARK Flexibility Score: inf
ROOT
ATOM      1  C   UNL     1     -15.286 -16.617  12.418  1.00  0.00     0.180 A 
ATOM      2  C   UNL     1     -16.646 -16.834  12.136  1.00  0.00     0.208 A 
ATOM      3  C   UNL     1     -17.116 -18.152  12.020  1.00  0.00     0.238 A 
ATOM      4  O   UNL     1     -18.344 -18.340  11.821  1.00  0.00    -0.285 OA
ATOM      5  C   UNL     1     -16.217 -19.235  12.171  1.00  0.00     0.111 A 
ATOM      6  C   UNL     1     -16.576 -20.611  12.034  1.00  0.00     0.134 A 
ATOM      7  C   UNL     1     -15.635 -21.603  12.335  1.00  0.00     0.093 A 
ATOM      8  C   UNL     1     -14.332 -21.271  12.702  1.00  0.00     0.123 A 
ATOM      9  C   UNL     1     -13.953 -19.930  12.781  1.00  0.00     0.094 A 
ATOM     10  C   UNL     1     -14.880 -18.917  12.524  1.00  0.00     0.146 A 
ATOM     11  O   UNL     1     -14.482 -17.654  12.620  1.00  0.00    -0.452 OA
ENDROOT
BRANCH   1  12
ATOM     12  C   UNL     1     -14.712 -15.257  12.531  1.00  0.00     0.025 A 
ATOM     13  C   UNL     1     -14.262 -14.752  13.765  1.00  0.00     0.016 A 
ATOM     14  C   UNL     1     -13.747 -13.456  13.851  1.00  0.00     0.051 A 
ATOM     15  C   UNL     1     -13.685 -12.643  12.713  1.00  0.00     0.157 A 
ATOM     16  C   UNL     1     -14.666 -14.429  11.397  1.00  0.00     0.062 A 
ATOM     17  C   UNL     1     -14.148 -13.129  11.484  1.00  0.00     0.158 A 
BRANCH  15  18
ATOM     18  O   UNL     1     -13.169 -11.350  12.795  1.00  0.00    -0.504 OA
ATOM     19  H   UNL     1     -13.407 -10.641  12.110  1.00  0.00     0.293 HD
ENDBRANCH  15  18
BRANCH  17  20
ATOM     20  O   UNL     1     -14.091 -12.315  10.354  1.00  0.00    -0.504 OA
ATOM     21  H   UNL     1     -13.211 -11.952  10.005  1.00  0.00     0.293 HD
ENDBRANCH  17  20
ENDBRANCH   1  12
BRANCH   2  22
ATOM     22  O   UNL     1     -17.520 -15.750  12.012  1.00  0.00    -0.502 OA
ATOM     23  H   UNL     1     -17.382 -14.880  12.513  1.00  0.00     0.293 HD
ENDBRANCH   2  22
BRANCH   6  24
ATOM     24  O   UNL     1     -17.824 -21.051  11.585  1.00  0.00    -0.507 OA
ATOM     25  H   UNL     1     -18.476 -20.489  11.058  1.00  0.00     0.293 HD
ENDBRANCH   6  24
BRANCH   8  26
ATOM     26  O   UNL     1     -13.416 -22.285  12.978  1.00  0.00    -0.508 OA
ATOM     27  H   UNL     1     -13.266 -23.054  12.336  1.00  0.00     0.293 HD
ENDBRANCH   8  26
TORSDOF 6
ENDMDL
