MODEL 1
REMARK VINA RESULT:    -4.082      0.000      0.000
REMARK INTER + INTRA:          -4.082
REMARK INTER:                  -4.082
REMARK INTRA:                   0.000
REMARK UNBOUND:                 0.000
REMARK SMILES CC1=CC(=O)[C@@H]2C[C@H]1C2(C)C
REMARK SMILES IDX 1 1 2 2 3 3 4 4 5 5 6 6 7 7 8 8 9 9 10 10 11 11
REMARK H PARENT
REMARK Flexibility Score: inf
ROOT
ATOM      1  C   UNL     1      39.246  11.444 104.758  1.00  0.00     0.040 C 
ATOM      2  C   UNL     1      37.883  11.916 105.153  1.00  0.00    -0.066 C 
ATOM      3  C   UNL     1      36.955  12.265 104.217  1.00  0.00     0.047 C 
ATOM      4  C   UNL     1      35.617  12.692 104.738  1.00  0.00     0.159 C 
ATOM      5  O   UNL     1      34.666  13.001 103.973  1.00  0.00    -0.295 OA
ATOM      6  C   UNL     1      35.487  12.724 106.262  1.00  0.00     0.067 C 
ATOM      7  C   UNL     1      36.777  13.428 106.735  1.00  0.00     0.021 C 
ATOM      8  C   UNL     1      37.464  12.048 106.632  1.00  0.00     0.022 C 
ATOM      9  C   UNL     1      36.064  11.400 106.835  1.00  0.00    -0.019 C 
ATOM     10  C   UNL     1      35.716  11.204 108.332  1.00  0.00     0.012 C 
ATOM     11  C   UNL     1      35.754  10.072 106.086  1.00  0.00     0.012 C 
ENDROOT
TORSDOF 0
ENDMDL
MODEL 2
REMARK VINA RESULT:    -4.055      1.828      3.196
REMARK INTER + INTRA:          -4.055
REMARK INTER:                  -4.055
REMARK INTRA:                   0.000
REMARK UNBOUND:                 0.000
REMARK SMILES CC1=CC(=O)[C@@H]2C[C@H]1C2(C)C
REMARK SMILES IDX 1 1 2 2 3 3 4 4 5 5 6 6 7 7 8 8 9 9 10 10 11 11
REMARK H PARENT
REMARK Flexibility Score: inf
ROOT
ATOM      1  C   UNL     1      34.339  13.351 104.610  1.00  0.00     0.040 C 
ATOM      2  C   UNL     1      35.142  12.480 105.523  1.00  0.00    -0.066 C 
ATOM      3  C   UNL     1      34.759  11.203 105.803  1.00  0.00     0.047 C 
ATOM      4  C   UNL     1      35.665  10.423 106.706  1.00  0.00     0.159 C 
ATOM      5  O   UNL     1      35.440   9.221 107.009  1.00  0.00    -0.295 OA
ATOM      6  C   UNL     1      36.880  11.187 107.234  1.00  0.00     0.067 C 
ATOM      7  C   UNL     1      36.306  12.548 107.680  1.00  0.00     0.021 C 
ATOM      8  C   UNL     1      36.431  12.987 106.204  1.00  0.00     0.022 C 
ATOM      9  C   UNL     1      37.556  11.924 106.043  1.00  0.00    -0.019 C 
ATOM     10  C   UNL     1      38.953  12.483 106.412  1.00  0.00     0.012 C 
ATOM     11  C   UNL     1      37.673  11.179 104.683  1.00  0.00     0.012 C 
ENDROOT
TORSDOF 0
ENDMDL
MODEL 3
REMARK VINA RESULT:    -3.950      1.700      3.410
REMARK INTER + INTRA:          -3.950
REMARK INTER:                  -3.950
REMARK INTRA:                   0.000
REMARK UNBOUND:                 0.000
REMARK SMILES CC1=CC(=O)[C@@H]2C[C@H]1C2(C)C
REMARK SMILES IDX 1 1 2 2 3 3 4 4 5 5 6 6 7 7 8 8 9 9 10 10 11 11
REMARK H PARENT
REMARK Flexibility Score: inf
ROOT
ATOM      1  C   UNL     1      35.465   9.302 106.984  1.00  0.00     0.040 C 
ATOM      2  C   UNL     1      35.702  10.741 106.654  1.00  0.00    -0.066 C 
ATOM      3  C   UNL     1      36.399  11.556 107.495  1.00  0.00     0.047 C 
ATOM      4  C   UNL     1      36.595  12.969 107.037  1.00  0.00     0.159 C 
ATOM      5  O   UNL     1      37.254  13.807 107.707  1.00  0.00    -0.295 OA
ATOM      6  C   UNL     1      35.941  13.321 105.700  1.00  0.00     0.067 C 
ATOM      7  C   UNL     1      34.524  12.717 105.803  1.00  0.00     0.021 C 
ATOM      8  C   UNL     1      35.157  11.379 105.358  1.00  0.00     0.022 C 
ATOM      9  C   UNL     1      36.283  12.206 104.673  1.00  0.00    -0.019 C 
ATOM     10  C   UNL     1      35.920  12.609 103.222  1.00  0.00     0.012 C 
ATOM     11  C   UNL     1      37.725  11.621 104.670  1.00  0.00     0.012 C 
ENDROOT
TORSDOF 0
ENDMDL
MODEL 4
REMARK VINA RESULT:    -3.796      5.409      7.168
REMARK INTER + INTRA:          -3.796
REMARK INTER:                  -3.796
REMARK INTRA:                   0.000
REMARK UNBOUND:                 0.000
REMARK SMILES CC1=CC(=O)[C@@H]2C[C@H]1C2(C)C
REMARK SMILES IDX 1 1 2 2 3 3 4 4 5 5 6 6 7 7 8 8 9 9 10 10 11 11
REMARK H PARENT
REMARK Flexibility Score: inf
ROOT
ATOM      1  C   UNL     1      34.745   8.791 107.255  1.00  0.00     0.040 C 
ATOM      2  C   UNL     1      33.516   8.108 107.764  1.00  0.00    -0.066 C 
ATOM      3  C   UNL     1      32.615   8.763 108.549  1.00  0.00     0.047 C 
ATOM      4  C   UNL     1      31.409   7.979 108.970  1.00  0.00     0.159 C 
ATOM      5  O   UNL     1      30.488   8.484 109.663  1.00  0.00    -0.295 OA
ATOM      6  C   UNL     1      31.376   6.525 108.496  1.00  0.00     0.067 C 
ATOM      7  C   UNL     1      32.797   6.000 108.790  1.00  0.00     0.021 C 
ATOM      8  C   UNL     1      33.215   6.629 107.441  1.00  0.00     0.022 C 
ATOM      9  C   UNL     1      31.734   6.489 106.984  1.00  0.00    -0.019 C 
ATOM     10  C   UNL     1      31.443   5.109 106.341  1.00  0.00     0.012 C 
ATOM     11  C   UNL     1      31.145   7.591 106.058  1.00  0.00     0.012 C 
ENDROOT
TORSDOF 0
ENDMDL
MODEL 5
REMARK VINA RESULT:    -3.794      1.710      2.635
REMARK INTER + INTRA:          -3.794
REMARK INTER:                  -3.794
REMARK INTRA:                   0.000
REMARK UNBOUND:                 0.000
REMARK SMILES CC1=CC(=O)[C@@H]2C[C@H]1C2(C)C
REMARK SMILES IDX 1 1 2 2 3 3 4 4 5 5 6 6 7 7 8 8 9 9 10 10 11 11
REMARK H PARENT
REMARK Flexibility Score: inf
ROOT
ATOM      1  C   UNL     1      38.945  11.318 104.349  1.00  0.00     0.040 C 
ATOM      2  C   UNL     1      37.886  11.765 105.306  1.00  0.00    -0.066 C 
ATOM      3  C   UNL     1      38.101  12.794 106.172  1.00  0.00     0.047 C 
ATOM      4  C   UNL     1      36.952  13.167 107.057  1.00  0.00     0.159 C 
ATOM      5  O   UNL     1      37.014  14.125 107.872  1.00  0.00    -0.295 OA
ATOM      6  C   UNL     1      35.699  12.305 106.901  1.00  0.00     0.067 C 
ATOM      7  C   UNL     1      36.237  10.858 106.878  1.00  0.00     0.021 C 
ATOM      8  C   UNL     1      36.507  11.075 105.372  1.00  0.00     0.022 C 
ATOM      9  C   UNL     1      35.386  12.155 105.386  1.00  0.00    -0.019 C 
ATOM     10  C   UNL     1      33.982  11.553 105.129  1.00  0.00     0.012 C 
ATOM     11  C   UNL     1      35.556  13.401 104.470  1.00  0.00     0.012 C 
ENDROOT
TORSDOF 0
ENDMDL
MODEL 6
REMARK VINA RESULT:    -3.789      1.583      3.023
REMARK INTER + INTRA:          -3.789
REMARK INTER:                  -3.789
REMARK INTRA:                   0.000
REMARK UNBOUND:                 0.000
REMARK SMILES CC1=CC(=O)[C@@H]2C[C@H]1C2(C)C
REMARK SMILES IDX 1 1 2 2 3 3 4 4 5 5 6 6 7 7 8 8 9 9 10 10 11 11
REMARK H PARENT
REMARK Flexibility Score: inf
ROOT
ATOM      1  C   UNL     1      33.932  13.742 104.699  1.00  0.00     0.040 C 
ATOM      2  C   UNL     1      34.929  12.705 105.111  1.00  0.00    -0.066 C 
ATOM      3  C   UNL     1      36.062  12.484 104.387  1.00  0.00     0.047 C 
ATOM      4  C   UNL     1      36.996  11.441 104.921  1.00  0.00     0.159 C 
ATOM      5  O   UNL     1      38.092  11.172 104.364  1.00  0.00    -0.295 OA
ATOM      6  C   UNL     1      36.524  10.727 106.189  1.00  0.00     0.067 C 
ATOM      7  C   UNL     1      35.046  10.388 105.904  1.00  0.00     0.021 C 
ATOM      8  C   UNL     1      34.718  11.827 106.362  1.00  0.00     0.022 C 
ATOM      9  C   UNL     1      36.027  11.796 107.202  1.00  0.00    -0.019 C 
ATOM     10  C   UNL     1      35.806  11.209 108.619  1.00  0.00     0.012 C 
ATOM     11  C   UNL     1      36.839  13.115 107.344  1.00  0.00     0.012 C 
ENDROOT
TORSDOF 0
ENDMDL
MODEL 7
REMARK VINA RESULT:    -3.609      1.340      2.885
REMARK INTER + INTRA:          -3.609
REMARK INTER:                  -3.609
REMARK INTRA:                   0.000
REMARK UNBOUND:                 0.000
REMARK SMILES CC1=CC(=O)[C@@H]2C[C@H]1C2(C)C
REMARK SMILES IDX 1 1 2 2 3 3 4 4 5 5 6 6 7 7 8 8 9 9 10 10 11 11
REMARK H PARENT
REMARK Flexibility Score: inf
ROOT
ATOM      1  C   UNL     1      35.496   9.689 106.629  1.00  0.00     0.040 C 
ATOM      2  C   UNL     1      35.693  11.033 106.004  1.00  0.00    -0.066 C 
ATOM      3  C   UNL     1      34.651  11.895 105.834  1.00  0.00     0.047 C 
ATOM      4  C   UNL     1      34.982  13.223 105.225  1.00  0.00     0.159 C 
ATOM      5  O   UNL     1      34.114  14.118 105.052  1.00  0.00    -0.295 OA
ATOM      6  C   UNL     1      36.447  13.415 104.828  1.00  0.00     0.067 C 
ATOM      7  C   UNL     1      36.817  12.102 104.105  1.00  0.00     0.021 C 
ATOM      8  C   UNL     1      37.076  11.504 105.506  1.00  0.00     0.022 C 
ATOM      9  C   UNL     1      37.344  12.951 106.011  1.00  0.00    -0.019 C 
ATOM     10  C   UNL     1      38.824  13.375 105.830  1.00  0.00     0.012 C 
ATOM     11  C   UNL     1      36.907  13.317 107.458  1.00  0.00     0.012 C 
ENDROOT
TORSDOF 0
ENDMDL
MODEL 8
REMARK VINA RESULT:    -3.555      3.393      5.208
REMARK INTER + INTRA:          -3.555
REMARK INTER:                  -3.555
REMARK INTRA:                   0.000
REMARK UNBOUND:                 0.000
REMARK SMILES CC1=CC(=O)[C@@H]2C[C@H]1C2(C)C
REMARK SMILES IDX 1 1 2 2 3 3 4 4 5 5 6 6 7 7 8 8 9 9 10 10 11 11
REMARK H PARENT
REMARK Flexibility Score: inf
ROOT
ATOM      1  C   UNL     1      42.631  10.455 106.889  1.00  0.00     0.040 C 
ATOM      2  C   UNL     1      41.488  11.205 106.284  1.00  0.00    -0.066 C 
ATOM      3  C   UNL     1      40.446  11.644 107.045  1.00  0.00     0.047 C 
ATOM      4  C   UNL     1      39.377  12.410 106.327  1.00  0.00     0.159 C 
ATOM      5  O   UNL     1      38.385  12.901 106.926  1.00  0.00    -0.295 OA
ATOM      6  C   UNL     1      39.578  12.555 104.818  1.00  0.00     0.067 C 
ATOM      7  C   UNL     1      39.979  11.139 104.352  1.00  0.00     0.021 C 
ATOM      8  C   UNL     1      41.421  11.504 104.772  1.00  0.00     0.022 C 
ATOM      9  C   UNL     1      41.045  12.998 104.554  1.00  0.00    -0.019 C 
ATOM     10  C   UNL     1      41.268  13.456 103.090  1.00  0.00     0.012 C 
ATOM     11  C   UNL     1      41.678  14.059 105.498  1.00  0.00     0.012 C 
ENDROOT
TORSDOF 0
ENDMDL
MODEL 9
REMARK VINA RESULT:    -3.284      1.743      3.380
REMARK INTER + INTRA:          -3.284
REMARK INTER:                  -3.284
REMARK INTRA:                   0.000
REMARK UNBOUND:                 0.000
REMARK SMILES CC1=CC(=O)[C@@H]2C[C@H]1C2(C)C
REMARK SMILES IDX 1 1 2 2 3 3 4 4 5 5 6 6 7 7 8 8 9 9 10 10 11 11
REMARK H PARENT
REMARK Flexibility Score: inf
ROOT
ATOM      1  C   UNL     1      37.109  14.125 107.994  1.00  0.00     0.040 C 
ATOM      2  C   UNL     1      36.767  12.935 107.155  1.00  0.00    -0.066 C 
ATOM      3  C   UNL     1      36.223  11.813 107.705  1.00  0.00     0.047 C 
ATOM      4  C   UNL     1      35.897  10.701 106.756  1.00  0.00     0.159 C 
ATOM      5  O   UNL     1      35.357   9.629 107.136  1.00  0.00    -0.295 OA
ATOM      6  C   UNL     1      36.264  10.959 105.294  1.00  0.00     0.067 C 
ATOM      7  C   UNL     1      37.692  11.543 105.361  1.00  0.00     0.021 C 
ATOM      8  C   UNL     1      37.026  12.910 105.634  1.00  0.00     0.022 C 
ATOM      9  C   UNL     1      35.762  12.377 104.901  1.00  0.00    -0.019 C 
ATOM     10  C   UNL     1      35.820  12.620 103.371  1.00  0.00     0.012 C 
ATOM     11  C   UNL     1      34.367  12.835 105.414  1.00  0.00     0.012 C 
ENDROOT
TORSDOF 0
ENDMDL
