MODEL 1
REMARK VINA RESULT:    -2.962      0.000      0.000
REMARK INTER + INTRA:          -7.085
REMARK INTER:                  -5.214
REMARK INTRA:                  -1.871
REMARK UNBOUND:                -1.871
REMARK SMILES CCCCCCCCCCCCCCC(=O)[O-]
REMARK SMILES IDX 9 1 10 2 11 3 12 4 13 5 14 6 15 7 16 8 17 9 8 10 7 11 6 12
REMARK SMILES IDX 5 13 4 14 3 15 2 16 1 17
REMARK H PARENT
REMARK Flexibility Score: inf
ROOT
ATOM      1  C   UNL     1      -4.626  11.446  -5.388  1.00  0.00     0.000 C 
ENDROOT
BRANCH   1   2
ATOM      2  C   UNL     1      -4.091  10.559  -4.254  1.00  0.00     0.000 C 
BRANCH   2   3
ATOM      3  C   UNL     1      -3.030   9.557  -4.736  1.00  0.00     0.000 C 
BRANCH   3   4
ATOM      4  C   UNL     1      -3.263   9.103  -6.188  1.00  0.00     0.000 C 
BRANCH   4   5
ATOM      5  C   UNL     1      -3.115   7.583  -6.361  1.00  0.00     0.006 C 
BRANCH   5   6
ATOM      6  C   UNL     1      -3.316   7.134  -7.814  1.00  0.00     0.053 C 
BRANCH   6   7
ATOM      7  C   UNL     1      -2.110   6.394  -8.302  1.00  0.00     0.041 C 
ATOM      8  O   UNL     1      -2.039   5.143  -8.176  1.00  0.00    -0.550 OA
ATOM      9  O   UNL     1      -1.042   7.092  -8.851  1.00  0.00    -0.550 OA
ENDBRANCH   6   7
ENDBRANCH   5   6
ENDBRANCH   4   5
ENDBRANCH   3   4
ENDBRANCH   2   3
ENDBRANCH   1   2
BRANCH   1  10
ATOM     10  C   UNL     1      -5.998  12.034  -5.023  1.00  0.00     0.000 C 
BRANCH  10  11
ATOM     11  C   UNL     1      -7.086  11.691  -6.053  1.00  0.00    -0.000 C 
BRANCH  11  12
ATOM     12  C   UNL     1      -7.670  10.283  -5.848  1.00  0.00    -0.000 C 
BRANCH  12  13
ATOM     13  C   UNL     1      -7.116   9.257  -6.851  1.00  0.00    -0.000 C 
BRANCH  13  14
ATOM     14  C   UNL     1      -6.847   7.855  -6.271  1.00  0.00    -0.000 C 
BRANCH  14  15
ATOM     15  C   UNL     1      -6.486   7.860  -4.770  1.00  0.00    -0.000 C 
BRANCH  15  16
ATOM     16  C   UNL     1      -7.497   7.069  -3.926  1.00  0.00    -0.003 C 
ATOM     17  C   UNL     1      -8.382   6.191  -4.807  1.00  0.00     0.004 C 
ENDBRANCH  15  16
ENDBRANCH  14  15
ENDBRANCH  13  14
ENDBRANCH  12  13
ENDBRANCH  11  12
ENDBRANCH  10  11
ENDBRANCH   1  10
TORSDOF 13
ENDMDL
MODEL 2
REMARK VINA RESULT:    -2.945      6.100      7.790
REMARK INTER + INTRA:          -7.053
REMARK INTER:                  -6.139
REMARK INTRA:                  -0.914
REMARK UNBOUND:                -1.871
REMARK SMILES CCCCCCCCCCCCCCC(=O)[O-]
REMARK SMILES IDX 9 1 10 2 11 3 12 4 13 5 14 6 15 7 16 8 17 9 8 10 7 11 6 12
REMARK SMILES IDX 5 13 4 14 3 15 2 16 1 17
REMARK H PARENT
REMARK Flexibility Score: inf
ROOT
ATOM      1  C   UNL     1      -4.506  12.713  -3.357  1.00  0.00     0.000 C 
ENDROOT
BRANCH   1   2
ATOM      2  C   UNL     1      -3.929  12.313  -1.991  1.00  0.00     0.000 C 
BRANCH   2   3
ATOM      3  C   UNL     1      -4.712  12.921  -0.816  1.00  0.00     0.000 C 
BRANCH   3   4
ATOM      4  C   UNL     1      -6.008  13.616  -1.268  1.00  0.00     0.000 C 
BRANCH   4   5
ATOM      5  C   UNL     1      -6.698  14.378  -0.125  1.00  0.00     0.006 C 
BRANCH   5   6
ATOM      6  C   UNL     1      -6.079  14.071   1.245  1.00  0.00     0.053 C 
BRANCH   6   7
ATOM      7  C   UNL     1      -7.152  13.843   2.263  1.00  0.00     0.041 C 
ATOM      8  O   UNL     1      -6.891  13.237   3.335  1.00  0.00    -0.550 OA
ATOM      9  O   UNL     1      -8.453  14.258   2.006  1.00  0.00    -0.550 OA
ENDBRANCH   6   7
ENDBRANCH   5   6
ENDBRANCH   4   5
ENDBRANCH   3   4
ENDBRANCH   2   3
ENDBRANCH   1   2
BRANCH   1  10
ATOM     10  C   UNL     1      -4.609  11.494  -4.286  1.00  0.00     0.000 C 
BRANCH  10  11
ATOM     11  C   UNL     1      -3.593  10.393  -3.939  1.00  0.00    -0.000 C 
BRANCH  11  12
ATOM     12  C   UNL     1      -3.153   9.585  -5.172  1.00  0.00    -0.000 C 
BRANCH  12  13
ATOM     13  C   UNL     1      -3.895   8.244  -5.301  1.00  0.00    -0.000 C 
BRANCH  13  14
ATOM     14  C   UNL     1      -5.114   8.259  -6.244  1.00  0.00    -0.000 C 
BRANCH  14  15
ATOM     15  C   UNL     1      -6.444   8.601  -5.538  1.00  0.00    -0.000 C 
BRANCH  15  16
ATOM     16  C   UNL     1      -6.796   7.586  -4.439  1.00  0.00    -0.003 C 
ATOM     17  C   UNL     1      -8.046   6.791  -4.805  1.00  0.00     0.004 C 
ENDBRANCH  15  16
ENDBRANCH  14  15
ENDBRANCH  13  14
ENDBRANCH  12  13
ENDBRANCH  11  12
ENDBRANCH  10  11
ENDBRANCH   1  10
TORSDOF 13
ENDMDL
MODEL 3
REMARK VINA RESULT:    -2.922      3.244      5.427
REMARK INTER + INTRA:          -7.013
REMARK INTER:                  -5.438
REMARK INTRA:                  -1.574
REMARK UNBOUND:                -1.871
REMARK SMILES CCCCCCCCCCCCCCC(=O)[O-]
REMARK SMILES IDX 9 1 10 2 11 3 12 4 13 5 14 6 15 7 16 8 17 9 8 10 7 11 6 12
REMARK SMILES IDX 5 13 4 14 3 15 2 16 1 17
REMARK H PARENT
REMARK Flexibility Score: inf
ROOT
ATOM      1  C   UNL     1      -4.703   8.931  -6.022  1.00  0.00     0.000 C 
ENDROOT
BRANCH   1   2
ATOM      2  C   UNL     1      -3.516   7.957  -6.009  1.00  0.00     0.000 C 
BRANCH   2   3
ATOM      3  C   UNL     1      -2.327   8.460  -6.844  1.00  0.00     0.000 C 
BRANCH   3   4
ATOM      4  C   UNL     1      -2.579   9.853  -7.448  1.00  0.00     0.000 C 
BRANCH   4   5
ATOM      5  C   UNL     1      -1.615  10.917  -6.898  1.00  0.00     0.006 C 
BRANCH   5   6
ATOM      6  C   UNL     1      -0.772  10.399  -5.725  1.00  0.00     0.053 C 
BRANCH   6   7
ATOM      7  C   UNL     1       0.670  10.740  -5.929  1.00  0.00     0.041 C 
ATOM      8  O   UNL     1       1.139  10.845  -7.092  1.00  0.00    -0.550 OA
ATOM      9  O   UNL     1       1.509  10.895  -4.832  1.00  0.00    -0.550 OA
ENDBRANCH   6   7
ENDBRANCH   5   6
ENDBRANCH   4   5
ENDBRANCH   3   4
ENDBRANCH   2   3
ENDBRANCH   1   2
BRANCH   1  10
ATOM     10  C   UNL     1      -4.947   9.515  -4.621  1.00  0.00     0.000 C 
BRANCH  10  11
ATOM     11  C   UNL     1      -4.408  10.947  -4.471  1.00  0.00    -0.000 C 
BRANCH  11  12
ATOM     12  C   UNL     1      -3.580  11.134  -3.187  1.00  0.00    -0.000 C 
BRANCH  12  13
ATOM     13  C   UNL     1      -2.887  12.506  -3.120  1.00  0.00    -0.000 C 
BRANCH  13  14
ATOM     14  C   UNL     1      -2.986  13.222  -1.759  1.00  0.00    -0.000 C 
BRANCH  14  15
ATOM     15  C   UNL     1      -3.693  12.391  -0.667  1.00  0.00    -0.000 C 
BRANCH  15  16
ATOM     16  C   UNL     1      -4.918  13.115  -0.087  1.00  0.00    -0.003 C 
ATOM     17  C   UNL     1      -5.830  13.628  -1.197  1.00  0.00     0.004 C 
ENDBRANCH  15  16
ENDBRANCH  14  15
ENDBRANCH  13  14
ENDBRANCH  12  13
ENDBRANCH  11  12
ENDBRANCH  10  11
ENDBRANCH   1  10
TORSDOF 13
ENDMDL
MODEL 4
REMARK VINA RESULT:    -2.907      4.394      6.194
REMARK INTER + INTRA:          -6.987
REMARK INTER:                  -5.426
REMARK INTRA:                  -1.561
REMARK UNBOUND:                -1.871
REMARK SMILES CCCCCCCCCCCCCCC(=O)[O-]
REMARK SMILES IDX 9 1 10 2 11 3 12 4 13 5 14 6 15 7 16 8 17 9 8 10 7 11 6 12
REMARK SMILES IDX 5 13 4 14 3 15 2 16 1 17
REMARK H PARENT
REMARK Flexibility Score: inf
ROOT
ATOM      1  C   UNL     1      -1.483  10.787  -5.289  1.00  0.00     0.000 C 
ENDROOT
BRANCH   1   2
ATOM      2  C   UNL     1      -2.546  11.231  -4.273  1.00  0.00     0.000 C 
BRANCH   2   3
ATOM      3  C   UNL     1      -3.808  11.796  -4.945  1.00  0.00     0.000 C 
BRANCH   3   4
ATOM      4  C   UNL     1      -4.851  12.283  -3.925  1.00  0.00     0.000 C 
BRANCH   4   5
ATOM      5  C   UNL     1      -4.211  12.980  -2.713  1.00  0.00     0.006 C 
BRANCH   5   6
ATOM      6  C   UNL     1      -5.221  13.260  -1.593  1.00  0.00     0.053 C 
BRANCH   6   7
ATOM      7  C   UNL     1      -4.631  12.918  -0.261  1.00  0.00     0.041 C 
ATOM      8  O   UNL     1      -3.541  12.291  -0.193  1.00  0.00    -0.550 OA
ATOM      9  O   UNL     1      -5.309  13.249   0.905  1.00  0.00    -0.550 OA
ENDBRANCH   6   7
ENDBRANCH   5   6
ENDBRANCH   4   5
ENDBRANCH   3   4
ENDBRANCH   2   3
ENDBRANCH   1   2
BRANCH   1  10
ATOM     10  C   UNL     1      -2.111  10.560  -6.673  1.00  0.00     0.000 C 
BRANCH  10  11
ATOM     11  C   UNL     1      -1.989   9.103  -7.151  1.00  0.00    -0.000 C 
BRANCH  11  12
ATOM     12  C   UNL     1      -3.313   8.329  -7.025  1.00  0.00    -0.000 C 
BRANCH  12  13
ATOM     13  C   UNL     1      -3.540   7.763  -5.613  1.00  0.00    -0.000 C 
BRANCH  13  14
ATOM     14  C   UNL     1      -4.787   8.301  -4.886  1.00  0.00    -0.000 C 
BRANCH  14  15
ATOM     15  C   UNL     1      -5.894   8.805  -5.836  1.00  0.00    -0.000 C 
BRANCH  15  16
ATOM     16  C   UNL     1      -7.235   8.094  -5.596  1.00  0.00    -0.003 C 
ATOM     17  C   UNL     1      -7.219   7.319  -4.282  1.00  0.00     0.004 C 
ENDBRANCH  15  16
ENDBRANCH  14  15
ENDBRANCH  13  14
ENDBRANCH  12  13
ENDBRANCH  11  12
ENDBRANCH  10  11
ENDBRANCH   1  10
TORSDOF 13
ENDMDL
MODEL 5
REMARK VINA RESULT:    -2.906      3.049      5.403
REMARK INTER + INTRA:          -6.986
REMARK INTER:                  -4.774
REMARK INTRA:                  -2.211
REMARK UNBOUND:                -1.871
REMARK SMILES CCCCCCCCCCCCCCC(=O)[O-]
REMARK SMILES IDX 9 1 10 2 11 3 12 4 13 5 14 6 15 7 16 8 17 9 8 10 7 11 6 12
REMARK SMILES IDX 5 13 4 14 3 15 2 16 1 17
REMARK H PARENT
REMARK Flexibility Score: inf
ROOT
ATOM      1  C   UNL     1      -2.623   8.815  -6.285  1.00  0.00     0.000 C 
ENDROOT
BRANCH   1   2
ATOM      2  C   UNL     1      -3.863   8.014  -5.861  1.00  0.00     0.000 C 
BRANCH   2   3
ATOM      3  C   UNL     1      -4.980   8.049  -6.917  1.00  0.00     0.000 C 
BRANCH   3   4
ATOM      4  C   UNL     1      -6.379   8.186  -6.292  1.00  0.00     0.000 C 
BRANCH   4   5
ATOM      5  C   UNL     1      -6.380   7.902  -4.781  1.00  0.00     0.006 C 
BRANCH   5   6
ATOM      6  C   UNL     1      -7.784   7.606  -4.238  1.00  0.00     0.053 C 
BRANCH   6   7
ATOM      7  C   UNL     1      -7.969   6.134  -4.046  1.00  0.00     0.041 C 
ATOM      8  O   UNL     1      -7.558   5.575  -2.996  1.00  0.00    -0.550 OA
ATOM      9  O   UNL     1      -8.553   5.371  -5.050  1.00  0.00    -0.550 OA
ENDBRANCH   6   7
ENDBRANCH   5   6
ENDBRANCH   4   5
ENDBRANCH   3   4
ENDBRANCH   2   3
ENDBRANCH   1   2
BRANCH   1  10
ATOM     10  C   UNL     1      -2.340   9.952  -5.291  1.00  0.00     0.000 C 
BRANCH  10  11
ATOM     11  C   UNL     1      -3.401  10.053  -4.183  1.00  0.00    -0.000 C 
BRANCH  11  12
ATOM     12  C   UNL     1      -3.469  11.457  -3.558  1.00  0.00    -0.000 C 
BRANCH  12  13
ATOM     13  C   UNL     1      -4.807  12.165  -3.830  1.00  0.00    -0.000 C 
BRANCH  13  14
ATOM     14  C   UNL     1      -5.608  11.612  -5.025  1.00  0.00    -0.000 C 
BRANCH  14  15
ATOM     15  C   UNL     1      -5.496  12.472  -6.302  1.00  0.00    -0.000 C 
BRANCH  15  16
ATOM     16  C   UNL     1      -5.471  11.616  -7.578  1.00  0.00    -0.003 C 
ATOM     17  C   UNL     1      -4.078  11.597  -8.200  1.00  0.00     0.004 C 
ENDBRANCH  15  16
ENDBRANCH  14  15
ENDBRANCH  13  14
ENDBRANCH  12  13
ENDBRANCH  11  12
ENDBRANCH  10  11
ENDBRANCH   1  10
TORSDOF 13
ENDMDL
MODEL 6
REMARK VINA RESULT:    -2.895      3.317      5.505
REMARK INTER + INTRA:          -6.965
REMARK INTER:                  -5.773
REMARK INTRA:                  -1.193
REMARK UNBOUND:                -1.871
REMARK SMILES CCCCCCCCCCCCCCC(=O)[O-]
REMARK SMILES IDX 9 1 10 2 11 3 12 4 13 5 14 6 15 7 16 8 17 9 8 10 7 11 6 12
REMARK SMILES IDX 5 13 4 14 3 15 2 16 1 17
REMARK H PARENT
REMARK Flexibility Score: inf
ROOT
ATOM      1  C   UNL     1      -0.763   9.845  -6.492  1.00  0.00     0.000 C 
ENDROOT
BRANCH   1   2
ATOM      2  C   UNL     1      -2.144   9.560  -7.100  1.00  0.00     0.000 C 
BRANCH   2   3
ATOM      3  C   UNL     1      -2.593   8.105  -6.894  1.00  0.00     0.000 C 
BRANCH   3   4
ATOM      4  C   UNL     1      -3.513   7.938  -5.672  1.00  0.00     0.000 C 
BRANCH   4   5
ATOM      5  C   UNL     1      -4.977   8.290  -5.983  1.00  0.00     0.006 C 
BRANCH   5   6
ATOM      6  C   UNL     1      -5.836   8.407  -4.718  1.00  0.00     0.053 C 
BRANCH   6   7
ATOM      7  C   UNL     1      -6.995   7.461  -4.785  1.00  0.00     0.041 C 
ATOM      8  O   UNL     1      -7.418   6.902  -3.740  1.00  0.00    -0.550 OA
ATOM      9  O   UNL     1      -7.576   7.161  -6.010  1.00  0.00    -0.550 OA
ENDBRANCH   6   7
ENDBRANCH   5   6
ENDBRANCH   4   5
ENDBRANCH   3   4
ENDBRANCH   2   3
ENDBRANCH   1   2
BRANCH   1  10
ATOM     10  C   UNL     1      -0.869  10.856  -5.340  1.00  0.00     0.000 C 
BRANCH  10  11
ATOM     11  C   UNL     1      -2.233  11.564  -5.293  1.00  0.00    -0.000 C 
BRANCH  11  12
ATOM     12  C   UNL     1      -2.956  11.363  -3.950  1.00  0.00    -0.000 C 
BRANCH  12  13
ATOM     13  C   UNL     1      -4.484  11.496  -4.071  1.00  0.00    -0.000 C 
BRANCH  13  14
ATOM     14  C   UNL     1      -5.091  12.721  -3.360  1.00  0.00    -0.000 C 
BRANCH  14  15
ATOM     15  C   UNL     1      -4.623  12.889  -1.899  1.00  0.00    -0.000 C 
BRANCH  15  16
ATOM     16  C   UNL     1      -5.644  13.658  -1.045  1.00  0.00    -0.003 C 
ATOM     17  C   UNL     1      -5.453  13.361   0.439  1.00  0.00     0.004 C 
ENDBRANCH  15  16
ENDBRANCH  14  15
ENDBRANCH  13  14
ENDBRANCH  12  13
ENDBRANCH  11  12
ENDBRANCH  10  11
ENDBRANCH   1  10
TORSDOF 13
ENDMDL
MODEL 7
REMARK VINA RESULT:    -2.835     10.719     13.421
REMARK INTER + INTRA:          -6.861
REMARK INTER:                  -5.087
REMARK INTRA:                  -1.774
REMARK UNBOUND:                -1.871
REMARK SMILES CCCCCCCCCCCCCCC(=O)[O-]
REMARK SMILES IDX 9 1 10 2 11 3 12 4 13 5 14 6 15 7 16 8 17 9 8 10 7 11 6 12
REMARK SMILES IDX 5 13 4 14 3 15 2 16 1 17
REMARK H PARENT
REMARK Flexibility Score: inf
ROOT
ATOM      1  C   UNL     1       8.920   8.988  -1.813  1.00  0.00     0.000 C 
ENDROOT
BRANCH   1   2
ATOM      2  C   UNL     1       7.486   8.457  -1.952  1.00  0.00     0.000 C 
BRANCH   2   3
ATOM      3  C   UNL     1       6.499   9.535  -2.430  1.00  0.00     0.000 C 
BRANCH   3   4
ATOM      4  C   UNL     1       6.431   9.633  -3.964  1.00  0.00     0.000 C 
BRANCH   4   5
ATOM      5  C   UNL     1       5.907   8.342  -4.615  1.00  0.00     0.006 C 
BRANCH   5   6
ATOM      6  C   UNL     1       5.143   8.608  -5.918  1.00  0.00     0.053 C 
BRANCH   6   7
ATOM      7  C   UNL     1       3.770   8.017  -5.847  1.00  0.00     0.041 C 
ATOM      8  O   UNL     1       3.306   7.621  -4.746  1.00  0.00    -0.550 OA
ATOM      9  O   UNL     1       3.022   7.857  -7.007  1.00  0.00    -0.550 OA
ENDBRANCH   6   7
ENDBRANCH   5   6
ENDBRANCH   4   5
ENDBRANCH   3   4
ENDBRANCH   2   3
ENDBRANCH   1   2
BRANCH   1  10
ATOM     10  C   UNL     1       9.603   8.400  -0.569  1.00  0.00     0.000 C 
BRANCH  10  11
ATOM     11  C   UNL     1       9.219   6.934  -0.315  1.00  0.00    -0.000 C 
BRANCH  11  12
ATOM     12  C   UNL     1       8.852   6.666   1.155  1.00  0.00    -0.000 C 
BRANCH  12  13
ATOM     13  C   UNL     1       8.250   7.898   1.852  1.00  0.00    -0.000 C 
BRANCH  13  14
ATOM     14  C   UNL     1       6.713   7.993   1.799  1.00  0.00    -0.000 C 
BRANCH  14  15
ATOM     15  C   UNL     1       6.188   9.383   1.379  1.00  0.00    -0.000 C 
BRANCH  15  16
ATOM     16  C   UNL     1       7.284  10.459   1.432  1.00  0.00    -0.003 C 
ATOM     17  C   UNL     1       6.934  11.645   0.539  1.00  0.00     0.004 C 
ENDBRANCH  15  16
ENDBRANCH  14  15
ENDBRANCH  13  14
ENDBRANCH  12  13
ENDBRANCH  11  12
ENDBRANCH  10  11
ENDBRANCH   1  10
TORSDOF 13
ENDMDL
MODEL 8
REMARK VINA RESULT:    -2.826      5.005      6.800
REMARK INTER + INTRA:          -6.845
REMARK INTER:                  -5.434
REMARK INTRA:                  -1.412
REMARK UNBOUND:                -1.871
REMARK SMILES CCCCCCCCCCCCCCC(=O)[O-]
REMARK SMILES IDX 9 1 10 2 11 3 12 4 13 5 14 6 15 7 16 8 17 9 8 10 7 11 6 12
REMARK SMILES IDX 5 13 4 14 3 15 2 16 1 17
REMARK H PARENT
REMARK Flexibility Score: inf
ROOT
ATOM      1  C   UNL     1      -4.690  12.700  -6.275  1.00  0.00     0.000 C 
ENDROOT
BRANCH   1   2
ATOM      2  C   UNL     1      -5.390  12.087  -5.054  1.00  0.00     0.000 C 
BRANCH   2   3
ATOM      3  C   UNL     1      -5.140  12.887  -3.765  1.00  0.00     0.000 C 
BRANCH   3   4
ATOM      4  C   UNL     1      -4.295  12.106  -2.742  1.00  0.00     0.000 C 
BRANCH   4   5
ATOM      5  C   UNL     1      -4.049  12.903  -1.450  1.00  0.00     0.006 C 
BRANCH   5   6
ATOM      6  C   UNL     1      -5.351  13.394  -0.804  1.00  0.00     0.053 C 
BRANCH   6   7
ATOM      7  C   UNL     1      -5.130  13.707   0.643  1.00  0.00     0.041 C 
ATOM      8  O   UNL     1      -4.065  14.267   1.015  1.00  0.00    -0.550 OA
ATOM      9  O   UNL     1      -6.078  13.335   1.586  1.00  0.00    -0.550 OA
ENDBRANCH   6   7
ENDBRANCH   5   6
ENDBRANCH   4   5
ENDBRANCH   3   4
ENDBRANCH   2   3
ENDBRANCH   1   2
BRANCH   1  10
ATOM     10  C   UNL     1      -3.578  11.773  -6.791  1.00  0.00     0.000 C 
BRANCH  10  11
ATOM     11  C   UNL     1      -2.399  11.654  -5.812  1.00  0.00    -0.000 C 
BRANCH  11  12
ATOM     12  C   UNL     1      -2.217  10.223  -5.278  1.00  0.00    -0.000 C 
BRANCH  12  13
ATOM     13  C   UNL     1      -2.548   9.149  -6.328  1.00  0.00    -0.000 C 
BRANCH  13  14
ATOM     14  C   UNL     1      -3.616   8.124  -5.900  1.00  0.00    -0.000 C 
BRANCH  14  15
ATOM     15  C   UNL     1      -4.635   8.675  -4.880  1.00  0.00    -0.000 C 
BRANCH  15  16
ATOM     16  C   UNL     1      -6.087   8.469  -5.338  1.00  0.00    -0.003 C 
ATOM     17  C   UNL     1      -6.820   7.494  -4.422  1.00  0.00     0.004 C 
ENDBRANCH  15  16
ENDBRANCH  14  15
ENDBRANCH  13  14
ENDBRANCH  12  13
ENDBRANCH  11  12
ENDBRANCH  10  11
ENDBRANCH   1  10
TORSDOF 13
ENDMDL
MODEL 9
REMARK VINA RESULT:    -2.823     12.414     14.675
REMARK INTER + INTRA:          -6.839
REMARK INTER:                  -4.927
REMARK INTRA:                  -1.912
REMARK UNBOUND:                -1.871
REMARK SMILES CCCCCCCCCCCCCCC(=O)[O-]
REMARK SMILES IDX 9 1 10 2 11 3 12 4 13 5 14 6 15 7 16 8 17 9 8 10 7 11 6 12
REMARK SMILES IDX 5 13 4 14 3 15 2 16 1 17
REMARK H PARENT
REMARK Flexibility Score: inf
ROOT
ATOM      1  C   UNL     1       6.901  10.555   1.763  1.00  0.00     0.000 C 
ENDROOT
BRANCH   1   2
ATOM      2  C   UNL     1       6.332   9.163   1.453  1.00  0.00     0.000 C 
BRANCH   2   3
ATOM      3  C   UNL     1       7.310   8.031   1.811  1.00  0.00     0.000 C 
BRANCH   3   4
ATOM      4  C   UNL     1       8.724   8.550   2.122  1.00  0.00     0.000 C 
BRANCH   4   5
ATOM      5  C   UNL     1       9.823   7.676   1.497  1.00  0.00     0.006 C 
BRANCH   5   6
ATOM      6  C   UNL     1       9.779   6.226   1.998  1.00  0.00     0.053 C 
BRANCH   6   7
ATOM      7  C   UNL     1       9.646   5.280   0.846  1.00  0.00     0.041 C 
ATOM      8  O   UNL     1       9.788   5.695  -0.334  1.00  0.00    -0.550 OA
ATOM      9  O   UNL     1       9.316   3.951   1.074  1.00  0.00    -0.550 OA
ENDBRANCH   6   7
ENDBRANCH   5   6
ENDBRANCH   4   5
ENDBRANCH   3   4
ENDBRANCH   2   3
ENDBRANCH   1   2
BRANCH   1  10
ATOM     10  C   UNL     1       6.657  11.519   0.591  1.00  0.00     0.000 C 
BRANCH  10  11
ATOM     11  C   UNL     1       7.940  11.840  -0.192  1.00  0.00    -0.000 C 
BRANCH  11  12
ATOM     12  C   UNL     1       8.017  11.088  -1.532  1.00  0.00    -0.000 C 
BRANCH  12  13
ATOM     13  C   UNL     1       8.886   9.821  -1.455  1.00  0.00    -0.000 C 
BRANCH  13  14
ATOM     14  C   UNL     1       8.157   8.507  -1.796  1.00  0.00    -0.000 C 
BRANCH  14  15
ATOM     15  C   UNL     1       6.791   8.712  -2.484  1.00  0.00    -0.000 C 
BRANCH  15  16
ATOM     16  C   UNL     1       6.776   8.170  -3.922  1.00  0.00    -0.003 C 
ATOM     17  C   UNL     1       5.393   8.312  -4.549  1.00  0.00     0.004 C 
ENDBRANCH  15  16
ENDBRANCH  14  15
ENDBRANCH  13  14
ENDBRANCH  12  13
ENDBRANCH  11  12
ENDBRANCH  10  11
ENDBRANCH   1  10
TORSDOF 13
ENDMDL
