MODEL 1
REMARK VINA RESULT:    -3.700      0.000      0.000
REMARK INTER + INTRA:          -4.858
REMARK INTER:                  -4.673
REMARK INTRA:                  -0.185
REMARK UNBOUND:                -0.185
REMARK SMILES CSCC[C@@H]([NH3+])C(=O)[O-]
REMARK SMILES IDX 4 1 5 2 6 3 7 7 8 8 9 9 3 10 2 11 1 12
REMARK H PARENT 6 4 6 5 6 6
REMARK Flexibility Score: inf
ROOT
ATOM      1  C   UNL     1      24.072  37.072  24.346  1.00  0.00     0.082 C 
ENDROOT
BRANCH   1   2
ATOM      2  C   UNL     1      22.969  38.140  24.164  1.00  0.00     0.228 C 
BRANCH   2   3
ATOM      3  N   UNL     1      22.472  38.589  25.470  1.00  0.00    -0.350 N 
ATOM      4  H   UNL     1      22.850  39.541  25.687  1.00  0.00     0.345 HD
ATOM      5  H   UNL     1      21.428  38.649  25.451  1.00  0.00     0.345 HD
ATOM      6  H   UNL     1      22.763  37.924  26.226  1.00  0.00     0.345 HD
ENDBRANCH   2   3
BRANCH   2   7
ATOM      7  C   UNL     1      23.474  39.317  23.370  1.00  0.00     0.099 C 
ATOM      8  O   UNL     1      24.298  40.123  23.876  1.00  0.00    -0.544 OA
ATOM      9  O   UNL     1      23.038  39.511  22.065  1.00  0.00    -0.544 OA
ENDBRANCH   2   7
ENDBRANCH   1   2
BRANCH   1  10
ATOM     10  C   UNL     1      24.044  35.976  23.271  1.00  0.00     0.076 C 
BRANCH  10  11
ATOM     11  S   UNL     1      25.328  36.263  22.003  1.00  0.00    -0.165 SA
ATOM     12  C   UNL     1      26.595  36.803  23.194  1.00  0.00     0.085 C 
ENDBRANCH  10  11
ENDBRANCH   1  10
TORSDOF 5
ENDMDL
MODEL 2
REMARK VINA RESULT:    -3.433      1.930      2.376
REMARK INTER + INTRA:          -4.522
REMARK INTER:                  -4.294
REMARK INTRA:                  -0.228
REMARK UNBOUND:                -0.185
REMARK SMILES CSCC[C@@H]([NH3+])C(=O)[O-]
REMARK SMILES IDX 4 1 5 2 6 3 7 7 8 8 9 9 3 10 2 11 1 12
REMARK H PARENT 6 4 6 5 6 6
REMARK Flexibility Score: inf
ROOT
ATOM      1  C   UNL     1      25.894  36.702  23.715  1.00  0.00     0.082 C 
ENDROOT
BRANCH   1   2
ATOM      2  C   UNL     1      24.354  36.763  23.598  1.00  0.00     0.228 C 
BRANCH   2   3
ATOM      3  N   UNL     1      23.737  35.712  24.416  1.00  0.00    -0.350 N 
ATOM      4  H   UNL     1      22.694  35.769  24.342  1.00  0.00     0.345 HD
ATOM      5  H   UNL     1      24.037  34.771  24.070  1.00  0.00     0.345 HD
ATOM      6  H   UNL     1      24.017  35.812  25.420  1.00  0.00     0.345 HD
ENDBRANCH   2   3
BRANCH   2   7
ATOM      7  C   UNL     1      23.827  38.114  24.008  1.00  0.00     0.099 C 
ATOM      8  O   UNL     1      24.327  39.167  23.530  1.00  0.00    -0.544 OA
ATOM      9  O   UNL     1      22.776  38.203  24.911  1.00  0.00    -0.544 OA
ENDBRANCH   2   7
ENDBRANCH   1   2
BRANCH   1  10
ATOM     10  C   UNL     1      26.601  36.462  22.374  1.00  0.00     0.076 C 
BRANCH  10  11
ATOM     11  S   UNL     1      25.392  36.232  21.024  1.00  0.00    -0.165 SA
ATOM     12  C   UNL     1      25.652  37.885  20.307  1.00  0.00     0.085 C 
ENDBRANCH  10  11
ENDBRANCH   1  10
TORSDOF 5
ENDMDL
MODEL 3
REMARK VINA RESULT:    -3.358      2.454      3.339
REMARK INTER + INTRA:          -4.427
REMARK INTER:                  -4.300
REMARK INTRA:                  -0.128
REMARK UNBOUND:                -0.185
REMARK SMILES CSCC[C@@H]([NH3+])C(=O)[O-]
REMARK SMILES IDX 4 1 5 2 6 3 7 7 8 8 9 9 3 10 2 11 1 12
REMARK H PARENT 6 4 6 5 6 6
REMARK Flexibility Score: inf
ROOT
ATOM      1  C   UNL     1      22.152  39.005  23.141  1.00  0.00     0.082 C 
ENDROOT
BRANCH   1   2
ATOM      2  C   UNL     1      23.146  38.797  24.306  1.00  0.00     0.228 C 
BRANCH   2   3
ATOM      3  N   UNL     1      22.425  38.690  25.580  1.00  0.00    -0.350 N 
ATOM      4  H   UNL     1      21.486  38.253  25.422  1.00  0.00     0.345 HD
ATOM      5  H   UNL     1      22.961  38.081  26.241  1.00  0.00     0.345 HD
ATOM      6  H   UNL     1      22.296  39.634  26.013  1.00  0.00     0.345 HD
ENDBRANCH   2   3
BRANCH   2   7
ATOM      7  C   UNL     1      23.995  37.571  24.087  1.00  0.00     0.099 C 
ATOM      8  O   UNL     1      23.554  36.428  24.375  1.00  0.00    -0.544 OA
ATOM      9  O   UNL     1      25.272  37.699  23.554  1.00  0.00    -0.544 OA
ENDBRANCH   2   7
ENDBRANCH   1   2
BRANCH   1  10
ATOM     10  C   UNL     1      22.812  38.949  21.756  1.00  0.00     0.076 C 
BRANCH  10  11
ATOM     11  S   UNL     1      21.854  37.899  20.610  1.00  0.00    -0.165 SA
ATOM     12  C   UNL     1      21.010  36.969  21.929  1.00  0.00     0.085 C 
ENDBRANCH  10  11
ENDBRANCH   1  10
TORSDOF 5
ENDMDL
MODEL 4
REMARK VINA RESULT:    -3.342      3.192      4.269
REMARK INTER + INTRA:          -4.407
REMARK INTER:                  -4.290
REMARK INTRA:                  -0.117
REMARK UNBOUND:                -0.185
REMARK SMILES CSCC[C@@H]([NH3+])C(=O)[O-]
REMARK SMILES IDX 4 1 5 2 6 3 7 7 8 8 9 9 3 10 2 11 1 12
REMARK H PARENT 6 4 6 5 6 6
REMARK Flexibility Score: inf
ROOT
ATOM      1  C   UNL     1      24.854  38.399  22.654  1.00  0.00     0.082 C 
ENDROOT
BRANCH   1   2
ATOM      2  C   UNL     1      25.371  37.194  23.473  1.00  0.00     0.228 C 
BRANCH   2   3
ATOM      3  N   UNL     1      24.409  36.088  23.417  1.00  0.00    -0.350 N 
ATOM      4  H   UNL     1      24.681  35.345  24.103  1.00  0.00     0.345 HD
ATOM      5  H   UNL     1      23.456  36.433  23.672  1.00  0.00     0.345 HD
ATOM      6  H   UNL     1      24.377  35.673  22.456  1.00  0.00     0.345 HD
ENDBRANCH   2   3
BRANCH   2   7
ATOM      7  C   UNL     1      26.719  36.736  22.978  1.00  0.00     0.099 C 
ATOM      8  O   UNL     1      26.822  36.118  21.886  1.00  0.00    -0.544 OA
ATOM      9  O   UNL     1      27.860  37.005  23.724  1.00  0.00    -0.544 OA
ENDBRANCH   2   7
ENDBRANCH   1   2
BRANCH   1  10
ATOM     10  C   UNL     1      24.185  39.481  23.513  1.00  0.00     0.076 C 
BRANCH  10  11
ATOM     11  S   UNL     1      22.366  39.413  23.360  1.00  0.00    -0.165 SA
ATOM     12  C   UNL     1      22.088  38.936  25.095  1.00  0.00     0.085 C 
ENDBRANCH  10  11
ENDBRANCH   1  10
TORSDOF 5
ENDMDL
MODEL 5
REMARK VINA RESULT:    -3.302      3.024      3.717
REMARK INTER + INTRA:          -4.356
REMARK INTER:                  -4.110
REMARK INTRA:                  -0.247
REMARK UNBOUND:                -0.185
REMARK SMILES CSCC[C@@H]([NH3+])C(=O)[O-]
REMARK SMILES IDX 4 1 5 2 6 3 7 7 8 8 9 9 3 10 2 11 1 12
REMARK H PARENT 6 4 6 5 6 6
REMARK Flexibility Score: inf
ROOT
ATOM      1  C   UNL     1      24.241  36.955  24.234  1.00  0.00     0.082 C 
ENDROOT
BRANCH   1   2
ATOM      2  C   UNL     1      24.777  36.031  23.117  1.00  0.00     0.228 C 
BRANCH   2   3
ATOM      3  N   UNL     1      23.874  36.051  21.960  1.00  0.00    -0.350 N 
ATOM      4  H   UNL     1      24.041  35.207  21.363  1.00  0.00     0.345 HD
ATOM      5  H   UNL     1      22.880  36.027  22.286  1.00  0.00     0.345 HD
ATOM      6  H   UNL     1      24.026  36.913  21.386  1.00  0.00     0.345 HD
ENDBRANCH   2   3
BRANCH   2   7
ATOM      7  C   UNL     1      26.167  36.433  22.696  1.00  0.00     0.099 C 
ATOM      8  O   UNL     1      26.903  37.098  23.472  1.00  0.00    -0.544 OA
ATOM      9  O   UNL     1      26.649  36.060  21.447  1.00  0.00    -0.544 OA
ENDBRANCH   2   7
ENDBRANCH   1   2
BRANCH   1  10
ATOM     10  C   UNL     1      23.240  38.005  23.732  1.00  0.00     0.076 C 
BRANCH  10  11
ATOM     11  S   UNL     1      24.024  39.649  23.590  1.00  0.00    -0.165 SA
ATOM     12  C   UNL     1      24.043  39.649  21.770  1.00  0.00     0.085 C 
ENDBRANCH  10  11
ENDBRANCH   1  10
TORSDOF 5
ENDMDL
MODEL 6
REMARK VINA RESULT:    -3.252      1.830      1.937
REMARK INTER + INTRA:          -4.294
REMARK INTER:                  -4.170
REMARK INTRA:                  -0.124
REMARK UNBOUND:                -0.185
REMARK SMILES CSCC[C@@H]([NH3+])C(=O)[O-]
REMARK SMILES IDX 4 1 5 2 6 3 7 7 8 8 9 9 3 10 2 11 1 12
REMARK H PARENT 6 4 6 5 6 6
REMARK Flexibility Score: inf
ROOT
ATOM      1  C   UNL     1      24.812  38.227  23.171  1.00  0.00     0.082 C 
ENDROOT
BRANCH   1   2
ATOM      2  C   UNL     1      23.469  37.641  23.664  1.00  0.00     0.228 C 
BRANCH   2   3
ATOM      3  N   UNL     1      23.704  36.607  24.678  1.00  0.00    -0.350 N 
ATOM      4  H   UNL     1      23.652  35.658  24.238  1.00  0.00     0.345 HD
ATOM      5  H   UNL     1      24.659  36.724  25.089  1.00  0.00     0.345 HD
ATOM      6  H   UNL     1      22.993  36.670  25.444  1.00  0.00     0.345 HD
ENDBRANCH   2   3
BRANCH   2   7
ATOM      7  C   UNL     1      22.575  38.719  24.221  1.00  0.00     0.099 C 
ATOM      8  O   UNL     1      22.258  38.721  25.440  1.00  0.00    -0.544 OA
ATOM      9  O   UNL     1      22.104  39.728  23.389  1.00  0.00    -0.544 OA
ENDBRANCH   2   7
ENDBRANCH   1   2
BRANCH   1  10
ATOM     10  C   UNL     1      24.968  38.199  21.644  1.00  0.00     0.076 C 
BRANCH  10  11
ATOM     11  S   UNL     1      26.134  36.892  21.124  1.00  0.00    -0.165 SA
ATOM     12  C   UNL     1      26.883  36.696  22.771  1.00  0.00     0.085 C 
ENDBRANCH  10  11
ENDBRANCH   1  10
TORSDOF 5
ENDMDL
MODEL 7
REMARK VINA RESULT:    -3.149     14.689     15.259
REMARK INTER + INTRA:          -4.163
REMARK INTER:                  -4.014
REMARK INTRA:                  -0.149
REMARK UNBOUND:                -0.185
REMARK SMILES CSCC[C@@H]([NH3+])C(=O)[O-]
REMARK SMILES IDX 4 1 5 2 6 3 7 7 8 8 9 9 3 10 2 11 1 12
REMARK H PARENT 6 4 6 5 6 6
REMARK Flexibility Score: inf
ROOT
ATOM      1  C   UNL     1      17.459  50.027  24.613  1.00  0.00     0.082 C 
ENDROOT
BRANCH   1   2
ATOM      2  C   UNL     1      15.948  49.882  24.909  1.00  0.00     0.228 C 
BRANCH   2   3
ATOM      3  N   UNL     1      15.734  49.539  26.319  1.00  0.00    -0.350 N 
ATOM      4  H   UNL     1      15.559  50.409  26.875  1.00  0.00     0.345 HD
ATOM      5  H   UNL     1      14.895  48.920  26.410  1.00  0.00     0.345 HD
ATOM      6  H   UNL     1      16.569  49.043  26.711  1.00  0.00     0.345 HD
ENDBRANCH   2   3
BRANCH   2   7
ATOM      7  C   UNL     1      15.201  51.145  24.563  1.00  0.00     0.099 C 
ATOM      8  O   UNL     1      15.438  51.753  23.487  1.00  0.00    -0.544 OA
ATOM      9  O   UNL     1      14.236  51.638  25.432  1.00  0.00    -0.544 OA
ENDBRANCH   2   7
ENDBRANCH   1   2
BRANCH   1  10
ATOM     10  C   UNL     1      18.208  50.872  25.652  1.00  0.00     0.076 C 
BRANCH  10  11
ATOM     11  S   UNL     1      18.781  52.449  24.929  1.00  0.00    -0.165 SA
ATOM     12  C   UNL     1      20.280  52.549  25.958  1.00  0.00     0.085 C 
ENDBRANCH  10  11
ENDBRANCH   1  10
TORSDOF 5
ENDMDL
MODEL 8
REMARK VINA RESULT:    -3.134     14.699     15.603
REMARK INTER + INTRA:          -4.144
REMARK INTER:                  -4.012
REMARK INTRA:                  -0.132
REMARK UNBOUND:                -0.185
REMARK SMILES CSCC[C@@H]([NH3+])C(=O)[O-]
REMARK SMILES IDX 4 1 5 2 6 3 7 7 8 8 9 9 3 10 2 11 1 12
REMARK H PARENT 6 4 6 5 6 6
REMARK Flexibility Score: inf
ROOT
ATOM      1  C   UNL     1      18.207  51.253  25.539  1.00  0.00     0.082 C 
ENDROOT
BRANCH   1   2
ATOM      2  C   UNL     1      18.650  52.493  24.728  1.00  0.00     0.228 C 
BRANCH   2   3
ATOM      3  N   UNL     1      17.571  53.486  24.683  1.00  0.00    -0.350 N 
ATOM      4  H   UNL     1      17.762  54.252  25.371  1.00  0.00     0.345 HD
ATOM      5  H   UNL     1      17.520  53.911  23.728  1.00  0.00     0.345 HD
ATOM      6  H   UNL     1      16.650  53.043  24.909  1.00  0.00     0.345 HD
ENDBRANCH   2   3
BRANCH   2   7
ATOM      7  C   UNL     1      19.897  53.108  25.310  1.00  0.00     0.099 C 
ATOM      8  O   UNL     1      20.180  54.314  25.083  1.00  0.00    -0.544 OA
ATOM      9  O   UNL     1      20.736  52.347  26.113  1.00  0.00    -0.544 OA
ENDBRANCH   2   7
ENDBRANCH   1   2
BRANCH   1  10
ATOM     10  C   UNL     1      17.504  50.186  24.689  1.00  0.00     0.076 C 
BRANCH  10  11
ATOM     11  S   UNL     1      15.790  49.912  25.260  1.00  0.00    -0.165 SA
ATOM     12  C   UNL     1      15.038  50.978  23.990  1.00  0.00     0.085 C 
ENDBRANCH  10  11
ENDBRANCH   1  10
TORSDOF 5
ENDMDL
MODEL 9
REMARK VINA RESULT:    -3.115     15.846     16.562
REMARK INTER + INTRA:          -4.120
REMARK INTER:                  -4.006
REMARK INTRA:                  -0.114
REMARK UNBOUND:                -0.185
REMARK SMILES CSCC[C@@H]([NH3+])C(=O)[O-]
REMARK SMILES IDX 4 1 5 2 6 3 7 7 8 8 9 9 3 10 2 11 1 12
REMARK H PARENT 6 4 6 5 6 6
REMARK Flexibility Score: inf
ROOT
ATOM      1  C   UNL     1      17.495  53.252  24.318  1.00  0.00     0.082 C 
ENDROOT
BRANCH   1   2
ATOM      2  C   UNL     1      16.103  52.640  24.038  1.00  0.00     0.228 C 
BRANCH   2   3
ATOM      3  N   UNL     1      15.701  52.899  22.651  1.00  0.00    -0.350 N 
ATOM      4  H   UNL     1      15.104  53.759  22.608  1.00  0.00     0.345 HD
ATOM      5  H   UNL     1      16.549  53.061  22.060  1.00  0.00     0.345 HD
ATOM      6  H   UNL     1      15.163  52.089  22.263  1.00  0.00     0.345 HD
ENDBRANCH   2   3
BRANCH   2   7
ATOM      7  C   UNL     1      16.093  51.158  24.312  1.00  0.00     0.099 C 
ATOM      8  O   UNL     1      15.038  50.488  24.162  1.00  0.00    -0.544 OA
ATOM      9  O   UNL     1      17.257  50.522  24.724  1.00  0.00    -0.544 OA
ENDBRANCH   2   7
ENDBRANCH   1   2
BRANCH   1  10
ATOM     10  C   UNL     1      17.482  54.327  25.414  1.00  0.00     0.076 C 
BRANCH  10  11
ATOM     11  S   UNL     1      19.177  54.722  25.970  1.00  0.00    -0.165 SA
ATOM     12  C   UNL     1      19.923  53.225  25.251  1.00  0.00     0.085 C 
ENDBRANCH  10  11
ENDBRANCH   1  10
TORSDOF 5
ENDMDL
