MODEL 1
REMARK VINA RESULT:    20.623      0.000      0.000
REMARK INTER + INTRA:          29.757
REMARK INTER:                  29.062
REMARK INTRA:                   0.695
REMARK UNBOUND:                 0.695
REMARK SMILES CC1=CCC(=C(C)C)C(=O)CC(C)=CCC1
REMARK SMILES IDX 12 1 14 2 13 3 15 4 16 5 2 6 1 7 3 8 11 10 9 11 10 12 5 13
REMARK SMILES IDX 6 14 7 15 8 16 4 17
REMARK H PARENT
REMARK Flexibility Score: 60.00
ROOT
ATOM      1  C   UNL     1      32.742  12.025  41.165  1.00  0.00    -0.070 C 
ATOM      2  C   UNL     1      32.810  10.683  41.316  1.00  0.00    -0.027 C 
ATOM      3  C   UNL     1      32.322  12.858  42.350  1.00  0.00     0.039 C 
ENDROOT
BRANCH   2   4
ATOM      4  C   UNL     1      33.088   9.688  40.215  1.00  0.00     0.032 C 
BRANCH   4   5
ATOM      5  C   UNL     1      34.520   9.136  40.175  1.00  0.00     0.034 C 
BRANCH   5   6
ATOM      6  C   UNL     1      35.453   9.907  39.259  1.00  0.00    -0.077 C 
ATOM      7  C   UNL     1      35.661   9.376  37.862  1.00  0.00     0.039 C 
ATOM      8  C   UNL     1      36.059  11.078  39.581  1.00  0.00    -0.023 CG0
ATOM      9  G   UNL     1      36.138  11.759  40.934  1.00  0.00     0.000 G0
ENDBRANCH   5   6
ENDBRANCH   4   5
ENDBRANCH   2   4
BRANCH   1  10
ATOM     10  C   UNL     1      33.148  12.742  39.895  1.00  0.00     0.111 C 
BRANCH  10  11
ATOM     11  C   UNL     1      34.442  13.493  40.084  1.00  0.00     0.163 C 
ATOM     12  O   UNL     1      34.690  14.477  39.337  1.00  0.00    -0.294 OA
BRANCH  11  13
ATOM     13  C   UNL     1      35.430  13.117  41.129  1.00  0.00    -0.002 C 
ATOM     14  C   UNL     1      35.545  13.859  42.264  1.00  0.00    -0.069 C 
ATOM     15  C   UNL     1      36.444  13.431  43.400  1.00  0.00     0.039 C 
ATOM     16  C   UNL     1      34.788  15.159  42.415  1.00  0.00     0.039 C 
BRANCH  13  17
ATOM     17  C   UNL     1      36.156  11.797  40.946  1.00  0.00     0.066 CG0
ATOM     18  G   UNL     1      36.030  11.120  39.595  1.00  0.00     0.000 G0
ENDBRANCH  13  17
ENDBRANCH  11  13
ENDBRANCH  10  11
ENDBRANCH   1  10
TORSDOF 0
ENDMDL
MODEL 2
REMARK VINA RESULT:    20.970      1.760      4.077
REMARK INTER + INTRA:          30.247
REMARK INTER:                  28.542
REMARK INTRA:                   1.705
REMARK UNBOUND:                 0.695
REMARK SMILES CC1=CCC(=C(C)C)C(=O)CC(C)=CCC1
REMARK SMILES IDX 12 1 14 2 13 3 15 4 16 5 2 6 1 7 3 8 11 10 9 11 10 12 5 13
REMARK SMILES IDX 6 14 7 15 8 16 4 17
REMARK H PARENT
REMARK Flexibility Score: 60.00
ROOT
ATOM      1  C   UNL     1      35.545  13.506  42.532  1.00  0.00    -0.070 C 
ATOM      2  C   UNL     1      35.177  12.428  43.262  1.00  0.00    -0.027 C 
ATOM      3  C   UNL     1      36.459  14.522  43.169  1.00  0.00     0.039 C 
ENDROOT
BRANCH   2   4
ATOM      4  C   UNL     1      34.176  11.380  42.837  1.00  0.00     0.032 C 
BRANCH   4   5
ATOM      5  C   UNL     1      32.780  11.911  42.481  1.00  0.00     0.034 C 
BRANCH   5   6
ATOM      6  C   UNL     1      32.063  11.098  41.419  1.00  0.00    -0.077 C 
ATOM      7  C   UNL     1      30.976  10.155  41.872  1.00  0.00     0.039 C 
ATOM      8  C   UNL     1      32.278  11.209  40.083  1.00  0.00    -0.023 CG0
ATOM      9  G   UNL     1      33.382  11.960  39.365  1.00  0.00     0.000 G0
ENDBRANCH   5   6
ENDBRANCH   4   5
ENDBRANCH   2   4
BRANCH   1  10
ATOM     10  C   UNL     1      35.159  13.702  41.082  1.00  0.00     0.111 C 
BRANCH  10  11
ATOM     11  C   UNL     1      35.672  12.573  40.225  1.00  0.00     0.163 C 
ATOM     12  O   UNL     1      36.904  12.516  39.963  1.00  0.00    -0.294 OA
BRANCH  11  13
ATOM     13  C   UNL     1      34.774  11.516  39.686  1.00  0.00    -0.002 C 
ATOM     14  C   UNL     1      35.186  10.219  39.647  1.00  0.00    -0.069 C 
ATOM     15  C   UNL     1      34.254   9.107  39.229  1.00  0.00     0.039 C 
ATOM     16  C   UNL     1      36.609   9.852  40.000  1.00  0.00     0.039 C 
BRANCH  13  17
ATOM     17  C   UNL     1      33.350  11.926  39.360  1.00  0.00     0.066 CG0
ATOM     18  G   UNL     1      32.238  11.220  40.112  1.00  0.00     0.000 G0
ENDBRANCH  13  17
ENDBRANCH  11  13
ENDBRANCH  10  11
ENDBRANCH   1  10
TORSDOF 0
ENDMDL
MODEL 3
REMARK VINA RESULT:    21.300      1.720      2.747
REMARK INTER + INTRA:          30.711
REMARK INTER:                  29.366
REMARK INTRA:                   1.345
REMARK UNBOUND:                 0.695
REMARK SMILES CC1=CCC(=C(C)C)C(=O)CC(C)=CCC1
REMARK SMILES IDX 12 1 14 2 13 3 15 4 16 5 2 6 1 7 3 8 11 10 9 11 10 12 5 13
REMARK SMILES IDX 6 14 7 15 8 16 4 17
REMARK H PARENT
REMARK Flexibility Score: 60.00
ROOT
ATOM      1  C   UNL     1      33.655  13.083  39.285  1.00  0.00    -0.070 C 
ATOM      2  C   UNL     1      33.006  11.902  39.161  1.00  0.00    -0.027 C 
ATOM      3  C   UNL     1      32.903  14.349  38.961  1.00  0.00     0.039 C 
ENDROOT
BRANCH   2   4
ATOM      4  C   UNL     1      33.629  10.536  39.319  1.00  0.00     0.032 C 
BRANCH   4   5
ATOM      5  C   UNL     1      33.560   9.943  40.734  1.00  0.00     0.034 C 
BRANCH   5   6
ATOM      6  C   UNL     1      32.931  10.868  41.761  1.00  0.00    -0.077 C 
ATOM      7  C   UNL     1      31.427  10.867  41.877  1.00  0.00     0.039 C 
ATOM      8  C   UNL     1      33.626  11.644  42.631  1.00  0.00    -0.023 CG0
ATOM      9  G   UNL     1      35.112  11.943  42.649  1.00  0.00     0.000 G0
ENDBRANCH   5   6
ENDBRANCH   4   5
ENDBRANCH   2   4
BRANCH   1  10
ATOM     10  C   UNL     1      35.068  13.205  39.813  1.00  0.00     0.111 C 
BRANCH  10  11
ATOM     11  C   UNL     1      35.101  13.982  41.105  1.00  0.00     0.163 C 
ATOM     12  O   UNL     1      34.739  15.189  41.100  1.00  0.00    -0.294 OA
BRANCH  11  13
ATOM     13  C   UNL     1      35.536  13.368  42.388  1.00  0.00    -0.002 C 
ATOM     14  C   UNL     1      36.148  14.125  43.339  1.00  0.00    -0.069 C 
ATOM     15  C   UNL     1      36.483  13.564  44.700  1.00  0.00     0.039 C 
ATOM     16  C   UNL     1      36.537  15.557  43.050  1.00  0.00     0.039 C 
BRANCH  13  17
ATOM     17  C   UNL     1      35.109  11.934  42.642  1.00  0.00     0.066 CG0
ATOM     18  G   UNL     1      33.622  11.641  42.624  1.00  0.00     0.000 G0
ENDBRANCH  13  17
ENDBRANCH  11  13
ENDBRANCH  10  11
ENDBRANCH   1  10
TORSDOF 0
ENDMDL
MODEL 4
REMARK VINA RESULT:    21.318      2.071      4.772
REMARK INTER + INTRA:          30.737
REMARK INTER:                  30.151
REMARK INTRA:                   0.586
REMARK UNBOUND:                 0.695
REMARK SMILES CC1=CCC(=C(C)C)C(=O)CC(C)=CCC1
REMARK SMILES IDX 12 1 14 2 13 3 15 4 16 5 2 6 1 7 3 8 11 10 9 11 10 12 5 13
REMARK SMILES IDX 6 14 7 15 8 16 4 17
REMARK H PARENT
REMARK Flexibility Score: 60.00
ROOT
ATOM      1  C   UNL     1      35.553  12.725  39.666  1.00  0.00    -0.070 C 
ATOM      2  C   UNL     1      36.160  13.610  40.490  1.00  0.00    -0.027 C 
ATOM      3  C   UNL     1      34.556  13.249  38.664  1.00  0.00     0.039 C 
ENDROOT
BRANCH   2   4
ATOM      4  C   UNL     1      37.085  13.257  41.630  1.00  0.00     0.032 C 
BRANCH   4   5
ATOM      5  C   UNL     1      36.734  13.896  42.981  1.00  0.00     0.034 C 
BRANCH   5   6
ATOM      6  C   UNL     1      35.252  14.167  43.170  1.00  0.00    -0.077 C 
ATOM      7  C   UNL     1      34.835  15.572  43.525  1.00  0.00     0.039 C 
ATOM      8  C   UNL     1      34.268  13.253  42.972  1.00  0.00    -0.023 CG0
ATOM      9  G   UNL     1      34.399  11.759  42.750  1.00  0.00     0.000 G0
ENDBRANCH   5   6
ENDBRANCH   4   5
ENDBRANCH   2   4
BRANCH   1  10
ATOM     10  C   UNL     1      35.885  11.249  39.640  1.00  0.00     0.111 C 
BRANCH  10  11
ATOM     11  C   UNL     1      35.037  10.483  40.624  1.00  0.00     0.163 C 
ATOM     12  O   UNL     1      35.246   9.249  40.779  1.00  0.00    -0.294 OA
BRANCH  11  13
ATOM     13  C   UNL     1      33.970  11.136  41.427  1.00  0.00    -0.002 C 
ATOM     14  C   UNL     1      32.669  11.055  41.037  1.00  0.00    -0.069 C 
ATOM     15  C   UNL     1      31.551  11.594  41.898  1.00  0.00     0.039 C 
ATOM     16  C   UNL     1      32.301  10.439  39.707  1.00  0.00     0.039 C 
BRANCH  13  17
ATOM     17  C   UNL     1      34.381  11.728  42.764  1.00  0.00     0.066 CG0
ATOM     18  G   UNL     1      34.257  13.231  42.923  1.00  0.00     0.000 G0
ENDBRANCH  13  17
ENDBRANCH  11  13
ENDBRANCH  10  11
ENDBRANCH   1  10
TORSDOF 0
ENDMDL
MODEL 5
REMARK VINA RESULT:    21.349      1.478      3.366
REMARK INTER + INTRA:          30.781
REMARK INTER:                  29.058
REMARK INTRA:                   1.723
REMARK UNBOUND:                 0.695
REMARK SMILES CC1=CCC(=C(C)C)C(=O)CC(C)=CCC1
REMARK SMILES IDX 12 1 14 2 13 3 15 4 16 5 2 6 1 7 3 8 11 10 9 11 10 12 5 13
REMARK SMILES IDX 6 14 7 15 8 16 4 17
REMARK H PARENT
REMARK Flexibility Score: 60.00
ROOT
ATOM      1  C   UNL     1      35.098  13.582  42.649  1.00  0.00    -0.070 C 
ATOM      2  C   UNL     1      33.924  13.008  43.001  1.00  0.00    -0.027 C 
ATOM      3  C   UNL     1      35.289  15.050  42.938  1.00  0.00     0.039 C 
ENDROOT
BRANCH   2   4
ATOM      4  C   UNL     1      33.509  11.592  42.680  1.00  0.00     0.032 C 
BRANCH   4   5
ATOM      5  C   UNL     1      32.423  11.454  41.604  1.00  0.00     0.034 C 
BRANCH   5   6
ATOM      6  C   UNL     1      32.549  10.201  40.756  1.00  0.00    -0.077 C 
ATOM      7  C   UNL     1      31.425   9.198  40.816  1.00  0.00     0.039 C 
ATOM      8  C   UNL     1      33.567   9.951  39.893  1.00  0.00    -0.023 CG0
ATOM      9  G   UNL     1      34.874  10.702  39.733  1.00  0.00     0.000 G0
ENDBRANCH   5   6
ENDBRANCH   4   5
ENDBRANCH   2   4
BRANCH   1  10
ATOM     10  C   UNL     1      36.259  12.812  42.060  1.00  0.00     0.111 C 
BRANCH  10  11
ATOM     11  C   UNL     1      36.158  12.741  40.557  1.00  0.00     0.163 C 
ATOM     12  O   UNL     1      37.123  13.155  39.860  1.00  0.00    -0.294 OA
BRANCH  11  13
ATOM     13  C   UNL     1      34.962  12.187  39.869  1.00  0.00    -0.002 C 
ATOM     14  C   UNL     1      34.052  13.020  39.294  1.00  0.00    -0.069 C 
ATOM     15  C   UNL     1      32.899  12.489  38.477  1.00  0.00     0.039 C 
ATOM     16  C   UNL     1      34.156  14.517  39.478  1.00  0.00     0.039 C 
BRANCH  13  17
ATOM     17  C   UNL     1      34.907  10.680  39.692  1.00  0.00     0.066 CG0
ATOM     18  G   UNL     1      33.561  10.009  39.885  1.00  0.00     0.000 G0
ENDBRANCH  13  17
ENDBRANCH  11  13
ENDBRANCH  10  11
ENDBRANCH   1  10
TORSDOF 0
ENDMDL
MODEL 6
REMARK VINA RESULT:    21.460      2.091      5.058
REMARK INTER + INTRA:          30.937
REMARK INTER:                  29.034
REMARK INTRA:                   1.903
REMARK UNBOUND:                 0.695
REMARK SMILES CC1=CCC(=C(C)C)C(=O)CC(C)=CCC1
REMARK SMILES IDX 12 1 14 2 13 3 15 4 16 5 2 6 1 7 3 8 11 10 9 11 10 12 5 13
REMARK SMILES IDX 6 14 7 15 8 16 4 17
REMARK H PARENT
REMARK Flexibility Score: 60.00
ROOT
ATOM      1  C   UNL     1      35.834  14.710  43.114  1.00  0.00    -0.070 C 
ATOM      2  C   UNL     1      35.664  16.052  43.142  1.00  0.00    -0.027 C 
ATOM      3  C   UNL     1      37.092  14.136  43.718  1.00  0.00     0.039 C 
ENDROOT
BRANCH   2   4
ATOM      4  C   UNL     1      34.537  16.807  42.480  1.00  0.00     0.032 C 
BRANCH   4   5
ATOM      5  C   UNL     1      33.663  15.980  41.527  1.00  0.00     0.034 C 
BRANCH   5   6
ATOM      6  C   UNL     1      34.117  16.023  40.079  1.00  0.00    -0.077 C 
ATOM      7  C   UNL     1      34.633  17.335  39.544  1.00  0.00     0.039 C 
ATOM      8  C   UNL     1      34.160  14.948  39.250  1.00  0.00    -0.023 CG0
ATOM      9  G   UNL     1      33.585  13.563  39.471  1.00  0.00     0.000 G0
ENDBRANCH   5   6
ENDBRANCH   4   5
ENDBRANCH   2   4
BRANCH   1  10
ATOM     10  C   UNL     1      34.792  13.748  42.585  1.00  0.00     0.111 C 
BRANCH  10  11
ATOM     11  C   UNL     1      35.253  13.096  41.307  1.00  0.00     0.163 C 
ATOM     12  O   UNL     1      36.489  13.014  41.074  1.00  0.00    -0.294 OA
BRANCH  11  13
ATOM     13  C   UNL     1      34.297  12.535  40.315  1.00  0.00    -0.002 C 
ATOM     14  C   UNL     1      33.995  11.208  40.325  1.00  0.00    -0.069 C 
ATOM     15  C   UNL     1      32.933  10.632  39.419  1.00  0.00     0.039 C 
ATOM     16  C   UNL     1      34.738  10.257  41.236  1.00  0.00     0.039 C 
BRANCH  13  17
ATOM     17  C   UNL     1      33.562  13.527  39.432  1.00  0.00     0.066 CG0
ATOM     18  G   UNL     1      34.189  14.897  39.260  1.00  0.00     0.000 G0
ENDBRANCH  13  17
ENDBRANCH  11  13
ENDBRANCH  10  11
ENDBRANCH   1  10
TORSDOF 0
ENDMDL
MODEL 7
REMARK VINA RESULT:    21.562      2.338      4.152
REMARK INTER + INTRA:          31.081
REMARK INTER:                  28.972
REMARK INTRA:                   2.109
REMARK UNBOUND:                 0.695
REMARK SMILES CC1=CCC(=C(C)C)C(=O)CC(C)=CCC1
REMARK SMILES IDX 12 1 14 2 13 3 15 4 16 5 2 6 1 7 3 8 11 10 9 11 10 12 5 13
REMARK SMILES IDX 6 14 7 15 8 16 4 17
REMARK H PARENT
REMARK Flexibility Score: 60.00
ROOT
ATOM      1  C   UNL     1      36.344  14.221  43.148  1.00  0.00    -0.070 C 
ATOM      2  C   UNL     1      37.086  13.544  42.242  1.00  0.00    -0.027 C 
ATOM      3  C   UNL     1      37.044  14.820  44.341  1.00  0.00     0.039 C 
ENDROOT
BRANCH   2   4
ATOM      4  C   UNL     1      36.544  12.776  41.060  1.00  0.00     0.032 C 
BRANCH   4   5
ATOM      5  C   UNL     1      35.246  11.999  41.322  1.00  0.00     0.034 C 
BRANCH   5   6
ATOM      6  C   UNL     1      34.114  12.350  40.373  1.00  0.00    -0.077 C 
ATOM      7  C   UNL     1      33.159  11.250  39.983  1.00  0.00     0.039 C 
ATOM      8  C   UNL     1      33.857  13.598  39.906  1.00  0.00    -0.023 CG0
ATOM      9  G   UNL     1      34.714  14.844  40.019  1.00  0.00     0.000 G0
ENDBRANCH   5   6
ENDBRANCH   4   5
ENDBRANCH   2   4
BRANCH   1  10
ATOM     10  C   UNL     1      34.862  14.481  42.984  1.00  0.00     0.111 C 
BRANCH  10  11
ATOM     11  C   UNL     1      34.613  15.827  42.352  1.00  0.00     0.163 C 
ATOM     12  O   UNL     1      34.678  16.860  43.072  1.00  0.00    -0.294 OA
BRANCH  11  13
ATOM     13  C   UNL     1      34.303  15.978  40.906  1.00  0.00    -0.002 C 
ATOM     14  C   UNL     1      33.806  17.152  40.428  1.00  0.00    -0.069 C 
ATOM     15  C   UNL     1      33.605  17.381  38.949  1.00  0.00     0.039 C 
ATOM     16  C   UNL     1      33.413  18.263  41.375  1.00  0.00     0.039 C 
BRANCH  13  17
ATOM     17  C   UNL     1      34.729  14.845  39.990  1.00  0.00     0.066 CG0
ATOM     18  G   UNL     1      33.838  13.619  39.945  1.00  0.00     0.000 G0
ENDBRANCH  13  17
ENDBRANCH  11  13
ENDBRANCH  10  11
ENDBRANCH   1  10
TORSDOF 0
ENDMDL
MODEL 8
REMARK VINA RESULT:    21.568      2.002      4.676
REMARK INTER + INTRA:          31.089
REMARK INTER:                  31.046
REMARK INTRA:                   0.043
REMARK UNBOUND:                 0.695
REMARK SMILES CC1=CCC(=C(C)C)C(=O)CC(C)=CCC1
REMARK SMILES IDX 12 1 14 2 13 3 15 4 16 5 2 6 1 7 3 8 11 10 9 11 10 12 5 13
REMARK SMILES IDX 6 14 7 15 8 16 4 17
REMARK H PARENT
REMARK Flexibility Score: 60.00
ROOT
ATOM      1  C   UNL     1      35.603   9.626  39.244  1.00  0.00    -0.070 C 
ATOM      2  C   UNL     1      36.509  10.632  39.231  1.00  0.00    -0.027 C 
ATOM      3  C   UNL     1      35.468   8.771  38.010  1.00  0.00     0.039 C 
ENDROOT
BRANCH   2   4
ATOM      4  C   UNL     1      36.694  11.661  40.321  1.00  0.00     0.032 C 
BRANCH   4   5
ATOM      5  C   UNL     1      35.584  12.717  40.421  1.00  0.00     0.034 C 
BRANCH   5   6
ATOM      6  C   UNL     1      35.166  13.039  41.844  1.00  0.00    -0.077 C 
ATOM      7  C   UNL     1      36.089  13.902  42.669  1.00  0.00     0.039 C 
ATOM      8  C   UNL     1      33.987  12.668  42.406  1.00  0.00    -0.023 CG0
ATOM      9  G   UNL     1      32.950  11.701  41.870  1.00  0.00     0.000 G0
ENDBRANCH   5   6
ENDBRANCH   4   5
ENDBRANCH   2   4
BRANCH   1  10
ATOM     10  C   UNL     1      34.781   9.261  40.461  1.00  0.00     0.111 C 
BRANCH  10  11
ATOM     11  C   UNL     1      33.359   9.742  40.321  1.00  0.00     0.163 C 
ATOM     12  O   UNL     1      32.455   8.905  40.056  1.00  0.00    -0.294 OA
BRANCH  11  13
ATOM     13  C   UNL     1      32.985  11.171  40.495  1.00  0.00    -0.002 C 
ATOM     14  C   UNL     1      32.580  11.911  39.427  1.00  0.00    -0.069 C 
ATOM     15  C   UNL     1      32.070  13.323  39.591  1.00  0.00     0.039 C 
ATOM     16  C   UNL     1      32.653  11.345  38.027  1.00  0.00     0.039 C 
BRANCH  13  17
ATOM     17  C   UNL     1      32.909  11.692  41.919  1.00  0.00     0.066 CG0
ATOM     18  G   UNL     1      34.002  12.643  42.367  1.00  0.00     0.000 G0
ENDBRANCH  13  17
ENDBRANCH  11  13
ENDBRANCH  10  11
ENDBRANCH   1  10
TORSDOF 0
ENDMDL
MODEL 9
REMARK VINA RESULT:    21.771      1.715      3.817
REMARK INTER + INTRA:          31.376
REMARK INTER:                  28.878
REMARK INTRA:                   2.498
REMARK UNBOUND:                 0.695
REMARK SMILES CC1=CCC(=C(C)C)C(=O)CC(C)=CCC1
REMARK SMILES IDX 12 1 14 2 13 3 15 4 16 5 2 6 1 7 3 8 11 10 9 11 10 12 5 13
REMARK SMILES IDX 6 14 7 15 8 16 4 17
REMARK H PARENT
REMARK Flexibility Score: 60.00
ROOT
ATOM      1  C   UNL     1      32.493  11.306  41.827  1.00  0.00    -0.070 C 
ATOM      2  C   UNL     1      33.247  11.942  42.753  1.00  0.00    -0.027 C 
ATOM      3  C   UNL     1      31.133  11.871  41.502  1.00  0.00     0.039 C 
ENDROOT
BRANCH   2   4
ATOM      4  C   UNL     1      34.570  11.455  43.293  1.00  0.00     0.032 C 
BRANCH   4   5
ATOM      5  C   UNL     1      35.547  12.557  43.729  1.00  0.00     0.034 C 
BRANCH   5   6
ATOM      6  C   UNL     1      35.701  13.680  42.719  1.00  0.00    -0.077 C 
ATOM      7  C   UNL     1      35.693  15.096  43.237  1.00  0.00     0.039 C 
ATOM      8  C   UNL     1      35.919  13.500  41.391  1.00  0.00    -0.023 CG0
ATOM      9  G   UNL     1      35.839  12.218  40.587  1.00  0.00     0.000 G0
ENDBRANCH   5   6
ENDBRANCH   4   5
ENDBRANCH   2   4
BRANCH   1  10
ATOM     10  C   UNL     1      32.975  10.106  41.041  1.00  0.00     0.111 C 
BRANCH  10  11
ATOM     11  C   UNL     1      33.994  10.508  40.005  1.00  0.00     0.163 C 
ATOM     12  O   UNL     1      34.429   9.635  39.207  1.00  0.00    -0.294 OA
BRANCH  11  13
ATOM     13  C   UNL     1      34.495  11.903  39.887  1.00  0.00    -0.002 C 
ATOM     14  C   UNL     1      33.715  12.868  39.328  1.00  0.00    -0.069 C 
ATOM     15  C   UNL     1      34.140  14.317  39.311  1.00  0.00     0.039 C 
ATOM     16  C   UNL     1      32.397  12.512  38.678  1.00  0.00     0.039 C 
BRANCH  13  17
ATOM     17  C   UNL     1      35.814  12.220  40.568  1.00  0.00     0.066 CG0
ATOM     18  G   UNL     1      35.881  13.492  41.389  1.00  0.00     0.000 G0
ENDBRANCH  13  17
ENDBRANCH  11  13
ENDBRANCH  10  11
ENDBRANCH   1  10
TORSDOF 0
ENDMDL
