MODEL 1
REMARK VINA RESULT:    -6.033      0.000      0.000
REMARK INTER + INTRA:          -6.589
REMARK INTER:                  -6.562
REMARK INTRA:                  -0.027
REMARK UNBOUND:                -0.027
REMARK SMILES O=C([O-])c1ccc(O)cc1
REMARK SMILES IDX 4 1 5 2 10 3 6 4 9 5 7 6 2 7 1 8 3 9 8 10
REMARK H PARENT 8 11
REMARK Flexibility Score: inf
ROOT
ATOM      1  C   UNL     1      12.459 -12.277  28.373  1.00  0.00    -0.003 A 
ATOM      2  C   UNL     1      12.196 -13.424  27.603  1.00  0.00     0.014 A 
ATOM      3  C   UNL     1      13.794 -11.869  28.554  1.00  0.00     0.014 A 
ATOM      4  C   UNL     1      13.244 -14.147  27.028  1.00  0.00     0.047 A 
ATOM      5  C   UNL     1      14.840 -12.595  27.976  1.00  0.00     0.047 A 
ATOM      6  C   UNL     1      14.568 -13.736  27.211  1.00  0.00     0.115 A 
ENDROOT
BRANCH   1   7
ATOM      7  C   UNL     1      11.348 -11.513  28.981  1.00  0.00     0.071 C 
ATOM      8  O   UNL     1      11.070 -11.649  30.202  1.00  0.00    -0.545 OA
ATOM      9  O   UNL     1      10.595 -10.633  28.212  1.00  0.00    -0.545 OA
ENDBRANCH   1   7
BRANCH   6  10
ATOM     10  O   UNL     1      15.602 -14.466  26.631  1.00  0.00    -0.508 OA
ATOM     11  H   UNL     1      16.537 -14.085  26.546  1.00  0.00     0.293 HD
ENDBRANCH   6  10
TORSDOF 2
ENDMDL
MODEL 2
REMARK VINA RESULT:    -5.996      0.132      1.537
REMARK INTER + INTRA:          -6.549
REMARK INTER:                  -6.522
REMARK INTRA:                  -0.027
REMARK UNBOUND:                -0.027
REMARK SMILES O=C([O-])c1ccc(O)cc1
REMARK SMILES IDX 4 1 5 2 10 3 6 4 9 5 7 6 2 7 1 8 3 9 8 10
REMARK H PARENT 8 11
REMARK Flexibility Score: inf
ROOT
ATOM      1  C   UNL     1      12.506 -12.263  28.375  1.00  0.00    -0.003 A 
ATOM      2  C   UNL     1      13.859 -11.918  28.539  1.00  0.00     0.014 A 
ATOM      3  C   UNL     1      12.179 -13.395  27.604  1.00  0.00     0.014 A 
ATOM      4  C   UNL     1      14.864 -12.687  27.944  1.00  0.00     0.047 A 
ATOM      5  C   UNL     1      13.187 -14.161  27.010  1.00  0.00     0.047 A 
ATOM      6  C   UNL     1      14.532 -13.809  27.179  1.00  0.00     0.115 A 
ENDROOT
BRANCH   1   7
ATOM      7  C   UNL     1      11.444 -11.449  29.005  1.00  0.00     0.071 C 
ATOM      8  O   UNL     1      11.078 -11.678  30.188  1.00  0.00    -0.545 OA
ATOM      9  O   UNL     1      10.835 -10.418  28.300  1.00  0.00    -0.545 OA
ENDBRANCH   1   7
BRANCH   6  10
ATOM     10  O   UNL     1      15.544 -14.566  26.593  1.00  0.00    -0.508 OA
ATOM     11  H   UNL     1      16.168 -14.169  25.899  1.00  0.00     0.293 HD
ENDBRANCH   6  10
TORSDOF 2
ENDMDL
MODEL 3
REMARK VINA RESULT:    -5.834      1.146      4.283
REMARK INTER + INTRA:          -6.373
REMARK INTER:                  -6.346
REMARK INTRA:                  -0.027
REMARK UNBOUND:                -0.027
REMARK SMILES O=C([O-])c1ccc(O)cc1
REMARK SMILES IDX 4 1 5 2 10 3 6 4 9 5 7 6 2 7 1 8 3 9 8 10
REMARK H PARENT 8 11
REMARK Flexibility Score: inf
ROOT
ATOM      1  C   UNL     1      13.417 -13.793  27.890  1.00  0.00    -0.003 A 
ATOM      2  C   UNL     1      12.277 -13.720  27.068  1.00  0.00     0.014 A 
ATOM      3  C   UNL     1      13.504 -12.946  29.011  1.00  0.00     0.014 A 
ATOM      4  C   UNL     1      11.249 -12.820  27.361  1.00  0.00     0.047 A 
ATOM      5  C   UNL     1      12.473 -12.047  29.300  1.00  0.00     0.047 A 
ATOM      6  C   UNL     1      11.342 -11.982  28.476  1.00  0.00     0.115 A 
ENDROOT
BRANCH   1   7
ATOM      7  C   UNL     1      14.503 -14.746  27.579  1.00  0.00     0.071 C 
ATOM      8  O   UNL     1      15.303 -14.521  26.633  1.00  0.00    -0.545 OA
ATOM      9  O   UNL     1      14.657 -15.907  28.328  1.00  0.00    -0.545 OA
ENDBRANCH   1   7
BRANCH   6  10
ATOM     10  O   UNL     1      10.309 -11.090  28.755  1.00  0.00    -0.508 OA
ATOM     11  H   UNL     1      10.448 -10.087  28.707  1.00  0.00     0.293 HD
ENDBRANCH   6  10
TORSDOF 2
ENDMDL
MODEL 4
REMARK VINA RESULT:    -5.821      1.155      4.515
REMARK INTER + INTRA:          -6.359
REMARK INTER:                  -6.332
REMARK INTRA:                  -0.027
REMARK UNBOUND:                -0.027
REMARK SMILES O=C([O-])c1ccc(O)cc1
REMARK SMILES IDX 4 1 5 2 10 3 6 4 9 5 7 6 2 7 1 8 3 9 8 10
REMARK H PARENT 8 11
REMARK Flexibility Score: inf
ROOT
ATOM      1  C   UNL     1      13.452 -13.812  27.924  1.00  0.00    -0.003 A 
ATOM      2  C   UNL     1      13.531 -12.978  29.054  1.00  0.00     0.014 A 
ATOM      3  C   UNL     1      12.314 -13.738  27.100  1.00  0.00     0.014 A 
ATOM      4  C   UNL     1      12.493 -12.091  29.354  1.00  0.00     0.047 A 
ATOM      5  C   UNL     1      11.278 -12.849  27.403  1.00  0.00     0.047 A 
ATOM      6  C   UNL     1      11.365 -12.023  28.530  1.00  0.00     0.115 A 
ENDROOT
BRANCH   1   7
ATOM      7  C   UNL     1      14.552 -14.750  27.610  1.00  0.00     0.071 C 
ATOM      8  O   UNL     1      15.361 -14.499  26.678  1.00  0.00    -0.545 OA
ATOM      9  O   UNL     1      14.706 -15.924  28.339  1.00  0.00    -0.545 OA
ENDBRANCH   1   7
BRANCH   6  10
ATOM     10  O   UNL     1      10.339 -11.134  28.841  1.00  0.00    -0.508 OA
ATOM     11  H   UNL     1       9.440 -11.459  29.178  1.00  0.00     0.293 HD
ENDBRANCH   6  10
TORSDOF 2
ENDMDL
MODEL 5
REMARK VINA RESULT:    -5.687      1.768      4.297
REMARK INTER + INTRA:          -6.213
REMARK INTER:                  -6.177
REMARK INTRA:                  -0.036
REMARK UNBOUND:                -0.027
REMARK SMILES O=C([O-])c1ccc(O)cc1
REMARK SMILES IDX 4 1 5 2 10 3 6 4 9 5 7 6 2 7 1 8 3 9 8 10
REMARK H PARENT 8 11
REMARK Flexibility Score: inf
ROOT
ATOM      1  C   UNL     1      12.600 -12.786  28.217  1.00  0.00    -0.003 A 
ATOM      2  C   UNL     1      13.478 -12.493  29.277  1.00  0.00     0.014 A 
ATOM      3  C   UNL     1      11.503 -11.935  27.986  1.00  0.00     0.014 A 
ATOM      4  C   UNL     1      13.262 -11.374  30.087  1.00  0.00     0.047 A 
ATOM      5  C   UNL     1      11.291 -10.817  28.798  1.00  0.00     0.047 A 
ATOM      6  C   UNL     1      12.170 -10.534  29.851  1.00  0.00     0.115 A 
ENDROOT
BRANCH   1   7
ATOM      7  C   UNL     1      12.831 -13.970  27.362  1.00  0.00     0.071 C 
ATOM      8  O   UNL     1      12.129 -14.165  26.334  1.00  0.00    -0.545 OA
ATOM      9  O   UNL     1      13.826 -14.886  27.681  1.00  0.00    -0.545 OA
ENDBRANCH   1   7
BRANCH   6  10
ATOM     10  O   UNL     1      11.968  -9.423  30.666  1.00  0.00    -0.508 OA
ATOM     11  H   UNL     1      12.666  -9.123  31.336  1.00  0.00     0.293 HD
ENDBRANCH   6  10
TORSDOF 2
ENDMDL
MODEL 6
REMARK VINA RESULT:    -5.372      1.899      2.517
REMARK INTER + INTRA:          -5.870
REMARK INTER:                  -5.836
REMARK INTRA:                  -0.034
REMARK UNBOUND:                -0.027
REMARK SMILES O=C([O-])c1ccc(O)cc1
REMARK SMILES IDX 4 1 5 2 10 3 6 4 9 5 7 6 2 7 1 8 3 9 8 10
REMARK H PARENT 8 11
REMARK Flexibility Score: inf
ROOT
ATOM      1  C   UNL     1      12.301 -11.613  29.033  1.00  0.00    -0.003 A 
ATOM      2  C   UNL     1      11.197 -11.589  28.162  1.00  0.00     0.014 A 
ATOM      3  C   UNL     1      13.267 -12.626  28.880  1.00  0.00     0.014 A 
ATOM      4  C   UNL     1      11.061 -12.556  27.162  1.00  0.00     0.047 A 
ATOM      5  C   UNL     1      13.128 -13.592  27.879  1.00  0.00     0.047 A 
ATOM      6  C   UNL     1      12.024 -13.559  27.017  1.00  0.00     0.115 A 
ENDROOT
BRANCH   1   7
ATOM      7  C   UNL     1      12.443 -10.589  30.090  1.00  0.00     0.071 C 
ATOM      8  O   UNL     1      11.951  -9.440  29.939  1.00  0.00    -0.545 OA
ATOM      9  O   UNL     1      13.123 -10.881  31.267  1.00  0.00    -0.545 OA
ENDBRANCH   1   7
BRANCH   6  10
ATOM     10  O   UNL     1      11.876 -14.516  26.016  1.00  0.00    -0.508 OA
ATOM     11  H   UNL     1      12.495 -14.544  25.214  1.00  0.00     0.293 HD
ENDBRANCH   6  10
TORSDOF 2
ENDMDL
MODEL 7
REMARK VINA RESULT:    -4.841     12.561     13.601
REMARK INTER + INTRA:          -5.293
REMARK INTER:                  -5.266
REMARK INTRA:                  -0.027
REMARK UNBOUND:                -0.027
REMARK SMILES O=C([O-])c1ccc(O)cc1
REMARK SMILES IDX 4 1 5 2 10 3 6 4 9 5 7 6 2 7 1 8 3 9 8 10
REMARK H PARENT 8 11
REMARK Flexibility Score: inf
ROOT
ATOM      1  C   UNL     1       6.659  -0.616  29.583  1.00  0.00    -0.003 A 
ATOM      2  C   UNL     1       5.881  -1.732  29.942  1.00  0.00     0.014 A 
ATOM      3  C   UNL     1       7.778  -0.285  30.370  1.00  0.00     0.014 A 
ATOM      4  C   UNL     1       6.214  -2.497  31.063  1.00  0.00     0.047 A 
ATOM      5  C   UNL     1       8.108  -1.053  31.491  1.00  0.00     0.047 A 
ATOM      6  C   UNL     1       7.327  -2.162  31.840  1.00  0.00     0.115 A 
ENDROOT
BRANCH   1   7
ATOM      7  C   UNL     1       6.305   0.192  28.397  1.00  0.00     0.071 C 
ATOM      8  O   UNL     1       5.565   1.205  28.509  1.00  0.00    -0.545 OA
ATOM      9  O   UNL     1       6.784  -0.155  27.139  1.00  0.00    -0.545 OA
ENDBRANCH   1   7
BRANCH   6  10
ATOM     10  O   UNL     1       7.647  -2.935  32.953  1.00  0.00    -0.508 OA
ATOM     11  H   UNL     1       8.536  -2.835  33.430  1.00  0.00     0.293 HD
ENDBRANCH   6  10
TORSDOF 2
ENDMDL
MODEL 8
REMARK VINA RESULT:    -3.837     11.358     12.521
REMARK INTER + INTRA:          -4.201
REMARK INTER:                  -4.164
REMARK INTRA:                  -0.036
REMARK UNBOUND:                -0.027
REMARK SMILES O=C([O-])c1ccc(O)cc1
REMARK SMILES IDX 4 1 5 2 10 3 6 4 9 5 7 6 2 7 1 8 3 9 8 10
REMARK H PARENT 8 11
REMARK Flexibility Score: inf
ROOT
ATOM      1  C   UNL     1      17.330  -1.894  26.514  1.00  0.00    -0.003 A 
ATOM      2  C   UNL     1      16.001  -2.016  26.960  1.00  0.00     0.014 A 
ATOM      3  C   UNL     1      17.615  -1.009  25.457  1.00  0.00     0.014 A 
ATOM      4  C   UNL     1      14.981  -1.271  26.361  1.00  0.00     0.047 A 
ATOM      5  C   UNL     1      16.592  -0.266  24.860  1.00  0.00     0.047 A 
ATOM      6  C   UNL     1      15.272  -0.395  25.311  1.00  0.00     0.115 A 
ENDROOT
BRANCH   1   7
ATOM      7  C   UNL     1      18.407  -2.682  27.149  1.00  0.00     0.071 C 
ATOM      8  O   UNL     1      19.608  -2.520  26.806  1.00  0.00    -0.545 OA
ATOM      9  O   UNL     1      18.109  -3.615  28.135  1.00  0.00    -0.545 OA
ENDBRANCH   1   7
BRANCH   6  10
ATOM     10  O   UNL     1      14.246   0.341  24.724  1.00  0.00    -0.508 OA
ATOM     11  H   UNL     1      13.285   0.251  25.033  1.00  0.00     0.293 HD
ENDBRANCH   6  10
TORSDOF 2
ENDMDL
