MODEL 1
REMARK VINA RESULT:    -3.493      0.000      0.000
REMARK INTER + INTRA:          -3.516
REMARK INTER:                  -5.127
REMARK INTRA:                   1.611
REMARK UNBOUND:                 1.611
REMARK SMILES C=C1CC=CC(C)(C)CC=C(C)CCC1
REMARK SMILES IDX 2 1 1 2 15 3 14 4 13 5 11 6 12 7 10 8 3 10 4 11 5 12 6 13
REMARK SMILES IDX 7 14 8 15 9 16
REMARK H PARENT
REMARK Flexibility Score: 60.00
ROOT
ATOM      1  C   UNL     1     144.835 144.916 130.570  1.00  0.00    -0.074 C 
ATOM      2  C   UNL     1     145.795 145.077 129.638  1.00  0.00     0.008 C 
ENDROOT
BRANCH   1   3
ATOM      3  C   UNL     1     144.492 143.535 131.122  1.00  0.00     0.031 C 
BRANCH   3   4
ATOM      4  C   UNL     1     144.329 143.409 132.655  1.00  0.00     0.009 C 
BRANCH   4   5
ATOM      5  C   UNL     1     145.626 143.136 133.436  1.00  0.00     0.030 C 
BRANCH   5   6
ATOM      6  C   UNL     1     146.835 143.860 132.867  1.00  0.00    -0.077 C 
ATOM      7  C   UNL     1     147.805 143.071 132.022  1.00  0.00     0.039 C 
ATOM      8  C   UNL     1     147.100 145.171 133.083  1.00  0.00    -0.027 CG0
ATOM      9  G   UNL     1     146.279 146.098 133.955  1.00  0.00     0.000 G0
ENDBRANCH   5   6
ENDBRANCH   4   5
ENDBRANCH   3   4
ENDBRANCH   1   3
BRANCH   1  10
ATOM     10  C   UNL     1     143.829 146.042 130.723  1.00  0.00     0.057 C 
BRANCH  10  11
ATOM     11  C   UNL     1     143.356 146.303 132.132  1.00  0.00    -0.026 C 
ATOM     12  C   UNL     1     144.025 146.922 133.131  1.00  0.00    -0.024 C 
BRANCH  12  13
ATOM     13  C   UNL     1     145.518 147.270 133.215  1.00  0.00    -0.014 C 
ATOM     14  C   UNL     1     146.096 147.648 131.827  1.00  0.00     0.016 C 
ATOM     15  C   UNL     1     145.631 148.544 134.091  1.00  0.00     0.016 C 
BRANCH  13  16
ATOM     16  C   UNL     1     146.275 146.104 133.954  1.00  0.00     0.038 CG0
ATOM     17  G   UNL     1     147.087 145.173 133.077  1.00  0.00     0.000 G0
ENDBRANCH  13  16
ENDBRANCH  12  13
ENDBRANCH  10  11
ENDBRANCH   1  10
TORSDOF 0
ENDMDL
MODEL 2
REMARK VINA RESULT:    -3.200      1.074      1.892
REMARK INTER + INTRA:          -3.086
REMARK INTER:                  -3.561
REMARK INTRA:                   0.475
REMARK UNBOUND:                 1.611
REMARK SMILES C=C1CC=CC(C)(C)CC=C(C)CCC1
REMARK SMILES IDX 2 1 1 2 15 3 14 4 13 5 11 6 12 7 10 8 3 10 4 11 5 12 6 13
REMARK SMILES IDX 7 14 8 15 9 16
REMARK H PARENT
REMARK Flexibility Score: 60.00
ROOT
ATOM      1  C   UNL     1     143.135 145.049 132.775  1.00  0.00    -0.074 C 
ATOM      2  C   UNL     1     143.201 145.167 134.116  1.00  0.00     0.008 C 
ENDROOT
BRANCH   1   3
ATOM      3  C   UNL     1     143.446 143.725 132.081  1.00  0.00     0.031 C 
BRANCH   3   4
ATOM      4  C   UNL     1     144.915 143.474 131.667  1.00  0.00     0.009 C 
BRANCH   4   5
ATOM      5  C   UNL     1     145.908 143.302 132.830  1.00  0.00     0.030 C 
BRANCH   5   6
ATOM      6  C   UNL     1     147.304 143.808 132.511  1.00  0.00    -0.077 C 
ATOM      7  C   UNL     1     148.333 142.812 132.038  1.00  0.00     0.039 C 
ATOM      8  C   UNL     1     147.684 145.103 132.637  1.00  0.00    -0.027 CG0
ATOM      9  G   UNL     1     146.810 146.225 133.158  1.00  0.00     0.000 G0
ENDBRANCH   5   6
ENDBRANCH   4   5
ENDBRANCH   3   4
ENDBRANCH   1   3
BRANCH   1  10
ATOM     10  C   UNL     1     143.180 146.333 131.968  1.00  0.00     0.057 C 
BRANCH  10  11
ATOM     11  C   UNL     1     143.778 147.524 132.675  1.00  0.00    -0.026 C 
ATOM     12  C   UNL     1     145.053 147.970 132.618  1.00  0.00    -0.024 C 
BRANCH  12  13
ATOM     13  C   UNL     1     146.296 147.255 132.070  1.00  0.00    -0.014 C 
ATOM     14  C   UNL     1     146.033 146.646 130.669  1.00  0.00     0.016 C 
ATOM     15  C   UNL     1     147.384 148.341 131.871  1.00  0.00     0.016 C 
BRANCH  13  16
ATOM     16  C   UNL     1     146.818 146.235 133.149  1.00  0.00     0.038 CG0
ATOM     17  G   UNL     1     147.684 145.103 132.636  1.00  0.00     0.000 G0
ENDBRANCH  13  16
ENDBRANCH  12  13
ENDBRANCH  10  11
ENDBRANCH   1  10
TORSDOF 0
ENDMDL
MODEL 3
REMARK VINA RESULT:    -3.140      1.459      4.164
REMARK INTER + INTRA:          -2.998
REMARK INTER:                  -3.700
REMARK INTRA:                   0.702
REMARK UNBOUND:                 1.611
REMARK SMILES C=C1CC=CC(C)(C)CC=C(C)CCC1
REMARK SMILES IDX 2 1 1 2 15 3 14 4 13 5 11 6 12 7 10 8 3 10 4 11 5 12 6 13
REMARK SMILES IDX 7 14 8 15 9 16
REMARK H PARENT
REMARK Flexibility Score: 60.00
ROOT
ATOM      1  C   UNL     1     146.049 145.988 130.688  1.00  0.00    -0.074 C 
ATOM      2  C   UNL     1     145.110 145.866 129.729  1.00  0.00     0.008 C 
ENDROOT
BRANCH   1   3
ATOM      3  C   UNL     1     146.541 147.359 131.145  1.00  0.00     0.031 C 
BRANCH   3   4
ATOM      4  C   UNL     1     145.676 148.107 132.186  1.00  0.00     0.009 C 
BRANCH   4   5
ATOM      5  C   UNL     1     145.101 147.234 133.315  1.00  0.00     0.030 C 
BRANCH   5   6
ATOM      6  C   UNL     1     143.732 146.658 132.994  1.00  0.00    -0.077 C 
ATOM      7  C   UNL     1     142.747 147.532 132.258  1.00  0.00     0.039 C 
ATOM      8  C   UNL     1     143.340 145.408 133.339  1.00  0.00    -0.027 CG0
ATOM      9  G   UNL     1     144.166 144.418 134.134  1.00  0.00     0.000 G0
ENDBRANCH   5   6
ENDBRANCH   4   5
ENDBRANCH   3   4
ENDBRANCH   1   3
BRANCH   1  10
ATOM     10  C   UNL     1     146.902 144.765 130.976  1.00  0.00     0.057 C 
BRANCH  10  11
ATOM     11  C   UNL     1     147.253 144.546 132.426  1.00  0.00    -0.026 C 
ATOM     12  C   UNL     1     146.540 143.879 133.361  1.00  0.00    -0.024 C 
BRANCH  12  13
ATOM     13  C   UNL     1     145.078 143.414 133.303  1.00  0.00    -0.014 C 
ATOM     14  C   UNL     1     144.613 143.172 131.845  1.00  0.00     0.016 C 
ATOM     15  C   UNL     1     145.019 142.036 134.009  1.00  0.00     0.016 C 
BRANCH  13  16
ATOM     16  C   UNL     1     144.188 144.420 134.125  1.00  0.00     0.038 CG0
ATOM     17  G   UNL     1     143.355 145.392 133.315  1.00  0.00     0.000 G0
ENDBRANCH  13  16
ENDBRANCH  12  13
ENDBRANCH  10  11
ENDBRANCH   1  10
TORSDOF 0
ENDMDL
MODEL 4
REMARK VINA RESULT:    -3.111      1.629      4.620
REMARK INTER + INTRA:          -2.955
REMARK INTER:                  -3.473
REMARK INTRA:                   0.518
REMARK UNBOUND:                 1.611
REMARK SMILES C=C1CC=CC(C)(C)CC=C(C)CCC1
REMARK SMILES IDX 2 1 1 2 15 3 14 4 13 5 11 6 12 7 10 8 3 10 4 11 5 12 6 13
REMARK SMILES IDX 7 14 8 15 9 16
REMARK H PARENT
REMARK Flexibility Score: 60.00
ROOT
ATOM      1  C   UNL     1     147.527 145.603 132.853  1.00  0.00    -0.074 C 
ATOM      2  C   UNL     1     147.954 145.475 134.125  1.00  0.00     0.008 C 
ENDROOT
BRANCH   1   3
ATOM      3  C   UNL     1     146.838 146.877 132.373  1.00  0.00     0.031 C 
BRANCH   3   4
ATOM      4  C   UNL     1     145.985 147.650 133.406  1.00  0.00     0.009 C 
BRANCH   4   5
ATOM      5  C   UNL     1     144.714 146.926 133.885  1.00  0.00     0.030 C 
BRANCH   5   6
ATOM      6  C   UNL     1     143.620 146.869 132.831  1.00  0.00    -0.077 C 
ATOM      7  C   UNL     1     143.100 148.170 132.274  1.00  0.00     0.039 C 
ATOM      8  C   UNL     1     143.076 145.717 132.370  1.00  0.00    -0.027 CG0
ATOM      9  G   UNL     1     143.425 144.326 132.859  1.00  0.00     0.000 G0
ENDBRANCH   5   6
ENDBRANCH   4   5
ENDBRANCH   3   4
ENDBRANCH   1   3
BRANCH   1  10
ATOM     10  C   UNL     1     147.352 144.324 132.055  1.00  0.00     0.057 C 
BRANCH  10  11
ATOM     11  C   UNL     1     146.658 143.197 132.778  1.00  0.00    -0.026 C 
ATOM     12  C   UNL     1     145.394 142.752 132.603  1.00  0.00    -0.024 C 
BRANCH  12  13
ATOM     13  C   UNL     1     144.235 143.422 131.852  1.00  0.00    -0.014 C 
ATOM     14  C   UNL     1     144.727 144.143 130.571  1.00  0.00     0.016 C 
ATOM     15  C   UNL     1     143.296 142.286 131.374  1.00  0.00     0.016 C 
BRANCH  13  16
ATOM     16  C   UNL     1     143.430 144.329 132.856  1.00  0.00     0.038 CG0
ATOM     17  G   UNL     1     143.076 145.718 132.367  1.00  0.00     0.000 G0
ENDBRANCH  13  16
ENDBRANCH  12  13
ENDBRANCH  10  11
ENDBRANCH   1  10
TORSDOF 0
ENDMDL
MODEL 5
REMARK VINA RESULT:    -3.089      1.705      4.111
REMARK INTER + INTRA:          -2.923
REMARK INTER:                  -3.982
REMARK INTRA:                   1.059
REMARK UNBOUND:                 1.611
REMARK SMILES C=C1CC=CC(C)(C)CC=C(C)CCC1
REMARK SMILES IDX 2 1 1 2 15 3 14 4 13 5 11 6 12 7 10 8 3 10 4 11 5 12 6 13
REMARK SMILES IDX 7 14 8 15 9 16
REMARK H PARENT
REMARK Flexibility Score: 60.00
ROOT
ATOM      1  C   UNL     1     145.762 146.756 133.723  1.00  0.00    -0.074 C 
ATOM      2  C   UNL     1     145.431 147.975 133.253  1.00  0.00     0.008 C 
ENDROOT
BRANCH   1   3
ATOM      3  C   UNL     1     147.143 146.158 133.472  1.00  0.00     0.031 C 
BRANCH   3   4
ATOM      4  C   UNL     1     147.202 144.805 132.726  1.00  0.00     0.009 C 
BRANCH   4   5
ATOM      5  C   UNL     1     147.367 144.900 131.199  1.00  0.00     0.030 C 
BRANCH   5   6
ATOM      6  C   UNL     1     146.184 145.555 130.505  1.00  0.00    -0.077 C 
ATOM      7  C   UNL     1     146.330 146.985 130.048  1.00  0.00     0.039 C 
ATOM      8  C   UNL     1     145.002 144.934 130.282  1.00  0.00    -0.027 CG0
ATOM      9  G   UNL     1     144.652 143.529 130.726  1.00  0.00     0.000 G0
ENDBRANCH   5   6
ENDBRANCH   4   5
ENDBRANCH   3   4
ENDBRANCH   1   3
BRANCH   1  10
ATOM     10  C   UNL     1     144.619 145.834 134.109  1.00  0.00     0.057 C 
BRANCH  10  11
ATOM     11  C   UNL     1     143.485 145.756 133.118  1.00  0.00    -0.026 C 
ATOM     12  C   UNL     1     143.106 144.693 132.372  1.00  0.00    -0.024 C 
BRANCH  12  13
ATOM     13  C   UNL     1     143.869 143.388 132.103  1.00  0.00    -0.014 C 
ATOM     14  C   UNL     1     144.760 142.989 133.307  1.00  0.00     0.016 C 
ATOM     15  C   UNL     1     142.805 142.270 131.965  1.00  0.00     0.016 C 
BRANCH  13  16
ATOM     16  C   UNL     1     144.627 143.511 130.729  1.00  0.00     0.038 CG0
ATOM     17  G   UNL     1     144.988 144.915 130.288  1.00  0.00     0.000 G0
ENDBRANCH  13  16
ENDBRANCH  12  13
ENDBRANCH  10  11
ENDBRANCH   1  10
TORSDOF 0
ENDMDL
MODEL 6
REMARK VINA RESULT:    -2.960      1.361      3.784
REMARK INTER + INTRA:          -2.733
REMARK INTER:                  -3.139
REMARK INTRA:                   0.406
REMARK UNBOUND:                 1.611
REMARK SMILES C=C1CC=CC(C)(C)CC=C(C)CCC1
REMARK SMILES IDX 2 1 1 2 15 3 14 4 13 5 11 6 12 7 10 8 3 10 4 11 5 12 6 13
REMARK SMILES IDX 7 14 8 15 9 16
REMARK H PARENT
REMARK Flexibility Score: 60.00
ROOT
ATOM      1  C   UNL     1     145.018 147.593 132.761  1.00  0.00    -0.074 C 
ATOM      2  C   UNL     1     145.099 147.565 134.106  1.00  0.00     0.008 C 
ENDROOT
BRANCH   1   3
ATOM      3  C   UNL     1     143.714 147.266 132.039  1.00  0.00     0.031 C 
BRANCH   3   4
ATOM      4  C   UNL     1     143.539 145.821 131.516  1.00  0.00     0.009 C 
BRANCH   4   5
ATOM      5  C   UNL     1     143.106 144.787 132.570  1.00  0.00     0.030 C 
BRANCH   5   6
ATOM      6  C   UNL     1     143.687 143.404 132.331  1.00  0.00    -0.077 C 
ATOM      7  C   UNL     1     142.766 142.322 131.822  1.00  0.00     0.039 C 
ATOM      8  C   UNL     1     144.982 143.080 132.559  1.00  0.00    -0.027 CG0
ATOM      9  G   UNL     1     146.031 144.012 133.129  1.00  0.00     0.000 G0
ENDBRANCH   5   6
ENDBRANCH   4   5
ENDBRANCH   3   4
ENDBRANCH   1   3
BRANCH   1  10
ATOM     10  C   UNL     1     146.325 147.521 131.992  1.00  0.00     0.057 C 
BRANCH  10  11
ATOM     11  C   UNL     1     147.486 146.915 132.740  1.00  0.00    -0.026 C 
ATOM     12  C   UNL     1     147.917 145.634 132.709  1.00  0.00    -0.024 C 
BRANCH  12  13
ATOM     13  C   UNL     1     147.203 144.394 132.152  1.00  0.00    -0.014 C 
ATOM     14  C   UNL     1     146.785 144.593 130.673  1.00  0.00     0.016 C 
ATOM     15  C   UNL     1     148.239 143.242 132.158  1.00  0.00     0.016 C 
BRANCH  13  16
ATOM     16  C   UNL     1     146.030 143.999 133.125  1.00  0.00     0.038 CG0
ATOM     17  G   UNL     1     144.982 143.060 132.562  1.00  0.00     0.000 G0
ENDBRANCH  13  16
ENDBRANCH  12  13
ENDBRANCH  10  11
ENDBRANCH   1  10
TORSDOF 0
ENDMDL
MODEL 7
REMARK VINA RESULT:    -2.877      1.560      3.179
REMARK INTER + INTRA:          -2.612
REMARK INTER:                  -3.992
REMARK INTRA:                   1.380
REMARK UNBOUND:                 1.611
REMARK SMILES C=C1CC=CC(C)(C)CC=C(C)CCC1
REMARK SMILES IDX 2 1 1 2 15 3 14 4 13 5 11 6 12 7 10 8 3 10 4 11 5 12 6 13
REMARK SMILES IDX 7 14 8 15 9 16
REMARK H PARENT
REMARK Flexibility Score: 60.00
ROOT
ATOM      1  C   UNL     1     146.650 144.478 133.595  1.00  0.00    -0.074 C 
ATOM      2  C   UNL     1     147.815 144.647 132.938  1.00  0.00     0.008 C 
ENDROOT
BRANCH   1   3
ATOM      3  C   UNL     1     145.831 143.200 133.440  1.00  0.00     0.031 C 
BRANCH   3   4
ATOM      4  C   UNL     1     144.503 143.304 132.655  1.00  0.00     0.009 C 
BRANCH   4   5
ATOM      5  C   UNL     1     144.634 143.218 131.124  1.00  0.00     0.030 C 
BRANCH   5   6
ATOM      6  C   UNL     1     145.381 144.393 130.516  1.00  0.00    -0.077 C 
ATOM      7  C   UNL     1     146.773 144.156 129.986  1.00  0.00     0.039 C 
ATOM      8  C   UNL     1     144.874 145.647 130.432  1.00  0.00    -0.027 CG0
ATOM      9  G   UNL     1     143.527 146.085 130.968  1.00  0.00     0.000 G0
ENDBRANCH   5   6
ENDBRANCH   4   5
ENDBRANCH   3   4
ENDBRANCH   1   3
BRANCH   1  10
ATOM     10  C   UNL     1     145.972 145.729 134.125  1.00  0.00     0.057 C 
BRANCH  10  11
ATOM     11  C   UNL     1     145.999 146.922 133.203  1.00  0.00    -0.026 C 
ATOM     12  C   UNL     1     144.961 147.484 132.542  1.00  0.00    -0.024 C 
BRANCH  12  13
ATOM     13  C   UNL     1     143.552 146.921 132.311  1.00  0.00    -0.014 C 
ATOM     14  C   UNL     1     143.043 146.131 133.544  1.00  0.00     0.016 C 
ATOM     15  C   UNL     1     142.605 148.137 132.157  1.00  0.00     0.016 C 
BRANCH  13  16
ATOM     16  C   UNL     1     143.537 146.118 130.957  1.00  0.00     0.038 CG0
ATOM     17  G   UNL     1     144.884 145.663 130.434  1.00  0.00     0.000 G0
ENDBRANCH  13  16
ENDBRANCH  12  13
ENDBRANCH  10  11
ENDBRANCH   1  10
TORSDOF 0
ENDMDL
MODEL 8
REMARK VINA RESULT:    -2.719      1.685      3.309
REMARK INTER + INTRA:          -2.379
REMARK INTER:                  -3.766
REMARK INTRA:                   1.386
REMARK UNBOUND:                 1.611
REMARK SMILES C=C1CC=CC(C)(C)CC=C(C)CCC1
REMARK SMILES IDX 2 1 1 2 15 3 14 4 13 5 11 6 12 7 10 8 3 10 4 11 5 12 6 13
REMARK SMILES IDX 7 14 8 15 9 16
REMARK H PARENT
REMARK Flexibility Score: 60.00
ROOT
ATOM      1  C   UNL     1     147.238 145.427 132.978  1.00  0.00    -0.074 C 
ATOM      2  C   UNL     1     147.954 145.299 134.113  1.00  0.00     0.008 C 
ENDROOT
BRANCH   1   3
ATOM      3  C   UNL     1     147.045 144.249 132.027  1.00  0.00     0.031 C 
BRANCH   3   4
ATOM      4  C   UNL     1     146.409 142.967 132.611  1.00  0.00     0.009 C 
BRANCH   4   5
ATOM      5  C   UNL     1     145.060 143.168 133.326  1.00  0.00     0.030 C 
BRANCH   5   6
ATOM      6  C   UNL     1     143.893 143.351 132.371  1.00  0.00    -0.077 C 
ATOM      7  C   UNL     1     143.620 142.262 131.363  1.00  0.00     0.039 C 
ATOM      8  C   UNL     1     143.089 144.441 132.363  1.00  0.00    -0.027 CG0
ATOM      9  G   UNL     1     143.251 145.656 133.253  1.00  0.00     0.000 G0
ENDBRANCH   5   6
ENDBRANCH   4   5
ENDBRANCH   3   4
ENDBRANCH   1   3
BRANCH   1  10
ATOM     10  C   UNL     1     147.014 146.837 132.462  1.00  0.00     0.057 C 
BRANCH  10  11
ATOM     11  C   UNL     1     146.126 147.707 133.316  1.00  0.00    -0.026 C 
ATOM     12  C   UNL     1     144.778 147.671 133.417  1.00  0.00    -0.024 C 
BRANCH  12  13
ATOM     13  C   UNL     1     143.765 146.959 132.510  1.00  0.00    -0.014 C 
ATOM     14  C   UNL     1     142.650 147.923 132.031  1.00  0.00     0.016 C 
ATOM     15  C   UNL     1     144.535 146.522 131.238  1.00  0.00     0.016 C 
BRANCH  13  16
ATOM     16  C   UNL     1     143.252 145.660 133.238  1.00  0.00     0.038 CG0
ATOM     17  G   UNL     1     143.080 144.431 132.369  1.00  0.00     0.000 G0
ENDBRANCH  13  16
ENDBRANCH  12  13
ENDBRANCH  10  11
ENDBRANCH   1  10
TORSDOF 0
ENDMDL
MODEL 9
REMARK VINA RESULT:    -2.716      1.066      3.806
REMARK INTER + INTRA:          -2.375
REMARK INTER:                  -3.644
REMARK INTRA:                   1.269
REMARK UNBOUND:                 1.611
REMARK SMILES C=C1CC=CC(C)(C)CC=C(C)CCC1
REMARK SMILES IDX 2 1 1 2 15 3 14 4 13 5 11 6 12 7 10 8 3 10 4 11 5 12 6 13
REMARK SMILES IDX 7 14 8 15 9 16
REMARK H PARENT
REMARK Flexibility Score: 60.00
ROOT
ATOM      1  C   UNL     1     143.530 145.447 132.893  1.00  0.00    -0.074 C 
ATOM      2  C   UNL     1     142.852 145.616 134.045  1.00  0.00     0.008 C 
ENDROOT
BRANCH   1   3
ATOM      3  C   UNL     1     143.814 146.622 131.961  1.00  0.00     0.031 C 
BRANCH   3   4
ATOM      4  C   UNL     1     144.308 147.935 132.611  1.00  0.00     0.009 C 
BRANCH   4   5
ATOM      5  C   UNL     1     145.635 147.830 133.382  1.00  0.00     0.030 C 
BRANCH   5   6
ATOM      6  C   UNL     1     146.834 147.569 132.486  1.00  0.00    -0.077 C 
ATOM      7  C   UNL     1     147.260 148.656 131.531  1.00  0.00     0.039 C 
ATOM      8  C   UNL     1     147.537 146.411 132.486  1.00  0.00    -0.027 CG0
ATOM      9  G   UNL     1     147.217 145.191 133.325  1.00  0.00     0.000 G0
ENDBRANCH   5   6
ENDBRANCH   4   5
ENDBRANCH   3   4
ENDBRANCH   1   3
BRANCH   1  10
ATOM     10  C   UNL     1     143.613 144.034 132.345  1.00  0.00     0.057 C 
BRANCH  10  11
ATOM     11  C   UNL     1     144.464 143.077 133.143  1.00  0.00    -0.026 C 
ATOM     12  C   UNL     1     145.806 143.094 133.302  1.00  0.00    -0.024 C 
BRANCH  12  13
ATOM     13  C   UNL     1     146.857 143.887 132.512  1.00  0.00    -0.014 C 
ATOM     14  C   UNL     1     148.070 143.002 132.127  1.00  0.00     0.016 C 
ATOM     15  C   UNL     1     146.189 144.309 131.179  1.00  0.00     0.016 C 
BRANCH  13  16
ATOM     16  C   UNL     1     147.218 145.195 133.310  1.00  0.00     0.038 CG0
ATOM     17  G   UNL     1     147.531 146.421 132.478  1.00  0.00     0.000 G0
ENDBRANCH  13  16
ENDBRANCH  12  13
ENDBRANCH  10  11
ENDBRANCH   1  10
TORSDOF 0
ENDMDL
