MODEL 1
REMARK VINA RESULT:    -2.110      0.000      0.000
REMARK INTER + INTRA:          -2.110
REMARK INTER:                  -2.110
REMARK INTRA:                   0.000
REMARK UNBOUND:                 0.000
REMARK SMILES CC1(C)C(=O)[C@]2(C)CC[C@H]1C2
REMARK SMILES IDX 1 1 2 2 10 3 9 4 8 5 6 6 11 7 4 8 5 9 7 10 3 11
REMARK H PARENT
REMARK Flexibility Score: inf
ROOT
ATOM      1  C   UNL     1     125.037 109.349 131.279  1.00  0.00     0.020 C 
ATOM      2  C   UNL     1     125.229 110.088 132.619  1.00  0.00     0.027 C 
ATOM      3  C   UNL     1     126.751 110.277 132.964  1.00  0.00     0.003 C 
ATOM      4  C   UNL     1     126.934 111.176 134.214  1.00  0.00     0.005 C 
ATOM      5  C   UNL     1     126.380 110.299 135.359  1.00  0.00     0.015 C 
ATOM      6  C   UNL     1     126.047 108.977 134.640  1.00  0.00     0.027 C 
ATOM      7  C   UNL     1     127.125 108.928 133.577  1.00  0.00     0.019 C 
ATOM      8  C   UNL     1     124.837 109.220 133.781  1.00  0.00     0.144 C 
ATOM      9  O   UNL     1     123.701 108.838 134.026  1.00  0.00    -0.298 OA
ATOM     10  C   UNL     1     125.975 107.741 135.538  1.00  0.00     0.020 C 
ATOM     11  C   UNL     1     124.417 111.401 132.595  1.00  0.00     0.020 C 
ENDROOT
TORSDOF 0
ENDMDL
MODEL 2
REMARK VINA RESULT:    -2.066      1.421      2.912
REMARK INTER + INTRA:          -2.066
REMARK INTER:                  -2.066
REMARK INTRA:                   0.000
REMARK UNBOUND:                 0.000
REMARK SMILES CC1(C)C(=O)[C@]2(C)CC[C@H]1C2
REMARK SMILES IDX 1 1 2 2 10 3 9 4 8 5 6 6 11 7 4 8 5 9 7 10 3 11
REMARK H PARENT
REMARK Flexibility Score: inf
ROOT
ATOM      1  C   UNL     1     123.078 108.554 135.137  1.00  0.00     0.020 C 
ATOM      2  C   UNL     1     124.289 108.500 134.182  1.00  0.00     0.027 C 
ATOM      3  C   UNL     1     125.553 107.883 134.883  1.00  0.00     0.003 C 
ATOM      4  C   UNL     1     126.705 107.665 133.868  1.00  0.00     0.005 C 
ATOM      5  C   UNL     1     127.125 109.106 133.502  1.00  0.00     0.015 C 
ATOM      6  C   UNL     1     126.235 109.962 134.426  1.00  0.00     0.027 C 
ATOM      7  C   UNL     1     126.125 109.075 135.649  1.00  0.00     0.019 C 
ATOM      8  C   UNL     1     124.826 109.875 133.907  1.00  0.00     0.144 C 
ATOM      9  O   UNL     1     124.239 110.754 133.292  1.00  0.00    -0.298 OA
ATOM     10  C   UNL     1     126.746 111.377 134.703  1.00  0.00     0.020 C 
ATOM     11  C   UNL     1     123.874 107.783 132.879  1.00  0.00     0.020 C 
ENDROOT
TORSDOF 0
ENDMDL
MODEL 3
REMARK VINA RESULT:    -2.022      0.943      3.220
REMARK INTER + INTRA:          -2.022
REMARK INTER:                  -2.022
REMARK INTRA:                   0.000
REMARK UNBOUND:                 0.000
REMARK SMILES CC1(C)C(=O)[C@]2(C)CC[C@H]1C2
REMARK SMILES IDX 1 1 2 2 10 3 9 4 8 5 6 6 11 7 4 8 5 9 7 10 3 11
REMARK H PARENT
REMARK Flexibility Score: inf
ROOT
ATOM      1  C   UNL     1     126.209 110.692 135.879  1.00  0.00     0.020 C 
ATOM      2  C   UNL     1     126.040 109.428 135.010  1.00  0.00     0.027 C 
ATOM      3  C   UNL     1     127.125 109.357 133.874  1.00  0.00     0.003 C 
ATOM      4  C   UNL     1     127.062 108.001 133.125  1.00  0.00     0.005 C 
ATOM      5  C   UNL     1     125.714 108.080 132.373  1.00  0.00     0.015 C 
ATOM      6  C   UNL     1     125.227 109.505 132.704  1.00  0.00     0.027 C 
ATOM      7  C   UNL     1     126.536 110.262 132.792  1.00  0.00     0.019 C 
ATOM      8  C   UNL     1     124.813 109.519 134.149  1.00  0.00     0.144 C 
ATOM      9  O   UNL     1     123.661 109.526 134.560  1.00  0.00    -0.298 OA
ATOM     10  C   UNL     1     124.210 110.094 131.725  1.00  0.00     0.020 C 
ATOM     11  C   UNL     1     125.999 108.186 135.926  1.00  0.00     0.020 C 
ENDROOT
TORSDOF 0
ENDMDL
MODEL 4
REMARK VINA RESULT:    -2.007      1.675      2.974
REMARK INTER + INTRA:          -2.007
REMARK INTER:                  -2.007
REMARK INTRA:                   0.000
REMARK UNBOUND:                 0.000
REMARK SMILES CC1(C)C(=O)[C@]2(C)CC[C@H]1C2
REMARK SMILES IDX 1 1 2 2 10 3 9 4 8 5 6 6 11 7 4 8 5 9 7 10 3 11
REMARK H PARENT
REMARK Flexibility Score: inf
ROOT
ATOM      1  C   UNL     1     124.376 111.443 136.407  1.00  0.00     0.020 C 
ATOM      2  C   UNL     1     125.671 110.939 135.737  1.00  0.00     0.027 C 
ATOM      3  C   UNL     1     125.568 110.984 134.170  1.00  0.00     0.003 C 
ATOM      4  C   UNL     1     126.931 110.650 133.510  1.00  0.00     0.005 C 
ATOM      5  C   UNL     1     127.125 109.155 133.846  1.00  0.00     0.015 C 
ATOM      6  C   UNL     1     125.808 108.797 134.563  1.00  0.00     0.027 C 
ATOM      7  C   UNL     1     124.818 109.692 133.847  1.00  0.00     0.019 C 
ATOM      8  C   UNL     1     125.834 109.456 135.914  1.00  0.00     0.144 C 
ATOM      9  O   UNL     1     126.031 108.889 136.979  1.00  0.00    -0.298 OA
ATOM     10  C   UNL     1     125.445 107.311 134.566  1.00  0.00     0.020 C 
ATOM     11  C   UNL     1     126.875 111.713 136.316  1.00  0.00     0.020 C 
ENDROOT
TORSDOF 0
ENDMDL
MODEL 5
REMARK VINA RESULT:    -1.996      1.176      1.750
REMARK INTER + INTRA:          -1.996
REMARK INTER:                  -1.996
REMARK INTRA:                   0.000
REMARK UNBOUND:                 0.000
REMARK SMILES CC1(C)C(=O)[C@]2(C)CC[C@H]1C2
REMARK SMILES IDX 1 1 2 2 10 3 9 4 8 5 6 6 11 7 4 8 5 9 7 10 3 11
REMARK H PARENT
REMARK Flexibility Score: inf
ROOT
ATOM      1  C   UNL     1     124.826 111.435 132.369  1.00  0.00     0.020 C 
ATOM      2  C   UNL     1     124.813 110.530 133.618  1.00  0.00     0.027 C 
ATOM      3  C   UNL     1     126.112 110.719 134.484  1.00  0.00     0.003 C 
ATOM      4  C   UNL     1     126.008 109.946 135.824  1.00  0.00     0.005 C 
ATOM      5  C   UNL     1     126.048 108.467 135.378  1.00  0.00     0.015 C 
ATOM      6  C   UNL     1     126.272 108.580 133.857  1.00  0.00     0.027 C 
ATOM      7  C   UNL     1     127.125 109.828 133.766  1.00  0.00     0.019 C 
ATOM      8  C   UNL     1     124.994 109.086 133.247  1.00  0.00     0.144 C 
ATOM      9  O   UNL     1     124.192 108.413 132.614  1.00  0.00    -0.298 OA
ATOM     10  C   UNL     1     126.872 107.342 133.188  1.00  0.00     0.020 C 
ATOM     11  C   UNL     1     123.497 110.754 134.393  1.00  0.00     0.020 C 
ENDROOT
TORSDOF 0
ENDMDL
MODEL 6
REMARK VINA RESULT:    -1.979      2.388      3.424
REMARK INTER + INTRA:          -1.979
REMARK INTER:                  -1.979
REMARK INTRA:                   0.000
REMARK UNBOUND:                 0.000
REMARK SMILES CC1(C)C(=O)[C@]2(C)CC[C@H]1C2
REMARK SMILES IDX 1 1 2 2 10 3 9 4 8 5 6 6 11 7 4 8 5 9 7 10 3 11
REMARK H PARENT
REMARK Flexibility Score: inf
ROOT
ATOM      1  C   UNL     1     126.743 109.819 134.310  1.00  0.00     0.020 C 
ATOM      2  C   UNL     1     125.613 110.049 135.335  1.00  0.00     0.027 C 
ATOM      3  C   UNL     1     125.671 111.496 135.946  1.00  0.00     0.003 C 
ATOM      4  C   UNL     1     124.431 111.779 136.833  1.00  0.00     0.005 C 
ATOM      5  C   UNL     1     124.643 110.837 138.040  1.00  0.00     0.015 C 
ATOM      6  C   UNL     1     126.021 110.213 137.742  1.00  0.00     0.027 C 
ATOM      7  C   UNL     1     126.727 111.355 137.041  1.00  0.00     0.019 C 
ATOM      8  C   UNL     1     125.849 109.260 136.591  1.00  0.00     0.144 C 
ATOM      9  O   UNL     1     125.828 108.041 136.674  1.00  0.00    -0.298 OA
ATOM     10  C   UNL     1     126.762 109.648 138.955  1.00  0.00     0.020 C 
ATOM     11  C   UNL     1     124.259 109.689 134.687  1.00  0.00     0.020 C 
ENDROOT
TORSDOF 0
ENDMDL
MODEL 7
REMARK VINA RESULT:    -1.889      1.554      2.746
REMARK INTER + INTRA:          -1.889
REMARK INTER:                  -1.889
REMARK INTRA:                   0.000
REMARK UNBOUND:                 0.000
REMARK SMILES CC1(C)C(=O)[C@]2(C)CC[C@H]1C2
REMARK SMILES IDX 1 1 2 2 10 3 9 4 8 5 6 6 11 7 4 8 5 9 7 10 3 11
REMARK H PARENT
REMARK Flexibility Score: inf
ROOT
ATOM      1  C   UNL     1     127.093 107.507 133.264  1.00  0.00     0.020 C 
ATOM      2  C   UNL     1     126.352 108.657 133.979  1.00  0.00     0.027 C 
ATOM      3  C   UNL     1     126.138 108.347 135.505  1.00  0.00     0.003 C 
ATOM      4  C   UNL     1     125.560 109.578 136.249  1.00  0.00     0.005 C 
ATOM      5  C   UNL     1     124.132 109.698 135.670  1.00  0.00     0.015 C 
ATOM      6  C   UNL     1     124.038 108.466 134.749  1.00  0.00     0.027 C 
ATOM      7  C   UNL     1     124.892 107.461 135.494  1.00  0.00     0.019 C 
ATOM      8  C   UNL     1     124.913 108.725 133.554  1.00  0.00     0.144 C 
ATOM      9  O   UNL     1     124.521 109.019 132.434  1.00  0.00    -0.298 OA
ATOM     10  C   UNL     1     122.619 107.991 134.431  1.00  0.00     0.020 C 
ATOM     11  C   UNL     1     127.089 109.984 133.699  1.00  0.00     0.020 C 
ENDROOT
TORSDOF 0
ENDMDL
MODEL 8
REMARK VINA RESULT:    -1.823      2.348      3.633
REMARK INTER + INTRA:          -1.823
REMARK INTER:                  -1.823
REMARK INTRA:                   0.000
REMARK UNBOUND:                 0.000
REMARK SMILES CC1(C)C(=O)[C@]2(C)CC[C@H]1C2
REMARK SMILES IDX 1 1 2 2 10 3 9 4 8 5 6 6 11 7 4 8 5 9 7 10 3 11
REMARK H PARENT
REMARK Flexibility Score: inf
ROOT
ATOM      1  C   UNL     1     124.749 110.991 134.289  1.00  0.00     0.020 C 
ATOM      2  C   UNL     1     125.595 109.923 135.014  1.00  0.00     0.027 C 
ATOM      3  C   UNL     1     124.722 108.691 135.451  1.00  0.00     0.003 C 
ATOM      4  C   UNL     1     125.607 107.549 136.012  1.00  0.00     0.005 C 
ATOM      5  C   UNL     1     126.141 108.139 137.336  1.00  0.00     0.015 C 
ATOM      6  C   UNL     1     125.417 109.497 137.416  1.00  0.00     0.027 C 
ATOM      7  C   UNL     1     124.091 109.175 136.757  1.00  0.00     0.019 C 
ATOM      8  C   UNL     1     126.021 110.396 136.374  1.00  0.00     0.144 C 
ATOM      9  O   UNL     1     126.795 111.318 136.591  1.00  0.00    -0.298 OA
ATOM     10  C   UNL     1     125.306 110.100 138.818  1.00  0.00     0.020 C 
ATOM     11  C   UNL     1     126.810 109.558 134.135  1.00  0.00     0.020 C 
ENDROOT
TORSDOF 0
ENDMDL
