MODEL 1
REMARK VINA RESULT:    -5.432      0.000      0.000
REMARK INTER + INTRA:          -6.108
REMARK INTER:                  -6.067
REMARK INTRA:                  -0.040
REMARK UNBOUND:                -0.040
REMARK SMILES O=C([O-])c1ccc(O)c(O)c1
REMARK SMILES IDX 4 1 11 2 5 3 9 4 6 5 7 6 2 7 1 8 3 9 10 10 8 12
REMARK H PARENT 10 11 8 13
REMARK Flexibility Score: inf
ROOT
ATOM      1  C   UNL     1     -33.386  -3.586 -18.625  1.00  0.00     0.001 A 
ATOM      2  C   UNL     1     -33.638  -3.166 -19.944  1.00  0.00     0.060 A 
ATOM      3  C   UNL     1     -32.106  -3.389 -18.079  1.00  0.00     0.014 A 
ATOM      4  C   UNL     1     -32.627  -2.560 -20.704  1.00  0.00     0.158 A 
ATOM      5  C   UNL     1     -31.098  -2.786 -18.839  1.00  0.00     0.051 A 
ATOM      6  C   UNL     1     -31.355  -2.370 -20.150  1.00  0.00     0.157 A 
ENDROOT
BRANCH   1   7
ATOM      7  C   UNL     1     -34.450  -4.225 -17.819  1.00  0.00     0.072 C 
ATOM      8  O   UNL     1     -34.607  -3.919 -16.607  1.00  0.00    -0.545 OA
ATOM      9  O   UNL     1     -35.292  -5.174 -18.389  1.00  0.00    -0.545 OA
ENDBRANCH   1   7
BRANCH   4  10
ATOM     10  O   UNL     1     -32.879  -2.146 -22.011  1.00  0.00    -0.504 OA
ATOM     11  H   UNL     1     -32.316  -1.433 -22.460  1.00  0.00     0.293 HD
ENDBRANCH   4  10
BRANCH   6  12
ATOM     12  O   UNL     1     -30.354  -1.768 -20.909  1.00  0.00    -0.504 OA
ATOM     13  H   UNL     1     -29.454  -1.530 -20.507  1.00  0.00     0.293 HD
ENDBRANCH   6  12
TORSDOF 3
ENDMDL
MODEL 2
REMARK VINA RESULT:    -5.150      2.519      3.724
REMARK INTER + INTRA:          -5.792
REMARK INTER:                  -5.749
REMARK INTRA:                  -0.043
REMARK UNBOUND:                -0.040
REMARK SMILES O=C([O-])c1ccc(O)c(O)c1
REMARK SMILES IDX 4 1 11 2 5 3 9 4 6 5 7 6 2 7 1 8 3 9 10 10 8 12
REMARK H PARENT 10 11 8 13
REMARK Flexibility Score: inf
ROOT
ATOM      1  C   UNL     1     -30.209  -3.446 -18.860  1.00  0.00     0.001 A 
ATOM      2  C   UNL     1     -29.723  -2.879 -20.053  1.00  0.00     0.060 A 
ATOM      3  C   UNL     1     -31.596  -3.468 -18.632  1.00  0.00     0.014 A 
ATOM      4  C   UNL     1     -30.609  -2.344 -21.001  1.00  0.00     0.158 A 
ATOM      5  C   UNL     1     -32.477  -2.934 -19.576  1.00  0.00     0.051 A 
ATOM      6  C   UNL     1     -31.988  -2.372 -20.762  1.00  0.00     0.157 A 
ENDROOT
BRANCH   1   7
ATOM      7  C   UNL     1     -29.279  -4.011 -17.858  1.00  0.00     0.072 C 
ATOM      8  O   UNL     1     -28.073  -3.648 -17.828  1.00  0.00    -0.545 OA
ATOM      9  O   UNL     1     -29.722  -4.952 -16.936  1.00  0.00    -0.545 OA
ENDBRANCH   1   7
BRANCH   4  10
ATOM     10  O   UNL     1     -30.124  -1.783 -22.181  1.00  0.00    -0.504 OA
ATOM     11  H   UNL     1     -29.528  -2.307 -22.812  1.00  0.00     0.293 HD
ENDBRANCH   4  10
BRANCH   6  12
ATOM     12  O   UNL     1     -32.864  -1.840 -21.705  1.00  0.00    -0.504 OA
ATOM     13  H   UNL     1     -33.730  -1.391 -21.431  1.00  0.00     0.293 HD
ENDBRANCH   6  12
TORSDOF 3
ENDMDL
MODEL 3
REMARK VINA RESULT:    -5.105      2.103      2.889
REMARK INTER + INTRA:          -5.742
REMARK INTER:                  -5.704
REMARK INTRA:                  -0.038
REMARK UNBOUND:                -0.040
REMARK SMILES O=C([O-])c1ccc(O)c(O)c1
REMARK SMILES IDX 4 1 11 2 5 3 9 4 6 5 7 6 2 7 1 8 3 9 10 10 8 12
REMARK H PARENT 10 11 8 13
REMARK Flexibility Score: inf
ROOT
ATOM      1  C   UNL     1     -31.306  -3.378 -18.464  1.00  0.00     0.001 A 
ATOM      2  C   UNL     1     -32.684  -3.481 -18.731  1.00  0.00     0.060 A 
ATOM      3  C   UNL     1     -30.466  -2.800 -19.431  1.00  0.00     0.014 A 
ATOM      4  C   UNL     1     -33.212  -3.012 -19.944  1.00  0.00     0.158 A 
ATOM      5  C   UNL     1     -30.993  -2.334 -20.639  1.00  0.00     0.051 A 
ATOM      6  C   UNL     1     -32.364  -2.438 -20.899  1.00  0.00     0.157 A 
ENDROOT
BRANCH   1   7
ATOM      7  C   UNL     1     -30.745  -3.871 -17.186  1.00  0.00     0.072 C 
ATOM      8  O   UNL     1     -31.160  -3.416 -16.087  1.00  0.00    -0.545 OA
ATOM      9  O   UNL     1     -29.752  -4.843 -17.181  1.00  0.00    -0.545 OA
ENDBRANCH   1   7
BRANCH   4  10
ATOM     10  O   UNL     1     -34.577  -3.116 -20.205  1.00  0.00    -0.504 OA
ATOM     11  H   UNL     1     -34.940  -3.072 -21.150  1.00  0.00     0.293 HD
ENDBRANCH   4  10
BRANCH   6  12
ATOM     12  O   UNL     1     -32.893  -1.974 -22.102  1.00  0.00    -0.504 OA
ATOM     13  H   UNL     1     -32.927  -2.562 -22.927  1.00  0.00     0.293 HD
ENDBRANCH   6  12
TORSDOF 3
ENDMDL
MODEL 4
REMARK VINA RESULT:    -4.955      1.577      4.930
REMARK INTER + INTRA:          -5.575
REMARK INTER:                  -5.531
REMARK INTRA:                  -0.044
REMARK UNBOUND:                -0.040
REMARK SMILES O=C([O-])c1ccc(O)c(O)c1
REMARK SMILES IDX 4 1 11 2 5 3 9 4 6 5 7 6 2 7 1 8 3 9 10 10 8 12
REMARK H PARENT 10 11 8 13
REMARK Flexibility Score: inf
ROOT
ATOM      1  C   UNL     1     -30.900  -2.468 -20.389  1.00  0.00     0.001 A 
ATOM      2  C   UNL     1     -30.481  -2.660 -19.059  1.00  0.00     0.060 A 
ATOM      3  C   UNL     1     -32.236  -2.741 -20.728  1.00  0.00     0.014 A 
ATOM      4  C   UNL     1     -31.382  -3.118 -18.087  1.00  0.00     0.158 A 
ATOM      5  C   UNL     1     -33.134  -3.198 -19.758  1.00  0.00     0.051 A 
ATOM      6  C   UNL     1     -32.711  -3.387 -18.437  1.00  0.00     0.157 A 
ENDROOT
BRANCH   1   7
ATOM      7  C   UNL     1     -29.952  -1.986 -21.417  1.00  0.00     0.072 C 
ATOM      8  O   UNL     1     -30.374  -1.545 -22.520  1.00  0.00    -0.545 OA
ATOM      9  O   UNL     1     -28.583  -2.013 -21.182  1.00  0.00    -0.545 OA
ENDBRANCH   1   7
BRANCH   4  10
ATOM     10  O   UNL     1     -30.964  -3.308 -16.771  1.00  0.00    -0.504 OA
ATOM     11  H   UNL     1     -31.138  -2.614 -16.053  1.00  0.00     0.293 HD
ENDBRANCH   4  10
BRANCH   6  12
ATOM     12  O   UNL     1     -33.603  -3.841 -17.468  1.00  0.00    -0.504 OA
ATOM     13  H   UNL     1     -34.463  -3.345 -17.265  1.00  0.00     0.293 HD
ENDBRANCH   6  12
TORSDOF 3
ENDMDL
MODEL 5
REMARK VINA RESULT:    -4.869      6.024      7.607
REMARK INTER + INTRA:          -5.478
REMARK INTER:                  -5.442
REMARK INTRA:                  -0.036
REMARK UNBOUND:                -0.040
REMARK SMILES O=C([O-])c1ccc(O)c(O)c1
REMARK SMILES IDX 4 1 11 2 5 3 9 4 6 5 7 6 2 7 1 8 3 9 10 10 8 12
REMARK H PARENT 10 11 8 13
REMARK Flexibility Score: inf
ROOT
ATOM      1  C   UNL     1     -36.946  -6.553 -15.872  1.00  0.00     0.001 A 
ATOM      2  C   UNL     1     -36.414  -5.850 -14.775  1.00  0.00     0.060 A 
ATOM      3  C   UNL     1     -36.798  -7.950 -15.924  1.00  0.00     0.014 A 
ATOM      4  C   UNL     1     -35.746  -6.533 -13.748  1.00  0.00     0.158 A 
ATOM      5  C   UNL     1     -36.130  -8.629 -14.900  1.00  0.00     0.051 A 
ATOM      6  C   UNL     1     -35.604  -7.925 -13.811  1.00  0.00     0.157 A 
ENDROOT
BRANCH   1   7
ATOM      7  C   UNL     1     -37.652  -5.836 -16.958  1.00  0.00     0.072 C 
ATOM      8  O   UNL     1     -37.046  -5.523 -18.017  1.00  0.00    -0.545 OA
ATOM      9  O   UNL     1     -38.993  -5.499 -16.823  1.00  0.00    -0.545 OA
ENDBRANCH   1   7
BRANCH   4  10
ATOM     10  O   UNL     1     -35.219  -5.835 -12.663  1.00  0.00    -0.504 OA
ATOM     11  H   UNL     1     -34.814  -6.316 -11.868  1.00  0.00     0.293 HD
ENDBRANCH   4  10
BRANCH   6  12
ATOM     12  O   UNL     1     -34.939  -8.599 -12.789  1.00  0.00    -0.504 OA
ATOM     13  H   UNL     1     -34.276  -9.340 -12.986  1.00  0.00     0.293 HD
ENDBRANCH   6  12
TORSDOF 3
ENDMDL
MODEL 6
REMARK VINA RESULT:    -4.723      7.513      8.286
REMARK INTER + INTRA:          -5.315
REMARK INTER:                  -5.275
REMARK INTRA:                  -0.040
REMARK UNBOUND:                -0.040
REMARK SMILES O=C([O-])c1ccc(O)c(O)c1
REMARK SMILES IDX 4 1 11 2 5 3 9 4 6 5 7 6 2 7 1 8 3 9 10 10 8 12
REMARK H PARENT 10 11 8 13
REMARK Flexibility Score: inf
ROOT
ATOM      1  C   UNL     1     -37.962  -5.997 -13.779  1.00  0.00     0.001 A 
ATOM      2  C   UNL     1     -38.755  -6.871 -14.544  1.00  0.00     0.060 A 
ATOM      3  C   UNL     1     -36.568  -6.183 -13.758  1.00  0.00     0.014 A 
ATOM      4  C   UNL     1     -38.166  -7.913 -15.276  1.00  0.00     0.158 A 
ATOM      5  C   UNL     1     -35.982  -7.222 -14.486  1.00  0.00     0.051 A 
ATOM      6  C   UNL     1     -36.777  -8.088 -15.247  1.00  0.00     0.157 A 
ENDROOT
BRANCH   1   7
ATOM      7  C   UNL     1     -38.579  -4.896 -13.006  1.00  0.00     0.072 C 
ATOM      8  O   UNL     1     -38.077  -3.741 -13.023  1.00  0.00    -0.545 OA
ATOM      9  O   UNL     1     -39.723  -5.122 -12.249  1.00  0.00    -0.545 OA
ENDBRANCH   1   7
BRANCH   4  10
ATOM     10  O   UNL     1     -38.955  -8.777 -16.032  1.00  0.00    -0.504 OA
ATOM     11  H   UNL     1     -38.544  -9.439 -16.682  1.00  0.00     0.293 HD
ENDBRANCH   4  10
BRANCH   6  12
ATOM     12  O   UNL     1     -36.196  -9.124 -15.974  1.00  0.00    -0.504 OA
ATOM     13  H   UNL     1     -36.484 -10.088 -15.849  1.00  0.00     0.293 HD
ENDBRANCH   6  12
TORSDOF 3
ENDMDL
MODEL 7
REMARK VINA RESULT:    -4.682      6.142      8.123
REMARK INTER + INTRA:          -5.270
REMARK INTER:                  -5.231
REMARK INTRA:                  -0.039
REMARK UNBOUND:                -0.040
REMARK SMILES O=C([O-])c1ccc(O)c(O)c1
REMARK SMILES IDX 4 1 11 2 5 3 9 4 6 5 7 6 2 7 1 8 3 9 10 10 8 12
REMARK H PARENT 10 11 8 13
REMARK Flexibility Score: inf
ROOT
ATOM      1  C   UNL     1     -38.844  -7.290 -14.506  1.00  0.00     0.001 A 
ATOM      2  C   UNL     1     -37.940  -8.326 -14.806  1.00  0.00     0.060 A 
ATOM      3  C   UNL     1     -38.641  -6.022 -15.077  1.00  0.00     0.014 A 
ATOM      4  C   UNL     1     -36.852  -8.097 -15.662  1.00  0.00     0.158 A 
ATOM      5  C   UNL     1     -37.557  -5.794 -15.929  1.00  0.00     0.051 A 
ATOM      6  C   UNL     1     -36.661  -6.829 -16.225  1.00  0.00     0.157 A 
ENDROOT
BRANCH   1   7
ATOM      7  C   UNL     1     -39.992  -7.527 -13.603  1.00  0.00     0.072 C 
ATOM      8  O   UNL     1     -40.219  -6.750 -12.638  1.00  0.00    -0.545 OA
ATOM      9  O   UNL     1     -40.836  -8.612 -13.807  1.00  0.00    -0.545 OA
ENDBRANCH   1   7
BRANCH   4  10
ATOM     10  O   UNL     1     -35.958  -9.125 -15.957  1.00  0.00    -0.504 OA
ATOM     11  H   UNL     1     -36.107 -10.070 -15.623  1.00  0.00     0.293 HD
ENDBRANCH   4  10
BRANCH   6  12
ATOM     12  O   UNL     1     -35.580  -6.606 -17.074  1.00  0.00    -0.504 OA
ATOM     13  H   UNL     1     -35.432  -5.708 -17.521  1.00  0.00     0.293 HD
ENDBRANCH   6  12
TORSDOF 3
ENDMDL
MODEL 8
REMARK VINA RESULT:    -4.632      6.877      8.320
REMARK INTER + INTRA:          -5.214
REMARK INTER:                  -5.174
REMARK INTRA:                  -0.040
REMARK UNBOUND:                -0.040
REMARK SMILES O=C([O-])c1ccc(O)c(O)c1
REMARK SMILES IDX 4 1 11 2 5 3 9 4 6 5 7 6 2 7 1 8 3 9 10 10 8 12
REMARK H PARENT 10 11 8 13
REMARK Flexibility Score: inf
ROOT
ATOM      1  C   UNL     1     -36.866  -5.989 -13.974  1.00  0.00     0.001 A 
ATOM      2  C   UNL     1     -36.239  -7.038 -14.671  1.00  0.00     0.060 A 
ATOM      3  C   UNL     1     -38.264  -6.002 -13.836  1.00  0.00     0.014 A 
ATOM      4  C   UNL     1     -36.999  -8.083 -15.220  1.00  0.00     0.158 A 
ATOM      5  C   UNL     1     -39.020  -7.043 -14.384  1.00  0.00     0.051 A 
ATOM      6  C   UNL     1     -38.391  -8.084 -15.076  1.00  0.00     0.157 A 
ENDROOT
BRANCH   1   7
ATOM      7  C   UNL     1     -36.069  -4.886 -13.394  1.00  0.00     0.072 C 
ATOM      8  O   UNL     1     -36.316  -4.459 -12.234  1.00  0.00    -0.545 OA
ATOM      9  O   UNL     1     -35.036  -4.304 -14.120  1.00  0.00    -0.545 OA
ENDBRANCH   1   7
BRANCH   4  10
ATOM     10  O   UNL     1     -36.375  -9.121 -15.911  1.00  0.00    -0.504 OA
ATOM     11  H   UNL     1     -36.655  -9.376 -16.851  1.00  0.00     0.293 HD
ENDBRANCH   4  10
BRANCH   6  12
ATOM     12  O   UNL     1     -39.141  -9.123 -15.623  1.00  0.00    -0.504 OA
ATOM     13  H   UNL     1     -38.755 -10.054 -15.737  1.00  0.00     0.293 HD
ENDBRANCH   6  12
TORSDOF 3
ENDMDL
MODEL 9
REMARK VINA RESULT:    -4.608      6.015      7.408
REMARK INTER + INTRA:          -5.187
REMARK INTER:                  -5.144
REMARK INTRA:                  -0.043
REMARK UNBOUND:                -0.040
REMARK SMILES O=C([O-])c1ccc(O)c(O)c1
REMARK SMILES IDX 4 1 11 2 5 3 9 4 6 5 7 6 2 7 1 8 3 9 10 10 8 12
REMARK H PARENT 10 11 8 13
REMARK Flexibility Score: inf
ROOT
ATOM      1  C   UNL     1     -36.347  -5.114 -14.604  1.00  0.00     0.001 A 
ATOM      2  C   UNL     1     -35.969  -6.127 -13.703  1.00  0.00     0.060 A 
ATOM      3  C   UNL     1     -36.635  -5.458 -15.936  1.00  0.00     0.014 A 
ATOM      4  C   UNL     1     -35.881  -7.462 -14.128  1.00  0.00     0.158 A 
ATOM      5  C   UNL     1     -36.545  -6.788 -16.358  1.00  0.00     0.051 A 
ATOM      6  C   UNL     1     -36.169  -7.792 -15.458  1.00  0.00     0.157 A 
ENDROOT
BRANCH   1   7
ATOM      7  C   UNL     1     -36.442  -3.706 -14.160  1.00  0.00     0.072 C 
ATOM      8  O   UNL     1     -36.516  -3.424 -12.934  1.00  0.00    -0.545 OA
ATOM      9  O   UNL     1     -36.452  -2.673 -15.090  1.00  0.00    -0.545 OA
ENDBRANCH   1   7
BRANCH   4  10
ATOM     10  O   UNL     1     -35.505  -8.463 -13.234  1.00  0.00    -0.504 OA
ATOM     11  H   UNL     1     -35.470  -9.437 -13.513  1.00  0.00     0.293 HD
ENDBRANCH   4  10
BRANCH   6  12
ATOM     12  O   UNL     1     -36.080  -9.118 -15.875  1.00  0.00    -0.504 OA
ATOM     13  H   UNL     1     -36.619  -9.852 -15.431  1.00  0.00     0.293 HD
ENDBRANCH   6  12
TORSDOF 3
ENDMDL
