MODEL 1
REMARK VINA RESULT:    -4.944      0.000      0.000
REMARK INTER + INTRA:          -9.988
REMARK INTER:                  -8.702
REMARK INTRA:                  -1.286
REMARK UNBOUND:                -1.286
REMARK SMILES CCCCCCCCCCCCCCC(=O)[O-]
REMARK SMILES IDX 9 1 10 2 11 3 12 4 13 5 14 6 15 7 16 8 17 9 8 10 7 11 6 12
REMARK SMILES IDX 5 13 4 14 3 15 2 16 1 17
REMARK H PARENT
REMARK Flexibility Score: inf
ROOT
ATOM      1  C   UNL     1       7.070 -13.106  -3.749  1.00  0.00     0.000 C 
ENDROOT
BRANCH   1   2
ATOM      2  C   UNL     1       5.553 -13.310  -3.880  1.00  0.00     0.000 C 
BRANCH   2   3
ATOM      3  C   UNL     1       5.089 -13.067  -5.321  1.00  0.00     0.000 C 
BRANCH   3   4
ATOM      4  C   UNL     1       4.247 -11.790  -5.420  1.00  0.00     0.000 C 
BRANCH   4   5
ATOM      5  C   UNL     1       4.750 -10.885  -6.554  1.00  0.00     0.006 C 
BRANCH   5   6
ATOM      6  C   UNL     1       4.449  -9.403  -6.292  1.00  0.00     0.053 C 
BRANCH   6   7
ATOM      7  C   UNL     1       4.642  -8.570  -7.522  1.00  0.00     0.041 C 
ATOM      8  O   UNL     1       3.905  -8.744  -8.528  1.00  0.00    -0.550 OA
ATOM      9  O   UNL     1       5.660  -7.625  -7.570  1.00  0.00    -0.550 OA
ENDBRANCH   6   7
ENDBRANCH   5   6
ENDBRANCH   4   5
ENDBRANCH   3   4
ENDBRANCH   2   3
ENDBRANCH   1   2
BRANCH   1  10
ATOM     10  C   UNL     1       7.658 -13.758  -2.484  1.00  0.00     0.000 C 
BRANCH  10  11
ATOM     11  C   UNL     1       7.405 -12.986  -1.176  1.00  0.00    -0.000 C 
BRANCH  11  12
ATOM     12  C   UNL     1       8.699 -12.643  -0.423  1.00  0.00    -0.000 C 
BRANCH  12  13
ATOM     13  C   UNL     1       8.680 -11.185   0.063  1.00  0.00    -0.000 C 
BRANCH  13  14
ATOM     14  C   UNL     1       7.961 -10.241  -0.915  1.00  0.00    -0.000 C 
BRANCH  14  15
ATOM     15  C   UNL     1       6.940  -9.329  -0.213  1.00  0.00    -0.000 C 
BRANCH  15  16
ATOM     16  C   UNL     1       5.637  -9.180  -1.013  1.00  0.00    -0.003 C 
ATOM     17  C   UNL     1       5.667  -9.935  -2.342  1.00  0.00     0.004 C 
ENDBRANCH  15  16
ENDBRANCH  14  15
ENDBRANCH  13  14
ENDBRANCH  12  13
ENDBRANCH  11  12
ENDBRANCH  10  11
ENDBRANCH   1  10
TORSDOF 13
ENDMDL
MODEL 2
REMARK VINA RESULT:    -4.932      3.873      4.739
REMARK INTER + INTRA:          -9.967
REMARK INTER:                  -8.124
REMARK INTRA:                  -1.843
REMARK UNBOUND:                -1.286
REMARK SMILES CCCCCCCCCCCCCCC(=O)[O-]
REMARK SMILES IDX 9 1 10 2 11 3 12 4 13 5 14 6 15 7 16 8 17 9 8 10 7 11 6 12
REMARK SMILES IDX 5 13 4 14 3 15 2 16 1 17
REMARK H PARENT
REMARK Flexibility Score: inf
ROOT
ATOM      1  C   UNL     1       7.246 -13.176  -3.924  1.00  0.00     0.000 C 
ENDROOT
BRANCH   1   2
ATOM      2  C   UNL     1       5.996 -12.290  -3.823  1.00  0.00     0.000 C 
BRANCH   2   3
ATOM      3  C   UNL     1       4.859 -12.844  -4.688  1.00  0.00     0.000 C 
BRANCH   3   4
ATOM      4  C   UNL     1       3.919 -13.729  -3.862  1.00  0.00     0.000 C 
BRANCH   4   5
ATOM      5  C   UNL     1       3.725 -13.159  -2.449  1.00  0.00     0.006 C 
BRANCH   5   6
ATOM      6  C   UNL     1       3.783 -14.248  -1.370  1.00  0.00     0.053 C 
BRANCH   6   7
ATOM      7  C   UNL     1       3.200 -13.777  -0.072  1.00  0.00     0.041 C 
ATOM      8  O   UNL     1       3.117 -14.564   0.907  1.00  0.00    -0.550 OA
ATOM      9  O   UNL     1       2.717 -12.480   0.044  1.00  0.00    -0.550 OA
ENDBRANCH   6   7
ENDBRANCH   5   6
ENDBRANCH   4   5
ENDBRANCH   3   4
ENDBRANCH   2   3
ENDBRANCH   1   2
BRANCH   1  10
ATOM     10  C   UNL     1       7.695 -13.742  -2.564  1.00  0.00     0.000 C 
BRANCH  10  11
ATOM     11  C   UNL     1       7.274 -12.907  -1.341  1.00  0.00    -0.000 C 
BRANCH  11  12
ATOM     12  C   UNL     1       8.449 -12.574  -0.410  1.00  0.00    -0.000 C 
BRANCH  12  13
ATOM     13  C   UNL     1       8.827 -11.089  -0.514  1.00  0.00    -0.000 C 
BRANCH  13  14
ATOM     14  C   UNL     1       7.695 -10.226  -1.098  1.00  0.00    -0.000 C 
BRANCH  14  15
ATOM     15  C   UNL     1       7.239  -9.118  -0.134  1.00  0.00    -0.000 C 
BRANCH  15  16
ATOM     16  C   UNL     1       5.709  -8.985  -0.071  1.00  0.00    -0.003 C 
ATOM     17  C   UNL     1       4.988 -10.023  -0.930  1.00  0.00     0.004 C 
ENDBRANCH  15  16
ENDBRANCH  14  15
ENDBRANCH  13  14
ENDBRANCH  12  13
ENDBRANCH  11  12
ENDBRANCH  10  11
ENDBRANCH   1  10
TORSDOF 13
ENDMDL
MODEL 3
REMARK VINA RESULT:    -4.887      1.416      3.098
REMARK INTER + INTRA:          -9.887
REMARK INTER:                  -9.004
REMARK INTRA:                  -0.882
REMARK UNBOUND:                -1.286
REMARK SMILES CCCCCCCCCCCCCCC(=O)[O-]
REMARK SMILES IDX 9 1 10 2 11 3 12 4 13 5 14 6 15 7 16 8 17 9 8 10 7 11 6 12
REMARK SMILES IDX 5 13 4 14 3 15 2 16 1 17
REMARK H PARENT
REMARK Flexibility Score: inf
ROOT
ATOM      1  C   UNL     1       4.439 -12.142  -5.754  1.00  0.00     0.000 C 
ENDROOT
BRANCH   1   2
ATOM      2  C   UNL     1       4.483 -10.615  -5.606  1.00  0.00     0.000 C 
BRANCH   2   3
ATOM      3  C   UNL     1       3.128  -9.989  -5.954  1.00  0.00     0.000 C 
BRANCH   3   4
ATOM      4  C   UNL     1       2.747 -10.273  -7.411  1.00  0.00     0.000 C 
BRANCH   4   5
ATOM      5  C   UNL     1       2.822  -8.994  -8.259  1.00  0.00     0.006 C 
BRANCH   5   6
ATOM      6  C   UNL     1       4.175  -8.845  -8.968  1.00  0.00     0.053 C 
BRANCH   6   7
ATOM      7  C   UNL     1       4.934  -7.652  -8.473  1.00  0.00     0.041 C 
ATOM      8  O   UNL     1       4.914  -6.575  -9.125  1.00  0.00    -0.550 OA
ATOM      9  O   UNL     1       5.691  -7.741  -7.312  1.00  0.00    -0.550 OA
ENDBRANCH   6   7
ENDBRANCH   5   6
ENDBRANCH   4   5
ENDBRANCH   3   4
ENDBRANCH   2   3
ENDBRANCH   1   2
BRANCH   1  10
ATOM     10  C   UNL     1       5.042 -12.882  -4.546  1.00  0.00     0.000 C 
BRANCH  10  11
ATOM     11  C   UNL     1       6.515 -13.298  -4.706  1.00  0.00    -0.000 C 
BRANCH  11  12
ATOM     12  C   UNL     1       7.271 -13.355  -3.371  1.00  0.00    -0.000 C 
BRANCH  12  13
ATOM     13  C   UNL     1       6.308 -13.174  -2.187  1.00  0.00    -0.000 C 
BRANCH  13  14
ATOM     14  C   UNL     1       6.966 -12.472  -0.987  1.00  0.00    -0.000 C 
BRANCH  14  15
ATOM     15  C   UNL     1       7.513 -11.080  -1.344  1.00  0.00    -0.000 C 
BRANCH  15  16
ATOM     16  C   UNL     1       8.057 -10.330  -0.118  1.00  0.00    -0.003 C 
ATOM     17  C   UNL     1       9.389 -10.893   0.378  1.00  0.00     0.004 C 
ENDBRANCH  15  16
ENDBRANCH  14  15
ENDBRANCH  13  14
ENDBRANCH  12  13
ENDBRANCH  11  12
ENDBRANCH  10  11
ENDBRANCH   1  10
TORSDOF 13
ENDMDL
MODEL 4
REMARK VINA RESULT:    -4.838      1.178      1.874
REMARK INTER + INTRA:          -9.801
REMARK INTER:                  -8.130
REMARK INTRA:                  -1.670
REMARK UNBOUND:                -1.286
REMARK SMILES CCCCCCCCCCCCCCC(=O)[O-]
REMARK SMILES IDX 9 1 10 2 11 3 12 4 13 5 14 6 15 7 16 8 17 9 8 10 7 11 6 12
REMARK SMILES IDX 5 13 4 14 3 15 2 16 1 17
REMARK H PARENT
REMARK Flexibility Score: inf
ROOT
ATOM      1  C   UNL     1       6.909 -13.310  -2.381  1.00  0.00     0.000 C 
ENDROOT
BRANCH   1   2
ATOM      2  C   UNL     1       7.261 -13.320  -3.876  1.00  0.00     0.000 C 
BRANCH   2   3
ATOM      3  C   UNL     1       6.303 -12.427  -4.672  1.00  0.00     0.000 C 
BRANCH   3   4
ATOM      4  C   UNL     1       4.980 -13.149  -4.952  1.00  0.00     0.000 C 
BRANCH   4   5
ATOM      5  C   UNL     1       4.025 -12.257  -5.758  1.00  0.00     0.006 C 
BRANCH   5   6
ATOM      6  C   UNL     1       4.751 -11.080  -6.423  1.00  0.00     0.053 C 
BRANCH   6   7
ATOM      7  C   UNL     1       3.813  -9.959  -6.749  1.00  0.00     0.041 C 
ATOM      8  O   UNL     1       4.032  -8.801  -6.306  1.00  0.00    -0.550 OA
ATOM      9  O   UNL     1       2.678 -10.201  -7.513  1.00  0.00    -0.550 OA
ENDBRANCH   6   7
ENDBRANCH   5   6
ENDBRANCH   4   5
ENDBRANCH   3   4
ENDBRANCH   2   3
ENDBRANCH   1   2
BRANCH   1  10
ATOM     10  C   UNL     1       8.103 -13.673  -1.479  1.00  0.00     0.000 C 
BRANCH  10  11
ATOM     11  C   UNL     1       8.460 -12.617  -0.418  1.00  0.00    -0.000 C 
BRANCH  11  12
ATOM     12  C   UNL     1       8.325 -11.177  -0.934  1.00  0.00    -0.000 C 
BRANCH  12  13
ATOM     13  C   UNL     1       7.837 -10.238   0.180  1.00  0.00    -0.000 C 
BRANCH  13  14
ATOM     14  C   UNL     1       6.471  -9.604  -0.132  1.00  0.00    -0.000 C 
BRANCH  14  15
ATOM     15  C   UNL     1       6.231  -9.432  -1.641  1.00  0.00    -0.000 C 
BRANCH  15  16
ATOM     16  C   UNL     1       4.962 -10.154  -2.121  1.00  0.00    -0.003 C 
ATOM     17  C   UNL     1       4.345 -11.046  -1.045  1.00  0.00     0.004 C 
ENDBRANCH  15  16
ENDBRANCH  14  15
ENDBRANCH  13  14
ENDBRANCH  12  13
ENDBRANCH  11  12
ENDBRANCH  10  11
ENDBRANCH   1  10
TORSDOF 13
ENDMDL
MODEL 5
REMARK VINA RESULT:    -4.812      2.355      3.917
REMARK INTER + INTRA:          -9.754
REMARK INTER:                  -8.732
REMARK INTRA:                  -1.022
REMARK UNBOUND:                -1.286
REMARK SMILES CCCCCCCCCCCCCCC(=O)[O-]
REMARK SMILES IDX 9 1 10 2 11 3 12 4 13 5 14 6 15 7 16 8 17 9 8 10 7 11 6 12
REMARK SMILES IDX 5 13 4 14 3 15 2 16 1 17
REMARK H PARENT
REMARK Flexibility Score: inf
ROOT
ATOM      1  C   UNL     1       4.497 -11.023  -4.490  1.00  0.00     0.000 C 
ENDROOT
BRANCH   1   2
ATOM      2  C   UNL     1       4.328  -9.726  -5.293  1.00  0.00     0.000 C 
BRANCH   2   3
ATOM      3  C   UNL     1       4.765  -9.919  -6.750  1.00  0.00     0.000 C 
BRANCH   3   4
ATOM      4  C   UNL     1       3.809  -9.206  -7.712  1.00  0.00     0.000 C 
BRANCH   4   5
ATOM      5  C   UNL     1       2.347  -9.426  -7.300  1.00  0.00     0.006 C 
BRANCH   5   6
ATOM      6  C   UNL     1       1.370  -8.623  -8.170  1.00  0.00     0.053 C 
BRANCH   6   7
ATOM      7  C   UNL     1      -0.053  -8.843  -7.757  1.00  0.00     0.041 C 
ATOM      8  O   UNL     1      -0.994  -8.515  -8.527  1.00  0.00    -0.550 OA
ATOM      9  O   UNL     1      -0.341  -9.377  -6.507  1.00  0.00    -0.550 OA
ENDBRANCH   6   7
ENDBRANCH   5   6
ENDBRANCH   4   5
ENDBRANCH   3   4
ENDBRANCH   2   3
ENDBRANCH   1   2
BRANCH   1  10
ATOM     10  C   UNL     1       5.011 -12.197  -5.344  1.00  0.00     0.000 C 
BRANCH  10  11
ATOM     11  C   UNL     1       5.686 -13.332  -4.553  1.00  0.00    -0.000 C 
BRANCH  11  12
ATOM     12  C   UNL     1       7.108 -12.979  -4.093  1.00  0.00    -0.000 C 
BRANCH  12  13
ATOM     13  C   UNL     1       7.317 -13.354  -2.618  1.00  0.00    -0.000 C 
BRANCH  13  14
ATOM     14  C   UNL     1       6.792 -12.279  -1.651  1.00  0.00    -0.000 C 
BRANCH  14  15
ATOM     15  C   UNL     1       7.511 -10.930  -1.822  1.00  0.00    -0.000 C 
BRANCH  15  16
ATOM     16  C   UNL     1       7.994 -10.347  -0.485  1.00  0.00    -0.003 C 
ATOM     17  C   UNL     1       9.136 -11.152   0.134  1.00  0.00     0.004 C 
ENDBRANCH  15  16
ENDBRANCH  14  15
ENDBRANCH  13  14
ENDBRANCH  12  13
ENDBRANCH  11  12
ENDBRANCH  10  11
ENDBRANCH   1  10
TORSDOF 13
ENDMDL
MODEL 6
REMARK VINA RESULT:    -4.796      1.224      3.564
REMARK INTER + INTRA:          -9.727
REMARK INTER:                  -7.428
REMARK INTRA:                  -2.299
REMARK UNBOUND:                -1.286
REMARK SMILES CCCCCCCCCCCCCCC(=O)[O-]
REMARK SMILES IDX 9 1 10 2 11 3 12 4 13 5 14 6 15 7 16 8 17 9 8 10 7 11 6 12
REMARK SMILES IDX 5 13 4 14 3 15 2 16 1 17
REMARK H PARENT
REMARK Flexibility Score: inf
ROOT
ATOM      1  C   UNL     1       6.825  -9.965  -1.624  1.00  0.00     0.000 C 
ENDROOT
BRANCH   1   2
ATOM      2  C   UNL     1       5.460 -10.521  -1.190  1.00  0.00     0.000 C 
BRANCH   2   3
ATOM      3  C   UNL     1       4.346 -10.029  -2.121  1.00  0.00     0.000 C 
BRANCH   3   4
ATOM      4  C   UNL     1       4.900  -9.681  -3.508  1.00  0.00     0.000 C 
BRANCH   4   5
ATOM      5  C   UNL     1       3.882 -10.016  -4.607  1.00  0.00     0.006 C 
BRANCH   5   6
ATOM      6  C   UNL     1       4.552 -10.248  -5.969  1.00  0.00     0.053 C 
BRANCH   6   7
ATOM      7  C   UNL     1       4.325  -9.099  -6.903  1.00  0.00     0.041 C 
ATOM      8  O   UNL     1       3.491  -9.202  -7.841  1.00  0.00    -0.550 OA
ATOM      9  O   UNL     1       5.059  -7.929  -6.759  1.00  0.00    -0.550 OA
ENDBRANCH   6   7
ENDBRANCH   5   6
ENDBRANCH   4   5
ENDBRANCH   3   4
ENDBRANCH   2   3
ENDBRANCH   1   2
BRANCH   1  10
ATOM     10  C   UNL     1       7.879 -11.065  -1.845  1.00  0.00     0.000 C 
BRANCH  10  11
ATOM     11  C   UNL     1       7.556 -12.419  -1.186  1.00  0.00    -0.000 C 
BRANCH  11  12
ATOM     12  C   UNL     1       7.379 -13.554  -2.205  1.00  0.00    -0.000 C 
BRANCH  12  13
ATOM     13  C   UNL     1       7.289 -12.999  -3.635  1.00  0.00    -0.000 C 
BRANCH  13  14
ATOM     14  C   UNL     1       5.900 -13.197  -4.264  1.00  0.00    -0.000 C 
BRANCH  14  15
ATOM     15  C   UNL     1       4.826 -13.557  -3.223  1.00  0.00    -0.000 C 
BRANCH  15  16
ATOM     16  C   UNL     1       3.414 -13.605  -3.826  1.00  0.00    -0.003 C 
ATOM     17  C   UNL     1       3.424 -13.705  -5.351  1.00  0.00     0.004 C 
ENDBRANCH  15  16
ENDBRANCH  14  15
ENDBRANCH  13  14
ENDBRANCH  12  13
ENDBRANCH  11  12
ENDBRANCH  10  11
ENDBRANCH   1  10
TORSDOF 13
ENDMDL
MODEL 7
REMARK VINA RESULT:    -4.747      1.441      2.495
REMARK INTER + INTRA:          -9.641
REMARK INTER:                  -8.322
REMARK INTRA:                  -1.319
REMARK UNBOUND:                -1.286
REMARK SMILES CCCCCCCCCCCCCCC(=O)[O-]
REMARK SMILES IDX 9 1 10 2 11 3 12 4 13 5 14 6 15 7 16 8 17 9 8 10 7 11 6 12
REMARK SMILES IDX 5 13 4 14 3 15 2 16 1 17
REMARK H PARENT
REMARK Flexibility Score: inf
ROOT
ATOM      1  C   UNL     1       6.594 -13.070  -4.644  1.00  0.00     0.000 C 
ENDROOT
BRANCH   1   2
ATOM      2  C   UNL     1       5.063 -13.019  -4.754  1.00  0.00     0.000 C 
BRANCH   2   3
ATOM      3  C   UNL     1       4.577 -11.584  -4.987  1.00  0.00     0.000 C 
BRANCH   3   4
ATOM      4  C   UNL     1       4.671 -11.204  -6.470  1.00  0.00     0.000 C 
BRANCH   4   5
ATOM      5  C   UNL     1       4.665  -9.679  -6.649  1.00  0.00     0.006 C 
BRANCH   5   6
ATOM      6  C   UNL     1       3.812  -9.237  -7.845  1.00  0.00     0.053 C 
BRANCH   6   7
ATOM      7  C   UNL     1       2.377  -9.042  -7.463  1.00  0.00     0.041 C 
ATOM      8  O   UNL     1       1.587 -10.022  -7.445  1.00  0.00    -0.550 OA
ATOM      9  O   UNL     1       1.904  -7.771  -7.160  1.00  0.00    -0.550 OA
ENDBRANCH   6   7
ENDBRANCH   5   6
ENDBRANCH   4   5
ENDBRANCH   3   4
ENDBRANCH   2   3
ENDBRANCH   1   2
BRANCH   1  10
ATOM     10  C   UNL     1       7.104 -12.800  -3.217  1.00  0.00     0.000 C 
BRANCH  10  11
ATOM     11  C   UNL     1       6.040 -12.924  -2.111  1.00  0.00    -0.000 C 
BRANCH  11  12
ATOM     12  C   UNL     1       5.709 -11.580  -1.444  1.00  0.00    -0.000 C 
BRANCH  12  13
ATOM     13  C   UNL     1       6.594 -10.457  -2.006  1.00  0.00    -0.000 C 
BRANCH  13  14
ATOM     14  C   UNL     1       7.163  -9.542  -0.908  1.00  0.00    -0.000 C 
BRANCH  14  15
ATOM     15  C   UNL     1       7.734 -10.332   0.282  1.00  0.00    -0.000 C 
BRANCH  15  16
ATOM     16  C   UNL     1       9.092 -10.976  -0.037  1.00  0.00    -0.003 C 
ATOM     17  C   UNL     1       9.047 -12.503  -0.008  1.00  0.00     0.004 C 
ENDBRANCH  15  16
ENDBRANCH  14  15
ENDBRANCH  13  14
ENDBRANCH  12  13
ENDBRANCH  11  12
ENDBRANCH  10  11
ENDBRANCH   1  10
TORSDOF 13
ENDMDL
MODEL 8
REMARK VINA RESULT:    -4.745      1.705      2.224
REMARK INTER + INTRA:          -9.637
REMARK INTER:                  -7.983
REMARK INTRA:                  -1.654
REMARK UNBOUND:                -1.286
REMARK SMILES CCCCCCCCCCCCCCC(=O)[O-]
REMARK SMILES IDX 9 1 10 2 11 3 12 4 13 5 14 6 15 7 16 8 17 9 8 10 7 11 6 12
REMARK SMILES IDX 5 13 4 14 3 15 2 16 1 17
REMARK H PARENT
REMARK Flexibility Score: inf
ROOT
ATOM      1  C   UNL     1       5.087 -13.237  -3.961  1.00  0.00     0.000 C 
ENDROOT
BRANCH   1   2
ATOM      2  C   UNL     1       4.141 -12.506  -4.925  1.00  0.00     0.000 C 
BRANCH   2   3
ATOM      3  C   UNL     1       4.925 -11.618  -5.897  1.00  0.00     0.000 C 
BRANCH   3   4
ATOM      4  C   UNL     1       4.206 -10.284  -6.127  1.00  0.00     0.000 C 
BRANCH   4   5
ATOM      5  C   UNL     1       2.875 -10.494  -6.863  1.00  0.00     0.006 C 
BRANCH   5   6
ATOM      6  C   UNL     1       2.627  -9.423  -7.933  1.00  0.00     0.053 C 
BRANCH   6   7
ATOM      7  C   UNL     1       1.670  -8.373  -7.459  1.00  0.00     0.041 C 
ATOM      8  O   UNL     1       0.450  -8.444  -7.762  1.00  0.00    -0.550 OA
ATOM      9  O   UNL     1       2.132  -7.298  -6.710  1.00  0.00    -0.550 OA
ENDBRANCH   6   7
ENDBRANCH   5   6
ENDBRANCH   4   5
ENDBRANCH   3   4
ENDBRANCH   2   3
ENDBRANCH   1   2
BRANCH   1  10
ATOM     10  C   UNL     1       6.574 -13.008  -4.289  1.00  0.00     0.000 C 
BRANCH  10  11
ATOM     11  C   UNL     1       7.562 -13.540  -3.235  1.00  0.00    -0.000 C 
BRANCH  11  12
ATOM     12  C   UNL     1       7.014 -13.455  -1.803  1.00  0.00    -0.000 C 
BRANCH  12  13
ATOM     13  C   UNL     1       7.983 -12.688  -0.890  1.00  0.00    -0.000 C 
BRANCH  13  14
ATOM     14  C   UNL     1       7.730 -11.171  -0.895  1.00  0.00    -0.000 C 
BRANCH  14  15
ATOM     15  C   UNL     1       6.233 -10.822  -0.961  1.00  0.00    -0.000 C 
BRANCH  15  16
ATOM     16  C   UNL     1       5.882  -9.969  -2.189  1.00  0.00    -0.003 C 
ATOM     17  C   UNL     1       4.375  -9.805  -2.385  1.00  0.00     0.004 C 
ENDBRANCH  15  16
ENDBRANCH  14  15
ENDBRANCH  13  14
ENDBRANCH  12  13
ENDBRANCH  11  12
ENDBRANCH  10  11
ENDBRANCH   1  10
TORSDOF 13
ENDMDL
MODEL 9
REMARK VINA RESULT:    -4.727      2.807      6.610
REMARK INTER + INTRA:          -9.605
REMARK INTER:                  -8.906
REMARK INTRA:                  -0.699
REMARK UNBOUND:                -1.286
REMARK SMILES CCCCCCCCCCCCCCC(=O)[O-]
REMARK SMILES IDX 9 1 10 2 11 3 12 4 13 5 14 6 15 7 16 8 17 9 8 10 7 11 6 12
REMARK SMILES IDX 5 13 4 14 3 15 2 16 1 17
REMARK H PARENT
REMARK Flexibility Score: inf
ROOT
ATOM      1  C   UNL     1       7.178 -13.160  -3.801  1.00  0.00     0.000 C 
ENDROOT
BRANCH   1   2
ATOM      2  C   UNL     1       7.649 -13.765  -2.470  1.00  0.00     0.000 C 
BRANCH   2   3
ATOM      3  C   UNL     1       7.333 -12.829  -1.298  1.00  0.00     0.000 C 
BRANCH   3   4
ATOM      4  C   UNL     1       8.570 -12.608  -0.420  1.00  0.00     0.000 C 
BRANCH   4   5
ATOM      5  C   UNL     1       8.868 -11.111  -0.255  1.00  0.00     0.006 C 
BRANCH   5   6
ATOM      6  C   UNL     1       7.699 -10.353   0.388  1.00  0.00     0.053 C 
BRANCH   6   7
ATOM      7  C   UNL     1       7.278  -9.176  -0.437  1.00  0.00     0.041 C 
ATOM      8  O   UNL     1       7.203  -8.032   0.084  1.00  0.00    -0.550 OA
ATOM      9  O   UNL     1       6.935  -9.348  -1.772  1.00  0.00    -0.550 OA
ENDBRANCH   6   7
ENDBRANCH   5   6
ENDBRANCH   4   5
ENDBRANCH   3   4
ENDBRANCH   2   3
ENDBRANCH   1   2
BRANCH   1  10
ATOM     10  C   UNL     1       5.645 -13.097  -3.923  1.00  0.00     0.000 C 
BRANCH  10  11
ATOM     11  C   UNL     1       5.116 -12.841  -5.347  1.00  0.00    -0.000 C 
BRANCH  11  12
ATOM     12  C   UNL     1       4.090 -11.701  -5.410  1.00  0.00    -0.000 C 
BRANCH  12  13
ATOM     13  C   UNL     1       4.630 -10.522  -6.233  1.00  0.00    -0.000 C 
BRANCH  13  14
ATOM     14  C   UNL     1       3.695 -10.124  -7.388  1.00  0.00    -0.000 C 
BRANCH  14  15
ATOM     15  C   UNL     1       2.281 -10.708  -7.230  1.00  0.00    -0.000 C 
BRANCH  15  16
ATOM     16  C   UNL     1       1.216  -9.621  -7.017  1.00  0.00    -0.003 C 
ATOM     17  C   UNL     1       1.214  -8.568  -8.124  1.00  0.00     0.004 C 
ENDBRANCH  15  16
ENDBRANCH  14  15
ENDBRANCH  13  14
ENDBRANCH  12  13
ENDBRANCH  11  12
ENDBRANCH  10  11
ENDBRANCH   1  10
TORSDOF 13
ENDMDL
