MODEL 1
REMARK VINA RESULT:    -3.491      0.000      0.000
REMARK INTER + INTRA:          -9.356
REMARK INTER:                  -6.756
REMARK INTRA:                  -2.600
REMARK UNBOUND:                -2.600
REMARK SMILES CCCCCCCCCCCCCCCCCC(=O)[O-]
REMARK SMILES IDX 10 1 11 2 12 3 13 4 14 5 15 6 16 7 17 8 18 9 19 10 20 11
REMARK SMILES IDX 9 12 8 13 7 14 6 15 5 16 4 17 3 18 2 19 1 20
REMARK H PARENT
REMARK Flexibility Score: inf
ROOT
ATOM      1  C   UNL     1      57.045  27.152  51.902  1.00  0.00     0.000 C 
ENDROOT
BRANCH   1   2
ATOM      2  C   UNL     1      57.976  28.363  51.745  1.00  0.00     0.000 C 
BRANCH   2   3
ATOM      3  C   UNL     1      57.919  28.977  50.337  1.00  0.00     0.000 C 
BRANCH   3   4
ATOM      4  C   UNL     1      59.282  28.941  49.622  1.00  0.00     0.000 C 
BRANCH   4   5
ATOM      5  C   UNL     1      60.384  28.284  50.472  1.00  0.00     0.000 C 
BRANCH   5   6
ATOM      6  C   UNL     1      60.756  26.843  50.068  1.00  0.00     0.000 C 
BRANCH   6   7
ATOM      7  C   UNL     1      60.711  25.813  51.209  1.00  0.00     0.006 C 
BRANCH   7   8
ATOM      8  C   UNL     1      60.160  24.453  50.763  1.00  0.00     0.053 C 
BRANCH   8   9
ATOM      9  C   UNL     1      61.281  23.509  50.463  1.00  0.00     0.041 C 
ATOM     10  O   UNL     1      61.122  22.581  49.626  1.00  0.00    -0.550 OA
ATOM     11  O   UNL     1      62.485  23.620  51.146  1.00  0.00    -0.550 OA
ENDBRANCH   8   9
ENDBRANCH   7   8
ENDBRANCH   6   7
ENDBRANCH   5   6
ENDBRANCH   4   5
ENDBRANCH   3   4
ENDBRANCH   2   3
ENDBRANCH   1   2
BRANCH   1  12
ATOM     12  C   UNL     1      57.019  26.308  50.621  1.00  0.00     0.000 C 
BRANCH  12  13
ATOM     13  C   UNL     1      55.579  26.096  50.130  1.00  0.00    -0.000 C 
BRANCH  13  14
ATOM     14  C   UNL     1      54.547  26.877  50.959  1.00  0.00    -0.000 C 
BRANCH  14  15
ATOM     15  C   UNL     1      53.405  27.445  50.097  1.00  0.00    -0.000 C 
BRANCH  15  16
ATOM     16  C   UNL     1      53.109  28.921  50.409  1.00  0.00    -0.000 C 
BRANCH  16  17
ATOM     17  C   UNL     1      54.360  29.695  50.852  1.00  0.00    -0.000 C 
BRANCH  17  18
ATOM     18  C   UNL     1      54.113  30.422  52.183  1.00  0.00    -0.000 C 
BRANCH  18  19
ATOM     19  C   UNL     1      55.056  29.948  53.299  1.00  0.00    -0.003 C 
ATOM     20  C   UNL     1      54.409  28.917  54.223  1.00  0.00     0.004 C 
ENDBRANCH  18  19
ENDBRANCH  17  18
ENDBRANCH  16  17
ENDBRANCH  15  16
ENDBRANCH  14  15
ENDBRANCH  13  14
ENDBRANCH  12  13
ENDBRANCH   1  12
TORSDOF 16
ENDMDL
MODEL 2
REMARK VINA RESULT:    -3.288     10.920     12.639
REMARK INTER + INTRA:          -8.963
REMARK INTER:                  -6.455
REMARK INTRA:                  -2.508
REMARK UNBOUND:                -2.600
REMARK SMILES CCCCCCCCCCCCCCCCCC(=O)[O-]
REMARK SMILES IDX 10 1 11 2 12 3 13 4 14 5 15 6 16 7 17 8 18 9 19 10 20 11
REMARK SMILES IDX 9 12 8 13 7 14 6 15 5 16 4 17 3 18 2 19 1 20
REMARK H PARENT
REMARK Flexibility Score: inf
ROOT
ATOM      1  C   UNL     1      62.868  32.530  59.801  1.00  0.00     0.000 C 
ENDROOT
BRANCH   1   2
ATOM      2  C   UNL     1      61.492  32.615  60.479  1.00  0.00     0.000 C 
BRANCH   2   3
ATOM      3  C   UNL     1      60.773  31.257  60.535  1.00  0.00     0.000 C 
BRANCH   3   4
ATOM      4  C   UNL     1      61.340  30.333  61.627  1.00  0.00     0.000 C 
BRANCH   4   5
ATOM      5  C   UNL     1      62.183  29.180  61.055  1.00  0.00     0.000 C 
BRANCH   5   6
ATOM      6  C   UNL     1      63.703  29.296  61.289  1.00  0.00     0.000 C 
BRANCH   6   7
ATOM      7  C   UNL     1      64.581  28.607  60.231  1.00  0.00     0.006 C 
BRANCH   7   8
ATOM      8  C   UNL     1      65.766  29.472  59.785  1.00  0.00     0.053 C 
BRANCH   8   9
ATOM      9  C   UNL     1      65.412  30.246  58.554  1.00  0.00     0.041 C 
ATOM     10  O   UNL     1      64.493  29.843  57.793  1.00  0.00    -0.550 OA
ATOM     11  O   UNL     1      66.134  31.384  58.217  1.00  0.00    -0.550 OA
ENDBRANCH   8   9
ENDBRANCH   7   8
ENDBRANCH   6   7
ENDBRANCH   5   6
ENDBRANCH   4   5
ENDBRANCH   3   4
ENDBRANCH   2   3
ENDBRANCH   1   2
BRANCH   1  12
ATOM     12  C   UNL     1      63.978  32.997  60.750  1.00  0.00     0.000 C 
BRANCH  12  13
ATOM     13  C   UNL     1      64.453  34.412  60.388  1.00  0.00    -0.000 C 
BRANCH  13  14
ATOM     14  C   UNL     1      64.682  35.297  61.623  1.00  0.00    -0.000 C 
BRANCH  14  15
ATOM     15  C   UNL     1      63.757  36.527  61.649  1.00  0.00    -0.000 C 
BRANCH  15  16
ATOM     16  C   UNL     1      62.777  36.551  60.464  1.00  0.00    -0.000 C 
BRANCH  16  17
ATOM     17  C   UNL     1      61.325  36.287  60.889  1.00  0.00    -0.000 C 
BRANCH  17  18
ATOM     18  C   UNL     1      60.432  36.036  59.665  1.00  0.00    -0.000 C 
BRANCH  18  19
ATOM     19  C   UNL     1      61.242  35.801  58.381  1.00  0.00    -0.003 C 
ATOM     20  C   UNL     1      60.703  34.642  57.544  1.00  0.00     0.004 C 
ENDBRANCH  18  19
ENDBRANCH  17  18
ENDBRANCH  16  17
ENDBRANCH  15  16
ENDBRANCH  14  15
ENDBRANCH  13  14
ENDBRANCH  12  13
ENDBRANCH   1  12
TORSDOF 16
ENDMDL
MODEL 3
REMARK VINA RESULT:    -3.222      2.507      4.634
REMARK INTER + INTRA:          -8.836
REMARK INTER:                  -7.814
REMARK INTRA:                  -1.022
REMARK UNBOUND:                -2.600
REMARK SMILES CCCCCCCCCCCCCCCCCC(=O)[O-]
REMARK SMILES IDX 10 1 11 2 12 3 13 4 14 5 15 6 16 7 17 8 18 9 19 10 20 11
REMARK SMILES IDX 9 12 8 13 7 14 6 15 5 16 4 17 3 18 2 19 1 20
REMARK H PARENT
REMARK Flexibility Score: inf
ROOT
ATOM      1  C   UNL     1      60.487  27.439  50.492  1.00  0.00     0.000 C 
ENDROOT
BRANCH   1   2
ATOM      2  C   UNL     1      60.399  25.938  50.179  1.00  0.00     0.000 C 
BRANCH   2   3
ATOM      3  C   UNL     1      59.700  25.140  51.292  1.00  0.00     0.000 C 
BRANCH   3   4
ATOM      4  C   UNL     1      59.995  23.632  51.211  1.00  0.00     0.000 C 
BRANCH   4   5
ATOM      5  C   UNL     1      61.084  23.291  50.178  1.00  0.00     0.000 C 
BRANCH   5   6
ATOM      6  C   UNL     1      61.162  21.806  49.770  1.00  0.00     0.000 C 
BRANCH   6   7
ATOM      7  C   UNL     1      60.687  20.809  50.841  1.00  0.00     0.006 C 
BRANCH   7   8
ATOM      8  C   UNL     1      61.062  19.359  50.513  1.00  0.00     0.053 C 
BRANCH   8   9
ATOM      9  C   UNL     1      59.860  18.605  50.034  1.00  0.00     0.041 C 
ATOM     10  O   UNL     1      58.725  19.150  50.043  1.00  0.00    -0.550 OA
ATOM     11  O   UNL     1      59.986  17.282  49.629  1.00  0.00    -0.550 OA
ENDBRANCH   8   9
ENDBRANCH   7   8
ENDBRANCH   6   7
ENDBRANCH   5   6
ENDBRANCH   4   5
ENDBRANCH   3   4
ENDBRANCH   2   3
ENDBRANCH   1   2
BRANCH   1  12
ATOM     12  C   UNL     1      59.624  28.254  49.520  1.00  0.00     0.000 C 
BRANCH  12  13
ATOM     13  C   UNL     1      58.560  29.064  50.275  1.00  0.00    -0.000 C 
BRANCH  13  14
ATOM     14  C   UNL     1      57.455  28.181  50.877  1.00  0.00    -0.000 C 
BRANCH  14  15
ATOM     15  C   UNL     1      56.084  28.879  50.893  1.00  0.00    -0.000 C 
BRANCH  15  16
ATOM     16  C   UNL     1      54.932  27.922  50.547  1.00  0.00    -0.000 C 
BRANCH  16  17
ATOM     17  C   UNL     1      55.405  26.475  50.337  1.00  0.00    -0.000 C 
BRANCH  17  18
ATOM     18  C   UNL     1      54.425  25.702  49.442  1.00  0.00    -0.000 C 
BRANCH  18  19
ATOM     19  C   UNL     1      53.204  25.182  50.216  1.00  0.00    -0.003 C 
ATOM     20  C   UNL     1      53.540  24.781  51.652  1.00  0.00     0.004 C 
ENDBRANCH  18  19
ENDBRANCH  17  18
ENDBRANCH  16  17
ENDBRANCH  15  16
ENDBRANCH  14  15
ENDBRANCH  13  14
ENDBRANCH  12  13
ENDBRANCH   1  12
TORSDOF 16
ENDMDL
MODEL 4
REMARK VINA RESULT:    -3.164     12.276     13.765
REMARK INTER + INTRA:          -8.724
REMARK INTER:                  -7.549
REMARK INTRA:                  -1.175
REMARK UNBOUND:                -2.600
REMARK SMILES CCCCCCCCCCCCCCCCCC(=O)[O-]
REMARK SMILES IDX 10 1 11 2 12 3 13 4 14 5 15 6 16 7 17 8 18 9 19 10 20 11
REMARK SMILES IDX 9 12 8 13 7 14 6 15 5 16 4 17 3 18 2 19 1 20
REMARK H PARENT
REMARK Flexibility Score: inf
ROOT
ATOM      1  C   UNL     1      64.652  27.767  60.477  1.00  0.00     0.000 C 
ENDROOT
BRANCH   1   2
ATOM      2  C   UNL     1      65.854  28.721  60.548  1.00  0.00     0.000 C 
BRANCH   2   3
ATOM      3  C   UNL     1      67.201  27.980  60.529  1.00  0.00     0.000 C 
BRANCH   3   4
ATOM      4  C   UNL     1      68.064  28.292  61.765  1.00  0.00     0.000 C 
BRANCH   4   5
ATOM      5  C   UNL     1      69.472  28.793  61.399  1.00  0.00     0.000 C 
BRANCH   5   6
ATOM      6  C   UNL     1      69.760  28.902  59.887  1.00  0.00     0.000 C 
BRANCH   6   7
ATOM      7  C   UNL     1      71.094  29.576  59.524  1.00  0.00     0.006 C 
BRANCH   7   8
ATOM      8  C   UNL     1      70.951  31.081  59.266  1.00  0.00     0.053 C 
BRANCH   8   9
ATOM      9  C   UNL     1      71.616  31.862  60.355  1.00  0.00     0.041 C 
ATOM     10  O   UNL     1      71.362  33.087  60.503  1.00  0.00    -0.550 OA
ATOM     11  O   UNL     1      72.558  31.252  61.174  1.00  0.00    -0.550 OA
ENDBRANCH   8   9
ENDBRANCH   7   8
ENDBRANCH   6   7
ENDBRANCH   5   6
ENDBRANCH   4   5
ENDBRANCH   3   4
ENDBRANCH   2   3
ENDBRANCH   1   2
BRANCH   1  12
ATOM     12  C   UNL     1      63.381  28.514  60.054  1.00  0.00     0.000 C 
BRANCH  12  13
ATOM     13  C   UNL     1      63.215  29.814  60.856  1.00  0.00    -0.000 C 
BRANCH  13  14
ATOM     14  C   UNL     1      61.903  29.855  61.658  1.00  0.00    -0.000 C 
BRANCH  14  15
ATOM     15  C   UNL     1      61.030  31.070  61.300  1.00  0.00    -0.000 C 
BRANCH  15  16
ATOM     16  C   UNL     1      60.872  31.255  59.782  1.00  0.00    -0.000 C 
BRANCH  16  17
ATOM     17  C   UNL     1      61.330  32.641  59.302  1.00  0.00    -0.000 C 
BRANCH  17  18
ATOM     18  C   UNL     1      62.003  33.421  60.442  1.00  0.00    -0.000 C 
BRANCH  18  19
ATOM     19  C   UNL     1      63.495  33.675  60.183  1.00  0.00    -0.003 C 
ATOM     20  C   UNL     1      64.141  34.552  61.256  1.00  0.00     0.004 C 
ENDBRANCH  18  19
ENDBRANCH  17  18
ENDBRANCH  16  17
ENDBRANCH  15  16
ENDBRANCH  14  15
ENDBRANCH  13  14
ENDBRANCH  12  13
ENDBRANCH   1  12
TORSDOF 16
ENDMDL
MODEL 5
REMARK VINA RESULT:    -3.116      3.369      7.314
REMARK INTER + INTRA:          -8.630
REMARK INTER:                  -6.628
REMARK INTRA:                  -2.002
REMARK UNBOUND:                -2.600
REMARK SMILES CCCCCCCCCCCCCCCCCC(=O)[O-]
REMARK SMILES IDX 10 1 11 2 12 3 13 4 14 5 15 6 16 7 17 8 18 9 19 10 20 11
REMARK SMILES IDX 9 12 8 13 7 14 6 15 5 16 4 17 3 18 2 19 1 20
REMARK H PARENT
REMARK Flexibility Score: inf
ROOT
ATOM      1  C   UNL     1      56.777  26.248  50.458  1.00  0.00     0.000 C 
ENDROOT
BRANCH   1   2
ATOM      2  C   UNL     1      55.346  25.871  50.870  1.00  0.00     0.000 C 
BRANCH   2   3
ATOM      3  C   UNL     1      54.381  25.811  49.675  1.00  0.00     0.000 C 
BRANCH   3   4
ATOM      4  C   UNL     1      53.182  26.762  49.836  1.00  0.00     0.000 C 
BRANCH   4   5
ATOM      5  C   UNL     1      53.370  27.770  50.984  1.00  0.00     0.000 C 
BRANCH   5   6
ATOM      6  C   UNL     1      53.635  29.226  50.546  1.00  0.00     0.000 C 
BRANCH   6   7
ATOM      7  C   UNL     1      54.070  30.177  51.673  1.00  0.00     0.006 C 
BRANCH   7   8
ATOM      8  C   UNL     1      53.517  29.768  53.044  1.00  0.00     0.053 C 
BRANCH   8   9
ATOM      9  C   UNL     1      54.609  29.771  54.068  1.00  0.00     0.041 C 
ATOM     10  O   UNL     1      55.793  29.502  53.733  1.00  0.00    -0.550 OA
ATOM     11  O   UNL     1      54.310  30.016  55.402  1.00  0.00    -0.550 OA
ENDBRANCH   8   9
ENDBRANCH   7   8
ENDBRANCH   6   7
ENDBRANCH   5   6
ENDBRANCH   4   5
ENDBRANCH   3   4
ENDBRANCH   2   3
ENDBRANCH   1   2
BRANCH   1  12
ATOM     12  C   UNL     1      57.319  27.385  51.333  1.00  0.00     0.000 C 
BRANCH  12  13
ATOM     13  C   UNL     1      57.292  28.722  50.577  1.00  0.00    -0.000 C 
BRANCH  13  14
ATOM     14  C   UNL     1      58.698  29.272  50.290  1.00  0.00    -0.000 C 
BRANCH  14  15
ATOM     15  C   UNL     1      59.583  28.267  49.533  1.00  0.00    -0.000 C 
BRANCH  15  16
ATOM     16  C   UNL     1      60.969  28.101  50.176  1.00  0.00    -0.000 C 
BRANCH  16  17
ATOM     17  C   UNL     1      61.085  26.816  51.012  1.00  0.00    -0.000 C 
BRANCH  17  18
ATOM     18  C   UNL     1      60.392  25.640  50.307  1.00  0.00    -0.000 C 
BRANCH  18  19
ATOM     19  C   UNL     1      61.019  24.284  50.667  1.00  0.00    -0.003 C 
ATOM     20  C   UNL     1      62.455  24.412  51.173  1.00  0.00     0.004 C 
ENDBRANCH  18  19
ENDBRANCH  17  18
ENDBRANCH  16  17
ENDBRANCH  15  16
ENDBRANCH  14  15
ENDBRANCH  13  14
ENDBRANCH  12  13
ENDBRANCH   1  12
TORSDOF 16
ENDMDL
MODEL 6
REMARK VINA RESULT:    -3.091      1.683      2.876
REMARK INTER + INTRA:          -8.582
REMARK INTER:                  -5.874
REMARK INTRA:                  -2.708
REMARK UNBOUND:                -2.600
REMARK SMILES CCCCCCCCCCCCCCCCCC(=O)[O-]
REMARK SMILES IDX 10 1 11 2 12 3 13 4 14 5 15 6 16 7 17 8 18 9 19 10 20 11
REMARK SMILES IDX 9 12 8 13 7 14 6 15 5 16 4 17 3 18 2 19 1 20
REMARK H PARENT
REMARK Flexibility Score: inf
ROOT
ATOM      1  C   UNL     1      56.399  29.188  51.371  1.00  0.00     0.000 C 
ENDROOT
BRANCH   1   2
ATOM      2  C   UNL     1      57.713  29.069  52.158  1.00  0.00     0.000 C 
BRANCH   2   3
ATOM      3  C   UNL     1      58.922  29.611  51.379  1.00  0.00     0.000 C 
BRANCH   3   4
ATOM      4  C   UNL     1      58.901  29.200  49.896  1.00  0.00     0.000 C 
BRANCH   4   5
ATOM      5  C   UNL     1      59.873  28.048  49.583  1.00  0.00     0.000 C 
BRANCH   5   6
ATOM      6  C   UNL     1      59.327  26.632  49.861  1.00  0.00     0.000 C 
BRANCH   6   7
ATOM      7  C   UNL     1      59.868  25.963  51.136  1.00  0.00     0.006 C 
BRANCH   7   8
ATOM      8  C   UNL     1      59.687  24.440  51.132  1.00  0.00     0.053 C 
BRANCH   8   9
ATOM      9  C   UNL     1      59.912  23.885  52.504  1.00  0.00     0.041 C 
ATOM     10  O   UNL     1      59.936  24.652  53.502  1.00  0.00    -0.550 OA
ATOM     11  O   UNL     1      60.150  22.527  52.673  1.00  0.00    -0.550 OA
ENDBRANCH   8   9
ENDBRANCH   7   8
ENDBRANCH   6   7
ENDBRANCH   5   6
ENDBRANCH   4   5
ENDBRANCH   3   4
ENDBRANCH   2   3
ENDBRANCH   1   2
BRANCH   1  12
ATOM     12  C   UNL     1      55.243  29.605  52.290  1.00  0.00     0.000 C 
BRANCH  12  13
ATOM     13  C   UNL     1      53.912  29.016  51.801  1.00  0.00    -0.000 C 
BRANCH  13  14
ATOM     14  C   UNL     1      54.004  28.433  50.382  1.00  0.00    -0.000 C 
BRANCH  14  15
ATOM     15  C   UNL     1      53.558  26.962  50.317  1.00  0.00    -0.000 C 
BRANCH  15  16
ATOM     16  C   UNL     1      54.633  26.046  49.709  1.00  0.00    -0.000 C 
BRANCH  16  17
ATOM     17  C   UNL     1      55.844  25.857  50.636  1.00  0.00    -0.000 C 
BRANCH  17  18
ATOM     18  C   UNL     1      55.392  25.580  52.078  1.00  0.00    -0.000 C 
BRANCH  18  19
ATOM     19  C   UNL     1      56.546  25.680  53.087  1.00  0.00    -0.003 C 
ATOM     20  C   UNL     1      56.185  26.511  54.319  1.00  0.00     0.004 C 
ENDBRANCH  18  19
ENDBRANCH  17  18
ENDBRANCH  16  17
ENDBRANCH  15  16
ENDBRANCH  14  15
ENDBRANCH  13  14
ENDBRANCH  12  13
ENDBRANCH   1  12
TORSDOF 16
ENDMDL
MODEL 7
REMARK VINA RESULT:    -3.079      1.829      3.876
REMARK INTER + INTRA:          -8.559
REMARK INTER:                  -5.634
REMARK INTRA:                  -2.925
REMARK UNBOUND:                -2.600
REMARK SMILES CCCCCCCCCCCCCCCCCC(=O)[O-]
REMARK SMILES IDX 10 1 11 2 12 3 13 4 14 5 15 6 16 7 17 8 18 9 19 10 20 11
REMARK SMILES IDX 9 12 8 13 7 14 6 15 5 16 4 17 3 18 2 19 1 20
REMARK H PARENT
REMARK Flexibility Score: inf
ROOT
ATOM      1  C   UNL     1      58.780  25.152  51.806  1.00  0.00     0.000 C 
ENDROOT
BRANCH   1   2
ATOM      2  C   UNL     1      58.687  26.152  52.969  1.00  0.00     0.000 C 
BRANCH   2   3
ATOM      3  C   UNL     1      60.064  26.537  53.532  1.00  0.00     0.000 C 
BRANCH   3   4
ATOM      4  C   UNL     1      61.115  25.431  53.330  1.00  0.00     0.000 C 
BRANCH   4   5
ATOM      5  C   UNL     1      62.337  25.908  52.526  1.00  0.00     0.000 C 
BRANCH   5   6
ATOM      6  C   UNL     1      62.850  24.919  51.458  1.00  0.00     0.000 C 
BRANCH   6   7
ATOM      7  C   UNL     1      62.250  23.505  51.537  1.00  0.00     0.006 C 
BRANCH   7   8
ATOM      8  C   UNL     1      61.455  23.125  50.283  1.00  0.00     0.053 C 
BRANCH   8   9
ATOM      9  C   UNL     1      60.629  21.903  50.539  1.00  0.00     0.041 C 
ATOM     10  O   UNL     1      60.052  21.749  51.647  1.00  0.00    -0.550 OA
ATOM     11  O   UNL     1      60.543  20.908  49.574  1.00  0.00    -0.550 OA
ENDBRANCH   8   9
ENDBRANCH   7   8
ENDBRANCH   6   7
ENDBRANCH   5   6
ENDBRANCH   4   5
ENDBRANCH   3   4
ENDBRANCH   2   3
ENDBRANCH   1   2
BRANCH   1  12
ATOM     12  C   UNL     1      58.562  25.852  50.459  1.00  0.00     0.000 C 
BRANCH  12  13
ATOM     13  C   UNL     1      59.876  26.442  49.927  1.00  0.00    -0.000 C 
BRANCH  13  14
ATOM     14  C   UNL     1      59.748  27.924  49.537  1.00  0.00    -0.000 C 
BRANCH  14  15
ATOM     15  C   UNL     1      60.168  28.873  50.673  1.00  0.00    -0.000 C 
BRANCH  15  16
ATOM     16  C   UNL     1      58.963  29.457  51.428  1.00  0.00    -0.000 C 
BRANCH  16  17
ATOM     17  C   UNL     1      57.635  29.231  50.690  1.00  0.00    -0.000 C 
BRANCH  17  18
ATOM     18  C   UNL     1      56.489  28.990  51.685  1.00  0.00    -0.000 C 
BRANCH  18  19
ATOM     19  C   UNL     1      55.673  27.732  51.352  1.00  0.00    -0.003 C 
ATOM     20  C   UNL     1      54.525  28.012  50.382  1.00  0.00     0.004 C 
ENDBRANCH  18  19
ENDBRANCH  17  18
ENDBRANCH  16  17
ENDBRANCH  15  16
ENDBRANCH  14  15
ENDBRANCH  13  14
ENDBRANCH  12  13
ENDBRANCH   1  12
TORSDOF 16
ENDMDL
MODEL 8
REMARK VINA RESULT:    -3.075     10.926     13.010
REMARK INTER + INTRA:          -8.552
REMARK INTER:                  -5.877
REMARK INTRA:                  -2.675
REMARK UNBOUND:                -2.600
REMARK SMILES CCCCCCCCCCCCCCCCCC(=O)[O-]
REMARK SMILES IDX 10 1 11 2 12 3 13 4 14 5 15 6 16 7 17 8 18 9 19 10 20 11
REMARK SMILES IDX 9 12 8 13 7 14 6 15 5 16 4 17 3 18 2 19 1 20
REMARK H PARENT
REMARK Flexibility Score: inf
ROOT
ATOM      1  C   UNL     1      60.527  34.734  59.204  1.00  0.00     0.000 C 
ENDROOT
BRANCH   1   2
ATOM      2  C   UNL     1      61.303  33.766  58.298  1.00  0.00     0.000 C 
BRANCH   2   3
ATOM      3  C   UNL     1      61.811  32.527  59.051  1.00  0.00     0.000 C 
BRANCH   3   4
ATOM      4  C   UNL     1      61.323  32.482  60.510  1.00  0.00     0.000 C 
BRANCH   4   5
ATOM      5  C   UNL     1      60.731  31.115  60.899  1.00  0.00     0.000 C 
BRANCH   5   6
ATOM      6  C   UNL     1      61.710  30.149  61.598  1.00  0.00     0.000 C 
BRANCH   6   7
ATOM      7  C   UNL     1      62.474  29.201  60.656  1.00  0.00     0.006 C 
BRANCH   7   8
ATOM      8  C   UNL     1      63.983  29.179  60.929  1.00  0.00     0.053 C 
BRANCH   8   9
ATOM      9  C   UNL     1      64.670  30.251  60.142  1.00  0.00     0.041 C 
ATOM     10  O   UNL     1      64.653  31.443  60.544  1.00  0.00    -0.550 OA
ATOM     11  O   UNL     1      65.284  29.941  58.934  1.00  0.00    -0.550 OA
ENDBRANCH   8   9
ENDBRANCH   7   8
ENDBRANCH   6   7
ENDBRANCH   5   6
ENDBRANCH   4   5
ENDBRANCH   3   4
ENDBRANCH   2   3
ENDBRANCH   1   2
BRANCH   1  12
ATOM     12  C   UNL     1      61.294  36.050  59.388  1.00  0.00     0.000 C 
BRANCH  12  13
ATOM     13  C   UNL     1      61.488  36.371  60.877  1.00  0.00    -0.000 C 
BRANCH  13  14
ATOM     14  C   UNL     1      62.968  36.492  61.272  1.00  0.00    -0.000 C 
BRANCH  14  15
ATOM     15  C   UNL     1      63.701  35.139  61.241  1.00  0.00    -0.000 C 
BRANCH  15  16
ATOM     16  C   UNL     1      65.078  35.230  60.565  1.00  0.00    -0.000 C 
BRANCH  16  17
ATOM     17  C   UNL     1      65.075  36.150  59.335  1.00  0.00    -0.000 C 
BRANCH  17  18
ATOM     18  C   UNL     1      64.695  35.371  58.067  1.00  0.00    -0.000 C 
BRANCH  18  19
ATOM     19  C   UNL     1      65.236  33.933  58.074  1.00  0.00    -0.003 C 
ATOM     20  C   UNL     1      64.762  33.116  56.872  1.00  0.00     0.004 C 
ENDBRANCH  18  19
ENDBRANCH  17  18
ENDBRANCH  16  17
ENDBRANCH  15  16
ENDBRANCH  14  15
ENDBRANCH  13  14
ENDBRANCH  12  13
ENDBRANCH   1  12
TORSDOF 16
ENDMDL
MODEL 9
REMARK VINA RESULT:    -3.028      3.337      5.935
REMARK INTER + INTRA:          -8.460
REMARK INTER:                  -6.726
REMARK INTRA:                  -1.734
REMARK UNBOUND:                -2.600
REMARK SMILES CCCCCCCCCCCCCCCCCC(=O)[O-]
REMARK SMILES IDX 10 1 11 2 12 3 13 4 14 5 15 6 16 7 17 8 18 9 19 10 20 11
REMARK SMILES IDX 9 12 8 13 7 14 6 15 5 16 4 17 3 18 2 19 1 20
REMARK H PARENT
REMARK Flexibility Score: inf
ROOT
ATOM      1  C   UNL     1      60.141  25.006  51.945  1.00  0.00     0.000 C 
ENDROOT
BRANCH   1   2
ATOM      2  C   UNL     1      59.970  23.660  51.224  1.00  0.00     0.000 C 
BRANCH   2   3
ATOM      3  C   UNL     1      61.306  23.074  50.737  1.00  0.00     0.000 C 
BRANCH   3   4
ATOM      4  C   UNL     1      61.130  22.114  49.547  1.00  0.00     0.000 C 
BRANCH   4   5
ATOM      5  C   UNL     1      61.058  20.638  49.977  1.00  0.00     0.000 C 
BRANCH   5   6
ATOM      6  C   UNL     1      59.647  20.014  49.951  1.00  0.00     0.000 C 
BRANCH   6   7
ATOM      7  C   UNL     1      59.403  18.911  50.996  1.00  0.00     0.006 C 
BRANCH   7   8
ATOM      8  C   UNL     1      58.209  18.015  50.648  1.00  0.00     0.053 C 
BRANCH   8   9
ATOM      9  C   UNL     1      56.949  18.576  51.230  1.00  0.00     0.041 C 
ATOM     10  O   UNL     1      55.836  18.320  50.698  1.00  0.00    -0.550 OA
ATOM     11  O   UNL     1      57.008  19.425  52.327  1.00  0.00    -0.550 OA
ENDBRANCH   8   9
ENDBRANCH   7   8
ENDBRANCH   6   7
ENDBRANCH   5   6
ENDBRANCH   4   5
ENDBRANCH   3   4
ENDBRANCH   2   3
ENDBRANCH   1   2
BRANCH   1  12
ATOM     12  C   UNL     1      61.102  25.922  51.178  1.00  0.00     0.000 C 
BRANCH  12  13
ATOM     13  C   UNL     1      60.403  26.568  49.973  1.00  0.00    -0.000 C 
BRANCH  13  14
ATOM     14  C   UNL     1      60.766  28.051  49.798  1.00  0.00    -0.000 C 
BRANCH  14  15
ATOM     15  C   UNL     1      59.892  28.979  50.661  1.00  0.00    -0.000 C 
BRANCH  15  16
ATOM     16  C   UNL     1      58.512  29.239  50.034  1.00  0.00    -0.000 C 
BRANCH  16  17
ATOM     17  C   UNL     1      57.363  29.074  51.041  1.00  0.00    -0.000 C 
BRANCH  17  18
ATOM     18  C   UNL     1      57.681  27.966  52.058  1.00  0.00    -0.000 C 
BRANCH  18  19
ATOM     19  C   UNL     1      56.706  26.783  51.965  1.00  0.00    -0.003 C 
ATOM     20  C   UNL     1      56.792  26.048  50.628  1.00  0.00     0.004 C 
ENDBRANCH  18  19
ENDBRANCH  17  18
ENDBRANCH  16  17
ENDBRANCH  15  16
ENDBRANCH  14  15
ENDBRANCH  13  14
ENDBRANCH  12  13
ENDBRANCH   1  12
TORSDOF 16
ENDMDL
