MODEL 1
REMARK VINA RESULT:    -3.012      0.000      0.000
REMARK INTER + INTRA:          -3.012
REMARK INTER:                  -3.012
REMARK INTRA:                   0.000
REMARK UNBOUND:                 0.000
REMARK SMILES CC(=O)[O-]
REMARK SMILES IDX 1 1 2 2 3 3 4 4
REMARK H PARENT
REMARK Flexibility Score: inf
ROOT
ATOM      1  C   UNL     1      36.676  61.651  52.439  1.00  0.00     0.063 C 
ATOM      2  C   UNL     1      37.548  62.856  52.329  1.00  0.00     0.038 C 
ATOM      3  O   UNL     1      38.388  63.111  53.232  1.00  0.00    -0.550 OA
ATOM      4  O   UNL     1      37.474  63.669  51.206  1.00  0.00    -0.550 OA
ENDROOT
TORSDOF 0
ENDMDL
MODEL 2
REMARK VINA RESULT:    -3.006      1.558      2.044
REMARK INTER + INTRA:          -3.006
REMARK INTER:                  -3.006
REMARK INTRA:                   0.000
REMARK UNBOUND:                 0.000
REMARK SMILES CC(=O)[O-]
REMARK SMILES IDX 1 1 2 2 3 3 4 4
REMARK H PARENT
REMARK Flexibility Score: inf
ROOT
ATOM      1  C   UNL     1      37.325  63.649  51.413  1.00  0.00     0.063 C 
ATOM      2  C   UNL     1      37.430  63.035  52.768  1.00  0.00     0.038 C 
ATOM      3  O   UNL     1      36.429  62.473  53.285  1.00  0.00    -0.550 OA
ATOM      4  O   UNL     1      38.646  63.031  53.438  1.00  0.00    -0.550 OA
ENDROOT
TORSDOF 0
ENDMDL
MODEL 3
REMARK VINA RESULT:    -2.990     16.991     17.125
REMARK INTER + INTRA:          -2.990
REMARK INTER:                  -2.990
REMARK INTRA:                   0.000
REMARK UNBOUND:                 0.000
REMARK SMILES CC(=O)[O-]
REMARK SMILES IDX 1 1 2 2 3 3 4 4
REMARK H PARENT
REMARK Flexibility Score: inf
ROOT
ATOM      1  C   UNL     1      48.585  55.510  42.017  1.00  0.00     0.063 C 
ATOM      2  C   UNL     1      48.301  54.132  42.513  1.00  0.00     0.038 C 
ATOM      3  O   UNL     1      47.163  53.623  42.344  1.00  0.00    -0.550 OA
ATOM      4  O   UNL     1      49.308  53.387  43.113  1.00  0.00    -0.550 OA
ENDROOT
TORSDOF 0
ENDMDL
MODEL 4
REMARK VINA RESULT:    -2.972     16.766     16.882
REMARK INTER + INTRA:          -2.972
REMARK INTER:                  -2.972
REMARK INTRA:                   0.000
REMARK UNBOUND:                 0.000
REMARK SMILES CC(=O)[O-]
REMARK SMILES IDX 1 1 2 2 3 3 4 4
REMARK H PARENT
REMARK Flexibility Score: inf
ROOT
ATOM      1  C   UNL     1      49.325  53.877  43.277  1.00  0.00     0.063 C 
ATOM      2  C   UNL     1      48.221  54.426  42.439  1.00  0.00     0.038 C 
ATOM      3  O   UNL     1      47.158  53.769  42.287  1.00  0.00    -0.550 OA
ATOM      4  O   UNL     1      48.339  55.686  41.869  1.00  0.00    -0.550 OA
ENDROOT
TORSDOF 0
ENDMDL
MODEL 5
REMARK VINA RESULT:    -2.967      1.840      2.414
REMARK INTER + INTRA:          -2.967
REMARK INTER:                  -2.967
REMARK INTRA:                   0.000
REMARK UNBOUND:                 0.000
REMARK SMILES CC(=O)[O-]
REMARK SMILES IDX 1 1 2 2 3 3 4 4
REMARK H PARENT
REMARK Flexibility Score: inf
ROOT
ATOM      1  C   UNL     1      36.696  60.906  53.020  1.00  0.00     0.063 C 
ATOM      2  C   UNL     1      36.123  61.824  51.993  1.00  0.00     0.038 C 
ATOM      3  O   UNL     1      35.660  61.358  50.920  1.00  0.00    -0.550 OA
ATOM      4  O   UNL     1      36.048  63.188  52.243  1.00  0.00    -0.550 OA
ENDROOT
TORSDOF 0
ENDMDL
MODEL 6
REMARK VINA RESULT:    -2.963     16.603     16.632
REMARK INTER + INTRA:          -2.963
REMARK INTER:                  -2.963
REMARK INTRA:                   0.000
REMARK UNBOUND:                 0.000
REMARK SMILES CC(=O)[O-]
REMARK SMILES IDX 1 1 2 2 3 3 4 4
REMARK H PARENT
REMARK Flexibility Score: inf
ROOT
ATOM      1  C   UNL     1      48.819  54.352  42.781  1.00  0.00     0.063 C 
ATOM      2  C   UNL     1      49.229  54.406  44.214  1.00  0.00     0.038 C 
ATOM      3  O   UNL     1      48.881  53.491  45.005  1.00  0.00    -0.550 OA
ATOM      4  O   UNL     1      50.042  55.437  44.667  1.00  0.00    -0.550 OA
ENDROOT
TORSDOF 0
ENDMDL
MODEL 7
REMARK VINA RESULT:    -2.918      2.098      2.336
REMARK INTER + INTRA:          -2.918
REMARK INTER:                  -2.918
REMARK INTRA:                   0.000
REMARK UNBOUND:                 0.000
REMARK SMILES CC(=O)[O-]
REMARK SMILES IDX 1 1 2 2 3 3 4 4
REMARK H PARENT
REMARK Flexibility Score: inf
ROOT
ATOM      1  C   UNL     1      37.280  62.806  52.768  1.00  0.00     0.063 C 
ATOM      2  C   UNL     1      36.570  61.539  52.429  1.00  0.00     0.038 C 
ATOM      3  O   UNL     1      36.606  60.564  53.223  1.00  0.00    -0.550 OA
ATOM      4  O   UNL     1      35.822  61.451  51.262  1.00  0.00    -0.550 OA
ENDROOT
TORSDOF 0
ENDMDL
MODEL 8
REMARK VINA RESULT:    -2.770     16.741     16.793
REMARK INTER + INTRA:          -2.770
REMARK INTER:                  -2.770
REMARK INTRA:                   0.000
REMARK UNBOUND:                 0.000
REMARK SMILES CC(=O)[O-]
REMARK SMILES IDX 1 1 2 2 3 3 4 4
REMARK H PARENT
REMARK Flexibility Score: inf
ROOT
ATOM      1  C   UNL     1      47.509  53.827  42.384  1.00  0.00     0.063 C 
ATOM      2  C   UNL     1      48.570  54.871  42.473  1.00  0.00     0.038 C 
ATOM      3  O   UNL     1      49.755  54.544  42.745  1.00  0.00    -0.550 OA
ATOM      4  O   UNL     1      48.266  56.198  42.202  1.00  0.00    -0.550 OA
ENDROOT
TORSDOF 0
ENDMDL
MODEL 9
REMARK VINA RESULT:    -2.302      6.670      6.827
REMARK INTER + INTRA:          -2.302
REMARK INTER:                  -2.302
REMARK INTRA:                   0.000
REMARK UNBOUND:                 0.000
REMARK SMILES CC(=O)[O-]
REMARK SMILES IDX 1 1 2 2 3 3 4 4
REMARK H PARENT
REMARK Flexibility Score: inf
ROOT
ATOM      1  C   UNL     1      41.979  60.106  48.347  1.00  0.00     0.063 C 
ATOM      2  C   UNL     1      43.022  60.619  49.282  1.00  0.00     0.038 C 
ATOM      3  O   UNL     1      42.824  61.682  49.926  1.00  0.00    -0.550 OA
ATOM      4  O   UNL     1      44.190  59.897  49.485  1.00  0.00    -0.550 OA
ENDROOT
TORSDOF 0
ENDMDL
