MODEL 1
REMARK VINA RESULT:    -5.662      0.000      0.000
REMARK INTER + INTRA:          -6.508
REMARK INTER:                  -6.324
REMARK INTRA:                  -0.184
REMARK UNBOUND:                -0.184
REMARK SMILES O=C([O-])c1ccccc1C(=O)[O-]
REMARK SMILES IDX 4 1 9 2 5 3 8 4 6 5 7 6 2 7 1 8 3 9 10 10 11 11 12 12
REMARK H PARENT
REMARK Flexibility Score: inf
ROOT
ATOM      1  C   UNL     1     -25.784   4.561  12.987  1.00  0.00     0.006 A 
ATOM      2  C   UNL     1     -24.808   5.400  13.594  1.00  0.00     0.006 A 
ATOM      3  C   UNL     1     -25.359   3.458  12.223  1.00  0.00     0.010 A 
ATOM      4  C   UNL     1     -23.445   5.141  13.362  1.00  0.00     0.010 A 
ATOM      5  C   UNL     1     -24.001   3.208  12.024  1.00  0.00     0.001 A 
ATOM      6  C   UNL     1     -23.046   4.055  12.583  1.00  0.00     0.001 A 
ENDROOT
BRANCH   1   7
ATOM      7  C   UNL     1     -27.237   4.839  13.062  1.00  0.00     0.072 C 
ATOM      8  O   UNL     1     -28.006   4.039  13.659  1.00  0.00    -0.545 OA
ATOM      9  O   UNL     1     -27.781   5.947  12.423  1.00  0.00    -0.545 OA
ENDBRANCH   1   7
BRANCH   2  10
ATOM     10  C   UNL     1     -25.157   6.498  14.524  1.00  0.00     0.072 C 
ATOM     11  O   UNL     1     -25.306   7.676  14.103  1.00  0.00    -0.545 OA
ATOM     12  O   UNL     1     -25.391   6.227  15.867  1.00  0.00    -0.545 OA
ENDBRANCH   2  10
TORSDOF 2
ENDMDL
MODEL 2
REMARK VINA RESULT:    -5.661      1.409      1.602
REMARK INTER + INTRA:          -6.506
REMARK INTER:                  -6.343
REMARK INTRA:                  -0.163
REMARK UNBOUND:                -0.184
REMARK SMILES O=C([O-])c1ccccc1C(=O)[O-]
REMARK SMILES IDX 4 1 9 2 5 3 8 4 6 5 7 6 2 7 1 8 3 9 10 10 11 11 12 12
REMARK H PARENT
REMARK Flexibility Score: inf
ROOT
ATOM      1  C   UNL     1     -24.971   4.236  12.839  1.00  0.00     0.006 A 
ATOM      2  C   UNL     1     -23.663   4.795  12.907  1.00  0.00     0.006 A 
ATOM      3  C   UNL     1     -25.118   2.879  12.496  1.00  0.00     0.010 A 
ATOM      4  C   UNL     1     -22.558   3.992  12.567  1.00  0.00     0.010 A 
ATOM      5  C   UNL     1     -24.006   2.096  12.184  1.00  0.00     0.001 A 
ATOM      6  C   UNL     1     -22.730   2.655  12.209  1.00  0.00     0.001 A 
ENDROOT
BRANCH   1   7
ATOM      7  C   UNL     1     -26.196   5.041  13.043  1.00  0.00     0.072 C 
ATOM      8  O   UNL     1     -26.979   4.775  13.994  1.00  0.00    -0.545 OA
ATOM      9  O   UNL     1     -26.535   6.056  12.154  1.00  0.00    -0.545 OA
ENDBRANCH   1   7
BRANCH   2  10
ATOM     10  C   UNL     1     -23.399   6.169  13.389  1.00  0.00     0.072 C 
ATOM     11  O   UNL     1     -23.157   7.102  12.578  1.00  0.00    -0.545 OA
ATOM     12  O   UNL     1     -23.484   6.461  14.746  1.00  0.00    -0.545 OA
ENDBRANCH   2  10
TORSDOF 2
ENDMDL
MODEL 3
REMARK VINA RESULT:    -5.659      0.082      3.147
REMARK INTER + INTRA:          -6.504
REMARK INTER:                  -6.323
REMARK INTRA:                  -0.180
REMARK UNBOUND:                -0.184
REMARK SMILES O=C([O-])c1ccccc1C(=O)[O-]
REMARK SMILES IDX 4 1 9 2 5 3 8 4 6 5 7 6 2 7 1 8 3 9 10 10 11 11 12 12
REMARK H PARENT
REMARK Flexibility Score: inf
ROOT
ATOM      1  C   UNL     1     -24.815   5.336  13.636  1.00  0.00     0.006 A 
ATOM      2  C   UNL     1     -25.770   4.493  13.001  1.00  0.00     0.006 A 
ATOM      3  C   UNL     1     -23.444   5.094  13.427  1.00  0.00     0.010 A 
ATOM      4  C   UNL     1     -25.318   3.403  12.234  1.00  0.00     0.010 A 
ATOM      5  C   UNL     1     -23.018   4.021  12.644  1.00  0.00     0.001 A 
ATOM      6  C   UNL     1     -23.954   3.170  12.058  1.00  0.00     0.001 A 
ENDROOT
BRANCH   1   7
ATOM      7  C   UNL     1     -25.199   6.417  14.571  1.00  0.00     0.072 C 
ATOM      8  O   UNL     1     -25.304   7.604  14.159  1.00  0.00    -0.545 OA
ATOM      9  O   UNL     1     -25.384   6.154  15.924  1.00  0.00    -0.545 OA
ENDBRANCH   1   7
BRANCH   2  10
ATOM     10  C   UNL     1     -27.228   4.749  13.050  1.00  0.00     0.072 C 
ATOM     11  O   UNL     1     -27.992   3.998  13.712  1.00  0.00    -0.545 OA
ATOM     12  O   UNL     1     -27.761   5.866  12.417  1.00  0.00    -0.545 OA
ENDBRANCH   2  10
TORSDOF 2
ENDMDL
MODEL 4
REMARK VINA RESULT:    -5.619      1.414      3.370
REMARK INTER + INTRA:          -6.459
REMARK INTER:                  -6.301
REMARK INTRA:                  -0.158
REMARK UNBOUND:                -0.184
REMARK SMILES O=C([O-])c1ccccc1C(=O)[O-]
REMARK SMILES IDX 4 1 9 2 5 3 8 4 6 5 7 6 2 7 1 8 3 9 10 10 11 11 12 12
REMARK H PARENT
REMARK Flexibility Score: inf
ROOT
ATOM      1  C   UNL     1     -23.663   4.845  12.893  1.00  0.00     0.006 A 
ATOM      2  C   UNL     1     -24.952   4.244  12.859  1.00  0.00     0.006 A 
ATOM      3  C   UNL     1     -22.539   4.071  12.547  1.00  0.00     0.010 A 
ATOM      4  C   UNL     1     -25.063   2.877  12.545  1.00  0.00     0.010 A 
ATOM      5  C   UNL     1     -22.673   2.722  12.217  1.00  0.00     0.001 A 
ATOM      6  C   UNL     1     -23.932   2.124  12.227  1.00  0.00     0.001 A 
ENDROOT
BRANCH   1   7
ATOM      7  C   UNL     1     -23.439   6.236  13.347  1.00  0.00     0.072 C 
ATOM      8  O   UNL     1     -23.184   7.143  12.510  1.00  0.00    -0.545 OA
ATOM      9  O   UNL     1     -23.442   6.550  14.702  1.00  0.00    -0.545 OA
ENDBRANCH   1   7
BRANCH   2  10
ATOM     10  C   UNL     1     -26.202   5.009  13.073  1.00  0.00     0.072 C 
ATOM     11  O   UNL     1     -26.918   4.804  14.089  1.00  0.00    -0.545 OA
ATOM     12  O   UNL     1     -26.565   6.014  12.184  1.00  0.00    -0.545 OA
ENDBRANCH   2  10
TORSDOF 2
ENDMDL
MODEL 5
REMARK VINA RESULT:    -5.523      2.658      3.686
REMARK INTER + INTRA:          -6.352
REMARK INTER:                  -6.184
REMARK INTRA:                  -0.168
REMARK UNBOUND:                -0.184
REMARK SMILES O=C([O-])c1ccccc1C(=O)[O-]
REMARK SMILES IDX 4 1 9 2 5 3 8 4 6 5 7 6 2 7 1 8 3 9 10 10 11 11 12 12
REMARK H PARENT
REMARK Flexibility Score: inf
ROOT
ATOM      1  C   UNL     1     -27.199   6.190  12.349  1.00  0.00     0.006 A 
ATOM      2  C   UNL     1     -25.851   6.505  12.022  1.00  0.00     0.006 A 
ATOM      3  C   UNL     1     -28.216   7.104  12.013  1.00  0.00     0.010 A 
ATOM      4  C   UNL     1     -25.562   7.749  11.431  1.00  0.00     0.010 A 
ATOM      5  C   UNL     1     -27.909   8.323  11.407  1.00  0.00     0.001 A 
ATOM      6  C   UNL     1     -26.584   8.649  11.127  1.00  0.00     0.001 A 
ENDROOT
BRANCH   1   7
ATOM      7  C   UNL     1     -27.578   4.969  13.096  1.00  0.00     0.072 C 
ATOM      8  O   UNL     1     -28.316   4.100  12.558  1.00  0.00    -0.545 OA
ATOM      9  O   UNL     1     -27.181   4.794  14.417  1.00  0.00    -0.545 OA
ENDBRANCH   1   7
BRANCH   2  10
ATOM     10  C   UNL     1     -24.733   5.552  12.210  1.00  0.00     0.072 C 
ATOM     11  O   UNL     1     -24.362   4.799  11.271  1.00  0.00    -0.545 OA
ATOM     12  O   UNL     1     -24.034   5.526  13.412  1.00  0.00    -0.545 OA
ENDBRANCH   2  10
TORSDOF 2
ENDMDL
MODEL 6
REMARK VINA RESULT:    -5.448      2.666      4.482
REMARK INTER + INTRA:          -6.269
REMARK INTER:                  -6.125
REMARK INTRA:                  -0.144
REMARK UNBOUND:                -0.184
REMARK SMILES O=C([O-])c1ccccc1C(=O)[O-]
REMARK SMILES IDX 4 1 9 2 5 3 8 4 6 5 7 6 2 7 1 8 3 9 10 10 11 11 12 12
REMARK H PARENT
REMARK Flexibility Score: inf
ROOT
ATOM      1  C   UNL     1     -26.157   6.716  12.075  1.00  0.00     0.006 A 
ATOM      2  C   UNL     1     -27.468   6.252  12.375  1.00  0.00     0.006 A 
ATOM      3  C   UNL     1     -25.993   8.011  11.550  1.00  0.00     0.010 A 
ATOM      4  C   UNL     1     -28.570   7.076  12.080  1.00  0.00     0.010 A 
ATOM      5  C   UNL     1     -27.099   8.820  11.285  1.00  0.00     0.001 A 
ATOM      6  C   UNL     1     -28.385   8.349  11.539  1.00  0.00     0.001 A 
ENDROOT
BRANCH   1   7
ATOM      7  C   UNL     1     -24.954   5.865  12.222  1.00  0.00     0.072 C 
ATOM      8  O   UNL     1     -24.593   5.109  11.281  1.00  0.00    -0.545 OA
ATOM      9  O   UNL     1     -24.245   5.839  13.418  1.00  0.00    -0.545 OA
ENDBRANCH   1   7
BRANCH   2  10
ATOM     10  C   UNL     1     -27.730   4.962  13.054  1.00  0.00     0.072 C 
ATOM     11  O   UNL     1     -28.333   4.030  12.458  1.00  0.00    -0.545 OA
ATOM     12  O   UNL     1     -27.251   4.741  14.340  1.00  0.00    -0.545 OA
ENDBRANCH   2  10
TORSDOF 2
ENDMDL
MODEL 7
REMARK VINA RESULT:    -5.448      1.522      2.003
REMARK INTER + INTRA:          -6.269
REMARK INTER:                  -6.047
REMARK INTRA:                  -0.222
REMARK UNBOUND:                -0.184
REMARK SMILES O=C([O-])c1ccccc1C(=O)[O-]
REMARK SMILES IDX 4 1 9 2 5 3 8 4 6 5 7 6 2 7 1 8 3 9 10 10 11 11 12 12
REMARK H PARENT
REMARK Flexibility Score: inf
ROOT
ATOM      1  C   UNL     1     -26.099   4.643  12.874  1.00  0.00     0.006 A 
ATOM      2  C   UNL     1     -25.581   5.872  12.377  1.00  0.00     0.006 A 
ATOM      3  C   UNL     1     -25.272   3.505  12.880  1.00  0.00     0.010 A 
ATOM      4  C   UNL     1     -24.279   5.901  11.846  1.00  0.00     0.010 A 
ATOM      5  C   UNL     1     -23.975   3.561  12.369  1.00  0.00     0.001 A 
ATOM      6  C   UNL     1     -23.484   4.754  11.842  1.00  0.00     0.001 A 
ENDROOT
BRANCH   1   7
ATOM      7  C   UNL     1     -27.502   4.489  13.321  1.00  0.00     0.072 C 
ATOM      8  O   UNL     1     -28.412   4.245  12.484  1.00  0.00    -0.545 OA
ATOM      9  O   UNL     1     -27.846   4.674  14.656  1.00  0.00    -0.545 OA
ENDBRANCH   1   7
BRANCH   2  10
ATOM     10  C   UNL     1     -26.326   7.150  12.455  1.00  0.00     0.072 C 
ATOM     11  O   UNL     1     -26.111   7.966  13.390  1.00  0.00    -0.545 OA
ATOM     12  O   UNL     1     -27.227   7.494  11.453  1.00  0.00    -0.545 OA
ENDBRANCH   2  10
TORSDOF 2
ENDMDL
MODEL 8
REMARK VINA RESULT:    -5.351      1.429      2.842
REMARK INTER + INTRA:          -6.161
REMARK INTER:                  -5.944
REMARK INTRA:                  -0.217
REMARK UNBOUND:                -0.184
REMARK SMILES O=C([O-])c1ccccc1C(=O)[O-]
REMARK SMILES IDX 4 1 9 2 5 3 8 4 6 5 7 6 2 7 1 8 3 9 10 10 11 11 12 12
REMARK H PARENT
REMARK Flexibility Score: inf
ROOT
ATOM      1  C   UNL     1     -25.168   5.696  12.473  1.00  0.00     0.006 A 
ATOM      2  C   UNL     1     -25.772   4.510  12.975  1.00  0.00     0.006 A 
ATOM      3  C   UNL     1     -23.829   5.651  12.040  1.00  0.00     0.010 A 
ATOM      4  C   UNL     1     -24.997   3.341  13.085  1.00  0.00     0.010 A 
ATOM      5  C   UNL     1     -23.085   4.475  12.137  1.00  0.00     0.001 A 
ATOM      6  C   UNL     1     -23.665   3.325  12.670  1.00  0.00     0.001 A 
ENDROOT
BRANCH   1   7
ATOM      7  C   UNL     1     -25.865   7.002  12.453  1.00  0.00     0.072 C 
ATOM      8  O   UNL     1     -26.487   7.373  11.422  1.00  0.00    -0.545 OA
ATOM      9  O   UNL     1     -25.789   7.864  13.541  1.00  0.00    -0.545 OA
ENDBRANCH   1   7
BRANCH   2  10
ATOM     10  C   UNL     1     -27.208   4.424  13.326  1.00  0.00     0.072 C 
ATOM     11  O   UNL     1     -28.052   4.004  12.491  1.00  0.00    -0.545 OA
ATOM     12  O   UNL     1     -27.632   4.745  14.611  1.00  0.00    -0.545 OA
ENDBRANCH   2  10
TORSDOF 2
ENDMDL
MODEL 9
REMARK VINA RESULT:    -5.214      2.511      4.223
REMARK INTER + INTRA:          -6.007
REMARK INTER:                  -5.795
REMARK INTRA:                  -0.212
REMARK UNBOUND:                -0.184
REMARK SMILES O=C([O-])c1ccccc1C(=O)[O-]
REMARK SMILES IDX 4 1 9 2 5 3 8 4 6 5 7 6 2 7 1 8 3 9 10 10 11 11 12 12
REMARK H PARENT
REMARK Flexibility Score: inf
ROOT
ATOM      1  C   UNL     1     -25.413   7.107  13.545  1.00  0.00     0.006 A 
ATOM      2  C   UNL     1     -25.432   6.418  12.300  1.00  0.00     0.006 A 
ATOM      3  C   UNL     1     -25.877   8.434  13.600  1.00  0.00     0.010 A 
ATOM      4  C   UNL     1     -25.854   7.104  11.145  1.00  0.00     0.010 A 
ATOM      5  C   UNL     1     -26.311   9.088  12.446  1.00  0.00     0.001 A 
ATOM      6  C   UNL     1     -26.289   8.427  11.219  1.00  0.00     0.001 A 
ENDROOT
BRANCH   1   7
ATOM      7  C   UNL     1     -24.856   6.510  14.781  1.00  0.00     0.072 C 
ATOM      8  O   UNL     1     -25.620   5.964  15.621  1.00  0.00    -0.545 OA
ATOM      9  O   UNL     1     -23.498   6.601  15.062  1.00  0.00    -0.545 OA
ENDBRANCH   1   7
BRANCH   2  10
ATOM     10  C   UNL     1     -25.094   4.983  12.168  1.00  0.00     0.072 C 
ATOM     11  O   UNL     1     -23.980   4.622  11.705  1.00  0.00    -0.545 OA
ATOM     12  O   UNL     1     -25.982   4.013  12.620  1.00  0.00    -0.545 OA
ENDBRANCH   2  10
TORSDOF 2
ENDMDL
