MODEL 1
REMARK VINA RESULT:    -4.887      0.000      0.000
REMARK INTER + INTRA:         -10.817
REMARK INTER:                  -9.173
REMARK INTRA:                  -1.644
REMARK UNBOUND:                -1.644
REMARK SMILES O=C([O-])CCCCCCCCCCCCCCC(=O)[O-]
REMARK SMILES IDX 10 1 9 2 8 3 7 4 6 5 5 6 4 7 2 8 1 9 3 10 11 11 12 12 13 13
REMARK SMILES IDX 14 14 15 15 16 16 17 17 18 18 19 19 20 20
REMARK H PARENT
REMARK Flexibility Score: inf
ROOT
ATOM      1  C   UNL     1      18.175 -33.997  19.384  1.00  0.00     0.000 C 
ENDROOT
BRANCH   1   2
ATOM      2  C   UNL     1      18.311 -33.521  20.835  1.00  0.00     0.000 C 
BRANCH   2   3
ATOM      3  C   UNL     1      18.821 -32.077  20.898  1.00  0.00     0.000 C 
BRANCH   3   4
ATOM      4  C   UNL     1      17.653 -31.080  20.898  1.00  0.00     0.000 C 
BRANCH   4   5
ATOM      5  C   UNL     1      18.038 -29.712  21.485  1.00  0.00     0.000 C 
BRANCH   5   6
ATOM      6  C   UNL     1      19.476 -29.300  21.126  1.00  0.00     0.006 C 
BRANCH   6   7
ATOM      7  C   UNL     1      19.558 -27.847  20.638  1.00  0.00     0.053 C 
BRANCH   7   8
ATOM      8  C   UNL     1      20.862 -27.208  21.004  1.00  0.00     0.041 C 
ATOM      9  O   UNL     1      21.948 -27.730  20.638  1.00  0.00    -0.550 OA
ATOM     10  O   UNL     1      20.879 -26.021  21.725  1.00  0.00    -0.550 OA
ENDBRANCH   7   8
ENDBRANCH   6   7
ENDBRANCH   5   6
ENDBRANCH   4   5
ENDBRANCH   3   4
ENDBRANCH   2   3
ENDBRANCH   1   2
BRANCH   1  11
ATOM     11  C   UNL     1      16.876 -34.790  19.184  1.00  0.00     0.000 C 
BRANCH  11  12
ATOM     12  C   UNL     1      15.942 -34.718  20.402  1.00  0.00     0.000 C 
BRANCH  12  13
ATOM     13  C   UNL     1      14.634 -33.969  20.102  1.00  0.00     0.000 C 
BRANCH  13  14
ATOM     14  C   UNL     1      14.401 -32.845  21.118  1.00  0.00     0.000 C 
BRANCH  14  15
ATOM     15  C   UNL     1      14.998 -33.207  22.486  1.00  0.00     0.000 C 
BRANCH  15  16
ATOM     16  C   UNL     1      14.389 -32.387  23.640  1.00  0.00     0.006 C 
BRANCH  16  17
ATOM     17  C   UNL     1      14.518 -30.864  23.470  1.00  0.00     0.053 C 
BRANCH  17  18
ATOM     18  C   UNL     1      13.184 -30.183  23.484  1.00  0.00     0.041 C 
ATOM     19  O   UNL     1      12.895 -29.375  24.406  1.00  0.00    -0.550 OA
ATOM     20  O   UNL     1      12.248 -30.464  22.497  1.00  0.00    -0.550 OA
ENDBRANCH  17  18
ENDBRANCH  16  17
ENDBRANCH  15  16
ENDBRANCH  14  15
ENDBRANCH  13  14
ENDBRANCH  12  13
ENDBRANCH  11  12
ENDBRANCH   1  11
TORSDOF 15
ENDMDL
MODEL 2
REMARK VINA RESULT:    -4.854      2.348      3.462
REMARK INTER + INTRA:         -10.755
REMARK INTER:                  -8.320
REMARK INTRA:                  -2.435
REMARK UNBOUND:                -1.644
REMARK SMILES O=C([O-])CCCCCCCCCCCCCCC(=O)[O-]
REMARK SMILES IDX 10 1 9 2 8 3 7 4 6 5 5 6 4 7 2 8 1 9 3 10 11 11 12 12 13 13
REMARK SMILES IDX 14 14 15 15 16 16 17 17 18 18 19 19 20 20
REMARK H PARENT
REMARK Flexibility Score: inf
ROOT
ATOM      1  C   UNL     1      17.895 -37.077  21.031  1.00  0.00     0.000 C 
ENDROOT
BRANCH   1   2
ATOM      2  C   UNL     1      17.926 -36.289  19.716  1.00  0.00     0.000 C 
BRANCH   2   3
ATOM      3  C   UNL     1      16.583 -35.595  19.457  1.00  0.00     0.000 C 
BRANCH   3   4
ATOM      4  C   UNL     1      16.781 -34.093  19.199  1.00  0.00     0.000 C 
BRANCH   4   5
ATOM      5  C   UNL     1      18.109 -33.563  19.763  1.00  0.00     0.000 C 
BRANCH   5   6
ATOM      6  C   UNL     1      17.948 -32.216  20.489  1.00  0.00     0.006 C 
BRANCH   6   7
ATOM      7  C   UNL     1      19.252 -31.755  21.152  1.00  0.00     0.053 C 
BRANCH   7   8
ATOM      8  C   UNL     1      19.007 -31.133  22.492  1.00  0.00     0.041 C 
ATOM      9  O   UNL     1      19.962 -30.959  23.294  1.00  0.00    -0.550 OA
ATOM     10  O   UNL     1      17.730 -30.718  22.845  1.00  0.00    -0.550 OA
ENDBRANCH   7   8
ENDBRANCH   6   7
ENDBRANCH   5   6
ENDBRANCH   4   5
ENDBRANCH   3   4
ENDBRANCH   2   3
ENDBRANCH   1   2
BRANCH   1  11
ATOM     11  C   UNL     1      19.011 -36.612  21.978  1.00  0.00     0.000 C 
BRANCH  11  12
ATOM     12  C   UNL     1      18.656 -35.314  22.720  1.00  0.00     0.000 C 
BRANCH  12  13
ATOM     13  C   UNL     1      17.304 -35.398  23.445  1.00  0.00     0.000 C 
BRANCH  13  14
ATOM     14  C   UNL     1      16.615 -34.028  23.480  1.00  0.00     0.000 C 
BRANCH  14  15
ATOM     15  C   UNL     1      15.329 -34.038  22.640  1.00  0.00     0.000 C 
BRANCH  15  16
ATOM     16  C   UNL     1      14.772 -32.625  22.385  1.00  0.00     0.006 C 
BRANCH  16  17
ATOM     17  C   UNL     1      14.413 -31.846  23.661  1.00  0.00     0.053 C 
BRANCH  17  18
ATOM     18  C   UNL     1      13.304 -30.866  23.428  1.00  0.00     0.041 C 
ATOM     19  O   UNL     1      13.109 -29.925  24.243  1.00  0.00    -0.550 OA
ATOM     20  O   UNL     1      12.465 -31.011  22.332  1.00  0.00    -0.550 OA
ENDBRANCH  17  18
ENDBRANCH  16  17
ENDBRANCH  15  16
ENDBRANCH  14  15
ENDBRANCH  13  14
ENDBRANCH  12  13
ENDBRANCH  11  12
ENDBRANCH   1  11
TORSDOF 15
ENDMDL
MODEL 3
REMARK VINA RESULT:    -4.851      3.211      5.495
REMARK INTER + INTRA:         -10.748
REMARK INTER:                  -8.178
REMARK INTRA:                  -2.570
REMARK UNBOUND:                -1.644
REMARK SMILES O=C([O-])CCCCCCCCCCCCCCC(=O)[O-]
REMARK SMILES IDX 10 1 9 2 8 3 7 4 6 5 5 6 4 7 2 8 1 9 3 10 11 11 12 12 13 13
REMARK SMILES IDX 14 14 15 15 16 16 17 17 18 18 19 19 20 20
REMARK H PARENT
REMARK Flexibility Score: inf
ROOT
ATOM      1  C   UNL     1      19.361 -32.781  21.989  1.00  0.00     0.000 C 
ENDROOT
BRANCH   1   2
ATOM      2  C   UNL     1      18.766 -32.114  20.744  1.00  0.00     0.000 C 
BRANCH   2   3
ATOM      3  C   UNL     1      17.860 -30.938  21.127  1.00  0.00     0.000 C 
BRANCH   3   4
ATOM      4  C   UNL     1      17.955 -30.637  22.630  1.00  0.00     0.000 C 
BRANCH   4   5
ATOM      5  C   UNL     1      16.612 -30.194  23.233  1.00  0.00     0.000 C 
BRANCH   5   6
ATOM      6  C   UNL     1      15.665 -29.584  22.185  1.00  0.00     0.006 C 
BRANCH   6   7
ATOM      7  C   UNL     1      14.287 -30.260  22.187  1.00  0.00     0.053 C 
BRANCH   7   8
ATOM      8  C   UNL     1      13.651 -30.227  23.543  1.00  0.00     0.041 C 
ATOM      9  O   UNL     1      13.490 -31.294  24.192  1.00  0.00    -0.550 OA
ATOM     10  O   UNL     1      13.262 -29.017  24.101  1.00  0.00    -0.550 OA
ENDBRANCH   7   8
ENDBRANCH   6   7
ENDBRANCH   5   6
ENDBRANCH   4   5
ENDBRANCH   3   4
ENDBRANCH   2   3
ENDBRANCH   1   2
BRANCH   1  11
ATOM     11  C   UNL     1      19.044 -34.283  22.014  1.00  0.00     0.000 C 
BRANCH  11  12
ATOM     12  C   UNL     1      18.603 -34.773  23.402  1.00  0.00     0.000 C 
BRANCH  12  13
ATOM     13  C   UNL     1      17.104 -35.104  23.464  1.00  0.00     0.000 C 
BRANCH  13  14
ATOM     14  C   UNL     1      16.263 -33.825  23.540  1.00  0.00     0.000 C 
BRANCH  14  15
ATOM     15  C   UNL     1      15.052 -33.906  22.598  1.00  0.00     0.000 C 
BRANCH  15  16
ATOM     16  C   UNL     1      15.436 -33.732  21.116  1.00  0.00     0.006 C 
BRANCH  16  17
ATOM     17  C   UNL     1      15.311 -35.014  20.275  1.00  0.00     0.053 C 
BRANCH  17  18
ATOM     18  C   UNL     1      16.507 -35.230  19.400  1.00  0.00     0.041 C 
ATOM     19  O   UNL     1      17.026 -36.374  19.307  1.00  0.00    -0.550 OA
ATOM     20  O   UNL     1      17.070 -34.162  18.713  1.00  0.00    -0.550 OA
ENDBRANCH  17  18
ENDBRANCH  16  17
ENDBRANCH  15  16
ENDBRANCH  14  15
ENDBRANCH  13  14
ENDBRANCH  12  13
ENDBRANCH  11  12
ENDBRANCH   1  11
TORSDOF 15
ENDMDL
MODEL 4
REMARK VINA RESULT:    -4.844      4.279      6.293
REMARK INTER + INTRA:         -10.736
REMARK INTER:                  -8.526
REMARK INTRA:                  -2.211
REMARK UNBOUND:                -1.644
REMARK SMILES O=C([O-])CCCCCCCCCCCCCCC(=O)[O-]
REMARK SMILES IDX 10 1 9 2 8 3 7 4 6 5 5 6 4 7 2 8 1 9 3 10 11 11 12 12 13 13
REMARK SMILES IDX 14 14 15 15 16 16 17 17 18 18 19 19 20 20
REMARK H PARENT
REMARK Flexibility Score: inf
ROOT
ATOM      1  C   UNL     1      14.657 -28.969  23.398  1.00  0.00     0.000 C 
ENDROOT
BRANCH   1   2
ATOM      2  C   UNL     1      15.306 -28.910  22.011  1.00  0.00     0.000 C 
BRANCH   2   3
ATOM      3  C   UNL     1      16.415 -29.960  21.874  1.00  0.00     0.000 C 
BRANCH   3   4
ATOM      4  C   UNL     1      16.799 -30.536  23.245  1.00  0.00     0.000 C 
BRANCH   4   5
ATOM      5  C   UNL     1      16.993 -32.060  23.217  1.00  0.00     0.000 C 
BRANCH   5   6
ATOM      6  C   UNL     1      16.043 -32.795  24.178  1.00  0.00     0.006 C 
BRANCH   6   7
ATOM      7  C   UNL     1      16.235 -34.317  24.132  1.00  0.00     0.053 C 
BRANCH   7   8
ATOM      8  C   UNL     1      17.678 -34.693  23.987  1.00  0.00     0.041 C 
ATOM      9  O   UNL     1      18.132 -35.042  22.866  1.00  0.00    -0.550 OA
ATOM     10  O   UNL     1      18.528 -34.631  25.084  1.00  0.00    -0.550 OA
ENDBRANCH   7   8
ENDBRANCH   6   7
ENDBRANCH   5   6
ENDBRANCH   4   5
ENDBRANCH   3   4
ENDBRANCH   2   3
ENDBRANCH   1   2
BRANCH   1  11
ATOM     11  C   UNL     1      13.164 -29.312  23.294  1.00  0.00     0.000 C 
BRANCH  11  12
ATOM     12  C   UNL     1      12.917 -30.788  22.942  1.00  0.00     0.000 C 
BRANCH  12  13
ATOM     13  C   UNL     1      12.165 -30.962  21.614  1.00  0.00     0.000 C 
BRANCH  13  14
ATOM     14  C   UNL     1      13.095 -31.509  20.525  1.00  0.00     0.000 C 
BRANCH  14  15
ATOM     15  C   UNL     1      14.051 -32.566  21.097  1.00  0.00     0.000 C 
BRANCH  15  16
ATOM     16  C   UNL     1      14.397 -33.672  20.082  1.00  0.00     0.006 C 
BRANCH  16  17
ATOM     17  C   UNL     1      15.268 -34.804  20.651  1.00  0.00     0.053 C 
BRANCH  17  18
ATOM     18  C   UNL     1      16.319 -35.246  19.680  1.00  0.00     0.041 C 
ATOM     19  O   UNL     1      16.652 -36.459  19.617  1.00  0.00    -0.550 OA
ATOM     20  O   UNL     1      16.955 -34.315  18.870  1.00  0.00    -0.550 OA
ENDBRANCH  17  18
ENDBRANCH  16  17
ENDBRANCH  15  16
ENDBRANCH  14  15
ENDBRANCH  13  14
ENDBRANCH  12  13
ENDBRANCH  11  12
ENDBRANCH   1  11
TORSDOF 15
ENDMDL
MODEL 5
REMARK VINA RESULT:    -4.827      3.323      6.511
REMARK INTER + INTRA:         -10.703
REMARK INTER:                  -8.894
REMARK INTRA:                  -1.809
REMARK UNBOUND:                -1.644
REMARK SMILES O=C([O-])CCCCCCCCCCCCCCC(=O)[O-]
REMARK SMILES IDX 10 1 9 2 8 3 7 4 6 5 5 6 4 7 2 8 1 9 3 10 11 11 12 12 13 13
REMARK SMILES IDX 14 14 15 15 16 16 17 17 18 18 19 19 20 20
REMARK H PARENT
REMARK Flexibility Score: inf
ROOT
ATOM      1  C   UNL     1      16.614 -30.219  23.469  1.00  0.00     0.000 C 
ENDROOT
BRANCH   1   2
ATOM      2  C   UNL     1      16.583 -31.709  23.826  1.00  0.00     0.000 C 
BRANCH   2   3
ATOM      3  C   UNL     1      15.403 -32.416  23.147  1.00  0.00     0.000 C 
BRANCH   3   4
ATOM      4  C   UNL     1      14.064 -31.907  23.701  1.00  0.00     0.000 C 
BRANCH   4   5
ATOM      5  C   UNL     1      13.120 -31.398  22.599  1.00  0.00     0.000 C 
BRANCH   5   6
ATOM      6  C   UNL     1      12.827 -29.893  22.721  1.00  0.00     0.006 C 
BRANCH   6   7
ATOM      7  C   UNL     1      13.085 -29.365  24.138  1.00  0.00     0.053 C 
BRANCH   7   8
ATOM      8  C   UNL     1      12.420 -28.042  24.370  1.00  0.00     0.041 C 
ATOM      9  O   UNL     1      12.749 -27.333  25.358  1.00  0.00    -0.550 OA
ATOM     10  O   UNL     1      11.459 -27.580  23.481  1.00  0.00    -0.550 OA
ENDBRANCH   7   8
ENDBRANCH   6   7
ENDBRANCH   5   6
ENDBRANCH   4   5
ENDBRANCH   3   4
ENDBRANCH   2   3
ENDBRANCH   1   2
BRANCH   1  11
ATOM     11  C   UNL     1      16.884 -30.017  21.971  1.00  0.00     0.000 C 
BRANCH  11  12
ATOM     12  C   UNL     1      18.354 -29.688  21.672  1.00  0.00     0.000 C 
BRANCH  12  13
ATOM     13  C   UNL     1      19.159 -30.920  21.230  1.00  0.00     0.000 C 
BRANCH  13  14
ATOM     14  C   UNL     1      18.270 -31.914  20.474  1.00  0.00     0.000 C 
BRANCH  14  15
ATOM     15  C   UNL     1      18.486 -33.345  20.987  1.00  0.00     0.000 C 
BRANCH  15  16
ATOM     16  C   UNL     1      18.435 -34.397  19.863  1.00  0.00     0.006 C 
BRANCH  16  17
ATOM     17  C   UNL     1      17.188 -34.306  18.968  1.00  0.00     0.053 C 
BRANCH  17  18
ATOM     18  C   UNL     1      15.980 -34.899  19.625  1.00  0.00     0.041 C 
ATOM     19  O   UNL     1      15.062 -34.151  20.055  1.00  0.00    -0.550 OA
ATOM     20  O   UNL     1      15.882 -36.274  19.793  1.00  0.00    -0.550 OA
ENDBRANCH  17  18
ENDBRANCH  16  17
ENDBRANCH  15  16
ENDBRANCH  14  15
ENDBRANCH  13  14
ENDBRANCH  12  13
ENDBRANCH  11  12
ENDBRANCH   1  11
TORSDOF 15
ENDMDL
MODEL 6
REMARK VINA RESULT:    -4.810      2.889      5.474
REMARK INTER + INTRA:         -10.671
REMARK INTER:                  -8.710
REMARK INTRA:                  -1.961
REMARK UNBOUND:                -1.644
REMARK SMILES O=C([O-])CCCCCCCCCCCCCCC(=O)[O-]
REMARK SMILES IDX 10 1 9 2 8 3 7 4 6 5 5 6 4 7 2 8 1 9 3 10 11 11 12 12 13 13
REMARK SMILES IDX 14 14 15 15 16 16 17 17 18 18 19 19 20 20
REMARK H PARENT
REMARK Flexibility Score: inf
ROOT
ATOM      1  C   UNL     1      15.926 -34.644  21.837  1.00  0.00     0.000 C 
ENDROOT
BRANCH   1   2
ATOM      2  C   UNL     1      15.419 -34.784  20.396  1.00  0.00     0.000 C 
BRANCH   2   3
ATOM      3  C   UNL     1      14.490 -33.623  20.022  1.00  0.00     0.000 C 
BRANCH   3   4
ATOM      4  C   UNL     1      14.215 -32.725  21.238  1.00  0.00     0.000 C 
BRANCH   4   5
ATOM      5  C   UNL     1      13.470 -31.433  20.866  1.00  0.00     0.000 C 
BRANCH   5   6
ATOM      6  C   UNL     1      12.471 -30.993  21.950  1.00  0.00     0.006 C 
BRANCH   6   7
ATOM      7  C   UNL     1      13.175 -30.495  23.219  1.00  0.00     0.053 C 
BRANCH   7   8
ATOM      8  C   UNL     1      12.778 -29.093  23.564  1.00  0.00     0.041 C 
ATOM      9  O   UNL     1      13.654 -28.247  23.883  1.00  0.00    -0.550 OA
ATOM     10  O   UNL     1      11.444 -28.712  23.506  1.00  0.00    -0.550 OA
ENDBRANCH   7   8
ENDBRANCH   6   7
ENDBRANCH   5   6
ENDBRANCH   4   5
ENDBRANCH   3   4
ENDBRANCH   2   3
ENDBRANCH   1   2
BRANCH   1  11
ATOM     11  C   UNL     1      17.242 -35.411  22.034  1.00  0.00     0.000 C 
BRANCH  11  12
ATOM     12  C   UNL     1      17.715 -35.410  23.496  1.00  0.00     0.000 C 
BRANCH  12  13
ATOM     13  C   UNL     1      16.699 -34.759  24.447  1.00  0.00     0.000 C 
BRANCH  13  14
ATOM     14  C   UNL     1      17.370 -33.688  25.316  1.00  0.00     0.000 C 
BRANCH  14  15
ATOM     15  C   UNL     1      17.790 -32.477  24.471  1.00  0.00     0.000 C 
BRANCH  15  16
ATOM     16  C   UNL     1      16.589 -31.708  23.890  1.00  0.00     0.006 C 
BRANCH  16  17
ATOM     17  C   UNL     1      16.896 -30.251  23.506  1.00  0.00     0.053 C 
BRANCH  17  18
ATOM     18  C   UNL     1      16.697 -30.002  22.042  1.00  0.00     0.041 C 
ATOM     19  O   UNL     1      16.003 -29.024  21.655  1.00  0.00    -0.550 OA
ATOM     20  O   UNL     1      17.247 -30.868  21.107  1.00  0.00    -0.550 OA
ENDBRANCH  17  18
ENDBRANCH  16  17
ENDBRANCH  15  16
ENDBRANCH  14  15
ENDBRANCH  13  14
ENDBRANCH  12  13
ENDBRANCH  11  12
ENDBRANCH   1  11
TORSDOF 15
ENDMDL
MODEL 7
REMARK VINA RESULT:    -4.767      3.493      5.952
REMARK INTER + INTRA:         -10.590
REMARK INTER:                  -8.390
REMARK INTRA:                  -2.200
REMARK UNBOUND:                -1.644
REMARK SMILES O=C([O-])CCCCCCCCCCCCCCC(=O)[O-]
REMARK SMILES IDX 10 1 9 2 8 3 7 4 6 5 5 6 4 7 2 8 1 9 3 10 11 11 12 12 13 13
REMARK SMILES IDX 14 14 15 15 16 16 17 17 18 18 19 19 20 20
REMARK H PARENT
REMARK Flexibility Score: inf
ROOT
ATOM      1  C   UNL     1      18.543 -33.278  20.478  1.00  0.00     0.000 C 
ENDROOT
BRANCH   1   2
ATOM      2  C   UNL     1      17.173 -33.717  21.009  1.00  0.00     0.000 C 
BRANCH   2   3
ATOM      3  C   UNL     1      16.429 -34.572  19.977  1.00  0.00     0.000 C 
BRANCH   3   4
ATOM      4  C   UNL     1      14.979 -34.093  19.809  1.00  0.00     0.000 C 
BRANCH   4   5
ATOM      5  C   UNL     1      14.508 -33.205  20.971  1.00  0.00     0.000 C 
BRANCH   5   6
ATOM      6  C   UNL     1      13.500 -32.132  20.524  1.00  0.00     0.006 C 
BRANCH   6   7
ATOM      7  C   UNL     1      13.741 -30.785  21.220  1.00  0.00     0.053 C 
BRANCH   7   8
ATOM      8  C   UNL     1      12.842 -30.600  22.404  1.00  0.00     0.041 C 
ATOM      9  O   UNL     1      13.171 -31.065  23.527  1.00  0.00    -0.550 OA
ATOM     10  O   UNL     1      11.655 -29.890  22.274  1.00  0.00    -0.550 OA
ENDBRANCH   7   8
ENDBRANCH   6   7
ENDBRANCH   5   6
ENDBRANCH   4   5
ENDBRANCH   3   4
ENDBRANCH   2   3
ENDBRANCH   1   2
BRANCH   1  11
ATOM     11  C   UNL     1      18.815 -31.804  20.811  1.00  0.00     0.000 C 
BRANCH  11  12
ATOM     12  C   UNL     1      17.526 -30.994  21.019  1.00  0.00     0.000 C 
BRANCH  12  13
ATOM     13  C   UNL     1      17.560 -30.145  22.299  1.00  0.00     0.000 C 
BRANCH  13  14
ATOM     14  C   UNL     1      16.720 -30.790  23.407  1.00  0.00     0.000 C 
BRANCH  14  15
ATOM     15  C   UNL     1      17.617 -31.372  24.509  1.00  0.00     0.000 C 
BRANCH  15  16
ATOM     16  C   UNL     1      17.911 -32.871  24.311  1.00  0.00     0.006 C 
BRANCH  16  17
ATOM     17  C   UNL     1      16.739 -33.799  24.670  1.00  0.00     0.053 C 
BRANCH  17  18
ATOM     18  C   UNL     1      17.163 -35.233  24.759  1.00  0.00     0.041 C 
ATOM     19  O   UNL     1      17.750 -35.781  23.788  1.00  0.00    -0.550 OA
ATOM     20  O   UNL     1      16.881 -35.973  25.899  1.00  0.00    -0.550 OA
ENDBRANCH  17  18
ENDBRANCH  16  17
ENDBRANCH  15  16
ENDBRANCH  14  15
ENDBRANCH  13  14
ENDBRANCH  12  13
ENDBRANCH  11  12
ENDBRANCH   1  11
TORSDOF 15
ENDMDL
MODEL 8
REMARK VINA RESULT:    -4.740      3.480      5.976
REMARK INTER + INTRA:         -10.540
REMARK INTER:                  -7.952
REMARK INTRA:                  -2.588
REMARK UNBOUND:                -1.644
REMARK SMILES O=C([O-])CCCCCCCCCCCCCCC(=O)[O-]
REMARK SMILES IDX 10 1 9 2 8 3 7 4 6 5 5 6 4 7 2 8 1 9 3 10 11 11 12 12 13 13
REMARK SMILES IDX 14 14 15 15 16 16 17 17 18 18 19 19 20 20
REMARK H PARENT
REMARK Flexibility Score: inf
ROOT
ATOM      1  C   UNL     1      20.097 -31.593  21.946  1.00  0.00     0.000 C 
ENDROOT
BRANCH   1   2
ATOM      2  C   UNL     1      18.961 -31.921  20.969  1.00  0.00     0.000 C 
BRANCH   2   3
ATOM      3  C   UNL     1      17.985 -30.746  20.842  1.00  0.00     0.000 C 
BRANCH   3   4
ATOM      4  C   UNL     1      16.630 -31.083  21.483  1.00  0.00     0.000 C 
BRANCH   4   5
ATOM      5  C   UNL     1      16.188 -30.040  22.522  1.00  0.00     0.000 C 
BRANCH   5   6
ATOM      6  C   UNL     1      14.867 -30.418  23.214  1.00  0.00     0.006 C 
BRANCH   6   7
ATOM      7  C   UNL     1      14.224 -31.665  22.594  1.00  0.00     0.053 C 
BRANCH   7   8
ATOM      8  C   UNL     1      13.111 -31.311  21.655  1.00  0.00     0.041 C 
ATOM      9  O   UNL     1      13.115 -31.747  20.474  1.00  0.00    -0.550 OA
ATOM     10  O   UNL     1      12.055 -30.522  22.093  1.00  0.00    -0.550 OA
ENDBRANCH   7   8
ENDBRANCH   6   7
ENDBRANCH   5   6
ENDBRANCH   4   5
ENDBRANCH   3   4
ENDBRANCH   2   3
ENDBRANCH   1   2
BRANCH   1  11
ATOM     11  C   UNL     1      19.936 -32.372  23.259  1.00  0.00     0.000 C 
BRANCH  11  12
ATOM     12  C   UNL     1      19.146 -31.589  24.320  1.00  0.00     0.000 C 
BRANCH  12  13
ATOM     13  C   UNL     1      17.901 -32.346  24.808  1.00  0.00     0.000 C 
BRANCH  13  14
ATOM     14  C   UNL     1      17.937 -33.811  24.357  1.00  0.00     0.000 C 
BRANCH  14  15
ATOM     15  C   UNL     1      16.637 -34.195  23.634  1.00  0.00     0.000 C 
BRANCH  15  16
ATOM     16  C   UNL     1      16.889 -34.928  22.302  1.00  0.00     0.006 C 
BRANCH  16  17
ATOM     17  C   UNL     1      15.788 -34.722  21.249  1.00  0.00     0.053 C 
BRANCH  17  18
ATOM     18  C   UNL     1      16.221 -35.175  19.888  1.00  0.00     0.041 C 
ATOM     19  O   UNL     1      16.383 -34.336  18.963  1.00  0.00    -0.550 OA
ATOM     20  O   UNL     1      16.412 -36.526  19.632  1.00  0.00    -0.550 OA
ENDBRANCH  17  18
ENDBRANCH  16  17
ENDBRANCH  15  16
ENDBRANCH  14  15
ENDBRANCH  13  14
ENDBRANCH  12  13
ENDBRANCH  11  12
ENDBRANCH   1  11
TORSDOF 15
ENDMDL
MODEL 9
REMARK VINA RESULT:    -4.732      2.995      5.800
REMARK INTER + INTRA:         -10.525
REMARK INTER:                  -8.237
REMARK INTRA:                  -2.288
REMARK UNBOUND:                -1.644
REMARK SMILES O=C([O-])CCCCCCCCCCCCCCC(=O)[O-]
REMARK SMILES IDX 10 1 9 2 8 3 7 4 6 5 5 6 4 7 2 8 1 9 3 10 11 11 12 12 13 13
REMARK SMILES IDX 14 14 15 15 16 16 17 17 18 18 19 19 20 20
REMARK H PARENT
REMARK Flexibility Score: inf
ROOT
ATOM      1  C   UNL     1      16.440 -34.360  19.554  1.00  0.00     0.000 C 
ENDROOT
BRANCH   1   2
ATOM      2  C   UNL     1      16.105 -34.839  20.971  1.00  0.00     0.000 C 
BRANCH   2   3
ATOM      3  C   UNL     1      15.011 -33.971  21.603  1.00  0.00     0.000 C 
BRANCH   3   4
ATOM      4  C   UNL     1      14.252 -33.175  20.531  1.00  0.00     0.000 C 
BRANCH   4   5
ATOM      5  C   UNL     1      14.121 -31.684  20.879  1.00  0.00     0.000 C 
BRANCH   5   6
ATOM      6  C   UNL     1      13.344 -31.447  22.185  1.00  0.00     0.006 C 
BRANCH   6   7
ATOM      7  C   UNL     1      13.548 -30.028  22.732  1.00  0.00     0.053 C 
BRANCH   7   8
ATOM      8  C   UNL     1      12.250 -29.386  23.117  1.00  0.00     0.041 C 
ATOM      9  O   UNL     1      11.245 -29.488  22.364  1.00  0.00    -0.550 OA
ATOM     10  O   UNL     1      12.141 -28.700  24.320  1.00  0.00    -0.550 OA
ENDBRANCH   7   8
ENDBRANCH   6   7
ENDBRANCH   5   6
ENDBRANCH   4   5
ENDBRANCH   3   4
ENDBRANCH   2   3
ENDBRANCH   1   2
BRANCH   1  11
ATOM     11  C   UNL     1      17.923 -33.978  19.438  1.00  0.00     0.000 C 
BRANCH  11  12
ATOM     12  C   UNL     1      18.530 -33.543  20.781  1.00  0.00     0.000 C 
BRANCH  12  13
ATOM     13  C   UNL     1      18.814 -32.034  20.842  1.00  0.00     0.000 C 
BRANCH  13  14
ATOM     14  C   UNL     1      17.585 -31.264  21.342  1.00  0.00     0.000 C 
BRANCH  14  15
ATOM     15  C   UNL     1      17.820 -30.712  22.755  1.00  0.00     0.000 C 
BRANCH  15  16
ATOM     16  C   UNL     1      16.872 -31.326  23.802  1.00  0.00     0.006 C 
BRANCH  16  17
ATOM     17  C   UNL     1      17.234 -32.761  24.219  1.00  0.00     0.053 C 
BRANCH  17  18
ATOM     18  C   UNL     1      18.317 -32.790  25.254  1.00  0.00     0.041 C 
ATOM     19  O   UNL     1      19.053 -33.805  25.373  1.00  0.00    -0.550 OA
ATOM     20  O   UNL     1      18.490 -31.711  26.110  1.00  0.00    -0.550 OA
ENDBRANCH  17  18
ENDBRANCH  16  17
ENDBRANCH  15  16
ENDBRANCH  14  15
ENDBRANCH  13  14
ENDBRANCH  12  13
ENDBRANCH  11  12
ENDBRANCH   1  11
TORSDOF 15
ENDMDL
