MODEL 1
REMARK VINA RESULT:    -4.694      0.000      0.000
REMARK INTER + INTRA:          -4.985
REMARK INTER:                  -4.969
REMARK INTRA:                  -0.016
REMARK UNBOUND:                -0.016
REMARK SMILES O=C([O-])c1cccnc1
REMARK SMILES IDX 4 1 5 2 9 3 6 4 8 5 7 6 2 7 1 8 3 9
REMARK H PARENT
REMARK Flexibility Score: inf
ROOT
ATOM      1  C   UNL     1     146.048 146.831 144.701  1.00  0.00     0.016 A 
ATOM      2  C   UNL     1     146.028 145.882 143.665  1.00  0.00     0.013 A 
ATOM      3  C   UNL     1     147.250 147.028 145.403  1.00  0.00     0.120 A 
ATOM      4  C   UNL     1     147.182 145.161 143.352  1.00  0.00     0.021 A 
ATOM      5  N   UNL     1     148.359 146.312 145.078  1.00  0.00    -0.264 NA
ATOM      6  C   UNL     1     148.351 145.393 144.078  1.00  0.00     0.111 A 
ENDROOT
BRANCH   1   7
ATOM      7  C   UNL     1     144.837 147.604 145.048  1.00  0.00     0.073 C 
ATOM      8  O   UNL     1     144.046 147.192 145.938  1.00  0.00    -0.545 OA
ATOM      9  O   UNL     1     144.553 148.799 144.395  1.00  0.00    -0.545 OA
ENDBRANCH   1   7
TORSDOF 1
ENDMDL
MODEL 2
REMARK VINA RESULT:    -4.443      1.098      1.104
REMARK INTER + INTRA:          -4.718
REMARK INTER:                  -4.697
REMARK INTRA:                  -0.021
REMARK UNBOUND:                -0.016
REMARK SMILES O=C([O-])c1cccnc1
REMARK SMILES IDX 4 1 5 2 9 3 6 4 8 5 7 6 2 7 1 8 3 9
REMARK H PARENT
REMARK Flexibility Score: inf
ROOT
ATOM      1  C   UNL     1     146.231 146.844 144.114  1.00  0.00     0.016 A 
ATOM      2  C   UNL     1     146.302 145.452 143.939  1.00  0.00     0.013 A 
ATOM      3  C   UNL     1     147.300 147.631 143.651  1.00  0.00     0.120 A 
ATOM      4  C   UNL     1     147.413 144.879 143.317  1.00  0.00     0.021 A 
ATOM      5  N   UNL     1     148.371 147.048 143.050  1.00  0.00    -0.264 NA
ATOM      6  C   UNL     1     148.449 145.703 142.875  1.00  0.00     0.111 A 
ENDROOT
BRANCH   1   7
ATOM      7  C   UNL     1     145.063 147.470 144.770  1.00  0.00     0.073 C 
ATOM      8  O   UNL     1     144.446 146.869 145.689  1.00  0.00    -0.545 OA
ATOM      9  O   UNL     1     144.630 148.733 144.381  1.00  0.00    -0.545 OA
ENDBRANCH   1   7
TORSDOF 1
ENDMDL
MODEL 3
REMARK VINA RESULT:    -4.306     20.414     21.121
REMARK INTER + INTRA:          -4.574
REMARK INTER:                  -4.550
REMARK INTRA:                  -0.024
REMARK UNBOUND:                -0.016
REMARK SMILES O=C([O-])c1cccnc1
REMARK SMILES IDX 4 1 5 2 9 3 6 4 8 5 7 6 2 7 1 8 3 9
REMARK H PARENT
REMARK Flexibility Score: inf
ROOT
ATOM      1  C   UNL     1     157.091 138.172 160.679  1.00  0.00     0.016 A 
ATOM      2  C   UNL     1     156.668 136.839 160.814  1.00  0.00     0.013 A 
ATOM      3  C   UNL     1     157.460 138.630 159.402  1.00  0.00     0.120 A 
ATOM      4  C   UNL     1     156.620 136.002 159.697  1.00  0.00     0.021 A 
ATOM      5  N   UNL     1     157.405 137.794 158.331  1.00  0.00    -0.264 NA
ATOM      6  C   UNL     1     156.997 136.504 158.451  1.00  0.00     0.111 A 
ENDROOT
BRANCH   1   7
ATOM      7  C   UNL     1     157.148 139.074 161.849  1.00  0.00     0.073 C 
ATOM      8  O   UNL     1     156.995 138.623 163.015  1.00  0.00    -0.545 OA
ATOM      9  O   UNL     1     157.372 140.436 161.678  1.00  0.00    -0.545 OA
ENDBRANCH   1   7
TORSDOF 1
ENDMDL
MODEL 4
REMARK VINA RESULT:    -3.906     20.172     20.833
REMARK INTER + INTRA:          -4.150
REMARK INTER:                  -4.128
REMARK INTRA:                  -0.022
REMARK UNBOUND:                -0.016
REMARK SMILES O=C([O-])c1cccnc1
REMARK SMILES IDX 4 1 5 2 9 3 6 4 8 5 7 6 2 7 1 8 3 9
REMARK H PARENT
REMARK Flexibility Score: inf
ROOT
ATOM      1  C   UNL     1     156.982 137.206 159.486  1.00  0.00     0.016 A 
ATOM      2  C   UNL     1     157.309 138.260 158.616  1.00  0.00     0.013 A 
ATOM      3  C   UNL     1     157.076 137.429 160.871  1.00  0.00     0.120 A 
ATOM      4  C   UNL     1     157.716 139.492 159.130  1.00  0.00     0.021 A 
ATOM      5  N   UNL     1     157.475 138.639 161.345  1.00  0.00    -0.264 NA
ATOM      6  C   UNL     1     157.794 139.665 160.513  1.00  0.00     0.111 A 
ENDROOT
BRANCH   1   7
ATOM      7  C   UNL     1     156.549 135.893 158.961  1.00  0.00     0.073 C 
ATOM      8  O   UNL     1     155.839 135.125 159.663  1.00  0.00    -0.545 OA
ATOM      9  O   UNL     1     156.922 135.488 157.684  1.00  0.00    -0.545 OA
ENDBRANCH   1   7
TORSDOF 1
ENDMDL
MODEL 5
REMARK VINA RESULT:    -3.629      2.905      3.892
REMARK INTER + INTRA:          -3.857
REMARK INTER:                  -3.838
REMARK INTRA:                  -0.019
REMARK UNBOUND:                -0.016
REMARK SMILES O=C([O-])c1cccnc1
REMARK SMILES IDX 4 1 5 2 9 3 6 4 8 5 7 6 2 7 1 8 3 9
REMARK H PARENT
REMARK Flexibility Score: inf
ROOT
ATOM      1  C   UNL     1     146.454 146.721 143.887  1.00  0.00     0.016 A 
ATOM      2  C   UNL     1     145.719 146.180 144.956  1.00  0.00     0.013 A 
ATOM      3  C   UNL     1     146.103 147.996 143.413  1.00  0.00     0.120 A 
ATOM      4  C   UNL     1     144.669 146.905 145.523  1.00  0.00     0.021 A 
ATOM      5  N   UNL     1     145.075 148.681 143.981  1.00  0.00    -0.264 NA
ATOM      6  C   UNL     1     144.358 148.168 145.016  1.00  0.00     0.111 A 
ENDROOT
BRANCH   1   7
ATOM      7  C   UNL     1     147.569 145.969 143.274  1.00  0.00     0.073 C 
ATOM      8  O   UNL     1     148.672 146.532 143.043  1.00  0.00    -0.545 OA
ATOM      9  O   UNL     1     147.416 144.627 142.943  1.00  0.00    -0.545 OA
ENDBRANCH   1   7
TORSDOF 1
ENDMDL
MODEL 6
REMARK VINA RESULT:    -3.517      9.552     10.087
REMARK INTER + INTRA:          -3.738
REMARK INTER:                  -3.715
REMARK INTRA:                  -0.023
REMARK UNBOUND:                -0.016
REMARK SMILES O=C([O-])c1cccnc1
REMARK SMILES IDX 4 1 5 2 9 3 6 4 8 5 7 6 2 7 1 8 3 9
REMARK H PARENT
REMARK Flexibility Score: inf
ROOT
ATOM      1  C   UNL     1     152.926 141.632 149.194  1.00  0.00     0.016 A 
ATOM      2  C   UNL     1     151.715 140.925 149.284  1.00  0.00     0.013 A 
ATOM      3  C   UNL     1     153.359 142.361 150.315  1.00  0.00     0.120 A 
ATOM      4  C   UNL     1     150.971 140.956 150.464  1.00  0.00     0.021 A 
ATOM      5  N   UNL     1     152.614 142.375 151.453  1.00  0.00    -0.264 NA
ATOM      6  C   UNL     1     151.442 141.695 151.550  1.00  0.00     0.111 A 
ENDROOT
BRANCH   1   7
ATOM      7  C   UNL     1     153.729 141.612 147.953  1.00  0.00     0.073 C 
ATOM      8  O   UNL     1     153.201 141.299 146.853  1.00  0.00    -0.545 OA
ATOM      9  O   UNL     1     155.080 141.940 147.983  1.00  0.00    -0.545 OA
ENDBRANCH   1   7
TORSDOF 1
ENDMDL
MODEL 7
REMARK VINA RESULT:    -3.319     20.703     21.557
REMARK INTER + INTRA:          -3.529
REMARK INTER:                  -3.505
REMARK INTRA:                  -0.024
REMARK UNBOUND:                -0.016
REMARK SMILES O=C([O-])c1cccnc1
REMARK SMILES IDX 4 1 5 2 9 3 6 4 8 5 7 6 2 7 1 8 3 9
REMARK H PARENT
REMARK Flexibility Score: inf
ROOT
ATOM      1  C   UNL     1     157.498 138.099 160.285  1.00  0.00     0.016 A 
ATOM      2  C   UNL     1     157.418 139.266 161.063  1.00  0.00     0.013 A 
ATOM      3  C   UNL     1     157.620 136.864 160.945  1.00  0.00     0.120 A 
ATOM      4  C   UNL     1     157.460 139.185 162.456  1.00  0.00     0.021 A 
ATOM      5  N   UNL     1     157.659 136.813 162.303  1.00  0.00    -0.264 NA
ATOM      6  C   UNL     1     157.582 137.936 163.065  1.00  0.00     0.111 A 
ENDROOT
BRANCH   1   7
ATOM      7  C   UNL     1     157.456 138.163 158.809  1.00  0.00     0.073 C 
ATOM      8  O   UNL     1     157.351 139.271 158.218  1.00  0.00    -0.545 OA
ATOM      9  O   UNL     1     157.531 137.000 158.051  1.00  0.00    -0.545 OA
ENDBRANCH   1   7
TORSDOF 1
ENDMDL
MODEL 8
REMARK VINA RESULT:    -3.234      9.028      9.675
REMARK INTER + INTRA:          -3.439
REMARK INTER:                  -3.418
REMARK INTRA:                  -0.021
REMARK UNBOUND:                -0.016
REMARK SMILES O=C([O-])c1cccnc1
REMARK SMILES IDX 4 1 5 2 9 3 6 4 8 5 7 6 2 7 1 8 3 9
REMARK H PARENT
REMARK Flexibility Score: inf
ROOT
ATOM      1  C   UNL     1     151.914 141.581 150.276  1.00  0.00     0.016 A 
ATOM      2  C   UNL     1     152.918 141.556 149.293  1.00  0.00     0.013 A 
ATOM      3  C   UNL     1     150.598 141.266 149.896  1.00  0.00     0.120 A 
ATOM      4  C   UNL     1     152.599 141.225 147.975  1.00  0.00     0.021 A 
ATOM      5  N   UNL     1     150.315 140.948 148.605  1.00  0.00    -0.264 NA
ATOM      6  C   UNL     1     151.278 140.921 147.646  1.00  0.00     0.111 A 
ENDROOT
BRANCH   1   7
ATOM      7  C   UNL     1     152.231 141.929 151.678  1.00  0.00     0.073 C 
ATOM      8  O   UNL     1     151.581 141.418 152.628  1.00  0.00    -0.545 OA
ATOM      9  O   UNL     1     153.252 142.827 151.967  1.00  0.00    -0.545 OA
ENDBRANCH   1   7
TORSDOF 1
ENDMDL
MODEL 9
REMARK VINA RESULT:    -3.218      9.631     10.181
REMARK INTER + INTRA:          -3.422
REMARK INTER:                  -3.398
REMARK INTRA:                  -0.023
REMARK UNBOUND:                -0.016
REMARK SMILES O=C([O-])c1cccnc1
REMARK SMILES IDX 4 1 5 2 9 3 6 4 8 5 7 6 2 7 1 8 3 9
REMARK H PARENT
REMARK Flexibility Score: inf
ROOT
ATOM      1  C   UNL     1     153.112 141.863 149.418  1.00  0.00     0.016 A 
ATOM      2  C   UNL     1     152.568 141.982 150.707  1.00  0.00     0.013 A 
ATOM      3  C   UNL     1     152.352 141.215 148.429  1.00  0.00     0.120 A 
ATOM      4  C   UNL     1     151.301 141.465 150.984  1.00  0.00     0.021 A 
ATOM      5  N   UNL     1     151.121 140.719 148.725  1.00  0.00    -0.264 NA
ATOM      6  C   UNL     1     150.585 140.830 149.969  1.00  0.00     0.111 A 
ENDROOT
BRANCH   1   7
ATOM      7  C   UNL     1     154.452 142.403 149.104  1.00  0.00     0.073 C 
ATOM      8  O   UNL     1     155.001 143.240 149.869  1.00  0.00    -0.545 OA
ATOM      9  O   UNL     1     155.126 141.995 147.958  1.00  0.00    -0.545 OA
ENDBRANCH   1   7
TORSDOF 1
ENDMDL
