MODEL 1
REMARK VINA RESULT:    -4.590      0.000      0.000
REMARK INTER + INTRA:          -6.514
REMARK INTER:                  -6.200
REMARK INTRA:                  -0.314
REMARK UNBOUND:                -0.314
REMARK SMILES CCCCCCCC(=O)[O-]
REMARK SMILES IDX 5 1 6 2 7 3 8 4 9 5 10 6 4 7 3 8 2 9 1 10
REMARK H PARENT
REMARK Flexibility Score: inf
ROOT
ATOM      1  C   UNL     1     -17.752  34.432  81.037  1.00  0.00     0.000 C 
ENDROOT
BRANCH   1   2
ATOM      2  C   UNL     1     -16.712  35.296  81.766  1.00  0.00     0.006 C 
BRANCH   2   3
ATOM      3  C   UNL     1     -17.017  35.433  83.263  1.00  0.00     0.053 C 
BRANCH   3   4
ATOM      4  C   UNL     1     -17.631  36.761  83.587  1.00  0.00     0.041 C 
ATOM      5  O   UNL     1     -18.569  36.838  84.424  1.00  0.00    -0.550 OA
ATOM      6  O   UNL     1     -17.145  37.917  82.991  1.00  0.00    -0.550 OA
ENDBRANCH   3   4
ENDBRANCH   2   3
ENDBRANCH   1   2
BRANCH   1   7
ATOM      7  C   UNL     1     -18.222  35.113  79.745  1.00  0.00     0.000 C 
BRANCH   7   8
ATOM      8  C   UNL     1     -18.056  36.634  79.832  1.00  0.00    -0.000 C 
BRANCH   8   9
ATOM      9  C   UNL     1     -18.734  37.330  78.646  1.00  0.00    -0.003 C 
ATOM     10  C   UNL     1     -20.198  37.633  78.949  1.00  0.00     0.004 C 
ENDBRANCH   8   9
ENDBRANCH   7   8
ENDBRANCH   1   7
TORSDOF 6
ENDMDL
MODEL 2
REMARK VINA RESULT:    -4.559      1.049      1.786
REMARK INTER + INTRA:          -6.472
REMARK INTER:                  -6.096
REMARK INTRA:                  -0.376
REMARK UNBOUND:                -0.314
REMARK SMILES CCCCCCCC(=O)[O-]
REMARK SMILES IDX 5 1 6 2 7 3 8 4 9 5 10 6 4 7 3 8 2 9 1 10
REMARK H PARENT
REMARK Flexibility Score: inf
ROOT
ATOM      1  C   UNL     1     -16.647  35.346  81.934  1.00  0.00     0.000 C 
ENDROOT
BRANCH   1   2
ATOM      2  C   UNL     1     -17.014  35.489  83.418  1.00  0.00     0.006 C 
BRANCH   2   3
ATOM      3  C   UNL     1     -17.263  36.950  83.817  1.00  0.00     0.053 C 
BRANCH   3   4
ATOM      4  C   UNL     1     -18.726  37.257  83.918  1.00  0.00     0.041 C 
ATOM      5  O   UNL     1     -19.493  37.014  82.949  1.00  0.00    -0.550 OA
ATOM      6  O   UNL     1     -19.248  37.781  85.093  1.00  0.00    -0.550 OA
ENDBRANCH   3   4
ENDBRANCH   2   3
ENDBRANCH   1   2
BRANCH   1   7
ATOM      7  C   UNL     1     -17.690  34.502  81.190  1.00  0.00     0.000 C 
BRANCH   7   8
ATOM      8  C   UNL     1     -18.013  35.108  79.819  1.00  0.00    -0.000 C 
BRANCH   8   9
ATOM      9  C   UNL     1     -18.072  36.638  79.894  1.00  0.00    -0.003 C 
ATOM     10  C   UNL     1     -18.707  37.227  78.639  1.00  0.00     0.004 C 
ENDBRANCH   8   9
ENDBRANCH   7   8
ENDBRANCH   1   7
TORSDOF 6
ENDMDL
MODEL 3
REMARK VINA RESULT:    -4.510      2.249      4.077
REMARK INTER + INTRA:          -6.406
REMARK INTER:                  -5.940
REMARK INTRA:                  -0.466
REMARK UNBOUND:                -0.314
REMARK SMILES CCCCCCCC(=O)[O-]
REMARK SMILES IDX 5 1 6 2 7 3 8 4 9 5 10 6 4 7 3 8 2 9 1 10
REMARK H PARENT
REMARK Flexibility Score: inf
ROOT
ATOM      1  C   UNL     1     -17.235  35.105  82.028  1.00  0.00     0.000 C 
ENDROOT
BRANCH   1   2
ATOM      2  C   UNL     1     -17.021  35.239  80.513  1.00  0.00     0.006 C 
BRANCH   2   3
ATOM      3  C   UNL     1     -18.340  35.442  79.756  1.00  0.00     0.053 C 
BRANCH   3   4
ATOM      4  C   UNL     1     -18.589  36.888  79.450  1.00  0.00     0.041 C 
ATOM      5  O   UNL     1     -17.623  37.661  79.211  1.00  0.00    -0.550 OA
ATOM      6  O   UNL     1     -19.889  37.375  79.394  1.00  0.00    -0.550 OA
ENDBRANCH   3   4
ENDBRANCH   2   3
ENDBRANCH   1   2
BRANCH   1   7
ATOM      7  C   UNL     1     -16.374  36.116  82.796  1.00  0.00     0.000 C 
BRANCH   7   8
ATOM      8  C   UNL     1     -17.163  37.395  83.095  1.00  0.00    -0.000 C 
BRANCH   8   9
ATOM      9  C   UNL     1     -18.643  37.084  83.345  1.00  0.00    -0.003 C 
ATOM     10  C   UNL     1     -19.138  37.750  84.625  1.00  0.00     0.004 C 
ENDBRANCH   8   9
ENDBRANCH   7   8
ENDBRANCH   1   7
TORSDOF 6
ENDMDL
MODEL 4
REMARK VINA RESULT:    -4.094      1.493      2.397
REMARK INTER + INTRA:          -5.844
REMARK INTER:                  -5.425
REMARK INTRA:                  -0.419
REMARK UNBOUND:                -0.314
REMARK SMILES CCCCCCCC(=O)[O-]
REMARK SMILES IDX 5 1 6 2 7 3 8 4 9 5 10 6 4 7 3 8 2 9 1 10
REMARK H PARENT
REMARK Flexibility Score: inf
ROOT
ATOM      1  C   UNL     1     -17.163  37.331  82.014  1.00  0.00     0.000 C 
ENDROOT
BRANCH   1   2
ATOM      2  C   UNL     1     -16.142  36.320  82.555  1.00  0.00     0.006 C 
BRANCH   2   3
ATOM      3  C   UNL     1     -16.815  35.139  83.266  1.00  0.00     0.053 C 
BRANCH   3   4
ATOM      4  C   UNL     1     -17.093  35.441  84.707  1.00  0.00     0.041 C 
ATOM      5  O   UNL     1     -16.356  34.962  85.609  1.00  0.00    -0.550 OA
ATOM      6  O   UNL     1     -18.145  36.280  85.053  1.00  0.00    -0.550 OA
ENDBRANCH   3   4
ENDBRANCH   2   3
ENDBRANCH   1   2
BRANCH   1   7
ATOM      7  C   UNL     1     -18.362  36.615  81.379  1.00  0.00     0.000 C 
BRANCH   7   8
ATOM      8  C   UNL     1     -18.444  36.905  79.876  1.00  0.00    -0.000 C 
BRANCH   8   9
ATOM      9  C   UNL     1     -18.076  35.663  79.055  1.00  0.00    -0.003 C 
ATOM     10  C   UNL     1     -18.028  34.416  79.932  1.00  0.00     0.004 C 
ENDBRANCH   8   9
ENDBRANCH   7   8
ENDBRANCH   1   7
TORSDOF 6
ENDMDL
MODEL 5
REMARK VINA RESULT:    -4.066     13.472     14.918
REMARK INTER + INTRA:          -5.807
REMARK INTER:                  -5.480
REMARK INTRA:                  -0.327
REMARK UNBOUND:                -0.314
REMARK SMILES CCCCCCCC(=O)[O-]
REMARK SMILES IDX 5 1 6 2 7 3 8 4 9 5 10 6 4 7 3 8 2 9 1 10
REMARK H PARENT
REMARK Flexibility Score: inf
ROOT
ATOM      1  C   UNL     1     -26.602  45.584  90.656  1.00  0.00     0.000 C 
ENDROOT
BRANCH   1   2
ATOM      2  C   UNL     1     -25.972  44.212  90.940  1.00  0.00     0.006 C 
BRANCH   2   3
ATOM      3  C   UNL     1     -26.920  43.288  91.717  1.00  0.00     0.053 C 
BRANCH   3   4
ATOM      4  C   UNL     1     -28.030  42.774  90.851  1.00  0.00     0.041 C 
ATOM      5  O   UNL     1     -29.207  42.718  91.296  1.00  0.00    -0.550 OA
ATOM      6  O   UNL     1     -27.772  42.390  89.541  1.00  0.00    -0.550 OA
ENDBRANCH   3   4
ENDBRANCH   2   3
ENDBRANCH   1   2
BRANCH   1   7
ATOM      7  C   UNL     1     -25.702  46.421  89.738  1.00  0.00     0.000 C 
BRANCH   7   8
ATOM      8  C   UNL     1     -26.415  46.753  88.422  1.00  0.00    -0.000 C 
BRANCH   8   9
ATOM      9  C   UNL     1     -25.809  45.966  87.254  1.00  0.00    -0.003 C 
ATOM     10  C   UNL     1     -24.474  45.342  87.643  1.00  0.00     0.004 C 
ENDBRANCH   8   9
ENDBRANCH   7   8
ENDBRANCH   1   7
TORSDOF 6
ENDMDL
MODEL 6
REMARK VINA RESULT:    -3.989      7.161      8.802
REMARK INTER + INTRA:          -5.703
REMARK INTER:                  -5.303
REMARK INTRA:                  -0.399
REMARK UNBOUND:                -0.314
REMARK SMILES CCCCCCCC(=O)[O-]
REMARK SMILES IDX 5 1 6 2 7 3 8 4 9 5 10 6 4 7 3 8 2 9 1 10
REMARK H PARENT
REMARK Flexibility Score: inf
ROOT
ATOM      1  C   UNL     1     -20.654  38.497  87.878  1.00  0.00     0.000 C 
ENDROOT
BRANCH   1   2
ATOM      2  C   UNL     1     -20.065  39.355  86.749  1.00  0.00     0.006 C 
BRANCH   2   3
ATOM      3  C   UNL     1     -19.398  40.632  87.278  1.00  0.00     0.053 C 
BRANCH   3   4
ATOM      4  C   UNL     1     -20.098  41.866  86.797  1.00  0.00     0.041 C 
ATOM      5  O   UNL     1     -19.542  42.624  85.958  1.00  0.00    -0.550 OA
ATOM      6  O   UNL     1     -21.378  42.163  87.248  1.00  0.00    -0.550 OA
ENDBRANCH   3   4
ENDBRANCH   2   3
ENDBRANCH   1   2
BRANCH   1   7
ATOM      7  C   UNL     1     -20.377  39.128  89.249  1.00  0.00     0.000 C 
BRANCH   7   8
ATOM      8  C   UNL     1     -19.884  38.076  90.249  1.00  0.00    -0.000 C 
BRANCH   8   9
ATOM      9  C   UNL     1     -18.436  37.669  89.952  1.00  0.00    -0.003 C 
ATOM     10  C   UNL     1     -18.361  36.235  89.437  1.00  0.00     0.004 C 
ENDBRANCH   8   9
ENDBRANCH   7   8
ENDBRANCH   1   7
TORSDOF 6
ENDMDL
MODEL 7
REMARK VINA RESULT:    -3.945      6.514      9.073
REMARK INTER + INTRA:          -5.643
REMARK INTER:                  -5.001
REMARK INTRA:                  -0.642
REMARK UNBOUND:                -0.314
REMARK SMILES CCCCCCCC(=O)[O-]
REMARK SMILES IDX 5 1 6 2 7 3 8 4 9 5 10 6 4 7 3 8 2 9 1 10
REMARK H PARENT
REMARK Flexibility Score: inf
ROOT
ATOM      1  C   UNL     1     -19.761  40.625  89.546  1.00  0.00     0.000 C 
ENDROOT
BRANCH   1   2
ATOM      2  C   UNL     1     -20.380  40.715  88.145  1.00  0.00     0.006 C 
BRANCH   2   3
ATOM      3  C   UNL     1     -19.544  39.977  87.091  1.00  0.00     0.053 C 
BRANCH   3   4
ATOM      4  C   UNL     1     -20.161  38.665  86.710  1.00  0.00     0.041 C 
ATOM      5  O   UNL     1     -20.998  38.113  87.473  1.00  0.00    -0.550 OA
ATOM      6  O   UNL     1     -19.838  38.069  85.498  1.00  0.00    -0.550 OA
ENDBRANCH   3   4
ENDBRANCH   2   3
ENDBRANCH   1   2
BRANCH   1   7
ATOM      7  C   UNL     1     -20.700  39.896  90.516  1.00  0.00     0.000 C 
BRANCH   7   8
ATOM      8  C   UNL     1     -20.167  38.500  90.855  1.00  0.00    -0.000 C 
BRANCH   8   9
ATOM      9  C   UNL     1     -18.709  38.344  90.409  1.00  0.00    -0.003 C 
ATOM     10  C   UNL     1     -18.484  37.005  89.715  1.00  0.00     0.004 C 
ENDBRANCH   8   9
ENDBRANCH   7   8
ENDBRANCH   1   7
TORSDOF 6
ENDMDL
MODEL 8
REMARK VINA RESULT:    -3.883      8.213      9.534
REMARK INTER + INTRA:          -5.559
REMARK INTER:                  -5.080
REMARK INTRA:                  -0.479
REMARK UNBOUND:                -0.314
REMARK SMILES CCCCCCCC(=O)[O-]
REMARK SMILES IDX 5 1 6 2 7 3 8 4 9 5 10 6 4 7 3 8 2 9 1 10
REMARK H PARENT
REMARK Flexibility Score: inf
ROOT
ATOM      1  C   UNL     1     -21.225  45.181  85.679  1.00  0.00     0.000 C 
ENDROOT
BRANCH   1   2
ATOM      2  C   UNL     1     -20.600  44.235  86.715  1.00  0.00     0.006 C 
BRANCH   2   3
ATOM      3  C   UNL     1     -19.989  42.986  86.066  1.00  0.00     0.053 C 
BRANCH   3   4
ATOM      4  C   UNL     1     -20.361  41.737  86.805  1.00  0.00     0.041 C 
ATOM      5  O   UNL     1     -21.491  41.637  87.352  1.00  0.00    -0.550 OA
ATOM      6  O   UNL     1     -19.474  40.670  86.862  1.00  0.00    -0.550 OA
ENDBRANCH   3   4
ENDBRANCH   2   3
ENDBRANCH   1   2
BRANCH   1   7
ATOM      7  C   UNL     1     -20.366  45.250  84.410  1.00  0.00     0.000 C 
BRANCH   7   8
ATOM      8  C   UNL     1     -19.271  46.315  84.543  1.00  0.00    -0.000 C 
BRANCH   8   9
ATOM      9  C   UNL     1     -17.911  45.765  84.096  1.00  0.00    -0.003 C 
ATOM     10  C   UNL     1     -17.104  45.258  85.286  1.00  0.00     0.004 C 
ENDBRANCH   8   9
ENDBRANCH   7   8
ENDBRANCH   1   7
TORSDOF 6
ENDMDL
MODEL 9
REMARK VINA RESULT:    -3.864      7.897      9.615
REMARK INTER + INTRA:          -5.534
REMARK INTER:                  -5.048
REMARK INTRA:                  -0.486
REMARK UNBOUND:                -0.314
REMARK SMILES CCCCCCCC(=O)[O-]
REMARK SMILES IDX 5 1 6 2 7 3 8 4 9 5 10 6 4 7 3 8 2 9 1 10
REMARK H PARENT
REMARK Flexibility Score: inf
ROOT
ATOM      1  C   UNL     1     -20.372  38.873  90.799  1.00  0.00     0.000 C 
ENDROOT
BRANCH   1   2
ATOM      2  C   UNL     1     -20.972  40.266  90.562  1.00  0.00     0.006 C 
BRANCH   2   3
ATOM      3  C   UNL     1     -20.135  41.100  89.582  1.00  0.00     0.053 C 
BRANCH   3   4
ATOM      4  C   UNL     1     -20.189  40.544  88.192  1.00  0.00     0.041 C 
ATOM      5  O   UNL     1     -19.140  40.467  87.499  1.00  0.00    -0.550 OA
ATOM      6  O   UNL     1     -21.391  40.078  87.673  1.00  0.00    -0.550 OA
ENDBRANCH   3   4
ENDBRANCH   2   3
ENDBRANCH   1   2
BRANCH   1   7
ATOM      7  C   UNL     1     -18.904  38.973  91.235  1.00  0.00     0.000 C 
BRANCH   7   8
ATOM      8  C   UNL     1     -18.001  38.130  90.327  1.00  0.00    -0.000 C 
BRANCH   8   9
ATOM      9  C   UNL     1     -18.822  37.116  89.522  1.00  0.00    -0.003 C 
ATOM     10  C   UNL     1     -17.997  35.877  89.192  1.00  0.00     0.004 C 
ENDBRANCH   8   9
ENDBRANCH   7   8
ENDBRANCH   1   7
TORSDOF 6
ENDMDL
