MODEL 1
REMARK VINA RESULT:    -4.142      0.000      0.000
REMARK INTER + INTRA:          -5.850
REMARK INTER:                  -5.595
REMARK INTRA:                  -0.255
REMARK UNBOUND:                -0.255
REMARK SMILES CCCCCCCC(=O)[O-]
REMARK SMILES IDX 5 1 6 2 7 3 8 4 9 5 10 6 4 7 3 8 2 9 1 10
REMARK H PARENT
REMARK Flexibility Score: inf
ROOT
ATOM      1  C   UNL     1      45.245  -5.153  83.471  1.00  0.00     0.000 C 
ENDROOT
BRANCH   1   2
ATOM      2  C   UNL     1      44.066  -5.342  84.440  1.00  0.00     0.006 C 
BRANCH   2   3
ATOM      3  C   UNL     1      42.764  -5.720  83.721  1.00  0.00     0.053 C 
BRANCH   3   4
ATOM      4  C   UNL     1      42.400  -7.142  84.014  1.00  0.00     0.041 C 
ATOM      5  O   UNL     1      42.035  -7.907  83.083  1.00  0.00    -0.550 OA
ATOM      6  O   UNL     1      42.511  -7.636  85.307  1.00  0.00    -0.550 OA
ENDBRANCH   3   4
ENDBRANCH   2   3
ENDBRANCH   1   2
BRANCH   1   7
ATOM      7  C   UNL     1      46.150  -3.974  83.868  1.00  0.00     0.000 C 
BRANCH   7   8
ATOM      8  C   UNL     1      45.535  -3.105  84.978  1.00  0.00    -0.000 C 
BRANCH   8   9
ATOM      9  C   UNL     1      46.378  -1.862  85.293  1.00  0.00    -0.003 C 
ATOM     10  C   UNL     1      47.660  -1.843  84.465  1.00  0.00     0.004 C 
ENDBRANCH   8   9
ENDBRANCH   7   8
ENDBRANCH   1   7
TORSDOF 6
ENDMDL
MODEL 2
REMARK VINA RESULT:    -3.943      1.153      1.999
REMARK INTER + INTRA:          -5.581
REMARK INTER:                  -5.344
REMARK INTRA:                  -0.237
REMARK UNBOUND:                -0.255
REMARK SMILES CCCCCCCC(=O)[O-]
REMARK SMILES IDX 5 1 6 2 7 3 8 4 9 5 10 6 4 7 3 8 2 9 1 10
REMARK H PARENT
REMARK Flexibility Score: inf
ROOT
ATOM      1  C   UNL     1      43.793  -3.130  86.051  1.00  0.00     0.000 C 
ENDROOT
BRANCH   1   2
ATOM      2  C   UNL     1      43.013  -4.405  85.690  1.00  0.00     0.006 C 
BRANCH   2   3
ATOM      3  C   UNL     1      43.758  -5.290  84.682  1.00  0.00     0.053 C 
BRANCH   3   4
ATOM      4  C   UNL     1      43.149  -6.656  84.635  1.00  0.00     0.041 C 
ATOM      5  O   UNL     1      43.305  -7.452  85.598  1.00  0.00    -0.550 OA
ATOM      6  O   UNL     1      42.368  -7.032  83.551  1.00  0.00    -0.550 OA
ENDBRANCH   3   4
ENDBRANCH   2   3
ENDBRANCH   1   2
BRANCH   1   7
ATOM      7  C   UNL     1      45.165  -3.063  85.359  1.00  0.00     0.000 C 
BRANCH   7   8
ATOM      8  C   UNL     1      45.872  -1.714  85.582  1.00  0.00    -0.000 C 
BRANCH   8   9
ATOM      9  C   UNL     1      47.247  -1.646  84.903  1.00  0.00    -0.003 C 
ATOM     10  C   UNL     1      47.276  -2.497  83.636  1.00  0.00     0.004 C 
ENDBRANCH   8   9
ENDBRANCH   7   8
ENDBRANCH   1   7
TORSDOF 6
ENDMDL
MODEL 3
REMARK VINA RESULT:    -3.911      3.683      5.696
REMARK INTER + INTRA:          -5.538
REMARK INTER:                  -5.294
REMARK INTRA:                  -0.244
REMARK UNBOUND:                -0.255
REMARK SMILES CCCCCCCC(=O)[O-]
REMARK SMILES IDX 5 1 6 2 7 3 8 4 9 5 10 6 4 7 3 8 2 9 1 10
REMARK H PARENT
REMARK Flexibility Score: inf
ROOT
ATOM      1  C   UNL     1      45.533  -4.858  83.466  1.00  0.00     0.000 C 
ENDROOT
BRANCH   1   2
ATOM      2  C   UNL     1      45.677  -3.698  84.464  1.00  0.00     0.006 C 
BRANCH   2   3
ATOM      3  C   UNL     1      46.837  -2.756  84.116  1.00  0.00     0.053 C 
BRANCH   3   4
ATOM      4  C   UNL     1      46.903  -1.625  85.093  1.00  0.00     0.041 C 
ATOM      5  O   UNL     1      47.812  -0.759  84.999  1.00  0.00    -0.550 OA
ATOM      6  O   UNL     1      45.931  -1.499  86.077  1.00  0.00    -0.550 OA
ENDBRANCH   3   4
ENDBRANCH   2   3
ENDBRANCH   1   2
BRANCH   1   7
ATOM      7  C   UNL     1      44.387  -5.815  83.835  1.00  0.00     0.000 C 
BRANCH   7   8
ATOM      8  C   UNL     1      43.255  -5.110  84.601  1.00  0.00    -0.000 C 
BRANCH   8   9
ATOM      9  C   UNL     1      42.691  -5.966  85.745  1.00  0.00    -0.003 C 
ATOM     10  C   UNL     1      42.684  -7.446  85.371  1.00  0.00     0.004 C 
ENDBRANCH   8   9
ENDBRANCH   7   8
ENDBRANCH   1   7
TORSDOF 6
ENDMDL
MODEL 4
REMARK VINA RESULT:    -3.837     13.763     15.057
REMARK INTER + INTRA:          -5.439
REMARK INTER:                  -5.180
REMARK INTRA:                  -0.259
REMARK UNBOUND:                -0.255
REMARK SMILES CCCCCCCC(=O)[O-]
REMARK SMILES IDX 5 1 6 2 7 3 8 4 9 5 10 6 4 7 3 8 2 9 1 10
REMARK H PARENT
REMARK Flexibility Score: inf
ROOT
ATOM      1  C   UNL     1      52.204  -0.304  71.902  1.00  0.00     0.000 C 
ENDROOT
BRANCH   1   2
ATOM      2  C   UNL     1      53.431  -1.229  71.963  1.00  0.00     0.006 C 
BRANCH   2   3
ATOM      3  C   UNL     1      53.361  -2.229  73.124  1.00  0.00     0.053 C 
BRANCH   3   4
ATOM      4  C   UNL     1      54.133  -3.467  72.794  1.00  0.00     0.041 C 
ATOM      5  O   UNL     1      54.089  -4.466  73.560  1.00  0.00    -0.550 OA
ATOM      6  O   UNL     1      54.862  -3.538  71.614  1.00  0.00    -0.550 OA
ENDBRANCH   3   4
ENDBRANCH   2   3
ENDBRANCH   1   2
BRANCH   1   7
ATOM      7  C   UNL     1      50.990  -0.885  72.647  1.00  0.00     0.000 C 
BRANCH   7   8
ATOM      8  C   UNL     1      49.959  -1.513  71.695  1.00  0.00    -0.000 C 
BRANCH   8   9
ATOM      9  C   UNL     1      48.571  -0.868  71.814  1.00  0.00    -0.003 C 
ATOM     10  C   UNL     1      48.538   0.157  72.944  1.00  0.00     0.004 C 
ENDBRANCH   8   9
ENDBRANCH   7   8
ENDBRANCH   1   7
TORSDOF 6
ENDMDL
MODEL 5
REMARK VINA RESULT:    -3.756     13.312     14.484
REMARK INTER + INTRA:          -5.328
REMARK INTER:                  -4.896
REMARK INTRA:                  -0.432
REMARK UNBOUND:                -0.255
REMARK SMILES CCCCCCCC(=O)[O-]
REMARK SMILES IDX 5 1 6 2 7 3 8 4 9 5 10 6 4 7 3 8 2 9 1 10
REMARK H PARENT
REMARK Flexibility Score: inf
ROOT
ATOM      1  C   UNL     1      49.977  -1.593  71.742  1.00  0.00     0.000 C 
ENDROOT
BRANCH   1   2
ATOM      2  C   UNL     1      51.245  -0.892  72.253  1.00  0.00     0.006 C 
BRANCH   2   3
ATOM      3  C   UNL     1      52.219  -1.857  72.942  1.00  0.00     0.053 C 
BRANCH   3   4
ATOM      4  C   UNL     1      53.499  -1.944  72.173  1.00  0.00     0.041 C 
ATOM      5  O   UNL     1      54.148  -3.023  72.142  1.00  0.00    -0.550 OA
ATOM      6  O   UNL     1      53.951  -0.849  71.449  1.00  0.00    -0.550 OA
ENDBRANCH   3   4
ENDBRANCH   2   3
ENDBRANCH   1   2
BRANCH   1   7
ATOM      7  C   UNL     1      48.700  -0.784  72.026  1.00  0.00     0.000 C 
BRANCH   7   8
ATOM      8  C   UNL     1      48.925   0.328  73.065  1.00  0.00    -0.000 C 
BRANCH   8   9
ATOM      9  C   UNL     1      48.184   0.065  74.384  1.00  0.00    -0.003 C 
ATOM     10  C   UNL     1      48.979  -0.880  75.281  1.00  0.00     0.004 C 
ENDBRANCH   8   9
ENDBRANCH   7   8
ENDBRANCH   1   7
TORSDOF 6
ENDMDL
MODEL 6
REMARK VINA RESULT:    -3.662     13.442     14.584
REMARK INTER + INTRA:          -5.203
REMARK INTER:                  -4.628
REMARK INTRA:                  -0.575
REMARK UNBOUND:                -0.255
REMARK SMILES CCCCCCCC(=O)[O-]
REMARK SMILES IDX 5 1 6 2 7 3 8 4 9 5 10 6 4 7 3 8 2 9 1 10
REMARK H PARENT
REMARK Flexibility Score: inf
ROOT
ATOM      1  C   UNL     1      50.817  -3.547  71.833  1.00  0.00     0.000 C 
ENDROOT
BRANCH   1   2
ATOM      2  C   UNL     1      52.138  -3.525  72.619  1.00  0.00     0.006 C 
BRANCH   2   3
ATOM      3  C   UNL     1      52.430  -2.158  73.251  1.00  0.00     0.053 C 
BRANCH   3   4
ATOM      4  C   UNL     1      52.800  -1.164  72.196  1.00  0.00     0.041 C 
ATOM      5  O   UNL     1      52.054  -0.175  71.966  1.00  0.00    -0.550 OA
ATOM      6  O   UNL     1      53.994  -1.301  71.500  1.00  0.00    -0.550 OA
ENDBRANCH   3   4
ENDBRANCH   2   3
ENDBRANCH   1   2
BRANCH   1   7
ATOM      7  C   UNL     1      49.634  -4.045  72.681  1.00  0.00     0.000 C 
BRANCH   7   8
ATOM      8  C   UNL     1      48.639  -2.923  73.021  1.00  0.00    -0.000 C 
BRANCH   8   9
ATOM      9  C   UNL     1      48.829  -1.676  72.145  1.00  0.00    -0.003 C 
ATOM     10  C   UNL     1      48.737  -0.401  72.978  1.00  0.00     0.004 C 
ENDBRANCH   8   9
ENDBRANCH   7   8
ENDBRANCH   1   7
TORSDOF 6
ENDMDL
MODEL 7
REMARK VINA RESULT:    -3.659     13.508     14.852
REMARK INTER + INTRA:          -5.198
REMARK INTER:                  -4.950
REMARK INTRA:                  -0.248
REMARK UNBOUND:                -0.255
REMARK SMILES CCCCCCCC(=O)[O-]
REMARK SMILES IDX 5 1 6 2 7 3 8 4 9 5 10 6 4 7 3 8 2 9 1 10
REMARK H PARENT
REMARK Flexibility Score: inf
ROOT
ATOM      1  C   UNL     1      49.975  -2.206  72.195  1.00  0.00     0.000 C 
ENDROOT
BRANCH   1   2
ATOM      2  C   UNL     1      51.176  -1.250  72.256  1.00  0.00     0.006 C 
BRANCH   2   3
ATOM      3  C   UNL     1      52.371  -1.846  73.011  1.00  0.00     0.053 C 
BRANCH   3   4
ATOM      4  C   UNL     1      53.579  -1.886  72.129  1.00  0.00     0.041 C 
ATOM      5  O   UNL     1      53.968  -0.844  71.540  1.00  0.00    -0.550 OA
ATOM      6  O   UNL     1      54.305  -3.063  71.997  1.00  0.00    -0.550 OA
ENDBRANCH   3   4
ENDBRANCH   2   3
ENDBRANCH   1   2
BRANCH   1   7
ATOM      7  C   UNL     1      50.397  -3.673  72.003  1.00  0.00     0.000 C 
BRANCH   7   8
ATOM      8  C   UNL     1      49.538  -4.647  72.826  1.00  0.00    -0.000 C 
BRANCH   8   9
ATOM      9  C   UNL     1      48.033  -4.392  72.663  1.00  0.00    -0.003 C 
ATOM     10  C   UNL     1      47.276  -5.698  72.438  1.00  0.00     0.004 C 
ENDBRANCH   8   9
ENDBRANCH   7   8
ENDBRANCH   1   7
TORSDOF 6
ENDMDL
MODEL 8
REMARK VINA RESULT:    -3.654      8.355      9.746
REMARK INTER + INTRA:          -5.192
REMARK INTER:                  -4.927
REMARK INTRA:                  -0.265
REMARK UNBOUND:                -0.255
REMARK SMILES CCCCCCCC(=O)[O-]
REMARK SMILES IDX 5 1 6 2 7 3 8 4 9 5 10 6 4 7 3 8 2 9 1 10
REMARK H PARENT
REMARK Flexibility Score: inf
ROOT
ATOM      1  C   UNL     1      50.670  -6.034  78.557  1.00  0.00     0.000 C 
ENDROOT
BRANCH   1   2
ATOM      2  C   UNL     1      51.845  -5.047  78.643  1.00  0.00     0.006 C 
BRANCH   2   3
ATOM      3  C   UNL     1      51.453  -3.714  79.295  1.00  0.00     0.053 C 
BRANCH   3   4
ATOM      4  C   UNL     1      52.572  -3.198  80.143  1.00  0.00     0.041 C 
ATOM      5  O   UNL     1      53.512  -3.963  80.485  1.00  0.00    -0.550 OA
ATOM      6  O   UNL     1      52.603  -1.861  80.514  1.00  0.00    -0.550 OA
ENDBRANCH   3   4
ENDBRANCH   2   3
ENDBRANCH   1   2
BRANCH   1   7
ATOM      7  C   UNL     1      49.320  -5.376  78.891  1.00  0.00     0.000 C 
BRANCH   7   8
ATOM      8  C   UNL     1      48.144  -6.363  78.801  1.00  0.00    -0.000 C 
BRANCH   8   9
ATOM      9  C   UNL     1      48.602  -7.810  78.565  1.00  0.00    -0.003 C 
ATOM     10  C   UNL     1      47.544  -8.803  79.036  1.00  0.00     0.004 C 
ENDBRANCH   8   9
ENDBRANCH   7   8
ENDBRANCH   1   7
TORSDOF 6
ENDMDL
MODEL 9
REMARK VINA RESULT:    -3.618      3.705      5.841
REMARK INTER + INTRA:          -5.142
REMARK INTER:                  -4.908
REMARK INTRA:                  -0.234
REMARK UNBOUND:                -0.255
REMARK SMILES CCCCCCCC(=O)[O-]
REMARK SMILES IDX 5 1 6 2 7 3 8 4 9 5 10 6 4 7 3 8 2 9 1 10
REMARK H PARENT
REMARK Flexibility Score: inf
ROOT
ATOM      1  C   UNL     1      43.595  -3.143  86.125  1.00  0.00     0.000 C 
ENDROOT
BRANCH   1   2
ATOM      2  C   UNL     1      44.947  -3.160  85.394  1.00  0.00     0.006 C 
BRANCH   2   3
ATOM      3  C   UNL     1      45.764  -1.883  85.628  1.00  0.00     0.053 C 
BRANCH   3   4
ATOM      4  C   UNL     1      46.761  -1.692  84.529  1.00  0.00     0.041 C 
ATOM      5  O   UNL     1      47.230  -0.547  84.291  1.00  0.00    -0.550 OA
ATOM      6  O   UNL     1      47.209  -2.784  83.799  1.00  0.00    -0.550 OA
ENDBRANCH   3   4
ENDBRANCH   2   3
ENDBRANCH   1   2
BRANCH   1   7
ATOM      7  C   UNL     1      42.740  -4.384  85.815  1.00  0.00     0.000 C 
BRANCH   7   8
ATOM      8  C   UNL     1      43.141  -5.059  84.492  1.00  0.00    -0.000 C 
BRANCH   8   9
ATOM      9  C   UNL     1      43.535  -6.532  84.675  1.00  0.00    -0.003 C 
ATOM     10  C   UNL     1      42.403  -7.328  85.319  1.00  0.00     0.004 C 
ENDBRANCH   8   9
ENDBRANCH   7   8
ENDBRANCH   1   7
TORSDOF 6
ENDMDL
