MODEL 1
REMARK VINA RESULT:    -4.951      0.000      0.000
REMARK INTER + INTRA:         -10.884
REMARK INTER:                  -8.714
REMARK INTRA:                  -2.169
REMARK UNBOUND:                -2.169
REMARK SMILES CCCCCCCCCCCCCCC(=O)[O-]
REMARK SMILES IDX 9 1 10 2 11 3 12 4 13 5 14 6 15 7 16 8 17 9 8 10 7 11 6 12
REMARK SMILES IDX 5 13 4 14 3 15 2 16 1 17
REMARK H PARENT
REMARK Flexibility Score: inf
ROOT
ATOM      1  C   UNL     1       6.993 -30.572  25.342  1.00  0.00     0.000 C 
ENDROOT
BRANCH   1   2
ATOM      2  C   UNL     1       8.517 -30.559  25.562  1.00  0.00     0.000 C 
BRANCH   2   3
ATOM      3  C   UNL     1       9.160 -31.947  25.381  1.00  0.00     0.000 C 
BRANCH   3   4
ATOM      4  C   UNL     1      10.554 -31.940  24.729  1.00  0.00     0.000 C 
BRANCH   4   5
ATOM      5  C   UNL     1      11.010 -30.534  24.300  1.00  0.00     0.006 C 
BRANCH   5   6
ATOM      6  C   UNL     1      12.525 -30.345  24.452  1.00  0.00     0.053 C 
BRANCH   6   7
ATOM      7  C   UNL     1      13.053 -29.321  23.494  1.00  0.00     0.041 C 
ATOM      8  O   UNL     1      14.114 -28.695  23.757  1.00  0.00    -0.550 OA
ATOM      9  O   UNL     1      12.356 -29.035  22.327  1.00  0.00    -0.550 OA
ENDBRANCH   6   7
ENDBRANCH   5   6
ENDBRANCH   4   5
ENDBRANCH   3   4
ENDBRANCH   2   3
ENDBRANCH   1   2
BRANCH   1  10
ATOM     10  C   UNL     1       6.600 -30.172  23.911  1.00  0.00     0.000 C 
BRANCH  10  11
ATOM     11  C   UNL     1       7.707 -29.389  23.188  1.00  0.00    -0.000 C 
BRANCH  11  12
ATOM     12  C   UNL     1       8.051 -30.045  21.842  1.00  0.00    -0.000 C 
BRANCH  12  13
ATOM     13  C   UNL     1       7.463 -31.459  21.708  1.00  0.00    -0.000 C 
BRANCH  13  14
ATOM     14  C   UNL     1       8.471 -32.468  21.131  1.00  0.00    -0.000 C 
BRANCH  14  15
ATOM     15  C   UNL     1       9.885 -31.864  20.994  1.00  0.00    -0.000 C 
BRANCH  15  16
ATOM     16  C   UNL     1      10.989 -32.919  20.810  1.00  0.00    -0.003 C 
ATOM     17  C   UNL     1      12.322 -32.506  21.434  1.00  0.00     0.004 C 
ENDBRANCH  15  16
ENDBRANCH  14  15
ENDBRANCH  13  14
ENDBRANCH  12  13
ENDBRANCH  11  12
ENDBRANCH  10  11
ENDBRANCH   1  10
TORSDOF 13
ENDMDL
MODEL 2
REMARK VINA RESULT:    -4.918      3.041      5.885
REMARK INTER + INTRA:         -10.824
REMARK INTER:                  -9.896
REMARK INTRA:                  -0.928
REMARK UNBOUND:                -2.169
REMARK SMILES CCCCCCCCCCCCCCC(=O)[O-]
REMARK SMILES IDX 9 1 10 2 11 3 12 4 13 5 14 6 15 7 16 8 17 9 8 10 7 11 6 12
REMARK SMILES IDX 5 13 4 14 3 15 2 16 1 17
REMARK H PARENT
REMARK Flexibility Score: inf
ROOT
ATOM      1  C   UNL     1       6.851 -30.286  23.531  1.00  0.00     0.000 C 
ENDROOT
BRANCH   1   2
ATOM      2  C   UNL     1       7.811 -29.375  22.744  1.00  0.00     0.000 C 
BRANCH   2   3
ATOM      3  C   UNL     1       8.164 -29.936  21.354  1.00  0.00     0.000 C 
BRANCH   3   4
ATOM      4  C   UNL     1       8.135 -31.471  21.243  1.00  0.00     0.000 C 
BRANCH   4   5
ATOM      5  C   UNL     1       9.540 -32.099  21.226  1.00  0.00     0.006 C 
BRANCH   5   6
ATOM      6  C   UNL     1      10.644 -31.051  21.423  1.00  0.00     0.053 C 
BRANCH   6   7
ATOM      7  C   UNL     1      11.337 -31.220  22.741  1.00  0.00     0.041 C 
ATOM      8  O   UNL     1      10.718 -30.998  23.816  1.00  0.00    -0.550 OA
ATOM      9  O   UNL     1      12.675 -31.589  22.781  1.00  0.00    -0.550 OA
ENDBRANCH   6   7
ENDBRANCH   5   6
ENDBRANCH   4   5
ENDBRANCH   3   4
ENDBRANCH   2   3
ENDBRANCH   1   2
BRANCH   1  10
ATOM     10  C   UNL     1       7.175 -30.326  25.034  1.00  0.00     0.000 C 
BRANCH  10  11
ATOM     11  C   UNL     1       6.033 -29.774  25.901  1.00  0.00    -0.000 C 
BRANCH  11  12
ATOM     12  C   UNL     1       4.814 -29.416  25.037  1.00  0.00    -0.000 C 
BRANCH  12  13
ATOM     13  C   UNL     1       3.696 -28.739  25.846  1.00  0.00    -0.000 C 
BRANCH  13  14
ATOM     14  C   UNL     1       2.295 -29.027  25.279  1.00  0.00    -0.000 C 
BRANCH  14  15
ATOM     15  C   UNL     1       2.354 -29.596  23.845  1.00  0.00    -0.000 C 
BRANCH  15  16
ATOM     16  C   UNL     1       1.022 -29.485  23.084  1.00  0.00    -0.003 C 
ATOM     17  C   UNL     1       0.202 -30.773  23.120  1.00  0.00     0.004 C 
ENDBRANCH  15  16
ENDBRANCH  14  15
ENDBRANCH  13  14
ENDBRANCH  12  13
ENDBRANCH  11  12
ENDBRANCH  10  11
ENDBRANCH   1  10
TORSDOF 13
ENDMDL
MODEL 3
REMARK VINA RESULT:    -4.911      3.016      4.610
REMARK INTER + INTRA:         -10.812
REMARK INTER:                  -8.887
REMARK INTRA:                  -1.925
REMARK UNBOUND:                -2.169
REMARK SMILES CCCCCCCCCCCCCCC(=O)[O-]
REMARK SMILES IDX 9 1 10 2 11 3 12 4 13 5 14 6 15 7 16 8 17 9 8 10 7 11 6 12
REMARK SMILES IDX 5 13 4 14 3 15 2 16 1 17
REMARK H PARENT
REMARK Flexibility Score: inf
ROOT
ATOM      1  C   UNL     1      12.789 -30.678  23.336  1.00  0.00     0.000 C 
ENDROOT
BRANCH   1   2
ATOM      2  C   UNL     1      12.488 -31.214  24.748  1.00  0.00     0.000 C 
BRANCH   2   3
ATOM      3  C   UNL     1      11.078 -31.824  24.869  1.00  0.00     0.000 C 
BRANCH   3   4
ATOM      4  C   UNL     1      11.043 -33.344  25.112  1.00  0.00     0.000 C 
BRANCH   4   5
ATOM      5  C   UNL     1      11.802 -34.141  24.036  1.00  0.00     0.006 C 
BRANCH   5   6
ATOM      6  C   UNL     1      12.400 -35.439  24.593  1.00  0.00     0.053 C 
BRANCH   6   7
ATOM      7  C   UNL     1      13.891 -35.351  24.717  1.00  0.00     0.041 C 
ATOM      8  O   UNL     1      14.457 -34.228  24.778  1.00  0.00    -0.550 OA
ATOM      9  O   UNL     1      14.657 -36.509  24.729  1.00  0.00    -0.550 OA
ENDBRANCH   6   7
ENDBRANCH   5   6
ENDBRANCH   4   5
ENDBRANCH   3   4
ENDBRANCH   2   3
ENDBRANCH   1   2
BRANCH   1  10
ATOM     10  C   UNL     1      11.584 -29.957  22.710  1.00  0.00     0.000 C 
BRANCH  10  11
ATOM     11  C   UNL     1      11.260 -30.462  21.296  1.00  0.00    -0.000 C 
BRANCH  11  12
ATOM     12  C   UNL     1      11.501 -31.976  21.187  1.00  0.00    -0.000 C 
BRANCH  12  13
ATOM     13  C   UNL     1      10.191 -32.777  21.109  1.00  0.00    -0.000 C 
BRANCH  13  14
ATOM     14  C   UNL     1       8.990 -31.909  20.694  1.00  0.00    -0.000 C 
BRANCH  14  15
ATOM     15  C   UNL     1       7.835 -31.987  21.715  1.00  0.00    -0.000 C 
BRANCH  15  16
ATOM     16  C   UNL     1       7.741 -30.756  22.633  1.00  0.00    -0.003 C 
ATOM     17  C   UNL     1       7.788 -29.434  21.870  1.00  0.00     0.004 C 
ENDBRANCH  15  16
ENDBRANCH  14  15
ENDBRANCH  13  14
ENDBRANCH  12  13
ENDBRANCH  11  12
ENDBRANCH  10  11
ENDBRANCH   1  10
TORSDOF 13
ENDMDL
MODEL 4
REMARK VINA RESULT:    -4.855      2.982      5.806
REMARK INTER + INTRA:         -10.714
REMARK INTER:                  -9.936
REMARK INTRA:                  -0.777
REMARK UNBOUND:                -2.169
REMARK SMILES CCCCCCCCCCCCCCC(=O)[O-]
REMARK SMILES IDX 9 1 10 2 11 3 12 4 13 5 14 6 15 7 16 8 17 9 8 10 7 11 6 12
REMARK SMILES IDX 5 13 4 14 3 15 2 16 1 17
REMARK H PARENT
REMARK Flexibility Score: inf
ROOT
ATOM      1  C   UNL     1       7.739 -29.289  22.332  1.00  0.00     0.000 C 
ENDROOT
BRANCH   1   2
ATOM      2  C   UNL     1       8.438 -30.097  21.223  1.00  0.00     0.000 C 
BRANCH   2   3
ATOM      3  C   UNL     1       8.075 -31.593  21.253  1.00  0.00     0.000 C 
BRANCH   3   4
ATOM      4  C   UNL     1       9.253 -32.554  21.009  1.00  0.00     0.000 C 
BRANCH   4   5
ATOM      5  C   UNL     1      10.372 -32.411  22.056  1.00  0.00     0.006 C 
BRANCH   5   6
ATOM      6  C   UNL     1      11.749 -32.221  21.407  1.00  0.00     0.053 C 
BRANCH   6   7
ATOM      7  C   UNL     1      12.845 -32.782  22.262  1.00  0.00     0.041 C 
ATOM      8  O   UNL     1      14.006 -32.921  21.793  1.00  0.00    -0.550 OA
ATOM      9  O   UNL     1      12.575 -33.184  23.563  1.00  0.00    -0.550 OA
ENDBRANCH   6   7
ENDBRANCH   5   6
ENDBRANCH   4   5
ENDBRANCH   3   4
ENDBRANCH   2   3
ENDBRANCH   1   2
BRANCH   1  10
ATOM     10  C   UNL     1       7.612 -30.077  23.646  1.00  0.00     0.000 C 
BRANCH  10  11
ATOM     11  C   UNL     1       6.151 -30.350  24.036  1.00  0.00    -0.000 C 
BRANCH  11  12
ATOM     12  C   UNL     1       5.831 -29.746  25.412  1.00  0.00    -0.000 C 
BRANCH  12  13
ATOM     13  C   UNL     1       4.453 -29.067  25.451  1.00  0.00    -0.000 C 
BRANCH  13  14
ATOM     14  C   UNL     1       3.599 -29.388  24.212  1.00  0.00    -0.000 C 
BRANCH  14  15
ATOM     15  C   UNL     1       2.196 -28.749  24.291  1.00  0.00    -0.000 C 
BRANCH  15  16
ATOM     16  C   UNL     1       1.279 -29.132  23.117  1.00  0.00    -0.003 C 
ATOM     17  C   UNL     1       0.632 -30.506  23.286  1.00  0.00     0.004 C 
ENDBRANCH  15  16
ENDBRANCH  14  15
ENDBRANCH  13  14
ENDBRANCH  12  13
ENDBRANCH  11  12
ENDBRANCH  10  11
ENDBRANCH   1  10
TORSDOF 13
ENDMDL
MODEL 5
REMARK VINA RESULT:    -4.818      4.831      6.787
REMARK INTER + INTRA:         -10.650
REMARK INTER:                  -9.572
REMARK INTRA:                  -1.078
REMARK UNBOUND:                -2.169
REMARK SMILES CCCCCCCCCCCCCCC(=O)[O-]
REMARK SMILES IDX 9 1 10 2 11 3 12 4 13 5 14 6 15 7 16 8 17 9 8 10 7 11 6 12
REMARK SMILES IDX 5 13 4 14 3 15 2 16 1 17
REMARK H PARENT
REMARK Flexibility Score: inf
ROOT
ATOM      1  C   UNL     1       7.089 -30.150  23.898  1.00  0.00     0.000 C 
ENDROOT
BRANCH   1   2
ATOM      2  C   UNL     1       6.750 -29.272  25.117  1.00  0.00     0.000 C 
BRANCH   2   3
ATOM      3  C   UNL     1       5.272 -29.377  25.538  1.00  0.00     0.000 C 
BRANCH   3   4
ATOM      4  C   UNL     1       4.280 -29.615  24.385  1.00  0.00     0.000 C 
BRANCH   4   5
ATOM      5  C   UNL     1       2.899 -28.987  24.642  1.00  0.00     0.006 C 
BRANCH   5   6
ATOM      6  C   UNL     1       1.937 -29.208  23.468  1.00  0.00     0.053 C 
BRANCH   6   7
ATOM      7  C   UNL     1       0.799 -30.107  23.847  1.00  0.00     0.041 C 
ATOM      8  O   UNL     1       0.327 -30.072  25.015  1.00  0.00    -0.550 OA
ATOM      9  O   UNL     1       0.284 -31.005  22.923  1.00  0.00    -0.550 OA
ENDBRANCH   6   7
ENDBRANCH   5   6
ENDBRANCH   4   5
ENDBRANCH   3   4
ENDBRANCH   2   3
ENDBRANCH   1   2
BRANCH   1  10
ATOM     10  C   UNL     1       7.818 -29.368  22.793  1.00  0.00     0.000 C 
BRANCH  10  11
ATOM     11  C   UNL     1       7.921 -30.156  21.479  1.00  0.00    -0.000 C 
BRANCH  11  12
ATOM     12  C   UNL     1       7.773 -31.665  21.733  1.00  0.00    -0.000 C 
BRANCH  12  13
ATOM     13  C   UNL     1       8.577 -32.512  20.734  1.00  0.00    -0.000 C 
BRANCH  13  14
ATOM     14  C   UNL     1      10.073 -32.152  20.721  1.00  0.00    -0.000 C 
BRANCH  14  15
ATOM     15  C   UNL     1      10.713 -32.274  22.120  1.00  0.00    -0.000 C 
BRANCH  15  16
ATOM     16  C   UNL     1      11.914 -31.336  22.331  1.00  0.00    -0.003 C 
ATOM     17  C   UNL     1      11.524 -29.859  22.350  1.00  0.00     0.004 C 
ENDBRANCH  15  16
ENDBRANCH  14  15
ENDBRANCH  13  14
ENDBRANCH  12  13
ENDBRANCH  11  12
ENDBRANCH  10  11
ENDBRANCH   1  10
TORSDOF 13
ENDMDL
MODEL 6
REMARK VINA RESULT:    -4.802      1.642      3.903
REMARK INTER + INTRA:         -10.621
REMARK INTER:                  -8.418
REMARK INTRA:                  -2.203
REMARK UNBOUND:                -2.169
REMARK SMILES CCCCCCCCCCCCCCC(=O)[O-]
REMARK SMILES IDX 9 1 10 2 11 3 12 4 13 5 14 6 15 7 16 8 17 9 8 10 7 11 6 12
REMARK SMILES IDX 5 13 4 14 3 15 2 16 1 17
REMARK H PARENT
REMARK Flexibility Score: inf
ROOT
ATOM      1  C   UNL     1       8.164 -30.254  21.765  1.00  0.00     0.000 C 
ENDROOT
BRANCH   1   2
ATOM      2  C   UNL     1       7.455 -31.607  21.581  1.00  0.00     0.000 C 
BRANCH   2   3
ATOM      3  C   UNL     1       8.418 -32.739  21.178  1.00  0.00     0.000 C 
BRANCH   3   4
ATOM      4  C   UNL     1       9.816 -32.277  20.728  1.00  0.00     0.000 C 
BRANCH   4   5
ATOM      5  C   UNL     1      10.950 -33.129  21.322  1.00  0.00     0.006 C 
BRANCH   5   6
ATOM      6  C   UNL     1      12.261 -32.341  21.449  1.00  0.00     0.053 C 
BRANCH   6   7
ATOM      7  C   UNL     1      13.198 -32.980  22.428  1.00  0.00     0.041 C 
ATOM      8  O   UNL     1      12.745 -33.640  23.401  1.00  0.00    -0.550 OA
ATOM      9  O   UNL     1      14.569 -32.818  22.285  1.00  0.00    -0.550 OA
ENDBRANCH   6   7
ENDBRANCH   5   6
ENDBRANCH   4   5
ENDBRANCH   3   4
ENDBRANCH   2   3
ENDBRANCH   1   2
BRANCH   1  10
ATOM     10  C   UNL     1       7.526 -29.399  22.873  1.00  0.00     0.000 C 
BRANCH  10  11
ATOM     11  C   UNL     1       6.445 -30.157  23.658  1.00  0.00    -0.000 C 
BRANCH  11  12
ATOM     12  C   UNL     1       6.754 -30.146  25.164  1.00  0.00    -0.000 C 
BRANCH  12  13
ATOM     13  C   UNL     1       8.262 -30.214  25.456  1.00  0.00    -0.000 C 
BRANCH  13  14
ATOM     14  C   UNL     1       8.785 -31.659  25.534  1.00  0.00    -0.000 C 
BRANCH  14  15
ATOM     15  C   UNL     1      10.138 -31.828  24.810  1.00  0.00    -0.000 C 
BRANCH  15  16
ATOM     16  C   UNL     1      10.742 -30.502  24.319  1.00  0.00    -0.003 C 
ATOM     17  C   UNL     1      12.215 -30.340  24.692  1.00  0.00     0.004 C 
ENDBRANCH  15  16
ENDBRANCH  14  15
ENDBRANCH  13  14
ENDBRANCH  12  13
ENDBRANCH  11  12
ENDBRANCH  10  11
ENDBRANCH   1  10
TORSDOF 13
ENDMDL
MODEL 7
REMARK VINA RESULT:    -4.790      3.240      5.796
REMARK INTER + INTRA:         -10.600
REMARK INTER:                  -9.257
REMARK INTRA:                  -1.342
REMARK UNBOUND:                -2.169
REMARK SMILES CCCCCCCCCCCCCCC(=O)[O-]
REMARK SMILES IDX 9 1 10 2 11 3 12 4 13 5 14 6 15 7 16 8 17 9 8 10 7 11 6 12
REMARK SMILES IDX 5 13 4 14 3 15 2 16 1 17
REMARK H PARENT
REMARK Flexibility Score: inf
ROOT
ATOM      1  C   UNL     1       8.369 -29.812  25.867  1.00  0.00     0.000 C 
ENDROOT
BRANCH   1   2
ATOM      2  C   UNL     1       8.436 -31.348  25.948  1.00  0.00     0.000 C 
BRANCH   2   3
ATOM      3  C   UNL     1       9.642 -31.936  25.191  1.00  0.00     0.000 C 
BRANCH   3   4
ATOM      4  C   UNL     1      10.509 -30.906  24.445  1.00  0.00     0.000 C 
BRANCH   4   5
ATOM      5  C   UNL     1      10.383 -31.009  22.915  1.00  0.00     0.006 C 
BRANCH   5   6
ATOM      6  C   UNL     1       9.635 -29.811  22.315  1.00  0.00     0.053 C 
BRANCH   6   7
ATOM      7  C   UNL     1       8.413 -30.243  21.564  1.00  0.00     0.041 C 
ATOM      8  O   UNL     1       7.696 -29.390  20.976  1.00  0.00    -0.550 OA
ATOM      9  O   UNL     1       8.046 -31.582  21.542  1.00  0.00    -0.550 OA
ENDBRANCH   6   7
ENDBRANCH   5   6
ENDBRANCH   4   5
ENDBRANCH   3   4
ENDBRANCH   2   3
ENDBRANCH   1   2
BRANCH   1  10
ATOM     10  C   UNL     1       6.995 -29.306  25.399  1.00  0.00     0.000 C 
BRANCH  10  11
ATOM     11  C   UNL     1       6.293 -30.288  24.448  1.00  0.00    -0.000 C 
BRANCH  11  12
ATOM     12  C   UNL     1       4.871 -29.807  24.119  1.00  0.00    -0.000 C 
BRANCH  12  13
ATOM     13  C   UNL     1       4.138 -29.248  25.349  1.00  0.00    -0.000 C 
BRANCH  13  14
ATOM     14  C   UNL     1       2.703 -28.794  25.029  1.00  0.00    -0.000 C 
BRANCH  14  15
ATOM     15  C   UNL     1       2.427 -28.767  23.510  1.00  0.00    -0.000 C 
BRANCH  15  16
ATOM     16  C   UNL     1       0.972 -29.106  23.144  1.00  0.00    -0.003 C 
ATOM     17  C   UNL     1       0.649 -30.592  23.285  1.00  0.00     0.004 C 
ENDBRANCH  15  16
ENDBRANCH  14  15
ENDBRANCH  13  14
ENDBRANCH  12  13
ENDBRANCH  11  12
ENDBRANCH  10  11
ENDBRANCH   1  10
TORSDOF 13
ENDMDL
MODEL 8
REMARK VINA RESULT:    -4.747      2.309      4.213
REMARK INTER + INTRA:         -10.524
REMARK INTER:                  -8.377
REMARK INTRA:                  -2.147
REMARK UNBOUND:                -2.169
REMARK SMILES CCCCCCCCCCCCCCC(=O)[O-]
REMARK SMILES IDX 9 1 10 2 11 3 12 4 13 5 14 6 15 7 16 8 17 9 8 10 7 11 6 12
REMARK SMILES IDX 5 13 4 14 3 15 2 16 1 17
REMARK H PARENT
REMARK Flexibility Score: inf
ROOT
ATOM      1  C   UNL     1       8.658 -31.817  21.588  1.00  0.00     0.000 C 
ENDROOT
BRANCH   1   2
ATOM      2  C   UNL     1       9.724 -32.648  20.852  1.00  0.00     0.000 C 
BRANCH   2   3
ATOM      3  C   UNL     1      10.853 -33.132  21.782  1.00  0.00     0.000 C 
BRANCH   3   4
ATOM      4  C   UNL     1      12.182 -32.368  21.646  1.00  0.00     0.000 C 
BRANCH   4   5
ATOM      5  C   UNL     1      13.177 -32.690  22.775  1.00  0.00     0.006 C 
BRANCH   5   6
ATOM      6  C   UNL     1      12.659 -33.795  23.705  1.00  0.00     0.053 C 
BRANCH   6   7
ATOM      7  C   UNL     1      13.404 -33.817  25.005  1.00  0.00     0.041 C 
ATOM      8  O   UNL     1      14.397 -34.578  25.153  1.00  0.00    -0.550 OA
ATOM      9  O   UNL     1      12.981 -33.023  26.063  1.00  0.00    -0.550 OA
ENDBRANCH   6   7
ENDBRANCH   5   6
ENDBRANCH   4   5
ENDBRANCH   3   4
ENDBRANCH   2   3
ENDBRANCH   1   2
BRANCH   1  10
ATOM     10  C   UNL     1       8.759 -30.316  21.272  1.00  0.00     0.000 C 
BRANCH  10  11
ATOM     11  C   UNL     1       7.900 -29.453  22.210  1.00  0.00    -0.000 C 
BRANCH  11  12
ATOM     12  C   UNL     1       6.975 -30.331  23.066  1.00  0.00    -0.000 C 
BRANCH  12  13
ATOM     13  C   UNL     1       6.778 -29.772  24.484  1.00  0.00    -0.000 C 
BRANCH  13  14
ATOM     14  C   UNL     1       8.011 -29.984  25.381  1.00  0.00    -0.000 C 
BRANCH  14  15
ATOM     15  C   UNL     1       8.334 -31.480  25.582  1.00  0.00    -0.000 C 
BRANCH  15  16
ATOM     16  C   UNL     1       9.739 -31.876  25.097  1.00  0.00    -0.003 C 
ATOM     17  C   UNL     1      10.572 -30.682  24.633  1.00  0.00     0.004 C 
ENDBRANCH  15  16
ENDBRANCH  14  15
ENDBRANCH  13  14
ENDBRANCH  12  13
ENDBRANCH  11  12
ENDBRANCH  10  11
ENDBRANCH   1  10
TORSDOF 13
ENDMDL
MODEL 9
REMARK VINA RESULT:    -4.744      2.018      3.238
REMARK INTER + INTRA:         -10.520
REMARK INTER:                  -8.327
REMARK INTRA:                  -2.193
REMARK UNBOUND:                -2.169
REMARK SMILES CCCCCCCCCCCCCCC(=O)[O-]
REMARK SMILES IDX 9 1 10 2 11 3 12 4 13 5 14 6 15 7 16 8 17 9 8 10 7 11 6 12
REMARK SMILES IDX 5 13 4 14 3 15 2 16 1 17
REMARK H PARENT
REMARK Flexibility Score: inf
ROOT
ATOM      1  C   UNL     1       7.239 -30.384  22.637  1.00  0.00     0.000 C 
ENDROOT
BRANCH   1   2
ATOM      2  C   UNL     1       7.342 -29.847  24.076  1.00  0.00     0.000 C 
BRANCH   2   3
ATOM      3  C   UNL     1       8.703 -30.147  24.732  1.00  0.00     0.000 C 
BRANCH   3   4
ATOM      4  C   UNL     1       9.117 -31.630  24.729  1.00  0.00     0.000 C 
BRANCH   4   5
ATOM      5  C   UNL     1      10.175 -31.960  25.796  1.00  0.00     0.006 C 
BRANCH   5   6
ATOM      6  C   UNL     1      11.057 -33.147  25.387  1.00  0.00     0.053 C 
BRANCH   6   7
ATOM      7  C   UNL     1      12.494 -32.918  25.747  1.00  0.00     0.041 C 
ATOM      8  O   UNL     1      13.308 -33.880  25.745  1.00  0.00    -0.550 OA
ATOM      9  O   UNL     1      12.925 -31.652  26.117  1.00  0.00    -0.550 OA
ENDBRANCH   6   7
ENDBRANCH   5   6
ENDBRANCH   4   5
ENDBRANCH   3   4
ENDBRANCH   2   3
ENDBRANCH   1   2
BRANCH   1  10
ATOM     10  C   UNL     1       8.204 -29.675  21.673  1.00  0.00     0.000 C 
BRANCH  10  11
ATOM     11  C   UNL     1       8.903 -30.649  20.711  1.00  0.00    -0.000 C 
BRANCH  11  12
ATOM     12  C   UNL     1       8.770 -32.097  21.207  1.00  0.00    -0.000 C 
BRANCH  12  13
ATOM     13  C   UNL     1      10.131 -32.799  21.348  1.00  0.00    -0.000 C 
BRANCH  13  14
ATOM     14  C   UNL     1      11.313 -31.867  21.028  1.00  0.00    -0.000 C 
BRANCH  14  15
ATOM     15  C   UNL     1      12.111 -31.484  22.292  1.00  0.00    -0.000 C 
BRANCH  15  16
ATOM     16  C   UNL     1      11.862 -30.041  22.763  1.00  0.00    -0.003 C 
ATOM     17  C   UNL     1      13.048 -29.445  23.519  1.00  0.00     0.004 C 
ENDBRANCH  15  16
ENDBRANCH  14  15
ENDBRANCH  13  14
ENDBRANCH  12  13
ENDBRANCH  11  12
ENDBRANCH  10  11
ENDBRANCH   1  10
TORSDOF 13
ENDMDL
