MODEL 1
REMARK VINA RESULT:    -7.692      0.000      0.000
REMARK INTER + INTRA:         -11.639
REMARK INTER:                 -10.165
REMARK INTRA:                  -1.474
REMARK UNBOUND:                -1.474
REMARK SMILES CC[C@@H](C=C[C@@H](C)[C@H]1CC[C@H]2C3=CC[C@@H]4C[C@@H](O)CC[C@@]4(C)[C@H]3CC[C@]12C)C(C)C
REMARK SMILES IDX 6 1 7 2 5 3 4 4 3 5 2 6 1 7 28 8 29 9 30 10 8 11 9 12 26 13
REMARK SMILES IDX 10 14 11 15 25 16 27 17 12 18 24 19 23 20 13 21 21 22 14 23
REMARK SMILES IDX 15 24 20 25 22 26 16 27 19 28 17 29 18 30
REMARK H PARENT 18 31
REMARK Flexibility Score: inf
ROOT
ATOM      1  C   UNL     1      -2.167  21.041  46.508  1.00  0.00     0.012 C 
ATOM      2  C   UNL     1      -0.830  21.483  45.882  1.00  0.00     0.012 C 
ENDROOT
BRANCH   1   3
ATOM      3  C   UNL     1      -2.913  20.115  45.564  1.00  0.00    -0.028 C 
ATOM      4  C   UNL     1      -2.888  18.768  45.599  1.00  0.00    -0.027 C 
BRANCH   4   5
ATOM      5  C   UNL     1      -2.147  17.910  46.614  1.00  0.00     0.014 C 
BRANCH   5   6
ATOM      6  C   UNL     1      -1.398  16.789  45.854  1.00  0.00     0.004 C 
ATOM      7  C   UNL     1      -1.972  16.508  44.465  1.00  0.00     0.004 C 
ENDBRANCH   5   6
BRANCH   5   8
ATOM      8  C   UNL     1      -3.110  17.389  47.730  1.00  0.00    -0.011 C 
ATOM      9  C   UNL     1      -2.549  16.126  48.401  1.00  0.00     0.008 C 
ATOM     10  C   UNL     1      -3.460  18.441  48.798  1.00  0.00     0.008 C 
ENDBRANCH   5   8
ENDBRANCH   4   5
ENDBRANCH   1   3
BRANCH   1  11
ATOM     11  C   UNL     1      -3.093  22.181  47.061  1.00  0.00     0.002 C 
ATOM     12  C   UNL     1      -4.545  21.702  47.329  1.00  0.00     0.005 C 
ATOM     13  C   UNL     1      -2.730  23.056  48.307  1.00  0.00    -0.023 C 
ATOM     14  C   UNL     1      -5.123  22.617  48.422  1.00  0.00     0.009 C 
ATOM     15  C   UNL     1      -4.091  23.735  48.537  1.00  0.00     0.021 C 
ATOM     16  C   UNL     1      -1.683  24.180  48.063  1.00  0.00     0.008 C 
ATOM     17  C   UNL     1      -2.300  22.208  49.540  1.00  0.00     0.012 C 
ATOM     18  C   UNL     1      -4.042  24.660  49.731  1.00  0.00    -0.067 C 
ATOM     19  C   UNL     1      -1.655  25.234  49.206  1.00  0.00     0.009 C 
ATOM     20  C   UNL     1      -3.060  25.819  49.548  1.00  0.00     0.021 C 
ATOM     21  C   UNL     1      -4.589  24.341  50.926  1.00  0.00    -0.027 C 
ATOM     22  C   UNL     1      -3.108  26.850  50.740  1.00  0.00    -0.023 C 
ATOM     23  C   UNL     1      -4.394  25.162  52.171  1.00  0.00     0.031 C 
ATOM     24  C   UNL     1      -3.152  26.066  52.090  1.00  0.00     0.002 C 
ATOM     25  C   UNL     1      -1.858  27.785  50.746  1.00  0.00     0.010 C 
ATOM     26  C   UNL     1      -4.382  27.727  50.544  1.00  0.00     0.012 C 
ATOM     27  C   UNL     1      -3.075  26.988  53.330  1.00  0.00     0.036 C 
ATOM     28  C   UNL     1      -1.815  28.718  51.966  1.00  0.00     0.032 C 
ATOM     29  C   UNL     1      -1.858  27.924  53.283  1.00  0.00     0.114 C 
BRANCH  29  30
ATOM     30  O   UNL     1      -0.682  27.174  53.445  1.00  0.00    -0.393 OA
ATOM     31  H   UNL     1      -0.891  26.245  53.167  1.00  0.00     0.210 HD
ENDBRANCH  29  30
ENDBRANCH   1  11
TORSDOF 6
ENDMDL
MODEL 2
REMARK VINA RESULT:    -7.680      2.502      8.306
REMARK INTER + INTRA:         -11.623
REMARK INTER:                 -10.179
REMARK INTRA:                  -1.443
REMARK UNBOUND:                -1.474
REMARK SMILES CC[C@@H](C=C[C@@H](C)[C@H]1CC[C@H]2C3=CC[C@@H]4C[C@@H](O)CC[C@@]4(C)[C@H]3CC[C@]12C)C(C)C
REMARK SMILES IDX 6 1 7 2 5 3 4 4 3 5 2 6 1 7 28 8 29 9 30 10 8 11 9 12 26 13
REMARK SMILES IDX 10 14 11 15 25 16 27 17 12 18 24 19 23 20 13 21 21 22 14 23
REMARK SMILES IDX 15 24 20 25 22 26 16 27 19 28 17 29 18 30
REMARK H PARENT 18 31
REMARK Flexibility Score: inf
ROOT
ATOM      1  C   UNL     1      -4.190  26.085  49.602  1.00  0.00     0.012 C 
ATOM      2  C   UNL     1      -5.417  27.005  49.449  1.00  0.00     0.012 C 
ENDROOT
BRANCH   1   3
ATOM      3  C   UNL     1      -2.971  26.892  50.010  1.00  0.00    -0.028 C 
ATOM      4  C   UNL     1      -2.226  26.688  51.116  1.00  0.00    -0.027 C 
BRANCH   4   5
ATOM      5  C   UNL     1      -2.430  25.587  52.145  1.00  0.00     0.014 C 
BRANCH   5   6
ATOM      6  C   UNL     1      -3.502  26.056  53.158  1.00  0.00     0.004 C 
ATOM      7  C   UNL     1      -2.996  27.127  54.125  1.00  0.00     0.004 C 
ENDBRANCH   5   6
BRANCH   5   8
ATOM      8  C   UNL     1      -1.076  25.162  52.801  1.00  0.00    -0.011 C 
ATOM      9  C   UNL     1      -1.059  23.657  53.112  1.00  0.00     0.008 C 
ATOM     10  C   UNL     1       0.168  25.544  51.978  1.00  0.00     0.008 C 
ENDBRANCH   5   8
ENDBRANCH   4   5
ENDBRANCH   1   3
BRANCH   1  11
ATOM     11  C   UNL     1      -3.879  25.126  48.399  1.00  0.00     0.002 C 
ATOM     12  C   UNL     1      -2.901  25.749  47.367  1.00  0.00     0.005 C 
ATOM     13  C   UNL     1      -3.378  23.654  48.580  1.00  0.00    -0.023 C 
ATOM     14  C   UNL     1      -2.184  24.581  46.670  1.00  0.00     0.009 C 
ATOM     15  C   UNL     1      -2.966  23.354  47.129  1.00  0.00     0.021 C 
ATOM     16  C   UNL     1      -4.462  22.614  48.983  1.00  0.00     0.008 C 
ATOM     17  C   UNL     1      -2.167  23.540  49.551  1.00  0.00     0.012 C 
ATOM     18  C   UNL     1      -2.409  21.955  47.001  1.00  0.00    -0.067 C 
ATOM     19  C   UNL     1      -3.994  21.146  48.771  1.00  0.00     0.009 C 
ATOM     20  C   UNL     1      -3.434  20.871  47.342  1.00  0.00     0.021 C 
ATOM     21  C   UNL     1      -1.087  21.703  46.875  1.00  0.00    -0.027 C 
ATOM     22  C   UNL     1      -2.887  19.414  47.082  1.00  0.00    -0.023 C 
ATOM     23  C   UNL     1      -0.498  20.319  46.930  1.00  0.00     0.031 C 
ATOM     24  C   UNL     1      -1.429  19.313  47.629  1.00  0.00     0.002 C 
ATOM     25  C   UNL     1      -3.763  18.334  47.791  1.00  0.00     0.010 C 
ATOM     26  C   UNL     1      -2.943  19.166  45.544  1.00  0.00     0.012 C 
ATOM     27  C   UNL     1      -0.843  17.885  47.535  1.00  0.00     0.036 C 
ATOM     28  C   UNL     1      -3.186  16.916  47.660  1.00  0.00     0.032 C 
ATOM     29  C   UNL     1      -1.750  16.840  48.205  1.00  0.00     0.114 C 
BRANCH  29  30
ATOM     30  O   UNL     1      -1.740  17.033  49.596  1.00  0.00    -0.393 OA
ATOM     31  H   UNL     1      -0.813  17.283  49.847  1.00  0.00     0.210 HD
ENDBRANCH  29  30
ENDBRANCH   1  11
TORSDOF 6
ENDMDL
MODEL 3
REMARK VINA RESULT:    -7.560      2.645      3.632
REMARK INTER + INTRA:         -11.464
REMARK INTER:                 -10.611
REMARK INTRA:                  -0.853
REMARK UNBOUND:                -1.474
REMARK SMILES CC[C@@H](C=C[C@@H](C)[C@H]1CC[C@H]2C3=CC[C@@H]4C[C@@H](O)CC[C@@]4(C)[C@H]3CC[C@]12C)C(C)C
REMARK SMILES IDX 6 1 7 2 5 3 4 4 3 5 2 6 1 7 28 8 29 9 30 10 8 11 9 12 26 13
REMARK SMILES IDX 10 14 11 15 25 16 27 17 12 18 24 19 23 20 13 21 21 22 14 23
REMARK SMILES IDX 15 24 20 25 22 26 16 27 19 28 17 29 18 30
REMARK H PARENT 18 31
REMARK Flexibility Score: inf
ROOT
ATOM      1  C   UNL     1      -2.366  21.331  46.538  1.00  0.00     0.012 C 
ATOM      2  C   UNL     1      -1.437  22.267  45.743  1.00  0.00     0.012 C 
ENDROOT
BRANCH   1   3
ATOM      3  C   UNL     1      -2.998  20.303  45.617  1.00  0.00    -0.028 C 
ATOM      4  C   UNL     1      -2.943  18.965  45.773  1.00  0.00    -0.027 C 
BRANCH   4   5
ATOM      5  C   UNL     1      -2.280  18.223  46.923  1.00  0.00     0.014 C 
BRANCH   5   6
ATOM      6  C   UNL     1      -1.142  17.345  46.348  1.00  0.00     0.004 C 
ATOM      7  C   UNL     1      -1.556  16.550  45.110  1.00  0.00     0.004 C 
ENDBRANCH   5   6
BRANCH   5   8
ATOM      8  C   UNL     1      -3.328  17.431  47.771  1.00  0.00    -0.011 C 
ATOM      9  C   UNL     1      -2.640  16.579  48.849  1.00  0.00     0.008 C 
ATOM     10  C   UNL     1      -4.413  18.315  48.412  1.00  0.00     0.008 C 
ENDBRANCH   5   8
ENDBRANCH   4   5
ENDBRANCH   1   3
BRANCH   1  11
ATOM     11  C   UNL     1      -3.432  22.020  47.462  1.00  0.00     0.002 C 
ATOM     12  C   UNL     1      -3.227  21.695  48.966  1.00  0.00     0.005 C 
ATOM     13  C   UNL     1      -3.737  23.555  47.427  1.00  0.00    -0.023 C 
ATOM     14  C   UNL     1      -3.829  22.866  49.761  1.00  0.00     0.009 C 
ATOM     15  C   UNL     1      -4.585  23.667  48.706  1.00  0.00     0.021 C 
ATOM     16  C   UNL     1      -4.615  24.043  46.240  1.00  0.00     0.008 C 
ATOM     17  C   UNL     1      -2.453  24.431  47.516  1.00  0.00     0.012 C 
ATOM     18  C   UNL     1      -5.023  25.094  48.943  1.00  0.00    -0.067 C 
ATOM     19  C   UNL     1      -5.193  25.469  46.467  1.00  0.00     0.009 C 
ATOM     20  C   UNL     1      -5.927  25.633  47.834  1.00  0.00     0.021 C 
ATOM     21  C   UNL     1      -4.453  25.886  49.879  1.00  0.00    -0.027 C 
ATOM     22  C   UNL     1      -6.485  27.074  48.150  1.00  0.00    -0.023 C 
ATOM     23  C   UNL     1      -4.746  27.357  50.008  1.00  0.00     0.031 C 
ATOM     24  C   UNL     1      -5.326  27.955  48.715  1.00  0.00     0.002 C 
ATOM     25  C   UNL     1      -7.061  27.764  46.875  1.00  0.00     0.010 C 
ATOM     26  C   UNL     1      -7.637  26.908  49.188  1.00  0.00     0.012 C 
ATOM     27  C   UNL     1      -5.739  29.428  48.942  1.00  0.00     0.036 C 
ATOM     28  C   UNL     1      -7.499  29.215  47.125  1.00  0.00     0.032 C 
ATOM     29  C   UNL     1      -6.341  30.064  47.679  1.00  0.00     0.114 C 
BRANCH  29  30
ATOM     30  O   UNL     1      -5.339  30.223  46.709  1.00  0.00    -0.393 OA
ATOM     31  H   UNL     1      -5.618  30.975  46.125  1.00  0.00     0.210 HD
ENDBRANCH  29  30
ENDBRANCH   1  11
TORSDOF 6
ENDMDL
MODEL 4
REMARK VINA RESULT:    -7.410      2.896      8.685
REMARK INTER + INTRA:         -11.266
REMARK INTER:                 -10.240
REMARK INTRA:                  -1.026
REMARK UNBOUND:                -1.474
REMARK SMILES CC[C@@H](C=C[C@@H](C)[C@H]1CC[C@H]2C3=CC[C@@H]4C[C@@H](O)CC[C@@]4(C)[C@H]3CC[C@]12C)C(C)C
REMARK SMILES IDX 6 1 7 2 5 3 4 4 3 5 2 6 1 7 28 8 29 9 30 10 8 11 9 12 26 13
REMARK SMILES IDX 10 14 11 15 25 16 27 17 12 18 24 19 23 20 13 21 21 22 14 23
REMARK SMILES IDX 15 24 20 25 22 26 16 27 19 28 17 29 18 30
REMARK H PARENT 18 31
REMARK Flexibility Score: inf
ROOT
ATOM      1  C   UNL     1      -4.324  25.992  50.042  1.00  0.00     0.012 C 
ATOM      2  C   UNL     1      -3.806  25.460  51.392  1.00  0.00     0.012 C 
ENDROOT
BRANCH   1   3
ATOM      3  C   UNL     1      -5.804  26.321  50.135  1.00  0.00    -0.028 C 
ATOM      4  C   UNL     1      -6.455  27.239  49.392  1.00  0.00    -0.027 C 
BRANCH   4   5
ATOM      5  C   UNL     1      -5.850  28.091  48.287  1.00  0.00     0.014 C 
BRANCH   5   6
ATOM      6  C   UNL     1      -5.535  29.491  48.864  1.00  0.00     0.004 C 
ATOM      7  C   UNL     1      -4.049  29.712  49.144  1.00  0.00     0.004 C 
ENDBRANCH   5   6
BRANCH   5   8
ATOM      8  C   UNL     1      -6.767  28.116  47.020  1.00  0.00    -0.011 C 
ATOM      9  C   UNL     1      -6.344  27.039  46.008  1.00  0.00     0.008 C 
ATOM     10  C   UNL     1      -8.270  27.986  47.330  1.00  0.00     0.008 C 
ENDBRANCH   5   8
ENDBRANCH   4   5
ENDBRANCH   1   3
BRANCH   1  11
ATOM     11  C   UNL     1      -3.998  25.126  48.775  1.00  0.00     0.002 C 
ATOM     12  C   UNL     1      -3.047  25.845  47.780  1.00  0.00     0.005 C 
ATOM     13  C   UNL     1      -3.453  23.660  48.852  1.00  0.00    -0.023 C 
ATOM     14  C   UNL     1      -2.304  24.747  47.000  1.00  0.00     0.009 C 
ATOM     15  C   UNL     1      -3.047  23.470  47.380  1.00  0.00     0.021 C 
ATOM     16  C   UNL     1      -4.504  22.565  49.191  1.00  0.00     0.008 C 
ATOM     17  C   UNL     1      -2.230  23.516  49.804  1.00  0.00     0.012 C 
ATOM     18  C   UNL     1      -2.452  22.100  47.154  1.00  0.00    -0.067 C 
ATOM     19  C   UNL     1      -3.997  21.129  48.877  1.00  0.00     0.009 C 
ATOM     20  C   UNL     1      -3.442  20.967  47.428  1.00  0.00     0.021 C 
ATOM     21  C   UNL     1      -1.124  21.895  47.002  1.00  0.00    -0.027 C 
ATOM     22  C   UNL     1      -2.858  19.547  47.067  1.00  0.00    -0.023 C 
ATOM     23  C   UNL     1      -0.496  20.528  46.959  1.00  0.00     0.031 C 
ATOM     24  C   UNL     1      -1.391  19.451  47.594  1.00  0.00     0.002 C 
ATOM     25  C   UNL     1      -3.695  18.397  47.708  1.00  0.00     0.010 C 
ATOM     26  C   UNL     1      -2.921  19.401  45.515  1.00  0.00     0.012 C 
ATOM     27  C   UNL     1      -0.767  18.050  47.400  1.00  0.00     0.036 C 
ATOM     28  C   UNL     1      -3.080  17.008  47.476  1.00  0.00     0.032 C 
ATOM     29  C   UNL     1      -1.637  16.936  48.005  1.00  0.00     0.114 C 
BRANCH  29  30
ATOM     30  O   UNL     1      -1.620  17.035  49.406  1.00  0.00    -0.393 OA
ATOM     31  H   UNL     1      -0.672  17.152  49.676  1.00  0.00     0.210 HD
ENDBRANCH  29  30
ENDBRANCH   1  11
TORSDOF 6
ENDMDL
MODEL 5
REMARK VINA RESULT:    -7.283      2.492      8.264
REMARK INTER + INTRA:         -11.098
REMARK INTER:                  -9.686
REMARK INTRA:                  -1.412
REMARK UNBOUND:                -1.474
REMARK SMILES CC[C@@H](C=C[C@@H](C)[C@H]1CC[C@H]2C3=CC[C@@H]4C[C@@H](O)CC[C@@]4(C)[C@H]3CC[C@]12C)C(C)C
REMARK SMILES IDX 6 1 7 2 5 3 4 4 3 5 2 6 1 7 28 8 29 9 30 10 8 11 9 12 26 13
REMARK SMILES IDX 10 14 11 15 25 16 27 17 12 18 24 19 23 20 13 21 21 22 14 23
REMARK SMILES IDX 15 24 20 25 22 26 16 27 19 28 17 29 18 30
REMARK H PARENT 18 31
REMARK Flexibility Score: inf
ROOT
ATOM      1  C   UNL     1      -4.557  26.287  47.466  1.00  0.00     0.012 C 
ATOM      2  C   UNL     1      -5.538  27.260  46.782  1.00  0.00     0.012 C 
ENDROOT
BRANCH   1   3
ATOM      3  C   UNL     1      -3.377  27.046  48.046  1.00  0.00    -0.028 C 
ATOM      4  C   UNL     1      -3.216  27.380  49.342  1.00  0.00    -0.027 C 
BRANCH   4   5
ATOM      5  C   UNL     1      -4.156  27.026  50.484  1.00  0.00     0.014 C 
BRANCH   5   6
ATOM      6  C   UNL     1      -3.800  27.909  51.703  1.00  0.00     0.004 C 
ATOM      7  C   UNL     1      -2.734  28.962  51.400  1.00  0.00     0.004 C 
ENDBRANCH   5   6
BRANCH   5   8
ATOM      8  C   UNL     1      -4.137  25.491  50.782  1.00  0.00    -0.011 C 
ATOM      9  C   UNL     1      -3.590  25.206  52.189  1.00  0.00     0.008 C 
ATOM     10  C   UNL     1      -5.500  24.799  50.597  1.00  0.00     0.008 C 
ENDBRANCH   5   8
ENDBRANCH   4   5
ENDBRANCH   1   3
BRANCH   1  11
ATOM     11  C   UNL     1      -4.096  25.047  46.621  1.00  0.00     0.002 C 
ATOM     12  C   UNL     1      -2.964  25.390  45.615  1.00  0.00     0.005 C 
ATOM     13  C   UNL     1      -3.659  23.686  47.259  1.00  0.00    -0.023 C 
ATOM     14  C   UNL     1      -2.180  24.090  45.367  1.00  0.00     0.009 C 
ATOM     15  C   UNL     1      -3.047  23.017  46.017  1.00  0.00     0.021 C 
ATOM     16  C   UNL     1      -4.814  22.773  47.761  1.00  0.00     0.008 C 
ATOM     17  C   UNL     1      -2.605  23.857  48.392  1.00  0.00     0.012 C 
ATOM     18  C   UNL     1      -2.509  21.644  46.349  1.00  0.00    -0.067 C 
ATOM     19  C   UNL     1      -4.353  21.310  48.019  1.00  0.00     0.009 C 
ATOM     20  C   UNL     1      -3.597  20.674  46.812  1.00  0.00     0.021 C 
ATOM     21  C   UNL     1      -1.189  21.392  46.490  1.00  0.00    -0.027 C 
ATOM     22  C   UNL     1      -3.051  19.210  47.033  1.00  0.00    -0.023 C 
ATOM     23  C   UNL     1      -0.646  20.083  46.997  1.00  0.00     0.031 C 
ATOM     24  C   UNL     1      -1.690  19.284  47.794  1.00  0.00     0.002 C 
ATOM     25  C   UNL     1      -4.044  18.343  47.869  1.00  0.00     0.010 C 
ATOM     26  C   UNL     1      -2.888  18.559  45.626  1.00  0.00     0.012 C 
ATOM     27  C   UNL     1      -1.130  17.893  48.172  1.00  0.00     0.036 C 
ATOM     28  C   UNL     1      -3.487  16.951  48.205  1.00  0.00     0.032 C 
ATOM     29  C   UNL     1      -2.147  17.049  48.956  1.00  0.00     0.114 C 
BRANCH  29  30
ATOM     30  O   UNL     1      -2.336  17.606  50.231  1.00  0.00    -0.393 OA
ATOM     31  H   UNL     1      -2.276  18.591  50.128  1.00  0.00     0.210 HD
ENDBRANCH  29  30
ENDBRANCH   1  11
TORSDOF 6
ENDMDL
MODEL 6
REMARK VINA RESULT:    -7.270      2.643      8.414
REMARK INTER + INTRA:         -11.081
REMARK INTER:                  -9.215
REMARK INTRA:                  -1.866
REMARK UNBOUND:                -1.474
REMARK SMILES CC[C@@H](C=C[C@@H](C)[C@H]1CC[C@H]2C3=CC[C@@H]4C[C@@H](O)CC[C@@]4(C)[C@H]3CC[C@]12C)C(C)C
REMARK SMILES IDX 6 1 7 2 5 3 4 4 3 5 2 6 1 7 28 8 29 9 30 10 8 11 9 12 26 13
REMARK SMILES IDX 10 14 11 15 25 16 27 17 12 18 24 19 23 20 13 21 21 22 14 23
REMARK SMILES IDX 15 24 20 25 22 26 16 27 19 28 17 29 18 30
REMARK H PARENT 18 31
REMARK Flexibility Score: inf
ROOT
ATOM      1  C   UNL     1      -3.798  25.996  50.745  1.00  0.00     0.012 C 
ATOM      2  C   UNL     1      -3.292  25.918  52.198  1.00  0.00     0.012 C 
ENDROOT
BRANCH   1   3
ATOM      3  C   UNL     1      -4.685  27.214  50.557  1.00  0.00    -0.028 C 
ATOM      4  C   UNL     1      -4.650  28.059  49.507  1.00  0.00    -0.027 C 
BRANCH   4   5
ATOM      5  C   UNL     1      -3.753  27.935  48.285  1.00  0.00     0.014 C 
BRANCH   5   6
ATOM      6  C   UNL     1      -2.677  29.045  48.352  1.00  0.00     0.004 C 
ATOM      7  C   UNL     1      -1.373  28.589  49.005  1.00  0.00     0.004 C 
ENDBRANCH   5   6
BRANCH   5   8
ATOM      8  C   UNL     1      -4.587  27.935  46.963  1.00  0.00    -0.011 C 
ATOM      9  C   UNL     1      -4.337  26.655  46.149  1.00  0.00     0.008 C 
ATOM     10  C   UNL     1      -6.099  28.137  47.174  1.00  0.00     0.008 C 
ENDBRANCH   5   8
ENDBRANCH   4   5
ENDBRANCH   1   3
BRANCH   1  11
ATOM     11  C   UNL     1      -4.461  24.697  50.163  1.00  0.00     0.002 C 
ATOM     12  C   UNL     1      -5.654  24.999  49.218  1.00  0.00     0.005 C 
ATOM     13  C   UNL     1      -3.653  23.573  49.432  1.00  0.00    -0.023 C 
ATOM     14  C   UNL     1      -5.768  23.812  48.248  1.00  0.00     0.009 C 
ATOM     15  C   UNL     1      -4.825  22.770  48.843  1.00  0.00     0.021 C 
ATOM     16  C   UNL     1      -2.844  22.613  50.350  1.00  0.00     0.008 C 
ATOM     17  C   UNL     1      -2.722  24.125  48.313  1.00  0.00     0.012 C 
ATOM     18  C   UNL     1      -4.327  21.590  48.042  1.00  0.00    -0.067 C 
ATOM     19  C   UNL     1      -2.392  21.319  49.617  1.00  0.00     0.009 C 
ATOM     20  C   UNL     1      -3.555  20.577  48.889  1.00  0.00     0.021 C 
ATOM     21  C   UNL     1      -4.322  21.574  46.690  1.00  0.00    -0.027 C 
ATOM     22  C   UNL     1      -3.149  19.287  48.076  1.00  0.00    -0.023 C 
ATOM     23  C   UNL     1      -3.666  20.491  45.877  1.00  0.00     0.031 C 
ATOM     24  C   UNL     1      -2.605  19.718  46.678  1.00  0.00     0.002 C 
ATOM     25  C   UNL     1      -2.046  18.464  48.810  1.00  0.00     0.010 C 
ATOM     26  C   UNL     1      -4.426  18.401  47.947  1.00  0.00     0.012 C 
ATOM     27  C   UNL     1      -2.062  18.532  45.846  1.00  0.00     0.036 C 
ATOM     28  C   UNL     1      -1.543  17.269  47.986  1.00  0.00     0.032 C 
ATOM     29  C   UNL     1      -1.009  17.716  46.614  1.00  0.00     0.114 C 
BRANCH  29  30
ATOM     30  O   UNL     1       0.159  18.482  46.765  1.00  0.00    -0.393 OA
ATOM     31  H   UNL     1      -0.076  19.256  47.340  1.00  0.00     0.210 HD
ENDBRANCH  29  30
ENDBRANCH   1  11
TORSDOF 6
ENDMDL
MODEL 7
REMARK VINA RESULT:    -7.266      4.700      9.233
REMARK INTER + INTRA:         -11.076
REMARK INTER:                  -9.390
REMARK INTRA:                  -1.687
REMARK UNBOUND:                -1.474
REMARK SMILES CC[C@@H](C=C[C@@H](C)[C@H]1CC[C@H]2C3=CC[C@@H]4C[C@@H](O)CC[C@@]4(C)[C@H]3CC[C@]12C)C(C)C
REMARK SMILES IDX 6 1 7 2 5 3 4 4 3 5 2 6 1 7 28 8 29 9 30 10 8 11 9 12 26 13
REMARK SMILES IDX 10 14 11 15 25 16 27 17 12 18 24 19 23 20 13 21 21 22 14 23
REMARK SMILES IDX 15 24 20 25 22 26 16 27 19 28 17 29 18 30
REMARK H PARENT 18 31
REMARK Flexibility Score: inf
ROOT
ATOM      1  C   UNL     1      -5.773  29.635  46.483  1.00  0.00     0.012 C 
ATOM      2  C   UNL     1      -4.745  30.489  45.716  1.00  0.00     0.012 C 
ENDROOT
BRANCH   1   3
ATOM      3  C   UNL     1      -6.780  30.525  47.189  1.00  0.00    -0.028 C 
ATOM      4  C   UNL     1      -8.095  30.610  46.901  1.00  0.00    -0.027 C 
BRANCH   4   5
ATOM      5  C   UNL     1      -8.837  29.801  45.849  1.00  0.00     0.014 C 
BRANCH   5   6
ATOM      6  C   UNL     1      -9.405  30.777  44.791  1.00  0.00     0.004 C 
ATOM      7  C   UNL     1      -9.707  32.168  45.349  1.00  0.00     0.004 C 
ENDBRANCH   5   6
BRANCH   5   8
ATOM      8  C   UNL     1      -9.911  28.870  46.498  1.00  0.00    -0.011 C 
ATOM      9  C   UNL     1     -10.669  28.068  45.428  1.00  0.00     0.008 C 
ATOM     10  C   UNL     1      -9.351  27.918  47.571  1.00  0.00     0.008 C 
ENDBRANCH   5   8
ENDBRANCH   4   5
ENDBRANCH   1   3
BRANCH   1  11
ATOM     11  C   UNL     1      -5.195  28.534  47.441  1.00  0.00     0.002 C 
ATOM     12  C   UNL     1      -5.963  28.441  48.787  1.00  0.00     0.005 C 
ATOM     13  C   UNL     1      -4.975  27.046  47.008  1.00  0.00    -0.023 C 
ATOM     14  C   UNL     1      -5.782  27.005  49.306  1.00  0.00     0.009 C 
ATOM     15  C   UNL     1      -4.709  26.424  48.390  1.00  0.00     0.021 C 
ATOM     16  C   UNL     1      -3.723  26.776  46.125  1.00  0.00     0.008 C 
ATOM     17  C   UNL     1      -6.230  26.419  46.333  1.00  0.00     0.012 C 
ATOM     18  C   UNL     1      -4.471  24.936  48.278  1.00  0.00    -0.067 C 
ATOM     19  C   UNL     1      -3.352  25.267  46.055  1.00  0.00     0.009 C 
ATOM     20  C   UNL     1      -3.228  24.591  47.456  1.00  0.00     0.021 C 
ATOM     21  C   UNL     1      -5.401  24.019  48.625  1.00  0.00    -0.027 C 
ATOM     22  C   UNL     1      -2.911  23.046  47.451  1.00  0.00    -0.023 C 
ATOM     23  C   UNL     1      -5.254  22.546  48.353  1.00  0.00     0.031 C 
ATOM     24  C   UNL     1      -4.240  22.255  47.234  1.00  0.00     0.002 C 
ATOM     25  C   UNL     1      -1.911  22.664  46.316  1.00  0.00     0.010 C 
ATOM     26  C   UNL     1      -2.257  22.703  48.825  1.00  0.00     0.012 C 
ATOM     27  C   UNL     1      -4.022  20.731  47.089  1.00  0.00     0.036 C 
ATOM     28  C   UNL     1      -1.678  21.149  46.208  1.00  0.00     0.032 C 
ATOM     29  C   UNL     1      -3.000  20.391  45.992  1.00  0.00     0.114 C 
BRANCH  29  30
ATOM     30  O   UNL     1      -3.543  20.696  44.733  1.00  0.00    -0.393 OA
ATOM     31  H   UNL     1      -4.248  20.022  44.552  1.00  0.00     0.210 HD
ENDBRANCH  29  30
ENDBRANCH   1  11
TORSDOF 6
ENDMDL
MODEL 8
REMARK VINA RESULT:    -7.222      2.629      8.124
REMARK INTER + INTRA:         -11.018
REMARK INTER:                  -9.340
REMARK INTRA:                  -1.678
REMARK UNBOUND:                -1.474
REMARK SMILES CC[C@@H](C=C[C@@H](C)[C@H]1CC[C@H]2C3=CC[C@@H]4C[C@@H](O)CC[C@@]4(C)[C@H]3CC[C@]12C)C(C)C
REMARK SMILES IDX 6 1 7 2 5 3 4 4 3 5 2 6 1 7 28 8 29 9 30 10 8 11 9 12 26 13
REMARK SMILES IDX 10 14 11 15 25 16 27 17 12 18 24 19 23 20 13 21 21 22 14 23
REMARK SMILES IDX 15 24 20 25 22 26 16 27 19 28 17 29 18 30
REMARK H PARENT 18 31
REMARK Flexibility Score: inf
ROOT
ATOM      1  C   UNL     1      -1.078  25.722  48.931  1.00  0.00     0.012 C 
ATOM      2  C   UNL     1       0.226  25.107  49.473  1.00  0.00     0.012 C 
ENDROOT
BRANCH   1   3
ATOM      3  C   UNL     1      -1.566  26.826  49.851  1.00  0.00    -0.028 C 
ATOM      4  C   UNL     1      -2.201  26.648  51.027  1.00  0.00    -0.027 C 
BRANCH   4   5
ATOM      5  C   UNL     1      -2.514  25.313  51.685  1.00  0.00     0.014 C 
BRANCH   5   6
ATOM      6  C   UNL     1      -4.045  25.209  51.880  1.00  0.00     0.004 C 
ATOM      7  C   UNL     1      -4.691  24.110  51.037  1.00  0.00     0.004 C 
ENDBRANCH   5   6
BRANCH   5   8
ATOM      8  C   UNL     1      -1.689  25.119  53.000  1.00  0.00    -0.011 C 
ATOM      9  C   UNL     1      -0.988  23.751  53.017  1.00  0.00     0.008 C 
ATOM     10  C   UNL     1      -0.668  26.238  53.271  1.00  0.00     0.008 C 
ENDBRANCH   5   8
ENDBRANCH   4   5
ENDBRANCH   1   3
BRANCH   1  11
ATOM     11  C   UNL     1      -2.228  24.717  48.564  1.00  0.00     0.002 C 
ATOM     12  C   UNL     1      -3.116  25.217  47.393  1.00  0.00     0.005 C 
ATOM     13  C   UNL     1      -1.981  23.203  48.255  1.00  0.00    -0.023 C 
ATOM     14  C   UNL     1      -3.709  23.969  46.719  1.00  0.00     0.009 C 
ATOM     15  C   UNL     1      -3.362  22.839  47.684  1.00  0.00     0.021 C 
ATOM     16  C   UNL     1      -1.731  22.292  49.490  1.00  0.00     0.008 C 
ATOM     17  C   UNL     1      -0.853  22.974  47.207  1.00  0.00     0.012 C 
ATOM     18  C   UNL     1      -3.414  21.387  47.270  1.00  0.00    -0.067 C 
ATOM     19  C   UNL     1      -1.877  20.779  49.160  1.00  0.00     0.009 C 
ATOM     20  C   UNL     1      -3.217  20.425  48.443  1.00  0.00     0.021 C 
ATOM     21  C   UNL     1      -3.357  20.993  45.978  1.00  0.00    -0.027 C 
ATOM     22  C   UNL     1      -3.400  18.914  48.028  1.00  0.00    -0.023 C 
ATOM     23  C   UNL     1      -3.223  19.555  45.556  1.00  0.00     0.031 C 
ATOM     24  C   UNL     1      -2.659  18.665  46.677  1.00  0.00     0.002 C 
ATOM     25  C   UNL     1      -2.818  17.945  49.103  1.00  0.00     0.010 C 
ATOM     26  C   UNL     1      -4.932  18.651  47.900  1.00  0.00     0.012 C 
ATOM     27  C   UNL     1      -2.672  17.181  46.242  1.00  0.00     0.036 C 
ATOM     28  C   UNL     1      -2.870  16.471  48.672  1.00  0.00     0.032 C 
ATOM     29  C   UNL     1      -2.133  16.249  47.339  1.00  0.00     0.114 C 
BRANCH  29  30
ATOM     30  O   UNL     1      -0.754  16.460  47.498  1.00  0.00    -0.393 OA
ATOM     31  H   UNL     1      -0.600  16.656  48.458  1.00  0.00     0.210 HD
ENDBRANCH  29  30
ENDBRANCH   1  11
TORSDOF 6
ENDMDL
MODEL 9
REMARK VINA RESULT:    -5.081      2.686      8.078
REMARK INTER + INTRA:          -8.189
REMARK INTER:                  -6.945
REMARK INTRA:                  -1.244
REMARK UNBOUND:                -1.474
REMARK SMILES CC[C@@H](C=C[C@@H](C)[C@H]1CC[C@H]2C3=CC[C@@H]4C[C@@H](O)CC[C@@]4(C)[C@H]3CC[C@]12C)C(C)C
REMARK SMILES IDX 6 1 7 2 5 3 4 4 3 5 2 6 1 7 28 8 29 9 30 10 8 11 9 12 26 13
REMARK SMILES IDX 10 14 11 15 25 16 27 17 12 18 24 19 23 20 13 21 21 22 14 23
REMARK SMILES IDX 15 24 20 25 22 26 16 27 19 28 17 29 18 30
REMARK H PARENT 18 31
REMARK Flexibility Score: inf
ROOT
ATOM      1  C   UNL     1      -3.502  25.963  50.766  1.00  0.00     0.012 C 
ATOM      2  C   UNL     1      -4.143  27.324  50.433  1.00  0.00     0.012 C 
ENDROOT
BRANCH   1   3
ATOM      3  C   UNL     1      -2.026  25.970  50.412  1.00  0.00    -0.028 C 
ATOM      4  C   UNL     1      -1.021  25.570  51.217  1.00  0.00    -0.027 C 
BRANCH   4   5
ATOM      5  C   UNL     1      -1.168  24.990  52.615  1.00  0.00     0.014 C 
BRANCH   5   6
ATOM      6  C   UNL     1      -1.144  26.155  53.634  1.00  0.00     0.004 C 
ATOM      7  C   UNL     1      -2.533  26.561  54.125  1.00  0.00     0.004 C 
ENDBRANCH   5   6
BRANCH   5   8
ATOM      8  C   UNL     1      -0.098  23.883  52.889  1.00  0.00    -0.011 C 
ATOM      9  C   UNL     1      -0.734  22.649  53.549  1.00  0.00     0.008 C 
ATOM     10  C   UNL     1       0.700  23.460  51.642  1.00  0.00     0.008 C 
ENDBRANCH   5   8
ENDBRANCH   4   5
ENDBRANCH   1   3
BRANCH   1  11
ATOM     11  C   UNL     1      -4.230  24.689  50.206  1.00  0.00     0.002 C 
ATOM     12  C   UNL     1      -5.446  25.037  49.306  1.00  0.00     0.005 C 
ATOM     13  C   UNL     1      -3.489  23.541  49.443  1.00  0.00    -0.023 C 
ATOM     14  C   UNL     1      -5.636  23.857  48.338  1.00  0.00     0.009 C 
ATOM     15  C   UNL     1      -4.710  22.781  48.895  1.00  0.00     0.021 C 
ATOM     16  C   UNL     1      -2.681  22.551  50.329  1.00  0.00     0.008 C 
ATOM     17  C   UNL     1      -2.581  24.065  48.292  1.00  0.00     0.012 C 
ATOM     18  C   UNL     1      -4.282  21.587  48.074  1.00  0.00    -0.067 C 
ATOM     19  C   UNL     1      -2.301  21.244  49.576  1.00  0.00     0.009 C 
ATOM     20  C   UNL     1      -3.515  20.546  48.889  1.00  0.00     0.021 C 
ATOM     21  C   UNL     1      -4.327  21.577  46.722  1.00  0.00    -0.027 C 
ATOM     22  C   UNL     1      -3.184  19.246  48.059  1.00  0.00    -0.023 C 
ATOM     23  C   UNL     1      -3.738  20.475  45.883  1.00  0.00     0.031 C 
ATOM     24  C   UNL     1      -2.676  19.662  46.643  1.00  0.00     0.002 C 
ATOM     25  C   UNL     1      -2.084  18.382  48.751  1.00  0.00     0.010 C 
ATOM     26  C   UNL     1      -4.495  18.404  47.974  1.00  0.00     0.012 C 
ATOM     27  C   UNL     1      -2.206  18.461  45.790  1.00  0.00     0.036 C 
ATOM     28  C   UNL     1      -1.653  17.173  47.906  1.00  0.00     0.032 C 
ATOM     29  C   UNL     1      -1.155  17.607  46.516  1.00  0.00     0.114 C 
BRANCH  29  30
ATOM     30  O   UNL     1       0.044  18.331  46.627  1.00  0.00    -0.393 OA
ATOM     31  H   UNL     1       0.371  18.491  45.704  1.00  0.00     0.210 HD
ENDBRANCH  29  30
ENDBRANCH   1  11
TORSDOF 6
ENDMDL
