MODEL 1
REMARK VINA RESULT:    -3.813      0.000      0.000
REMARK INTER + INTRA:          -4.978
REMARK INTER:                  -4.927
REMARK INTRA:                  -0.051
REMARK UNBOUND:                -0.051
REMARK SMILES CCCCCCC=O
REMARK SMILES IDX 4 1 3 2 2 3 1 4 5 5 6 6 7 7 8 8
REMARK H PARENT
REMARK Flexibility Score: inf
ROOT
ATOM      1  C   UNL     1      25.486  58.341  -8.210  1.00  0.00     0.000 C 
ENDROOT
BRANCH   1   2
ATOM      2  C   UNL     1      26.712  58.776  -9.035  1.00  0.00    -0.000 C 
BRANCH   2   3
ATOM      3  C   UNL     1      27.075  60.267  -8.872  1.00  0.00    -0.003 C 
ATOM      4  C   UNL     1      28.372  60.636  -9.593  1.00  0.00     0.004 C 
ENDBRANCH   2   3
ENDBRANCH   1   2
BRANCH   1   5
ATOM      5  C   UNL     1      25.634  56.983  -7.503  1.00  0.00     0.008 C 
BRANCH   5   6
ATOM      6  C   UNL     1      24.539  55.983  -7.902  1.00  0.00     0.072 C 
BRANCH   6   7
ATOM      7  C   UNL     1      23.554  55.799  -6.788  1.00  0.00     0.224 C 
ATOM      8  O   UNL     1      22.645  54.991  -6.892  1.00  0.00    -0.303 OA
ENDBRANCH   6   7
ENDBRANCH   5   6
ENDBRANCH   1   5
TORSDOF 5
ENDMDL
MODEL 2
REMARK VINA RESULT:    -3.759      2.580      5.451
REMARK INTER + INTRA:          -4.909
REMARK INTER:                  -4.816
REMARK INTRA:                  -0.093
REMARK UNBOUND:                -0.051
REMARK SMILES CCCCCCC=O
REMARK SMILES IDX 4 1 3 2 2 3 1 4 5 5 6 6 7 7 8 8
REMARK H PARENT
REMARK Flexibility Score: inf
ROOT
ATOM      1  C   UNL     1      24.615  55.898  -8.146  1.00  0.00     0.000 C 
ENDROOT
BRANCH   1   2
ATOM      2  C   UNL     1      23.984  56.129  -6.760  1.00  0.00    -0.000 C 
BRANCH   2   3
ATOM      3  C   UNL     1      22.740  55.258  -6.489  1.00  0.00    -0.003 C 
ATOM      4  C   UNL     1      22.534  54.981  -4.999  1.00  0.00     0.004 C 
ENDBRANCH   2   3
ENDBRANCH   1   2
BRANCH   1   5
ATOM      5  C   UNL     1      25.727  56.892  -8.523  1.00  0.00     0.008 C 
BRANCH   5   6
ATOM      6  C   UNL     1      25.388  58.337  -8.133  1.00  0.00     0.072 C 
BRANCH   6   7
ATOM      7  C   UNL     1      26.436  59.283  -8.636  1.00  0.00     0.224 C 
ATOM      8  O   UNL     1      27.130  58.986  -9.596  1.00  0.00    -0.303 OA
ENDBRANCH   6   7
ENDBRANCH   5   6
ENDBRANCH   1   5
TORSDOF 5
ENDMDL
MODEL 3
REMARK VINA RESULT:    -3.696      3.041      5.562
REMARK INTER + INTRA:          -4.827
REMARK INTER:                  -4.767
REMARK INTRA:                  -0.061
REMARK UNBOUND:                -0.051
REMARK SMILES CCCCCCC=O
REMARK SMILES IDX 4 1 3 2 2 3 1 4 5 5 6 6 7 7 8 8
REMARK H PARENT
REMARK Flexibility Score: inf
ROOT
ATOM      1  C   UNL     1      25.443  58.341  -8.198  1.00  0.00     0.000 C 
ENDROOT
BRANCH   1   2
ATOM      2  C   UNL     1      25.588  56.946  -7.560  1.00  0.00    -0.000 C 
BRANCH   2   3
ATOM      3  C   UNL     1      24.470  55.960  -7.959  1.00  0.00    -0.003 C 
ATOM      4  C   UNL     1      23.489  55.694  -6.817  1.00  0.00     0.004 C 
ENDBRANCH   2   3
ENDBRANCH   1   2
BRANCH   1   5
ATOM      5  C   UNL     1      26.673  58.819  -8.988  1.00  0.00     0.008 C 
BRANCH   5   6
ATOM      6  C   UNL     1      26.974  60.309  -8.775  1.00  0.00     0.072 C 
BRANCH   6   7
ATOM      7  C   UNL     1      28.347  60.651  -9.271  1.00  0.00     0.224 C 
ATOM      8  O   UNL     1      28.912  59.928 -10.076  1.00  0.00    -0.303 OA
ENDBRANCH   6   7
ENDBRANCH   5   6
ENDBRANCH   1   5
TORSDOF 5
ENDMDL
MODEL 4
REMARK VINA RESULT:    -3.589      0.802      1.402
REMARK INTER + INTRA:          -4.689
REMARK INTER:                  -4.624
REMARK INTRA:                  -0.065
REMARK UNBOUND:                -0.051
REMARK SMILES CCCCCCC=O
REMARK SMILES IDX 4 1 3 2 2 3 1 4 5 5 6 6 7 7 8 8
REMARK H PARENT
REMARK Flexibility Score: inf
ROOT
ATOM      1  C   UNL     1      26.700  58.769  -9.100  1.00  0.00     0.000 C 
ENDROOT
BRANCH   1   2
ATOM      2  C   UNL     1      27.130  60.220  -8.815  1.00  0.00    -0.000 C 
BRANCH   2   3
ATOM      3  C   UNL     1      28.323  60.695  -9.672  1.00  0.00    -0.003 C 
ATOM      4  C   UNL     1      29.671  60.374  -9.026  1.00  0.00     0.004 C 
ENDBRANCH   2   3
ENDBRANCH   1   2
BRANCH   1   5
ATOM      5  C   UNL     1      25.616  58.221  -8.156  1.00  0.00     0.008 C 
BRANCH   5   6
ATOM      6  C   UNL     1      25.364  56.719  -8.349  1.00  0.00     0.072 C 
BRANCH   6   7
ATOM      7  C   UNL     1      24.755  56.119  -7.117  1.00  0.00     0.224 C 
ATOM      8  O   UNL     1      23.624  55.661  -7.146  1.00  0.00    -0.303 OA
ENDBRANCH   6   7
ENDBRANCH   5   6
ENDBRANCH   1   5
TORSDOF 5
ENDMDL
MODEL 5
REMARK VINA RESULT:    -3.364     16.821     18.102
REMARK INTER + INTRA:          -4.398
REMARK INTER:                  -4.197
REMARK INTRA:                  -0.202
REMARK UNBOUND:                -0.051
REMARK SMILES CCCCCCC=O
REMARK SMILES IDX 4 1 3 2 2 3 1 4 5 5 6 6 7 7 8 8
REMARK H PARENT
REMARK Flexibility Score: inf
ROOT
ATOM      1  C   UNL     1      18.451  44.726   0.620  1.00  0.00     0.000 C 
ENDROOT
BRANCH   1   2
ATOM      2  C   UNL     1      17.711  44.195   1.862  1.00  0.00    -0.000 C 
BRANCH   2   3
ATOM      3  C   UNL     1      16.282  44.756   2.023  1.00  0.00    -0.003 C 
ATOM      4  C   UNL     1      15.868  45.645   0.851  1.00  0.00     0.004 C 
ENDBRANCH   2   3
ENDBRANCH   1   2
BRANCH   1   5
ATOM      5  C   UNL     1      19.928  45.086   0.854  1.00  0.00     0.008 C 
BRANCH   5   6
ATOM      6  C   UNL     1      20.545  44.322   2.034  1.00  0.00     0.072 C 
BRANCH   6   7
ATOM      7  C   UNL     1      21.212  43.065   1.565  1.00  0.00     0.224 C 
ATOM      8  O   UNL     1      21.790  43.035   0.489  1.00  0.00    -0.303 OA
ENDBRANCH   6   7
ENDBRANCH   5   6
ENDBRANCH   1   5
TORSDOF 5
ENDMDL
MODEL 6
REMARK VINA RESULT:    -3.340     16.833     18.405
REMARK INTER + INTRA:          -4.367
REMARK INTER:                  -4.012
REMARK INTRA:                  -0.355
REMARK UNBOUND:                -0.051
REMARK SMILES CCCCCCC=O
REMARK SMILES IDX 4 1 3 2 2 3 1 4 5 5 6 6 7 7 8 8
REMARK H PARENT
REMARK Flexibility Score: inf
ROOT
ATOM      1  C   UNL     1      18.454  44.807   0.637  1.00  0.00     0.000 C 
ENDROOT
BRANCH   1   2
ATOM      2  C   UNL     1      17.808  43.933   1.729  1.00  0.00    -0.000 C 
BRANCH   2   3
ATOM      3  C   UNL     1      17.325  42.558   1.220  1.00  0.00    -0.003 C 
ATOM      4  C   UNL     1      17.969  42.169  -0.111  1.00  0.00     0.004 C 
ENDBRANCH   2   3
ENDBRANCH   1   2
BRANCH   1   5
ATOM      5  C   UNL     1      19.951  45.095   0.843  1.00  0.00     0.008 C 
BRANCH   5   6
ATOM      6  C   UNL     1      20.520  44.414   2.096  1.00  0.00     0.072 C 
BRANCH   6   7
ATOM      7  C   UNL     1      21.401  43.261   1.721  1.00  0.00     0.224 C 
ATOM      8  O   UNL     1      21.361  42.792   0.594  1.00  0.00    -0.303 OA
ENDBRANCH   6   7
ENDBRANCH   5   6
ENDBRANCH   1   5
TORSDOF 5
ENDMDL
MODEL 7
REMARK VINA RESULT:    -3.272     16.867     17.927
REMARK INTER + INTRA:          -4.279
REMARK INTER:                  -4.083
REMARK INTRA:                  -0.196
REMARK UNBOUND:                -0.051
REMARK SMILES CCCCCCC=O
REMARK SMILES IDX 4 1 3 2 2 3 1 4 5 5 6 6 7 7 8 8
REMARK H PARENT
REMARK Flexibility Score: inf
ROOT
ATOM      1  C   UNL     1      18.585  44.789   0.583  1.00  0.00     0.000 C 
ENDROOT
BRANCH   1   2
ATOM      2  C   UNL     1      20.051  45.053   0.978  1.00  0.00    -0.000 C 
BRANCH   2   3
ATOM      3  C   UNL     1      20.663  43.953   1.870  1.00  0.00    -0.003 C 
ATOM      4  C   UNL     1      21.404  42.889   1.060  1.00  0.00     0.004 C 
ENDBRANCH   2   3
ENDBRANCH   1   2
BRANCH   1   5
ATOM      5  C   UNL     1      17.786  43.949   1.594  1.00  0.00     0.008 C 
BRANCH   5   6
ATOM      6  C   UNL     1      16.506  44.652   2.069  1.00  0.00     0.072 C 
BRANCH   6   7
ATOM      7  C   UNL     1      15.938  45.514   0.982  1.00  0.00     0.224 C 
ATOM      8  O   UNL     1      15.046  46.312   1.227  1.00  0.00    -0.303 OA
ENDBRANCH   6   7
ENDBRANCH   5   6
ENDBRANCH   1   5
TORSDOF 5
ENDMDL
MODEL 8
REMARK VINA RESULT:    -3.241     16.912     18.170
REMARK INTER + INTRA:          -4.240
REMARK INTER:                  -3.955
REMARK INTRA:                  -0.285
REMARK UNBOUND:                -0.051
REMARK SMILES CCCCCCC=O
REMARK SMILES IDX 4 1 3 2 2 3 1 4 5 5 6 6 7 7 8 8
REMARK H PARENT
REMARK Flexibility Score: inf
ROOT
ATOM      1  C   UNL     1      18.476  44.915   0.676  1.00  0.00     0.000 C 
ENDROOT
BRANCH   1   2
ATOM      2  C   UNL     1      19.974  45.162   0.939  1.00  0.00    -0.000 C 
BRANCH   2   3
ATOM      3  C   UNL     1      20.609  44.152   1.918  1.00  0.00    -0.003 C 
ATOM      4  C   UNL     1      21.390  43.052   1.198  1.00  0.00     0.004 C 
ENDBRANCH   2   3
ENDBRANCH   1   2
BRANCH   1   5
ATOM      5  C   UNL     1      17.755  44.105   1.766  1.00  0.00     0.008 C 
BRANCH   5   6
ATOM      6  C   UNL     1      17.235  42.753   1.257  1.00  0.00     0.072 C 
BRANCH   6   7
ATOM      7  C   UNL     1      17.585  42.560  -0.188  1.00  0.00     0.224 C 
ATOM      8  O   UNL     1      18.544  41.875  -0.507  1.00  0.00    -0.303 OA
ENDBRANCH   6   7
ENDBRANCH   5   6
ENDBRANCH   1   5
TORSDOF 5
ENDMDL
MODEL 9
REMARK VINA RESULT:    -3.092     16.195     17.973
REMARK INTER + INTRA:          -4.047
REMARK INTER:                  -3.700
REMARK INTRA:                  -0.348
REMARK UNBOUND:                -0.051
REMARK SMILES CCCCCCC=O
REMARK SMILES IDX 4 1 3 2 2 3 1 4 5 5 6 6 7 7 8 8
REMARK H PARENT
REMARK Flexibility Score: inf
ROOT
ATOM      1  C   UNL     1      19.599  42.619   0.630  1.00  0.00     0.000 C 
ENDROOT
BRANCH   1   2
ATOM      2  C   UNL     1      20.566  43.283   1.629  1.00  0.00    -0.000 C 
BRANCH   2   3
ATOM      3  C   UNL     1      20.256  44.770   1.901  1.00  0.00    -0.003 C 
ATOM      4  C   UNL     1      20.183  45.596   0.617  1.00  0.00     0.004 C 
ENDBRANCH   2   3
ENDBRANCH   1   2
BRANCH   1   5
ATOM      5  C   UNL     1      18.149  42.488   1.126  1.00  0.00     0.008 C 
BRANCH   5   6
ATOM      6  C   UNL     1      17.142  43.201   0.212  1.00  0.00     0.072 C 
BRANCH   6   7
ATOM      7  C   UNL     1      16.687  44.490   0.826  1.00  0.00     0.224 C 
ATOM      8  O   UNL     1      16.693  45.523   0.174  1.00  0.00    -0.303 OA
ENDBRANCH   6   7
ENDBRANCH   5   6
ENDBRANCH   1   5
TORSDOF 5
ENDMDL
