MODEL 1
REMARK VINA RESULT:    -3.421      0.000      0.000
REMARK INTER + INTRA:          -6.396
REMARK INTER:                  -5.220
REMARK INTRA:                  -1.176
REMARK UNBOUND:                -1.176
REMARK SMILES CCCCCCCCCCC(=O)[O-]
REMARK SMILES IDX 7 1 8 2 9 3 10 4 11 5 12 6 13 7 6 8 5 9 4 10 3 11 2 12 1 13
REMARK H PARENT
REMARK Flexibility Score: inf
ROOT
ATOM      1  C   UNL     1     -41.955 -49.043  37.242  1.00  0.00     0.000 C 
ENDROOT
BRANCH   1   2
ATOM      2  C   UNL     1     -43.235 -48.559  37.943  1.00  0.00     0.000 C 
BRANCH   2   3
ATOM      3  C   UNL     1     -44.401 -48.335  36.963  1.00  0.00     0.006 C 
BRANCH   3   4
ATOM      4  C   UNL     1     -45.062 -49.653  36.540  1.00  0.00     0.053 C 
BRANCH   4   5
ATOM      5  C   UNL     1     -46.480 -49.742  37.015  1.00  0.00     0.041 C 
ATOM      6  O   UNL     1     -46.985 -50.861  37.297  1.00  0.00    -0.550 OA
ATOM      7  O   UNL     1     -47.255 -48.594  37.110  1.00  0.00    -0.550 OA
ENDBRANCH   4   5
ENDBRANCH   3   4
ENDBRANCH   2   3
ENDBRANCH   1   2
BRANCH   1   8
ATOM      8  C   UNL     1     -41.179 -47.895  36.573  1.00  0.00     0.000 C 
BRANCH   8   9
ATOM      9  C   UNL     1     -40.973 -48.122  35.067  1.00  0.00    -0.000 C 
BRANCH   9  10
ATOM     10  C   UNL     1     -42.226 -47.798  34.241  1.00  0.00    -0.000 C 
BRANCH  10  11
ATOM     11  C   UNL     1     -42.803 -49.070  33.599  1.00  0.00    -0.000 C 
BRANCH  11  12
ATOM     12  C   UNL     1     -41.851 -50.271  33.711  1.00  0.00    -0.003 C 
ATOM     13  C   UNL     1     -42.462 -51.441  34.483  1.00  0.00     0.004 C 
ENDBRANCH  11  12
ENDBRANCH  10  11
ENDBRANCH   9  10
ENDBRANCH   8   9
ENDBRANCH   1   8
TORSDOF 9
ENDMDL
MODEL 2
REMARK VINA RESULT:    -3.395      1.816      2.997
REMARK INTER + INTRA:          -6.357
REMARK INTER:                  -5.812
REMARK INTRA:                  -0.545
REMARK UNBOUND:                -1.176
REMARK SMILES CCCCCCCCCCC(=O)[O-]
REMARK SMILES IDX 7 1 8 2 9 3 10 4 11 5 12 6 13 7 6 8 5 9 4 10 3 11 2 12 1 13
REMARK H PARENT
REMARK Flexibility Score: inf
ROOT
ATOM      1  C   UNL     1     -44.782 -48.490  37.083  1.00  0.00     0.000 C 
ENDROOT
BRANCH   1   2
ATOM      2  C   UNL     1     -45.668 -49.652  36.608  1.00  0.00     0.000 C 
BRANCH   2   3
ATOM      3  C   UNL     1     -46.861 -49.913  37.545  1.00  0.00     0.006 C 
BRANCH   3   4
ATOM      4  C   UNL     1     -46.523 -50.929  38.644  1.00  0.00     0.053 C 
BRANCH   4   5
ATOM      5  C   UNL     1     -47.233 -52.231  38.435  1.00  0.00     0.041 C 
ATOM      6  O   UNL     1     -47.880 -52.758  39.378  1.00  0.00    -0.550 OA
ATOM      7  O   UNL     1     -47.150 -52.881  37.210  1.00  0.00    -0.550 OA
ENDBRANCH   4   5
ENDBRANCH   3   4
ENDBRANCH   2   3
ENDBRANCH   1   2
BRANCH   1   8
ATOM      8  C   UNL     1     -43.491 -48.357  36.256  1.00  0.00     0.000 C 
BRANCH   8   9
ATOM      9  C   UNL     1     -43.450 -49.330  35.066  1.00  0.00    -0.000 C 
BRANCH   9  10
ATOM     10  C   UNL     1     -42.739 -48.738  33.840  1.00  0.00    -0.000 C 
BRANCH  10  11
ATOM     11  C   UNL     1     -41.776 -47.615  34.254  1.00  0.00    -0.000 C 
BRANCH  11  12
ATOM     12  C   UNL     1     -40.329 -48.107  34.414  1.00  0.00    -0.003 C 
ATOM     13  C   UNL     1     -39.811 -47.971  35.846  1.00  0.00     0.004 C 
ENDBRANCH  11  12
ENDBRANCH  10  11
ENDBRANCH   9  10
ENDBRANCH   8   9
ENDBRANCH   1   8
TORSDOF 9
ENDMDL
MODEL 3
REMARK VINA RESULT:    -3.355      3.592      4.755
REMARK INTER + INTRA:          -6.296
REMARK INTER:                  -5.593
REMARK INTRA:                  -0.703
REMARK UNBOUND:                -1.176
REMARK SMILES CCCCCCCCCCC(=O)[O-]
REMARK SMILES IDX 7 1 8 2 9 3 10 4 11 5 12 6 13 7 6 8 5 9 4 10 3 11 2 12 1 13
REMARK H PARENT
REMARK Flexibility Score: inf
ROOT
ATOM      1  C   UNL     1     -43.244 -48.717  38.034  1.00  0.00     0.000 C 
ENDROOT
BRANCH   1   2
ATOM      2  C   UNL     1     -43.912 -48.286  39.349  1.00  0.00     0.000 C 
BRANCH   2   3
ATOM      3  C   UNL     1     -43.602 -46.825  39.724  1.00  0.00     0.006 C 
BRANCH   3   4
ATOM      4  C   UNL     1     -42.110 -46.496  39.582  1.00  0.00     0.053 C 
BRANCH   4   5
ATOM      5  C   UNL     1     -41.651 -45.533  40.633  1.00  0.00     0.041 C 
ATOM      6  O   UNL     1     -42.458 -45.111  41.503  1.00  0.00    -0.550 OA
ATOM      7  O   UNL     1     -40.340 -45.072  40.629  1.00  0.00    -0.550 OA
ENDBRANCH   4   5
ENDBRANCH   3   4
ENDBRANCH   2   3
ENDBRANCH   1   2
BRANCH   1   8
ATOM      8  C   UNL     1     -44.068 -48.320  36.796  1.00  0.00     0.000 C 
BRANCH   8   9
ATOM      9  C   UNL     1     -44.158 -49.452  35.760  1.00  0.00    -0.000 C 
BRANCH   9  10
ATOM     10  C   UNL     1     -42.996 -49.431  34.755  1.00  0.00    -0.000 C 
BRANCH  10  11
ATOM     11  C   UNL     1     -42.567 -47.989  34.444  1.00  0.00    -0.000 C 
BRANCH  11  12
ATOM     12  C   UNL     1     -41.040 -47.822  34.414  1.00  0.00    -0.003 C 
ATOM     13  C   UNL     1     -40.416 -47.819  35.809  1.00  0.00     0.004 C 
ENDBRANCH  11  12
ENDBRANCH  10  11
ENDBRANCH   9  10
ENDBRANCH   8   9
ENDBRANCH   1   8
TORSDOF 9
ENDMDL
MODEL 4
REMARK VINA RESULT:    -3.346      1.322      2.419
REMARK INTER + INTRA:          -6.283
REMARK INTER:                  -5.170
REMARK INTRA:                  -1.113
REMARK UNBOUND:                -1.176
REMARK SMILES CCCCCCCCCCC(=O)[O-]
REMARK SMILES IDX 7 1 8 2 9 3 10 4 11 5 12 6 13 7 6 8 5 9 4 10 3 11 2 12 1 13
REMARK H PARENT
REMARK Flexibility Score: inf
ROOT
ATOM      1  C   UNL     1     -43.126 -49.324  34.239  1.00  0.00     0.000 C 
ENDROOT
BRANCH   1   2
ATOM      2  C   UNL     1     -43.991 -49.677  35.459  1.00  0.00     0.000 C 
BRANCH   2   3
ATOM      3  C   UNL     1     -44.178 -48.489  36.420  1.00  0.00     0.006 C 
BRANCH   3   4
ATOM      4  C   UNL     1     -45.062 -48.850  37.621  1.00  0.00     0.053 C 
BRANCH   4   5
ATOM      5  C   UNL     1     -46.506 -48.956  37.237  1.00  0.00     0.041 C 
ATOM      6  O   UNL     1     -47.042 -50.086  37.092  1.00  0.00    -0.550 OA
ATOM      7  O   UNL     1     -47.249 -47.807  37.002  1.00  0.00    -0.550 OA
ENDBRANCH   4   5
ENDBRANCH   3   4
ENDBRANCH   2   3
ENDBRANCH   1   2
BRANCH   1   8
ATOM      8  C   UNL     1     -42.535 -47.906  34.325  1.00  0.00     0.000 C 
BRANCH   8   9
ATOM      9  C   UNL     1     -41.001 -47.911  34.418  1.00  0.00    -0.000 C 
BRANCH   9  10
ATOM     10  C   UNL     1     -40.407 -49.326  34.357  1.00  0.00    -0.000 C 
BRANCH  10  11
ATOM     11  C   UNL     1     -39.578 -49.627  35.615  1.00  0.00    -0.000 C 
BRANCH  11  12
ATOM     12  C   UNL     1     -40.292 -50.591  36.576  1.00  0.00    -0.003 C 
ATOM     13  C   UNL     1     -41.021 -49.866  37.707  1.00  0.00     0.004 C 
ENDBRANCH  11  12
ENDBRANCH  10  11
ENDBRANCH   9  10
ENDBRANCH   8   9
ENDBRANCH   1   8
TORSDOF 9
ENDMDL
MODEL 5
REMARK VINA RESULT:    -3.345      0.876      2.684
REMARK INTER + INTRA:          -6.281
REMARK INTER:                  -5.140
REMARK INTRA:                  -1.141
REMARK UNBOUND:                -1.176
REMARK SMILES CCCCCCCCCCC(=O)[O-]
REMARK SMILES IDX 7 1 8 2 9 3 10 4 11 5 12 6 13 7 6 8 5 9 4 10 3 11 2 12 1 13
REMARK H PARENT
REMARK Flexibility Score: inf
ROOT
ATOM      1  C   UNL     1     -42.417 -51.104  35.397  1.00  0.00     0.000 C 
ENDROOT
BRANCH   1   2
ATOM      2  C   UNL     1     -43.914 -50.989  35.729  1.00  0.00     0.000 C 
BRANCH   2   3
ATOM      3  C   UNL     1     -44.176 -50.225  37.039  1.00  0.00     0.006 C 
BRANCH   3   4
ATOM      4  C   UNL     1     -45.036 -48.974  36.817  1.00  0.00     0.053 C 
BRANCH   4   5
ATOM      5  C   UNL     1     -46.484 -49.238  37.099  1.00  0.00     0.041 C 
ATOM      6  O   UNL     1     -47.313 -48.291  37.094  1.00  0.00    -0.550 OA
ATOM      7  O   UNL     1     -46.910 -50.524  37.403  1.00  0.00    -0.550 OA
ENDBRANCH   4   5
ENDBRANCH   3   4
ENDBRANCH   2   3
ENDBRANCH   1   2
BRANCH   1   8
ATOM      8  C   UNL     1     -42.056 -50.430  34.061  1.00  0.00     0.000 C 
BRANCH   8   9
ATOM      9  C   UNL     1     -42.925 -49.196  33.770  1.00  0.00    -0.000 C 
BRANCH   9  10
ATOM     10  C   UNL     1     -42.380 -47.918  34.426  1.00  0.00    -0.000 C 
BRANCH  10  11
ATOM     11  C   UNL     1     -40.844 -47.920  34.436  1.00  0.00    -0.000 C 
BRANCH  11  12
ATOM     12  C   UNL     1     -40.262 -47.723  35.845  1.00  0.00    -0.003 C 
ATOM     13  C   UNL     1     -41.298 -47.934  36.948  1.00  0.00     0.004 C 
ENDBRANCH  11  12
ENDBRANCH  10  11
ENDBRANCH   9  10
ENDBRANCH   8   9
ENDBRANCH   1   8
TORSDOF 9
ENDMDL
MODEL 6
REMARK VINA RESULT:    -3.335      3.114      3.996
REMARK INTER + INTRA:          -6.266
REMARK INTER:                  -5.317
REMARK INTRA:                  -0.949
REMARK UNBOUND:                -1.176
REMARK SMILES CCCCCCCCCCC(=O)[O-]
REMARK SMILES IDX 7 1 8 2 9 3 10 4 11 5 12 6 13 7 6 8 5 9 4 10 3 11 2 12 1 13
REMARK H PARENT
REMARK Flexibility Score: inf
ROOT
ATOM      1  C   UNL     1     -40.980 -49.014  37.918  1.00  0.00     0.000 C 
ENDROOT
BRANCH   1   2
ATOM      2  C   UNL     1     -41.594 -47.609  38.033  1.00  0.00     0.000 C 
BRANCH   2   3
ATOM      3  C   UNL     1     -42.766 -47.552  39.028  1.00  0.00     0.006 C 
BRANCH   3   4
ATOM      4  C   UNL     1     -42.385 -46.835  40.330  1.00  0.00     0.053 C 
BRANCH   4   5
ATOM      5  C   UNL     1     -42.943 -45.446  40.384  1.00  0.00     0.041 C 
ATOM      6  O   UNL     1     -44.172 -45.248  40.193  1.00  0.00    -0.550 OA
ATOM      7  O   UNL     1     -42.099 -44.366  40.608  1.00  0.00    -0.550 OA
ENDBRANCH   4   5
ENDBRANCH   3   4
ENDBRANCH   2   3
ENDBRANCH   1   2
BRANCH   1   8
ATOM      8  C   UNL     1     -40.216 -49.217  36.597  1.00  0.00     0.000 C 
BRANCH   8   9
ATOM      9  C   UNL     1     -40.116 -47.925  35.770  1.00  0.00    -0.000 C 
BRANCH   9  10
ATOM     10  C   UNL     1     -40.675 -48.085  34.348  1.00  0.00    -0.000 C 
BRANCH  10  11
ATOM     11  C   UNL     1     -42.182 -47.790  34.317  1.00  0.00    -0.000 C 
BRANCH  11  12
ATOM     12  C   UNL     1     -43.030 -49.061  34.153  1.00  0.00    -0.003 C 
ATOM     13  C   UNL     1     -43.787 -49.436  35.427  1.00  0.00     0.004 C 
ENDBRANCH  11  12
ENDBRANCH  10  11
ENDBRANCH   9  10
ENDBRANCH   8   9
ENDBRANCH   1   8
TORSDOF 9
ENDMDL
MODEL 7
REMARK VINA RESULT:    -3.326      2.026      3.162
REMARK INTER + INTRA:          -6.252
REMARK INTER:                  -5.874
REMARK INTRA:                  -0.378
REMARK UNBOUND:                -1.176
REMARK SMILES CCCCCCCCCCC(=O)[O-]
REMARK SMILES IDX 7 1 8 2 9 3 10 4 11 5 12 6 13 7 6 8 5 9 4 10 3 11 2 12 1 13
REMARK H PARENT
REMARK Flexibility Score: inf
ROOT
ATOM      1  C   UNL     1     -42.928 -49.279  34.119  1.00  0.00     0.000 C 
ENDROOT
BRANCH   1   2
ATOM      2  C   UNL     1     -43.679 -49.767  35.368  1.00  0.00     0.000 C 
BRANCH   2   3
ATOM      3  C   UNL     1     -44.244 -48.612  36.212  1.00  0.00     0.006 C 
BRANCH   3   4
ATOM      4  C   UNL     1     -44.995 -49.115  37.453  1.00  0.00     0.053 C 
BRANCH   4   5
ATOM      5  C   UNL     1     -46.451 -49.329  37.173  1.00  0.00     0.041 C 
ATOM      6  O   UNL     1     -47.227 -48.344  37.065  1.00  0.00    -0.550 OA
ATOM      7  O   UNL     1     -46.956 -50.619  37.068  1.00  0.00    -0.550 OA
ENDBRANCH   4   5
ENDBRANCH   3   4
ENDBRANCH   2   3
ENDBRANCH   1   2
BRANCH   1   8
ATOM      8  C   UNL     1     -42.306 -47.885  34.313  1.00  0.00     0.000 C 
BRANCH   8   9
ATOM      9  C   UNL     1     -40.926 -47.944  34.988  1.00  0.00    -0.000 C 
BRANCH   9  10
ATOM     10  C   UNL     1     -39.894 -48.726  34.162  1.00  0.00    -0.000 C 
BRANCH  10  11
ATOM     11  C   UNL     1     -38.463 -48.330  34.556  1.00  0.00    -0.000 C 
BRANCH  11  12
ATOM     12  C   UNL     1     -37.600 -47.950  33.342  1.00  0.00    -0.003 C 
ATOM     13  C   UNL     1     -36.664 -49.076  32.905  1.00  0.00     0.004 C 
ENDBRANCH  11  12
ENDBRANCH  10  11
ENDBRANCH   9  10
ENDBRANCH   8   9
ENDBRANCH   1   8
TORSDOF 9
ENDMDL
MODEL 8
REMARK VINA RESULT:    -3.297      2.146      3.392
REMARK INTER + INTRA:          -6.208
REMARK INTER:                  -4.936
REMARK INTRA:                  -1.271
REMARK UNBOUND:                -1.176
REMARK SMILES CCCCCCCCCCC(=O)[O-]
REMARK SMILES IDX 7 1 8 2 9 3 10 4 11 5 12 6 13 7 6 8 5 9 4 10 3 11 2 12 1 13
REMARK H PARENT
REMARK Flexibility Score: inf
ROOT
ATOM      1  C   UNL     1     -40.420 -47.784  36.234  1.00  0.00     0.000 C 
ENDROOT
BRANCH   1   2
ATOM      2  C   UNL     1     -40.440 -49.074  37.069  1.00  0.00     0.000 C 
BRANCH   2   3
ATOM      3  C   UNL     1     -41.389 -48.986  38.278  1.00  0.00     0.006 C 
BRANCH   3   4
ATOM      4  C   UNL     1     -42.036 -47.600  38.405  1.00  0.00     0.053 C 
BRANCH   4   5
ATOM      5  C   UNL     1     -43.212 -47.618  39.333  1.00  0.00     0.041 C 
ATOM      6  O   UNL     1     -43.771 -46.541  39.669  1.00  0.00    -0.550 OA
ATOM      7  O   UNL     1     -43.667 -48.822  39.855  1.00  0.00    -0.550 OA
ENDBRANCH   4   5
ENDBRANCH   3   4
ENDBRANCH   2   3
ENDBRANCH   1   2
BRANCH   1   8
ATOM      8  C   UNL     1     -40.667 -48.047  34.737  1.00  0.00     0.000 C 
BRANCH   8   9
ATOM      9  C   UNL     1     -42.089 -47.662  34.298  1.00  0.00    -0.000 C 
BRANCH   9  10
ATOM     10  C   UNL     1     -42.853 -48.835  33.666  1.00  0.00    -0.000 C 
BRANCH  10  11
ATOM     11  C   UNL     1     -43.259 -49.863  34.733  1.00  0.00    -0.000 C 
BRANCH  11  12
ATOM     12  C   UNL     1     -44.177 -49.264  35.811  1.00  0.00    -0.003 C 
ATOM     13  C   UNL     1     -44.693 -50.311  36.797  1.00  0.00     0.004 C 
ENDBRANCH  11  12
ENDBRANCH  10  11
ENDBRANCH   9  10
ENDBRANCH   8   9
ENDBRANCH   1   8
TORSDOF 9
ENDMDL
MODEL 9
REMARK VINA RESULT:    -3.245      3.358      5.231
REMARK INTER + INTRA:          -6.129
REMARK INTER:                  -4.950
REMARK INTRA:                  -1.179
REMARK UNBOUND:                -1.176
REMARK SMILES CCCCCCCCCCC(=O)[O-]
REMARK SMILES IDX 7 1 8 2 9 3 10 4 11 5 12 6 13 7 6 8 5 9 4 10 3 11 2 12 1 13
REMARK H PARENT
REMARK Flexibility Score: inf
ROOT
ATOM      1  C   UNL     1     -46.863 -51.404  37.980  1.00  0.00     0.000 C 
ENDROOT
BRANCH   1   2
ATOM      2  C   UNL     1     -45.786 -51.612  39.057  1.00  0.00     0.000 C 
BRANCH   2   3
ATOM      3  C   UNL     1     -46.006 -50.726  40.296  1.00  0.00     0.006 C 
BRANCH   3   4
ATOM      4  C   UNL     1     -47.436 -50.840  40.842  1.00  0.00     0.053 C 
BRANCH   4   5
ATOM      5  C   UNL     1     -47.700 -52.191  41.433  1.00  0.00     0.041 C 
ATOM      6  O   UNL     1     -46.969 -52.632  42.358  1.00  0.00    -0.550 OA
ATOM      7  O   UNL     1     -48.730 -52.978  40.935  1.00  0.00    -0.550 OA
ENDBRANCH   4   5
ENDBRANCH   3   4
ENDBRANCH   2   3
ENDBRANCH   1   2
BRANCH   1   8
ATOM      8  C   UNL     1     -46.449 -50.361  36.926  1.00  0.00     0.000 C 
BRANCH   8   9
ATOM      9  C   UNL     1     -46.925 -48.944  37.281  1.00  0.00    -0.000 C 
BRANCH   9  10
ATOM     10  C   UNL     1     -45.775 -47.927  37.333  1.00  0.00    -0.000 C 
BRANCH  10  11
ATOM     11  C   UNL     1     -44.457 -48.566  36.870  1.00  0.00    -0.000 C 
BRANCH  11  12
ATOM     12  C   UNL     1     -43.359 -48.500  37.943  1.00  0.00    -0.003 C 
ATOM     13  C   UNL     1     -43.829 -47.823  39.231  1.00  0.00     0.004 C 
ENDBRANCH  11  12
ENDBRANCH  10  11
ENDBRANCH   9  10
ENDBRANCH   8   9
ENDBRANCH   1   8
TORSDOF 9
ENDMDL
