MODEL 1
REMARK VINA RESULT:    -6.132      0.000      0.000
REMARK INTER + INTRA:          -9.654
REMARK INTER:                  -8.820
REMARK INTRA:                  -0.834
REMARK UNBOUND:                -0.834
REMARK SMILES CC(C)=CCCC(C)=CCCC(C)=CCO
REMARK SMILES IDX 10 1 9 2 7 3 8 4 6 5 5 6 4 7 1 8 2 9 3 10 11 11 12 12 14 13
REMARK SMILES IDX 13 14 15 15 16 16
REMARK H PARENT 16 17
REMARK Flexibility Score: inf
ROOT
ATOM      1  C   UNL     1      23.997  -2.150 -26.031  1.00  0.00     0.032 C 
ENDROOT
BRANCH   1   2
ATOM      2  C   UNL     1      22.918  -2.522 -27.019  1.00  0.00    -0.028 C 
ATOM      3  C   UNL     1      21.795  -3.208 -26.709  1.00  0.00    -0.077 C 
ATOM      4  C   UNL     1      21.543  -3.741 -25.317  1.00  0.00     0.039 C 
BRANCH   3   5
ATOM      5  C   UNL     1      20.764  -3.450 -27.790  1.00  0.00     0.034 C 
BRANCH   5   6
ATOM      6  C   UNL     1      19.343  -3.296 -27.238  1.00  0.00     0.032 C 
BRANCH   6   7
ATOM      7  C   UNL     1      18.489  -4.479 -27.618  1.00  0.00    -0.028 C 
ATOM      8  C   UNL     1      16.920  -6.355 -27.234  1.00  0.00     0.039 C 
ATOM      9  C   UNL     1      17.716  -5.171 -26.750  1.00  0.00    -0.080 C 
ATOM     10  C   UNL     1      17.579  -4.767 -25.303  1.00  0.00     0.039 C 
ENDBRANCH   6   7
ENDBRANCH   5   6
ENDBRANCH   3   5
ENDBRANCH   1   2
BRANCH   1  11
ATOM     11  C   UNL     1      24.591  -0.765 -26.328  1.00  0.00     0.034 C 
BRANCH  11  12
ATOM     12  C   UNL     1      23.905   0.331 -25.530  1.00  0.00    -0.075 C 
ATOM     13  C   UNL     1      23.828   1.610 -25.960  1.00  0.00    -0.000 C 
ATOM     14  C   UNL     1      23.263  -0.022 -24.212  1.00  0.00     0.039 C 
BRANCH  13  15
ATOM     15  C   UNL     1      24.451   2.106 -27.238  1.00  0.00     0.183 C 
BRANCH  15  16
ATOM     16  O   UNL     1      24.814   3.450 -27.091  1.00  0.00    -0.392 OA
ATOM     17  H   UNL     1      24.593   3.694 -26.155  1.00  0.00     0.210 HD
ENDBRANCH  15  16
ENDBRANCH  13  15
ENDBRANCH  11  12
ENDBRANCH   1  11
TORSDOF 8
ENDMDL
MODEL 2
REMARK VINA RESULT:    -5.952      9.962     12.506
REMARK INTER + INTRA:          -9.396
REMARK INTER:                  -8.595
REMARK INTRA:                  -0.800
REMARK UNBOUND:                -0.834
REMARK SMILES CC(C)=CCCC(C)=CCCC(C)=CCO
REMARK SMILES IDX 10 1 9 2 7 3 8 4 6 5 5 6 4 7 1 8 2 9 3 10 11 11 12 12 14 13
REMARK SMILES IDX 13 14 15 15 16 16
REMARK H PARENT 16 17
REMARK Flexibility Score: inf
ROOT
ATOM      1  C   UNL     1      23.053   1.989 -16.108  1.00  0.00     0.032 C 
ENDROOT
BRANCH   1   2
ATOM      2  C   UNL     1      23.758   0.712 -15.719  1.00  0.00    -0.028 C 
ATOM      3  C   UNL     1      24.641   0.052 -16.502  1.00  0.00    -0.077 C 
ATOM      4  C   UNL     1      24.959   0.508 -17.907  1.00  0.00     0.039 C 
BRANCH   3   5
ATOM      5  C   UNL     1      25.326  -1.181 -15.953  1.00  0.00     0.034 C 
BRANCH   5   6
ATOM      6  C   UNL     1      26.743  -1.319 -16.519  1.00  0.00     0.032 C 
BRANCH   6   7
ATOM      7  C   UNL     1      27.759  -0.738 -15.567  1.00  0.00    -0.028 C 
ATOM      8  C   UNL     1      30.018  -0.101 -14.781  1.00  0.00     0.039 C 
ATOM      9  C   UNL     1      29.088  -0.681 -15.814  1.00  0.00    -0.080 C 
ATOM     10  C   UNL     1      29.679  -1.139 -17.125  1.00  0.00     0.039 C 
ENDBRANCH   6   7
ENDBRANCH   5   6
ENDBRANCH   3   5
ENDBRANCH   1   2
BRANCH   1  11
ATOM     11  C   UNL     1      21.551   1.764 -16.339  1.00  0.00     0.034 C 
BRANCH  11  12
ATOM     12  C   UNL     1      21.116   2.207 -17.726  1.00  0.00    -0.075 C 
ATOM     13  C   UNL     1      19.828   2.177 -18.133  1.00  0.00    -0.000 C 
ATOM     14  C   UNL     1      22.159   2.721 -18.686  1.00  0.00     0.039 C 
BRANCH  13  15
ATOM     15  C   UNL     1      18.692   1.659 -17.290  1.00  0.00     0.183 C 
BRANCH  15  16
ATOM     16  O   UNL     1      18.167   2.703 -16.519  1.00  0.00    -0.392 OA
ATOM     17  H   UNL     1      17.297   2.378 -16.171  1.00  0.00     0.210 HD
ENDBRANCH  15  16
ENDBRANCH  13  15
ENDBRANCH  11  12
ENDBRANCH   1  11
TORSDOF 8
ENDMDL
MODEL 3
REMARK VINA RESULT:    -5.931      4.790     10.611
REMARK INTER + INTRA:          -9.365
REMARK INTER:                  -8.797
REMARK INTRA:                  -0.568
REMARK UNBOUND:                -0.834
REMARK SMILES CC(C)=CCCC(C)=CCCC(C)=CCO
REMARK SMILES IDX 10 1 9 2 7 3 8 4 6 5 5 6 4 7 1 8 2 9 3 10 11 11 12 12 14 13
REMARK SMILES IDX 13 14 15 15 16 16
REMARK H PARENT 16 17
REMARK Flexibility Score: inf
ROOT
ATOM      1  C   UNL     1      25.114   2.747 -26.687  1.00  0.00     0.032 C 
ENDROOT
BRANCH   1   2
ATOM      2  C   UNL     1      26.354   3.144 -27.451  1.00  0.00    -0.028 C 
ATOM      3  C   UNL     1      27.391   3.834 -26.927  1.00  0.00    -0.077 C 
ATOM      4  C   UNL     1      27.374   4.347 -25.506  1.00  0.00     0.039 C 
BRANCH   3   5
ATOM      5  C   UNL     1      28.603   4.102 -27.794  1.00  0.00     0.034 C 
BRANCH   5   6
ATOM      6  C   UNL     1      29.898   3.774 -27.044  1.00  0.00     0.032 C 
BRANCH   6   7
ATOM      7  C   UNL     1      30.814   4.972 -27.007  1.00  0.00    -0.028 C 
ATOM      8  C   UNL     1      32.054   6.840 -25.959  1.00  0.00     0.039 C 
ATOM      9  C   UNL     1      31.149   5.639 -25.879  1.00  0.00    -0.080 C 
ATOM     10  C   UNL     1      30.684   5.191 -24.515  1.00  0.00     0.039 C 
ENDBRANCH   6   7
ENDBRANCH   5   6
ENDBRANCH   3   5
ENDBRANCH   1   2
BRANCH   1  11
ATOM     11  C   UNL     1      24.689   1.304 -26.996  1.00  0.00     0.034 C 
BRANCH  11  12
ATOM     12  C   UNL     1      23.805   0.725 -25.903  1.00  0.00    -0.075 C 
ATOM     13  C   UNL     1      23.430  -0.572 -25.878  1.00  0.00    -0.000 C 
ATOM     14  C   UNL     1      23.340   1.628 -24.789  1.00  0.00     0.039 C 
BRANCH  13  15
ATOM     15  C   UNL     1      23.795  -1.574 -26.942  1.00  0.00     0.183 C 
BRANCH  15  16
ATOM     16  O   UNL     1      25.167  -1.848 -26.876  1.00  0.00    -0.392 OA
ATOM     17  H   UNL     1      25.611  -0.983 -26.680  1.00  0.00     0.210 HD
ENDBRANCH  15  16
ENDBRANCH  13  15
ENDBRANCH  11  12
ENDBRANCH   1  11
TORSDOF 8
ENDMDL
MODEL 4
REMARK VINA RESULT:    -5.893      3.609      4.766
REMARK INTER + INTRA:          -9.311
REMARK INTER:                  -8.383
REMARK INTRA:                  -0.928
REMARK UNBOUND:                -0.834
REMARK SMILES CC(C)=CCCC(C)=CCCC(C)=CCO
REMARK SMILES IDX 10 1 9 2 7 3 8 4 6 5 5 6 4 7 1 8 2 9 3 10 11 11 12 12 14 13
REMARK SMILES IDX 13 14 15 15 16 16
REMARK H PARENT 16 17
REMARK Flexibility Score: inf
ROOT
ATOM      1  C   UNL     1      23.053  -1.714 -23.915  1.00  0.00     0.032 C 
ENDROOT
BRANCH   1   2
ATOM      2  C   UNL     1      22.310  -2.649 -24.839  1.00  0.00    -0.028 C 
ATOM      3  C   UNL     1      22.507  -2.727 -26.174  1.00  0.00    -0.077 C 
ATOM      4  C   UNL     1      23.470  -1.812 -26.895  1.00  0.00     0.039 C 
BRANCH   3   5
ATOM      5  C   UNL     1      21.738  -3.761 -26.967  1.00  0.00     0.034 C 
BRANCH   5   6
ATOM      6  C   UNL     1      20.531  -3.129 -27.669  1.00  0.00     0.032 C 
BRANCH   6   7
ATOM      7  C   UNL     1      19.401  -4.121 -27.790  1.00  0.00    -0.028 C 
ATOM      8  C   UNL     1      17.360  -5.324 -27.075  1.00  0.00     0.039 C 
ATOM      9  C   UNL     1      18.430  -4.285 -26.863  1.00  0.00    -0.080 C 
ATOM     10  C   UNL     1      18.346  -3.421 -25.629  1.00  0.00     0.039 C 
ENDBRANCH   6   7
ENDBRANCH   5   6
ENDBRANCH   3   5
ENDBRANCH   1   2
BRANCH   1  11
ATOM     11  C   UNL     1      23.104  -2.253 -22.478  1.00  0.00     0.034 C 
BRANCH  11  12
ATOM     12  C   UNL     1      23.982  -3.489 -22.365  1.00  0.00    -0.075 C 
ATOM     13  C   UNL     1      23.484  -4.716 -22.099  1.00  0.00    -0.000 C 
ATOM     14  C   UNL     1      25.468  -3.348 -22.576  1.00  0.00     0.039 C 
BRANCH  13  15
ATOM     15  C   UNL     1      22.028  -4.995 -21.836  1.00  0.00     0.183 C 
BRANCH  15  16
ATOM     16  O   UNL     1      21.741  -6.328 -22.155  1.00  0.00    -0.392 OA
ATOM     17  H   UNL     1      22.341  -6.566 -22.908  1.00  0.00     0.210 HD
ENDBRANCH  15  16
ENDBRANCH  13  15
ENDBRANCH  11  12
ENDBRANCH   1  11
TORSDOF 8
ENDMDL
MODEL 5
REMARK VINA RESULT:    -5.875      6.362     10.132
REMARK INTER + INTRA:          -9.284
REMARK INTER:                  -8.306
REMARK INTRA:                  -0.978
REMARK UNBOUND:                -0.834
REMARK SMILES CC(C)=CCCC(C)=CCCC(C)=CCO
REMARK SMILES IDX 10 1 9 2 7 3 8 4 6 5 5 6 4 7 1 8 2 9 3 10 11 11 12 12 14 13
REMARK SMILES IDX 13 14 15 15 16 16
REMARK H PARENT 16 17
REMARK Flexibility Score: inf
ROOT
ATOM      1  C   UNL     1      25.689   3.006 -24.086  1.00  0.00     0.032 C 
ENDROOT
BRANCH   1   2
ATOM      2  C   UNL     1      26.451   3.605 -25.244  1.00  0.00    -0.028 C 
ATOM      3  C   UNL     1      26.244   3.293 -26.543  1.00  0.00    -0.077 C 
ATOM      4  C   UNL     1      25.249   2.236 -26.963  1.00  0.00     0.039 C 
BRANCH   3   5
ATOM      5  C   UNL     1      27.036   4.025 -27.605  1.00  0.00     0.034 C 
BRANCH   5   6
ATOM      6  C   UNL     1      28.419   3.392 -27.792  1.00  0.00     0.032 C 
BRANCH   6   7
ATOM      7  C   UNL     1      29.473   4.454 -27.986  1.00  0.00    -0.028 C 
ATOM      8  C   UNL     1      31.210   6.072 -27.286  1.00  0.00     0.039 C 
ATOM      9  C   UNL     1      30.198   4.998 -26.982  1.00  0.00    -0.080 C 
ATOM     10  C   UNL     1      30.068   4.530 -25.553  1.00  0.00     0.039 C 
ENDBRANCH   6   7
ENDBRANCH   5   6
ENDBRANCH   3   5
ENDBRANCH   1   2
BRANCH   1  11
ATOM     11  C   UNL     1      24.611   3.964 -23.556  1.00  0.00     0.034 C 
BRANCH  11  12
ATOM     12  C   UNL     1      23.312   3.240 -23.243  1.00  0.00    -0.075 C 
ATOM     13  C   UNL     1      22.539   3.553 -22.180  1.00  0.00    -0.000 C 
ATOM     14  C   UNL     1      22.852   2.139 -24.165  1.00  0.00     0.039 C 
BRANCH  13  15
ATOM     15  C   UNL     1      22.894   4.605 -21.163  1.00  0.00     0.183 C 
BRANCH  15  16
ATOM     16  O   UNL     1      22.203   5.788 -21.453  1.00  0.00    -0.392 OA
ATOM     17  H   UNL     1      21.244   5.540 -21.507  1.00  0.00     0.210 HD
ENDBRANCH  15  16
ENDBRANCH  13  15
ENDBRANCH  11  12
ENDBRANCH   1  11
TORSDOF 8
ENDMDL
MODEL 6
REMARK VINA RESULT:    -5.854      3.553      7.220
REMARK INTER + INTRA:          -9.254
REMARK INTER:                  -8.281
REMARK INTRA:                  -0.973
REMARK UNBOUND:                -0.834
REMARK SMILES CC(C)=CCCC(C)=CCCC(C)=CCO
REMARK SMILES IDX 10 1 9 2 7 3 8 4 6 5 5 6 4 7 1 8 2 9 3 10 11 11 12 12 14 13
REMARK SMILES IDX 13 14 15 15 16 16
REMARK H PARENT 16 17
REMARK Flexibility Score: inf
ROOT
ATOM      1  C   UNL     1      20.183  -4.101 -24.742  1.00  0.00     0.032 C 
ENDROOT
BRANCH   1   2
ATOM      2  C   UNL     1      21.527  -3.507 -24.397  1.00  0.00    -0.028 C 
ATOM      3  C   UNL     1      22.186  -3.720 -23.235  1.00  0.00    -0.077 C 
ATOM      4  C   UNL     1      21.589  -4.543 -22.117  1.00  0.00     0.039 C 
BRANCH   3   5
ATOM      5  C   UNL     1      23.560  -3.114 -23.053  1.00  0.00     0.034 C 
BRANCH   5   6
ATOM      6  C   UNL     1      24.323  -3.075 -24.382  1.00  0.00     0.032 C 
BRANCH   6   7
ATOM      7  C   UNL     1      24.650  -1.655 -24.771  1.00  0.00    -0.028 C 
ATOM      8  C   UNL     1      24.706   0.331 -26.247  1.00  0.00     0.039 C 
ATOM      9  C   UNL     1      24.306  -1.091 -25.951  1.00  0.00    -0.080 C 
ATOM     10  C   UNL     1      23.481  -1.825 -26.979  1.00  0.00     0.039 C 
ENDBRANCH   6   7
ENDBRANCH   5   6
ENDBRANCH   3   5
ENDBRANCH   1   2
BRANCH   1  11
ATOM     11  C   UNL     1      20.233  -4.905 -26.051  1.00  0.00     0.034 C 
BRANCH  11  12
ATOM     12  C   UNL     1      19.486  -4.207 -27.175  1.00  0.00    -0.075 C 
ATOM     13  C   UNL     1      18.162  -4.375 -27.388  1.00  0.00    -0.000 C 
ATOM     14  C   UNL     1      20.244  -3.271 -28.082  1.00  0.00     0.039 C 
BRANCH  13  15
ATOM     15  C   UNL     1      17.292  -5.302 -26.580  1.00  0.00     0.183 C 
BRANCH  15  16
ATOM     16  O   UNL     1      16.619  -6.179 -27.440  1.00  0.00    -0.392 OA
ATOM     17  H   UNL     1      16.943  -5.972 -28.354  1.00  0.00     0.210 HD
ENDBRANCH  15  16
ENDBRANCH  13  15
ENDBRANCH  11  12
ENDBRANCH   1  11
TORSDOF 8
ENDMDL
MODEL 7
REMARK VINA RESULT:    -5.849      8.127     10.135
REMARK INTER + INTRA:          -9.247
REMARK INTER:                  -8.563
REMARK INTRA:                  -0.684
REMARK UNBOUND:                -0.834
REMARK SMILES CC(C)=CCCC(C)=CCCC(C)=CCO
REMARK SMILES IDX 10 1 9 2 7 3 8 4 6 5 5 6 4 7 1 8 2 9 3 10 11 11 12 12 14 13
REMARK SMILES IDX 13 14 15 15 16 16
REMARK H PARENT 16 17
REMARK Flexibility Score: inf
ROOT
ATOM      1  C   UNL     1      21.519   1.350 -19.138  1.00  0.00     0.032 C 
ENDROOT
BRANCH   1   2
ATOM      2  C   UNL     1      20.490   1.519 -18.046  1.00  0.00    -0.028 C 
ATOM      3  C   UNL     1      20.779   1.768 -16.749  1.00  0.00    -0.077 C 
ATOM      4  C   UNL     1      22.203   1.832 -16.246  1.00  0.00     0.039 C 
BRANCH   3   5
ATOM      5  C   UNL     1      19.641   1.984 -15.775  1.00  0.00     0.034 C 
BRANCH   5   6
ATOM      6  C   UNL     1      19.084   0.647 -15.276  1.00  0.00     0.032 C 
BRANCH   6   7
ATOM      7  C   UNL     1      17.606   0.754 -14.993  1.00  0.00    -0.028 C 
ATOM      8  C   UNL     1      15.193   0.794 -15.543  1.00  0.00     0.039 C 
ATOM      9  C   UNL     1      16.641   0.646 -15.934  1.00  0.00    -0.080 C 
ATOM     10  C   UNL     1      16.958   0.326 -17.374  1.00  0.00     0.039 C 
ENDBRANCH   6   7
ENDBRANCH   5   6
ENDBRANCH   3   5
ENDBRANCH   1   2
BRANCH   1  11
ATOM     11  C   UNL     1      20.909   1.548 -20.534  1.00  0.00     0.034 C 
BRANCH  11  12
ATOM     12  C   UNL     1      20.010   2.772 -20.592  1.00  0.00    -0.075 C 
ATOM     13  C   UNL     1      20.491   4.024 -20.763  1.00  0.00    -0.000 C 
ATOM     14  C   UNL     1      18.519   2.587 -20.475  1.00  0.00     0.039 C 
BRANCH  13  15
ATOM     15  C   UNL     1      21.957   4.355 -20.862  1.00  0.00     0.183 C 
BRANCH  15  16
ATOM     16  O   UNL     1      22.109   5.671 -21.317  1.00  0.00    -0.392 OA
ATOM     17  H   UNL     1      22.843   6.065 -20.780  1.00  0.00     0.210 HD
ENDBRANCH  15  16
ENDBRANCH  13  15
ENDBRANCH  11  12
ENDBRANCH   1  11
TORSDOF 8
ENDMDL
MODEL 8
REMARK VINA RESULT:    -5.845      5.178      8.512
REMARK INTER + INTRA:          -9.241
REMARK INTER:                  -8.250
REMARK INTRA:                  -0.991
REMARK UNBOUND:                -0.834
REMARK SMILES CC(C)=CCCC(C)=CCCC(C)=CCO
REMARK SMILES IDX 10 1 9 2 7 3 8 4 6 5 5 6 4 7 1 8 2 9 3 10 11 11 12 12 14 13
REMARK SMILES IDX 13 14 15 15 16 16
REMARK H PARENT 16 17
REMARK Flexibility Score: inf
ROOT
ATOM      1  C   UNL     1      28.344   4.236 -24.959  1.00  0.00     0.032 C 
ENDROOT
BRANCH   1   2
ATOM      2  C   UNL     1      27.002   3.698 -24.526  1.00  0.00    -0.028 C 
ATOM      3  C   UNL     1      26.310   4.135 -23.450  1.00  0.00    -0.077 C 
ATOM      4  C   UNL     1      26.864   5.185 -22.515  1.00  0.00     0.039 C 
BRANCH   3   5
ATOM      5  C   UNL     1      24.941   3.550 -23.175  1.00  0.00     0.034 C 
BRANCH   5   6
ATOM      6  C   UNL     1      24.088   3.529 -24.447  1.00  0.00     0.032 C 
BRANCH   6   7
ATOM      7  C   UNL     1      23.725   2.115 -24.826  1.00  0.00    -0.028 C 
ATOM      8  C   UNL     1      23.634   0.114 -26.281  1.00  0.00     0.039 C 
ATOM      9  C   UNL     1      24.071   1.527 -25.994  1.00  0.00    -0.080 C 
ATOM     10  C   UNL     1      24.934   2.224 -27.017  1.00  0.00     0.039 C 
ENDBRANCH   6   7
ENDBRANCH   5   6
ENDBRANCH   3   5
ENDBRANCH   1   2
BRANCH   1  11
ATOM     11  C   UNL     1      28.227   5.134 -26.201  1.00  0.00     0.034 C 
BRANCH  11  12
ATOM     12  C   UNL     1      28.876   4.503 -27.421  1.00  0.00    -0.075 C 
ATOM     13  C   UNL     1      30.120   4.829 -27.836  1.00  0.00    -0.000 C 
ATOM     14  C   UNL     1      28.114   3.457 -28.193  1.00  0.00     0.039 C 
BRANCH  13  15
ATOM     15  C   UNL     1      30.979   5.878 -27.180  1.00  0.00     0.183 C 
BRANCH  15  16
ATOM     16  O   UNL     1      31.633   6.629 -28.164  1.00  0.00    -0.392 OA
ATOM     17  H   UNL     1      31.600   7.572 -27.857  1.00  0.00     0.210 HD
ENDBRANCH  15  16
ENDBRANCH  13  15
ENDBRANCH  11  12
ENDBRANCH   1  11
TORSDOF 8
ENDMDL
MODEL 9
REMARK VINA RESULT:    -5.781      9.455     11.210
REMARK INTER + INTRA:          -9.149
REMARK INTER:                  -8.278
REMARK INTRA:                  -0.871
REMARK UNBOUND:                -0.834
REMARK SMILES CC(C)=CCCC(C)=CCCC(C)=CCO
REMARK SMILES IDX 10 1 9 2 7 3 8 4 6 5 5 6 4 7 1 8 2 9 3 10 11 11 12 12 14 13
REMARK SMILES IDX 13 14 15 15 16 16
REMARK H PARENT 16 17
REMARK Flexibility Score: inf
ROOT
ATOM      1  C   UNL     1      24.178   0.769 -15.961  1.00  0.00     0.032 C 
ENDROOT
BRANCH   1   2
ATOM      2  C   UNL     1      22.733   1.132 -16.206  1.00  0.00    -0.028 C 
ATOM      3  C   UNL     1      22.291   1.857 -17.257  1.00  0.00    -0.077 C 
ATOM      4  C   UNL     1      23.237   2.445 -18.278  1.00  0.00     0.039 C 
BRANCH   3   5
ATOM      5  C   UNL     1      20.803   2.086 -17.412  1.00  0.00     0.034 C 
BRANCH   5   6
ATOM      6  C   UNL     1      20.090   2.003 -16.058  1.00  0.00     0.032 C 
BRANCH   6   7
ATOM      7  C   UNL     1      18.611   1.773 -16.244  1.00  0.00    -0.028 C 
ATOM      8  C   UNL     1      16.382   0.836 -15.714  1.00  0.00     0.039 C 
ATOM      9  C   UNL     1      17.849   1.018 -15.421  1.00  0.00    -0.080 C 
ATOM     10  C   UNL     1      18.407   0.381 -14.171  1.00  0.00     0.039 C 
ENDBRANCH   6   7
ENDBRANCH   5   6
ENDBRANCH   3   5
ENDBRANCH   1   2
BRANCH   1  11
ATOM     11  C   UNL     1      24.391  -0.753 -15.954  1.00  0.00     0.034 C 
BRANCH  11  12
ATOM     12  C   UNL     1      25.026  -1.244 -17.245  1.00  0.00    -0.075 C 
ATOM     13  C   UNL     1      26.353  -1.463 -17.369  1.00  0.00    -0.000 C 
ATOM     14  C   UNL     1      24.140  -1.517 -18.434  1.00  0.00     0.039 C 
BRANCH  13  15
ATOM     15  C   UNL     1      27.355  -1.202 -16.275  1.00  0.00     0.183 C 
BRANCH  15  16
ATOM     16  O   UNL     1      28.483  -2.008 -16.471  1.00  0.00    -0.392 OA
ATOM     17  H   UNL     1      28.196  -2.936 -16.269  1.00  0.00     0.210 HD
ENDBRANCH  15  16
ENDBRANCH  13  15
ENDBRANCH  11  12
ENDBRANCH   1  11
TORSDOF 8
ENDMDL
