MODEL 1
REMARK VINA RESULT:     4.255      0.000      0.000
REMARK INTER + INTRA:           5.735
REMARK INTER:                   5.747
REMARK INTRA:                  -0.012
REMARK UNBOUND:                -0.012
REMARK SMILES O=c1c(-c2ccc(O)cc2)coc2c([C@@H]3O[C@H](CO)[C@@H](O)[C@H](O)[C@@H]3O)c(O)ccc12
REMARK SMILES IDX 3 1 11 2 12 3 13 4 30 5 2 6 1 7 29 8 28 9 26 10 14 11 4 12
REMARK SMILES IDX 5 13 6 14 7 15 10 16 9 17 8 18 15 20 24 21 16 22 22 23 17 24
REMARK SMILES IDX 20 25 25 26 23 28 18 30 19 31 21 33 27 35
REMARK H PARENT 8 19 25 27 23 29 19 32 21 34 27 36
REMARK Flexibility Score: inf
ROOT
ATOM      1  C   UNL     1      88.739  27.347  63.340  1.00  0.00     0.065 A 
ATOM      2  C   UNL     1      88.506  28.591  62.740  1.00  0.00     0.208 A 
ATOM      3  O   UNL     1      88.416  29.695  63.473  1.00  0.00    -0.463 OA
ATOM      4  C   UNL     1      88.538  29.702  64.798  1.00  0.00     0.147 A 
ATOM      5  C   UNL     1      88.774  28.489  65.485  1.00  0.00     0.066 A 
ATOM      6  C   UNL     1      88.882  27.301  64.739  1.00  0.00     0.200 A 
ATOM      7  O   UNL     1      89.125  26.206  65.317  1.00  0.00    -0.288 OA
ATOM      8  C   UNL     1      88.891  28.496  66.883  1.00  0.00     0.020 A 
ATOM      9  C   UNL     1      88.760  29.687  67.592  1.00  0.00     0.047 A 
ATOM     10  C   UNL     1      88.521  30.895  66.924  1.00  0.00     0.125 A 
ATOM     11  C   UNL     1      88.431  30.920  65.510  1.00  0.00     0.069 A 
ENDROOT
BRANCH   1  12
ATOM     12  C   UNL     1      88.829  26.126  62.500  1.00  0.00    -0.011 A 
ATOM     13  C   UNL     1      88.734  24.853  63.088  1.00  0.00     0.013 A 
ATOM     14  C   UNL     1      88.827  23.700  62.302  1.00  0.00     0.047 A 
ATOM     15  C   UNL     1      89.022  23.807  60.918  1.00  0.00     0.115 A 
ATOM     16  C   UNL     1      89.032  26.223  61.112  1.00  0.00     0.013 A 
ATOM     17  C   UNL     1      89.125  25.070  60.328  1.00  0.00     0.047 A 
BRANCH  15  18
ATOM     18  O   UNL     1      89.116  22.666  60.125  1.00  0.00    -0.508 OA
ATOM     19  H   UNL     1      88.292  22.216  59.743  1.00  0.00     0.293 HD
ENDBRANCH  15  18
ENDBRANCH   1  12
BRANCH  11  20
ATOM     20  C   UNL     1      88.146  32.211  64.751  1.00  0.00     0.188 C 
ATOM     21  C   UNL     1      86.643  32.314  64.392  1.00  0.00     0.179 C 
ATOM     22  O   UNL     1      88.570  33.339  65.502  1.00  0.00    -0.362 OA
ATOM     23  C   UNL     1      86.377  33.632  63.632  1.00  0.00     0.177 C 
ATOM     24  C   UNL     1      88.485  34.527  64.728  1.00  0.00     0.176 C 
ATOM     25  C   UNL     1      87.010  34.840  64.360  1.00  0.00     0.177 C 
BRANCH  21  26
ATOM     26  O   UNL     1      85.825  32.191  65.532  1.00  0.00    -0.387 OA
ATOM     27  H   UNL     1      85.397  33.068  65.700  1.00  0.00     0.211 HD
ENDBRANCH  21  26
BRANCH  23  28
ATOM     28  O   UNL     1      85.002  33.825  63.409  1.00  0.00    -0.387 OA
ATOM     29  H   UNL     1      84.577  34.034  64.281  1.00  0.00     0.211 HD
ENDBRANCH  23  28
BRANCH  24  30
ATOM     30  C   UNL     1      89.121  35.678  65.524  1.00  0.00     0.191 C 
BRANCH  30  31
ATOM     31  O   UNL     1      88.903  35.524  66.902  1.00  0.00    -0.394 OA
ATOM     32  H   UNL     1      87.955  35.769  67.071  1.00  0.00     0.210 HD
ENDBRANCH  30  31
ENDBRANCH  24  30
BRANCH  25  33
ATOM     33  O   UNL     1      86.917  35.997  63.564  1.00  0.00    -0.388 OA
ATOM     34  H   UNL     1      87.221  35.760  62.649  1.00  0.00     0.211 HD
ENDBRANCH  25  33
ENDBRANCH  11  20
BRANCH  10  35
ATOM     35  O   UNL     1      88.370  32.064  67.670  1.00  0.00    -0.507 OA
ATOM     36  H   UNL     1      89.151  32.682  67.859  1.00  0.00     0.293 HD
ENDBRANCH  10  35
TORSDOF 9
ENDMDL
MODEL 2
REMARK VINA RESULT:     6.297      1.040      1.411
REMARK INTER + INTRA:           8.495
REMARK INTER:                   8.298
REMARK INTRA:                   0.196
REMARK UNBOUND:                -0.012
REMARK SMILES O=c1c(-c2ccc(O)cc2)coc2c([C@@H]3O[C@H](CO)[C@@H](O)[C@H](O)[C@@H]3O)c(O)ccc12
REMARK SMILES IDX 3 1 11 2 12 3 13 4 30 5 2 6 1 7 29 8 28 9 26 10 14 11 4 12
REMARK SMILES IDX 5 13 6 14 7 15 10 16 9 17 8 18 15 20 24 21 16 22 22 23 17 24
REMARK SMILES IDX 20 25 25 26 23 28 18 30 19 31 21 33 27 35
REMARK H PARENT 8 19 25 27 23 29 19 32 21 34 27 36
REMARK Flexibility Score: inf
ROOT
ATOM      1  C   UNL     1      88.670  26.762  62.736  1.00  0.00     0.065 A 
ATOM      2  C   UNL     1      88.464  28.097  62.364  1.00  0.00     0.208 A 
ATOM      3  O   UNL     1      88.476  29.067  63.270  1.00  0.00    -0.463 OA
ATOM      4  C   UNL     1      88.681  28.850  64.567  1.00  0.00     0.147 A 
ATOM      5  C   UNL     1      88.898  27.531  65.030  1.00  0.00     0.066 A 
ATOM      6  C   UNL     1      88.898  26.480  64.095  1.00  0.00     0.200 A 
ATOM      7  O   UNL     1      89.121  25.295  64.469  1.00  0.00    -0.288 OA
ATOM      8  C   UNL     1      89.102  27.302  66.399  1.00  0.00     0.020 A 
ATOM      9  C   UNL     1      89.077  28.364  67.299  1.00  0.00     0.047 A 
ATOM     10  C   UNL     1      88.859  29.674  66.855  1.00  0.00     0.125 A 
ATOM     11  C   UNL     1      88.682  29.936  65.473  1.00  0.00     0.069 A 
ENDROOT
BRANCH   1  12
ATOM     12  C   UNL     1      88.644  25.694  61.705  1.00  0.00    -0.011 A 
ATOM     13  C   UNL     1      88.121  25.955  60.427  1.00  0.00     0.013 A 
ATOM     14  C   UNL     1      88.088  24.949  59.456  1.00  0.00     0.047 A 
ATOM     15  C   UNL     1      88.572  23.668  59.753  1.00  0.00     0.115 A 
ATOM     16  C   UNL     1      89.121  24.403  61.997  1.00  0.00     0.013 A 
ATOM     17  C   UNL     1      89.086  23.399  61.025  1.00  0.00     0.047 A 
BRANCH  15  18
ATOM     18  O   UNL     1      88.544  22.658  58.794  1.00  0.00    -0.508 OA
ATOM     19  H   UNL     1      87.669  22.285  58.443  1.00  0.00     0.293 HD
ENDBRANCH  15  18
ENDBRANCH   1  12
BRANCH  11  20
ATOM     20  C   UNL     1      88.416  31.346  64.956  1.00  0.00     0.188 C 
ATOM     21  C   UNL     1      86.958  31.477  64.451  1.00  0.00     0.179 C 
ATOM     22  O   UNL     1      88.697  32.311  65.958  1.00  0.00    -0.362 OA
ATOM     23  C   UNL     1      86.710  32.913  63.940  1.00  0.00     0.177 C 
ATOM     24  C   UNL     1      88.637  33.627  65.430  1.00  0.00     0.176 C 
ATOM     25  C   UNL     1      87.197  33.967  64.960  1.00  0.00     0.177 C 
BRANCH  21  26
ATOM     26  O   UNL     1      86.027  31.103  65.440  1.00  0.00    -0.387 OA
ATOM     27  H   UNL     1      86.181  31.671  66.237  1.00  0.00     0.211 HD
ENDBRANCH  21  26
BRANCH  23  28
ATOM     28  O   UNL     1      85.359  33.109  63.600  1.00  0.00    -0.387 OA
ATOM     29  H   UNL     1      84.830  33.115  64.440  1.00  0.00     0.211 HD
ENDBRANCH  23  28
BRANCH  24  30
ATOM     30  C   UNL     1      89.124  34.611  66.506  1.00  0.00     0.191 C 
BRANCH  30  31
ATOM     31  O   UNL     1      89.079  34.031  67.782  1.00  0.00    -0.394 OA
ATOM     32  H   UNL     1      89.999  33.717  67.987  1.00  0.00     0.210 HD
ENDBRANCH  30  31
ENDBRANCH  24  30
BRANCH  25  33
ATOM     33  O   UNL     1      87.133  35.257  64.403  1.00  0.00    -0.388 OA
ATOM     34  H   UNL     1      87.269  35.911  65.137  1.00  0.00     0.211 HD
ENDBRANCH  25  33
ENDBRANCH  11  20
BRANCH  10  35
ATOM     35  O   UNL     1      88.815  30.709  67.788  1.00  0.00    -0.507 OA
ATOM     36  H   UNL     1      89.648  31.032  68.268  1.00  0.00     0.293 HD
ENDBRANCH  10  35
TORSDOF 9
ENDMDL
MODEL 3
REMARK VINA RESULT:     6.766     14.752     18.309
REMARK INTER + INTRA:           9.127
REMARK INTER:                   9.159
REMARK INTRA:                  -0.032
REMARK UNBOUND:                -0.012
REMARK SMILES O=c1c(-c2ccc(O)cc2)coc2c([C@@H]3O[C@H](CO)[C@@H](O)[C@H](O)[C@@H]3O)c(O)ccc12
REMARK SMILES IDX 3 1 11 2 12 3 13 4 30 5 2 6 1 7 29 8 28 9 26 10 14 11 4 12
REMARK SMILES IDX 5 13 6 14 7 15 10 16 9 17 8 18 15 20 24 21 16 22 22 23 17 24
REMARK SMILES IDX 20 25 25 26 23 28 18 30 19 31 21 33 27 35
REMARK H PARENT 8 19 25 27 23 29 19 32 21 34 27 36
REMARK Flexibility Score: inf
ROOT
ATOM      1  C   UNL     1      74.889  34.903  53.360  1.00  0.00     0.065 A 
ATOM      2  C   UNL     1      76.199  34.517  53.673  1.00  0.00     0.208 A 
ATOM      3  O   UNL     1      77.177  34.640  52.784  1.00  0.00    -0.463 OA
ATOM      4  C   UNL     1      76.992  35.129  51.560  1.00  0.00     0.147 A 
ATOM      5  C   UNL     1      75.700  35.543  51.160  1.00  0.00     0.066 A 
ATOM      6  C   UNL     1      74.642  35.433  52.080  1.00  0.00     0.200 A 
ATOM      7  O   UNL     1      73.483  35.824  51.767  1.00  0.00    -0.288 OA
ATOM      8  C   UNL     1      75.504  36.047  49.866  1.00  0.00     0.020 A 
ATOM      9  C   UNL     1      76.571  36.125  48.974  1.00  0.00     0.047 A 
ATOM     10  C   UNL     1      77.854  35.714  49.356  1.00  0.00     0.125 A 
ATOM     11  C   UNL     1      78.085  35.230  50.668  1.00  0.00     0.069 A 
ENDROOT
BRANCH   1  12
ATOM     12  C   UNL     1      73.810  34.750  54.369  1.00  0.00    -0.011 A 
ATOM     13  C   UNL     1      73.037  33.577  54.406  1.00  0.00     0.013 A 
ATOM     14  C   UNL     1      72.014  33.432  55.349  1.00  0.00     0.047 A 
ATOM     15  C   UNL     1      71.749  34.461  56.263  1.00  0.00     0.115 A 
ATOM     16  C   UNL     1      73.533  35.780  55.284  1.00  0.00     0.013 A 
ATOM     17  C   UNL     1      72.510  35.633  56.226  1.00  0.00     0.047 A 
BRANCH  15  18
ATOM     18  O   UNL     1      70.734  34.328  57.207  1.00  0.00    -0.508 OA
ATOM     19  H   UNL     1      70.357  35.131  57.697  1.00  0.00     0.293 HD
ENDBRANCH  15  18
ENDBRANCH   1  12
BRANCH  11  20
ATOM     20  C   UNL     1      79.463  34.749  51.111  1.00  0.00     0.188 C 
ATOM     21  C   UNL     1      80.127  35.786  52.051  1.00  0.00     0.179 C 
ATOM     22  O   UNL     1      79.374  33.477  51.735  1.00  0.00    -0.362 OA
ATOM     23  C   UNL     1      81.516  35.274  52.493  1.00  0.00     0.177 C 
ATOM     24  C   UNL     1      80.665  32.939  51.978  1.00  0.00     0.176 C 
ATOM     25  C   UNL     1      81.446  33.814  52.995  1.00  0.00     0.177 C 
BRANCH  21  26
ATOM     26  O   UNL     1      79.306  36.093  53.153  1.00  0.00    -0.387 OA
ATOM     27  H   UNL     1      78.961  35.243  53.526  1.00  0.00     0.211 HD
ENDBRANCH  21  26
BRANCH  23  28
ATOM     28  O   UNL     1      82.092  36.124  53.454  1.00  0.00    -0.387 OA
ATOM     29  H   UNL     1      81.460  36.871  53.620  1.00  0.00     0.211 HD
ENDBRANCH  23  28
BRANCH  24  30
ATOM     30  C   UNL     1      80.508  31.496  52.484  1.00  0.00     0.191 C 
BRANCH  30  31
ATOM     31  O   UNL     1      81.359  31.243  53.571  1.00  0.00    -0.394 OA
ATOM     32  H   UNL     1      80.782  31.177  54.377  1.00  0.00     0.210 HD
ENDBRANCH  30  31
ENDBRANCH  24  30
BRANCH  25  33
ATOM     33  O   UNL     1      82.739  33.308  53.217  1.00  0.00    -0.388 OA
ATOM     34  H   UNL     1      83.008  33.559  54.139  1.00  0.00     0.211 HD
ENDBRANCH  25  33
ENDBRANCH  11  20
BRANCH  10  35
ATOM     35  O   UNL     1      78.893  35.782  48.428  1.00  0.00    -0.507 OA
ATOM     36  H   UNL     1      78.824  36.348  47.590  1.00  0.00     0.293 HD
ENDBRANCH  10  35
TORSDOF 9
ENDMDL
MODEL 4
REMARK VINA RESULT:     7.113     15.144     18.642
REMARK INTER + INTRA:           9.596
REMARK INTER:                   9.031
REMARK INTRA:                   0.565
REMARK UNBOUND:                -0.012
REMARK SMILES O=c1c(-c2ccc(O)cc2)coc2c([C@@H]3O[C@H](CO)[C@@H](O)[C@H](O)[C@@H]3O)c(O)ccc12
REMARK SMILES IDX 3 1 11 2 12 3 13 4 30 5 2 6 1 7 29 8 28 9 26 10 14 11 4 12
REMARK SMILES IDX 5 13 6 14 7 15 10 16 9 17 8 18 15 20 24 21 16 22 22 23 17 24
REMARK SMILES IDX 20 25 25 26 23 28 18 30 19 31 21 33 27 35
REMARK H PARENT 8 19 25 27 23 29 19 32 21 34 27 36
REMARK Flexibility Score: inf
ROOT
ATOM      1  C   UNL     1      74.583  34.750  53.920  1.00  0.00     0.065 A 
ATOM      2  C   UNL     1      75.937  34.443  54.108  1.00  0.00     0.208 A 
ATOM      3  O   UNL     1      76.821  34.638  53.137  1.00  0.00    -0.463 OA
ATOM      4  C   UNL     1      76.496  35.128  51.943  1.00  0.00     0.147 A 
ATOM      5  C   UNL     1      75.151  35.465  51.668  1.00  0.00     0.066 A 
ATOM      6  C   UNL     1      74.189  35.278  52.677  1.00  0.00     0.200 A 
ATOM      7  O   UNL     1      72.985  35.600  52.476  1.00  0.00    -0.288 OA
ATOM      8  C   UNL     1      74.808  35.970  50.405  1.00  0.00     0.020 A 
ATOM      9  C   UNL     1      75.783  36.125  49.423  1.00  0.00     0.047 A 
ATOM     10  C   UNL     1      77.118  35.790  49.681  1.00  0.00     0.125 A 
ATOM     11  C   UNL     1      77.496  35.308  50.958  1.00  0.00     0.069 A 
ENDROOT
BRANCH   1  12
ATOM     12  C   UNL     1      73.612  34.518  55.019  1.00  0.00    -0.011 A 
ATOM     13  C   UNL     1      73.524  33.256  55.632  1.00  0.00     0.013 A 
ATOM     14  C   UNL     1      72.604  33.031  56.661  1.00  0.00     0.047 A 
ATOM     15  C   UNL     1      71.757  34.063  57.086  1.00  0.00     0.115 A 
ATOM     16  C   UNL     1      72.753  35.546  55.446  1.00  0.00     0.013 A 
ATOM     17  C   UNL     1      71.834  35.318  56.475  1.00  0.00     0.047 A 
BRANCH  15  18
ATOM     18  O   UNL     1      70.837  33.851  58.110  1.00  0.00    -0.508 OA
ATOM     19  H   UNL     1      70.108  33.152  58.031  1.00  0.00     0.293 HD
ENDBRANCH  15  18
ENDBRANCH   1  12
BRANCH  11  20
ATOM     20  C   UNL     1      78.935  34.909  51.268  1.00  0.00     0.188 C 
ATOM     21  C   UNL     1      78.972  33.722  52.262  1.00  0.00     0.179 C 
ATOM     22  O   UNL     1      79.638  34.596  50.074  1.00  0.00    -0.362 OA
ATOM     23  C   UNL     1      80.437  33.330  52.553  1.00  0.00     0.177 C 
ATOM     24  C   UNL     1      81.021  34.410  50.332  1.00  0.00     0.176 C 
ATOM     25  C   UNL     1      81.250  33.178  51.248  1.00  0.00     0.177 C 
BRANCH  21  26
ATOM     26  O   UNL     1      78.218  32.627  51.796  1.00  0.00    -0.387 OA
ATOM     27  H   UNL     1      77.289  32.935  51.645  1.00  0.00     0.211 HD
ENDBRANCH  21  26
BRANCH  23  28
ATOM     28  O   UNL     1      80.508  32.170  53.345  1.00  0.00    -0.387 OA
ATOM     29  H   UNL     1      80.272  32.420  54.276  1.00  0.00     0.211 HD
ENDBRANCH  23  28
BRANCH  24  30
ATOM     30  C   UNL     1      81.754  34.254  48.989  1.00  0.00     0.191 C 
BRANCH  30  31
ATOM     31  O   UNL     1      81.270  33.150  48.271  1.00  0.00    -0.394 OA
ATOM     32  H   UNL     1      80.601  33.499  47.626  1.00  0.00     0.210 HD
ENDBRANCH  30  31
ENDBRANCH  24  30
BRANCH  25  33
ATOM     33  O   UNL     1      82.616  33.004  51.538  1.00  0.00    -0.388 OA
ATOM     34  H   UNL     1      83.111  33.011  50.678  1.00  0.00     0.211 HD
ENDBRANCH  25  33
ENDBRANCH  11  20
BRANCH  10  35
ATOM     35  O   UNL     1      78.062  35.935  48.665  1.00  0.00    -0.507 OA
ATOM     36  H   UNL     1      78.564  35.140  48.285  1.00  0.00     0.293 HD
ENDBRANCH  10  35
TORSDOF 9
ENDMDL
