MODEL 1
REMARK VINA RESULT:    -5.408      0.000      0.000
REMARK INTER + INTRA:          -7.437
REMARK INTER:                  -6.831
REMARK INTRA:                  -0.606
REMARK UNBOUND:                -0.606
REMARK SMILES Oc1cc(O)cc(CCc2ccccc2O)c1
REMARK SMILES IDX 9 1 10 2 12 3 13 4 11 5 14 6 15 7 16 8 8 10 7 11 6 12 17 13
REMARK SMILES IDX 4 14 2 15 3 16 5 17 1 19
REMARK H PARENT 16 9 5 18 1 20
REMARK Flexibility Score: inf
ROOT
ATOM      1  C   UNL     1     -29.239 -54.396  52.346  1.00  0.00     0.044 C 
ENDROOT
BRANCH   1   2
ATOM      2  C   UNL     1     -29.148 -52.961  51.895  1.00  0.00    -0.006 A 
ATOM      3  C   UNL     1     -27.814 -50.954  51.559  1.00  0.00     0.001 A 
ATOM      4  C   UNL     1     -28.919 -50.308  50.999  1.00  0.00     0.004 A 
ATOM      5  C   UNL     1     -27.925 -52.275  52.000  1.00  0.00     0.007 A 
ATOM      6  C   UNL     1     -30.135 -50.983  50.875  1.00  0.00     0.046 A 
ATOM      7  C   UNL     1     -30.256 -52.310  51.315  1.00  0.00     0.118 A 
BRANCH   7   8
ATOM      8  O   UNL     1     -31.470 -52.983  51.175  1.00  0.00    -0.508 OA
ATOM      9  H   UNL     1     -32.327 -52.490  50.949  1.00  0.00     0.293 HD
ENDBRANCH   7   8
ENDBRANCH   1   2
BRANCH   1  10
ATOM     10  C   UNL     1     -29.576 -54.472  53.838  1.00  0.00     0.040 C 
BRANCH  10  11
ATOM     11  C   UNL     1     -28.345 -54.787  54.643  1.00  0.00    -0.040 A 
ATOM     12  C   UNL     1     -27.662 -53.764  55.322  1.00  0.00     0.050 A 
ATOM     13  C   UNL     1     -27.834 -56.095  54.676  1.00  0.00     0.050 A 
ATOM     14  C   UNL     1     -26.499 -54.047  56.045  1.00  0.00     0.119 A 
ATOM     15  C   UNL     1     -26.668 -56.382  55.399  1.00  0.00     0.119 A 
ATOM     16  C   UNL     1     -26.005 -55.358  56.083  1.00  0.00     0.092 A 
BRANCH  14  17
ATOM     17  O   UNL     1     -25.840 -53.021  56.716  1.00  0.00    -0.508 OA
ATOM     18  H   UNL     1     -26.087 -52.049  56.570  1.00  0.00     0.293 HD
ENDBRANCH  14  17
BRANCH  15  19
ATOM     19  O   UNL     1     -26.160 -57.678  55.441  1.00  0.00    -0.508 OA
ATOM     20  H   UNL     1     -26.525 -58.409  54.841  1.00  0.00     0.293 HD
ENDBRANCH  15  19
ENDBRANCH  10  11
ENDBRANCH   1  10
TORSDOF 6
ENDMDL
MODEL 2
REMARK VINA RESULT:    -5.400      1.992      5.829
REMARK INTER + INTRA:          -7.427
REMARK INTER:                  -6.815
REMARK INTRA:                  -0.612
REMARK UNBOUND:                -0.606
REMARK SMILES Oc1cc(O)cc(CCc2ccccc2O)c1
REMARK SMILES IDX 9 1 10 2 12 3 13 4 11 5 14 6 15 7 16 8 8 10 7 11 6 12 17 13
REMARK SMILES IDX 4 14 2 15 3 16 5 17 1 19
REMARK H PARENT 16 9 5 18 1 20
REMARK Flexibility Score: inf
ROOT
ATOM      1  C   UNL     1     -27.050 -53.024  52.279  1.00  0.00     0.044 C 
ENDROOT
BRANCH   1   2
ATOM      2  C   UNL     1     -26.647 -52.638  53.680  1.00  0.00    -0.006 A 
ATOM      3  C   UNL     1     -25.569 -51.063  55.187  1.00  0.00     0.001 A 
ATOM      4  C   UNL     1     -25.940 -51.849  56.281  1.00  0.00     0.004 A 
ATOM      5  C   UNL     1     -25.924 -51.452  53.894  1.00  0.00     0.007 A 
ATOM      6  C   UNL     1     -26.672 -53.022  56.083  1.00  0.00     0.046 A 
ATOM      7  C   UNL     1     -27.034 -53.420  54.787  1.00  0.00     0.118 A 
BRANCH   7   8
ATOM      8  O   UNL     1     -27.777 -54.586  54.599  1.00  0.00    -0.508 OA
ATOM      9  H   UNL     1     -27.460 -55.480  54.954  1.00  0.00     0.293 HD
ENDBRANCH   7   8
ENDBRANCH   1   2
BRANCH   1  10
ATOM     10  C   UNL     1     -27.559 -51.803  51.508  1.00  0.00     0.040 C 
BRANCH  10  11
ATOM     11  C   UNL     1     -29.063 -51.779  51.487  1.00  0.00    -0.040 A 
ATOM     12  C   UNL     1     -29.747 -50.592  51.180  1.00  0.00     0.050 A 
ATOM     13  C   UNL     1     -29.795 -52.927  51.832  1.00  0.00     0.050 A 
ATOM     14  C   UNL     1     -31.146 -50.557  51.192  1.00  0.00     0.119 A 
ATOM     15  C   UNL     1     -31.197 -52.895  51.845  1.00  0.00     0.119 A 
ATOM     16  C   UNL     1     -31.868 -51.712  51.523  1.00  0.00     0.092 A 
BRANCH  14  17
ATOM     17  O   UNL     1     -31.806 -49.372  50.878  1.00  0.00    -0.508 OA
ATOM     18  H   UNL     1     -32.431 -49.310  50.082  1.00  0.00     0.293 HD
ENDBRANCH  14  17
BRANCH  15  19
ATOM     19  O   UNL     1     -31.929 -54.032  52.180  1.00  0.00    -0.508 OA
ATOM     20  H   UNL     1     -32.691 -54.361  51.598  1.00  0.00     0.293 HD
ENDBRANCH  15  19
ENDBRANCH  10  11
ENDBRANCH   1  10
TORSDOF 6
ENDMDL
MODEL 3
REMARK VINA RESULT:    -5.356      0.115      2.036
REMARK INTER + INTRA:          -7.371
REMARK INTER:                  -6.777
REMARK INTRA:                  -0.595
REMARK UNBOUND:                -0.606
REMARK SMILES Oc1cc(O)cc(CCc2ccccc2O)c1
REMARK SMILES IDX 9 1 10 2 12 3 13 4 11 5 14 6 15 7 16 8 8 10 7 11 6 12 17 13
REMARK SMILES IDX 4 14 2 15 3 16 5 17 1 19
REMARK H PARENT 16 9 5 18 1 20
REMARK Flexibility Score: inf
ROOT
ATOM      1  C   UNL     1     -29.264 -54.408  52.269  1.00  0.00     0.044 C 
ENDROOT
BRANCH   1   2
ATOM      2  C   UNL     1     -29.127 -52.967  51.849  1.00  0.00    -0.006 A 
ATOM      3  C   UNL     1     -27.730 -50.998  51.553  1.00  0.00     0.001 A 
ATOM      4  C   UNL     1     -28.815 -50.304  51.010  1.00  0.00     0.004 A 
ATOM      5  C   UNL     1     -27.883 -52.323  51.966  1.00  0.00     0.007 A 
ATOM      6  C   UNL     1     -30.053 -50.937  50.875  1.00  0.00     0.046 A 
ATOM      7  C   UNL     1     -30.215 -52.269  51.286  1.00  0.00     0.118 A 
BRANCH   7   8
ATOM      8  O   UNL     1     -31.451 -52.899  51.135  1.00  0.00    -0.508 OA
ATOM      9  H   UNL     1     -31.596 -53.859  51.426  1.00  0.00     0.293 HD
ENDBRANCH   7   8
ENDBRANCH   1   2
BRANCH   1  10
ATOM     10  C   UNL     1     -29.592 -54.506  53.762  1.00  0.00     0.040 C 
BRANCH  10  11
ATOM     11  C   UNL     1     -28.346 -54.764  54.563  1.00  0.00    -0.040 A 
ATOM     12  C   UNL     1     -27.780 -56.050  54.595  1.00  0.00     0.050 A 
ATOM     13  C   UNL     1     -27.771 -53.740  55.331  1.00  0.00     0.050 A 
ATOM     14  C   UNL     1     -26.639 -56.303  55.365  1.00  0.00     0.119 A 
ATOM     15  C   UNL     1     -26.628 -53.990  56.104  1.00  0.00     0.119 A 
ATOM     16  C   UNL     1     -26.064 -55.269  56.117  1.00  0.00     0.092 A 
BRANCH  14  17
ATOM     17  O   UNL     1     -26.089 -57.581  55.378  1.00  0.00    -0.508 OA
ATOM     18  H   UNL     1     -25.497 -57.911  54.625  1.00  0.00     0.293 HD
ENDBRANCH  14  17
BRANCH  15  19
ATOM     19  O   UNL     1     -26.049 -52.975  56.863  1.00  0.00    -0.508 OA
ATOM     20  H   UNL     1     -25.360 -53.177  57.579  1.00  0.00     0.293 HD
ENDBRANCH  15  19
ENDBRANCH  10  11
ENDBRANCH   1  10
TORSDOF 6
ENDMDL
MODEL 4
REMARK VINA RESULT:    -5.323      1.319      1.694
REMARK INTER + INTRA:          -7.329
REMARK INTER:                  -6.693
REMARK INTRA:                  -0.636
REMARK UNBOUND:                -0.606
REMARK SMILES Oc1cc(O)cc(CCc2ccccc2O)c1
REMARK SMILES IDX 9 1 10 2 12 3 13 4 11 5 14 6 15 7 16 8 8 10 7 11 6 12 17 13
REMARK SMILES IDX 4 14 2 15 3 16 5 17 1 19
REMARK H PARENT 16 9 5 18 1 20
REMARK Flexibility Score: inf
ROOT
ATOM      1  C   UNL     1     -28.652 -53.786  51.287  1.00  0.00     0.044 C 
ENDROOT
BRANCH   1   2
ATOM      2  C   UNL     1     -29.384 -52.468  51.291  1.00  0.00    -0.006 A 
ATOM      3  C   UNL     1     -29.379 -50.071  50.875  1.00  0.00     0.001 A 
ATOM      4  C   UNL     1     -30.731 -50.004  51.219  1.00  0.00     0.004 A 
ATOM      5  C   UNL     1     -28.709 -51.296  50.906  1.00  0.00     0.007 A 
ATOM      6  C   UNL     1     -31.417 -51.163  51.590  1.00  0.00     0.046 A 
ATOM      7  C   UNL     1     -30.752 -52.398  51.623  1.00  0.00     0.118 A 
BRANCH   7   8
ATOM      8  O   UNL     1     -31.447 -53.554  51.981  1.00  0.00    -0.508 OA
ATOM      9  H   UNL     1     -32.280 -53.847  51.484  1.00  0.00     0.293 HD
ENDBRANCH   7   8
ENDBRANCH   1   2
BRANCH   1  10
ATOM     10  C   UNL     1     -27.189 -53.592  51.693  1.00  0.00     0.040 C 
BRANCH  10  11
ATOM     11  C   UNL     1     -27.026 -53.760  53.180  1.00  0.00    -0.040 A 
ATOM     12  C   UNL     1     -26.635 -52.670  53.976  1.00  0.00     0.050 A 
ATOM     13  C   UNL     1     -27.205 -55.018  53.776  1.00  0.00     0.050 A 
ATOM     14  C   UNL     1     -26.451 -52.829  55.353  1.00  0.00     0.119 A 
ATOM     15  C   UNL     1     -27.020 -55.182  55.156  1.00  0.00     0.119 A 
ATOM     16  C   UNL     1     -26.646 -54.087  55.941  1.00  0.00     0.092 A 
BRANCH  14  17
ATOM     17  O   UNL     1     -26.070 -51.736  56.126  1.00  0.00    -0.508 OA
ATOM     18  H   UNL     1     -25.248 -51.766  56.718  1.00  0.00     0.293 HD
ENDBRANCH  14  17
BRANCH  15  19
ATOM     19  O   UNL     1     -27.203 -56.426  55.754  1.00  0.00    -0.508 OA
ATOM     20  H   UNL     1     -27.420 -57.251  55.205  1.00  0.00     0.293 HD
ENDBRANCH  15  19
ENDBRANCH  10  11
ENDBRANCH   1  10
TORSDOF 6
ENDMDL
MODEL 5
REMARK VINA RESULT:    -5.179     13.587     15.087
REMARK INTER + INTRA:          -7.148
REMARK INTER:                  -6.603
REMARK INTRA:                  -0.545
REMARK UNBOUND:                -0.606
REMARK SMILES Oc1cc(O)cc(CCc2ccccc2O)c1
REMARK SMILES IDX 9 1 10 2 12 3 13 4 11 5 14 6 15 7 16 8 8 10 7 11 6 12 17 13
REMARK SMILES IDX 4 14 2 15 3 16 5 17 1 19
REMARK H PARENT 16 9 5 18 1 20
REMARK Flexibility Score: inf
ROOT
ATOM      1  C   UNL     1     -26.471 -66.334  56.685  1.00  0.00     0.044 C 
ENDROOT
BRANCH   1   2
ATOM      2  C   UNL     1     -27.711 -66.871  56.015  1.00  0.00    -0.006 A 
ATOM      3  C   UNL     1     -29.118 -67.030  54.037  1.00  0.00     0.001 A 
ATOM      4  C   UNL     1     -29.972 -67.907  54.710  1.00  0.00     0.004 A 
ATOM      5  C   UNL     1     -27.991 -66.518  54.684  1.00  0.00     0.007 A 
ATOM      6  C   UNL     1     -29.698 -68.277  56.029  1.00  0.00     0.046 A 
ATOM      7  C   UNL     1     -28.567 -67.768  56.685  1.00  0.00     0.118 A 
BRANCH   7   8
ATOM      8  O   UNL     1     -28.291 -68.154  57.998  1.00  0.00    -0.508 OA
ATOM      9  H   UNL     1     -28.057 -69.111  58.231  1.00  0.00     0.293 HD
ENDBRANCH   7   8
ENDBRANCH   1   2
BRANCH   1  10
ATOM     10  C   UNL     1     -25.214 -66.804  55.949  1.00  0.00     0.040 C 
BRANCH  10  11
ATOM     11  C   UNL     1     -24.322 -67.588  56.872  1.00  0.00    -0.040 A 
ATOM     12  C   UNL     1     -23.042 -67.987  56.450  1.00  0.00     0.050 A 
ATOM     13  C   UNL     1     -24.782 -67.980  58.140  1.00  0.00     0.050 A 
ATOM     14  C   UNL     1     -22.223 -68.744  57.293  1.00  0.00     0.119 A 
ATOM     15  C   UNL     1     -23.963 -68.739  58.987  1.00  0.00     0.119 A 
ATOM     16  C   UNL     1     -22.686 -69.118  58.563  1.00  0.00     0.092 A 
BRANCH  14  17
ATOM     17  O   UNL     1     -20.955 -69.123  56.860  1.00  0.00    -0.508 OA
ATOM     18  H   UNL     1     -20.790 -69.426  55.907  1.00  0.00     0.293 HD
ENDBRANCH  14  17
BRANCH  15  19
ATOM     19  O   UNL     1     -24.411 -69.125  60.248  1.00  0.00    -0.508 OA
ATOM     20  H   UNL     1     -25.255 -68.735  60.652  1.00  0.00     0.293 HD
ENDBRANCH  15  19
ENDBRANCH  10  11
ENDBRANCH   1  10
TORSDOF 6
ENDMDL
