MODEL 1
REMARK VINA RESULT:    -5.582      0.000      0.000
REMARK INTER + INTRA:          -9.790
REMARK INTER:                  -8.519
REMARK INTRA:                  -1.271
REMARK UNBOUND:                -1.271
REMARK SMILES OC[C@H]1O[C@](CO)(O[C@@H]2O[C@H](CO)[C@@H](O)[C@H](O)[C@@H]2O)[C@@H](O)[C@@H]1O
REMARK SMILES IDX 8 1 9 2 11 3 14 4 10 5 16 6 18 7 12 8 13 9 15 11 17 13 19 15
REMARK SMILES IDX 5 17 20 18 4 19 22 20 3 21 6 22 7 23 21 25 23 27 2 29 1 30
REMARK H PARENT 13 10 15 12 17 14 19 16 7 24 21 26 23 28 1 31
REMARK Flexibility Score: inf
ROOT
ATOM      1  O   UNL     1     -16.893  13.330  -6.594  1.00  0.00    -0.313 OA
ENDROOT
BRANCH   1   2
ATOM      2  C   UNL     1     -16.170  13.341  -5.372  1.00  0.00     0.285 C 
ATOM      3  C   UNL     1     -14.487  14.463  -4.209  1.00  0.00     0.178 C 
ATOM      4  C   UNL     1     -13.684  13.177  -3.906  1.00  0.00     0.177 C 
ATOM      5  O   UNL     1     -15.166  14.339  -5.448  1.00  0.00    -0.341 OA
ATOM      6  C   UNL     1     -14.623  11.955  -3.922  1.00  0.00     0.179 C 
ATOM      7  C   UNL     1     -15.523  11.954  -5.176  1.00  0.00     0.202 C 
BRANCH   3   8
ATOM      8  C   UNL     1     -13.556  15.681  -4.287  1.00  0.00     0.191 C 
BRANCH   8   9
ATOM      9  O   UNL     1     -12.245  15.277  -4.581  1.00  0.00    -0.394 OA
ATOM     10  H   UNL     1     -12.281  14.300  -4.753  1.00  0.00     0.210 HD
ENDBRANCH   8   9
ENDBRANCH   3   8
BRANCH   4  11
ATOM     11  O   UNL     1     -13.077  13.289  -2.643  1.00  0.00    -0.387 OA
ATOM     12  H   UNL     1     -13.211  14.225  -2.341  1.00  0.00     0.211 HD
ENDBRANCH   4  11
BRANCH   6  13
ATOM     13  O   UNL     1     -13.863  10.775  -3.865  1.00  0.00    -0.387 OA
ATOM     14  H   UNL     1     -13.225  10.810  -4.626  1.00  0.00     0.211 HD
ENDBRANCH   6  13
BRANCH   7  15
ATOM     15  O   UNL     1     -14.810  11.550  -6.322  1.00  0.00    -0.385 OA
ATOM     16  H   UNL     1     -14.110  10.905  -6.041  1.00  0.00     0.211 HD
ENDBRANCH   7  15
ENDBRANCH   1   2
BRANCH   1  17
ATOM     17  C   UNL     1     -18.164  13.975  -6.518  1.00  0.00     0.224 C 
ATOM     18  C   UNL     1     -18.986  13.526  -7.736  1.00  0.00     0.208 C 
ATOM     19  O   UNL     1     -18.039  15.382  -6.619  1.00  0.00    -0.337 OA
ATOM     20  C   UNL     1     -18.583  14.525  -8.804  1.00  0.00     0.180 C 
ATOM     21  C   UNL     1     -18.055  15.719  -7.992  1.00  0.00     0.179 C 
BRANCH  17  22
ATOM     22  C   UNL     1     -18.856  13.600  -5.183  1.00  0.00     0.225 C 
BRANCH  22  23
ATOM     23  O   UNL     1     -19.422  12.318  -5.255  1.00  0.00    -0.391 OA
ATOM     24  H   UNL     1     -19.397  12.050  -6.210  1.00  0.00     0.210 HD
ENDBRANCH  22  23
ENDBRANCH  17  22
BRANCH  18  25
ATOM     25  O   UNL     1     -20.378  13.571  -7.510  1.00  0.00    -0.385 OA
ATOM     26  H   UNL     1     -20.562  14.276  -6.834  1.00  0.00     0.211 HD
ENDBRANCH  18  25
BRANCH  20  27
ATOM     27  O   UNL     1     -17.551  14.000  -9.600  1.00  0.00    -0.387 OA
ATOM     28  H   UNL     1     -16.749  13.930  -9.017  1.00  0.00     0.211 HD
ENDBRANCH  20  27
BRANCH  21  29
ATOM     29  C   UNL     1     -18.903  16.982  -8.188  1.00  0.00     0.191 C 
BRANCH  29  30
ATOM     30  O   UNL     1     -20.262  16.709  -7.972  1.00  0.00    -0.394 OA
ATOM     31  H   UNL     1     -20.720  17.587  -7.897  1.00  0.00     0.210 HD
ENDBRANCH  29  30
ENDBRANCH  21  29
ENDBRANCH   1  17
TORSDOF 13
ENDMDL
MODEL 2
REMARK VINA RESULT:    -5.359      1.254      2.467
REMARK INTER + INTRA:          -9.449
REMARK INTER:                  -8.742
REMARK INTRA:                  -0.707
REMARK UNBOUND:                -1.271
REMARK SMILES OC[C@H]1O[C@](CO)(O[C@@H]2O[C@H](CO)[C@@H](O)[C@H](O)[C@@H]2O)[C@@H](O)[C@@H]1O
REMARK SMILES IDX 8 1 9 2 11 3 14 4 10 5 16 6 18 7 12 8 13 9 15 11 17 13 19 15
REMARK SMILES IDX 5 17 20 18 4 19 22 20 3 21 6 22 7 23 21 25 23 27 2 29 1 30
REMARK H PARENT 13 10 15 12 17 14 19 16 7 24 21 26 23 28 1 31
REMARK Flexibility Score: inf
ROOT
ATOM      1  O   UNL     1     -16.965  13.781  -6.494  1.00  0.00    -0.313 OA
ENDROOT
BRANCH   1   2
ATOM      2  C   UNL     1     -16.205  13.675  -5.299  1.00  0.00     0.285 C 
ATOM      3  C   UNL     1     -14.406  14.606  -4.142  1.00  0.00     0.178 C 
ATOM      4  C   UNL     1     -13.694  13.250  -3.932  1.00  0.00     0.177 C 
ATOM      5  O   UNL     1     -15.131  14.597  -5.361  1.00  0.00    -0.341 OA
ATOM      6  C   UNL     1     -14.723  12.104  -3.974  1.00  0.00     0.179 C 
ATOM      7  C   UNL     1     -15.659  12.235  -5.195  1.00  0.00     0.202 C 
BRANCH   3   8
ATOM      8  C   UNL     1     -13.387  15.755  -4.193  1.00  0.00     0.191 C 
BRANCH   8   9
ATOM      9  O   UNL     1     -12.131  15.277  -4.593  1.00  0.00    -0.394 OA
ATOM     10  H   UNL     1     -11.732  14.829  -3.801  1.00  0.00     0.210 HD
ENDBRANCH   8   9
ENDBRANCH   3   8
BRANCH   4  11
ATOM     11  O   UNL     1     -13.041  13.251  -2.687  1.00  0.00    -0.387 OA
ATOM     12  H   UNL     1     -13.495  13.931  -2.125  1.00  0.00     0.211 HD
ENDBRANCH   4  11
BRANCH   6  13
ATOM     13  O   UNL     1     -14.054  10.869  -4.003  1.00  0.00    -0.387 OA
ATOM     14  H   UNL     1     -13.691  10.763  -4.922  1.00  0.00     0.211 HD
ENDBRANCH   6  13
BRANCH   7  15
ATOM     15  O   UNL     1     -15.016  11.839  -6.384  1.00  0.00    -0.385 OA
ATOM     16  H   UNL     1     -14.073  11.619  -6.168  1.00  0.00     0.211 HD
ENDBRANCH   7  15
ENDBRANCH   1   2
BRANCH   1  17
ATOM     17  C   UNL     1     -17.915  14.846  -6.480  1.00  0.00     0.224 C 
ATOM     18  C   UNL     1     -18.722  14.731  -5.177  1.00  0.00     0.208 C 
ATOM     19  O   UNL     1     -18.848  14.723  -7.539  1.00  0.00    -0.337 OA
ATOM     20  C   UNL     1     -19.844  13.782  -5.556  1.00  0.00     0.180 C 
ATOM     21  C   UNL     1     -19.905  13.898  -7.088  1.00  0.00     0.179 C 
BRANCH  17  22
ATOM     22  C   UNL     1     -17.174  16.203  -6.583  1.00  0.00     0.225 C 
BRANCH  22  23
ATOM     23  O   UNL     1     -16.250  16.190  -7.639  1.00  0.00    -0.391 OA
ATOM     24  H   UNL     1     -15.400  15.837  -7.268  1.00  0.00     0.210 HD
ENDBRANCH  22  23
ENDBRANCH  17  22
BRANCH  18  25
ATOM     25  O   UNL     1     -19.241  15.967  -4.738  1.00  0.00    -0.385 OA
ATOM     26  H   UNL     1     -19.885  16.296  -5.419  1.00  0.00     0.211 HD
ENDBRANCH  18  25
BRANCH  20  27
ATOM     27  O   UNL     1     -19.514  12.465  -5.194  1.00  0.00    -0.387 OA
ATOM     28  H   UNL     1     -19.548  12.426  -4.202  1.00  0.00     0.211 HD
ENDBRANCH  20  27
BRANCH  21  29
ATOM     29  C   UNL     1     -21.237  14.479  -7.579  1.00  0.00     0.191 C 
BRANCH  29  30
ATOM     30  O   UNL     1     -21.996  13.499  -8.237  1.00  0.00    -0.394 OA
ATOM     31  H   UNL     1     -22.837  13.939  -8.529  1.00  0.00     0.210 HD
ENDBRANCH  29  30
ENDBRANCH  21  29
ENDBRANCH   1  17
TORSDOF 13
ENDMDL
MODEL 3
REMARK VINA RESULT:    -5.194     10.095     14.312
REMARK INTER + INTRA:          -9.198
REMARK INTER:                  -8.148
REMARK INTRA:                  -1.050
REMARK UNBOUND:                -1.271
REMARK SMILES OC[C@H]1O[C@](CO)(O[C@@H]2O[C@H](CO)[C@@H](O)[C@H](O)[C@@H]2O)[C@@H](O)[C@@H]1O
REMARK SMILES IDX 8 1 9 2 11 3 14 4 10 5 16 6 18 7 12 8 13 9 15 11 17 13 19 15
REMARK SMILES IDX 5 17 20 18 4 19 22 20 3 21 6 22 7 23 21 25 23 27 2 29 1 30
REMARK H PARENT 13 10 15 12 17 14 19 16 7 24 21 26 23 28 1 31
REMARK Flexibility Score: inf
ROOT
ATOM      1  O   UNL     1     -12.831   3.792   1.267  1.00  0.00    -0.313 OA
ENDROOT
BRANCH   1   2
ATOM      2  C   UNL     1     -12.571   3.556  -0.109  1.00  0.00     0.285 C 
ATOM      3  C   UNL     1     -11.946   4.607  -2.097  1.00  0.00     0.178 C 
ATOM      4  C   UNL     1     -13.135   4.035  -2.904  1.00  0.00     0.177 C 
ATOM      5  O   UNL     1     -12.319   4.799  -0.742  1.00  0.00    -0.341 OA
ATOM      6  C   UNL     1     -13.629   2.726  -2.257  1.00  0.00     0.179 C 
ATOM      7  C   UNL     1     -13.815   2.889  -0.733  1.00  0.00     0.202 C 
BRANCH   3   8
ATOM      8  C   UNL     1     -11.497   5.958  -2.672  1.00  0.00     0.191 C 
BRANCH   8   9
ATOM      9  O   UNL     1     -12.590   6.644  -3.220  1.00  0.00    -0.394 OA
ATOM     10  H   UNL     1     -12.899   7.285  -2.528  1.00  0.00     0.210 HD
ENDBRANCH   8   9
ENDBRANCH   3   8
BRANCH   4  11
ATOM     11  O   UNL     1     -12.727   3.783  -4.225  1.00  0.00    -0.387 OA
ATOM     12  H   UNL     1     -13.425   4.164  -4.819  1.00  0.00     0.211 HD
ENDBRANCH   4  11
BRANCH   6  13
ATOM     13  O   UNL     1     -14.835   2.329  -2.856  1.00  0.00    -0.387 OA
ATOM     14  H   UNL     1     -15.561   2.821  -2.389  1.00  0.00     0.211 HD
ENDBRANCH   6  13
BRANCH   7  15
ATOM     15  O   UNL     1     -14.991   3.603  -0.430  1.00  0.00    -0.385 OA
ATOM     16  H   UNL     1     -15.736   3.209  -0.953  1.00  0.00     0.211 HD
ENDBRANCH   7  15
ENDBRANCH   1   2
BRANCH   1  17
ATOM     17  C   UNL     1     -12.101   2.935   2.146  1.00  0.00     0.224 C 
ATOM     18  C   UNL     1     -12.684   1.520   2.003  1.00  0.00     0.208 C 
ATOM     19  O   UNL     1     -12.283   3.306   3.500  1.00  0.00    -0.337 OA
ATOM     20  C   UNL     1     -13.823   1.520   3.006  1.00  0.00     0.180 C 
ATOM     21  C   UNL     1     -13.443   2.651   3.975  1.00  0.00     0.179 C 
BRANCH  17  22
ATOM     22  C   UNL     1     -10.596   2.980   1.782  1.00  0.00     0.225 C 
BRANCH  22  23
ATOM     23  O   UNL     1      -9.800   2.726   2.910  1.00  0.00    -0.391 OA
ATOM     24  H   UNL     1     -10.146   3.306   3.637  1.00  0.00     0.210 HD
ENDBRANCH  22  23
ENDBRANCH  17  22
BRANCH  18  25
ATOM     25  O   UNL     1     -11.751   0.506   2.307  1.00  0.00    -0.385 OA
ATOM     26  H   UNL     1     -11.877  -0.239   1.662  1.00  0.00     0.211 HD
ENDBRANCH  18  25
BRANCH  20  27
ATOM     27  O   UNL     1     -15.036   1.831   2.368  1.00  0.00    -0.387 OA
ATOM     28  H   UNL     1     -14.901   1.655   1.399  1.00  0.00     0.211 HD
ENDBRANCH  20  27
BRANCH  21  29
ATOM     29  C   UNL     1     -13.182   2.140   5.398  1.00  0.00     0.191 C 
BRANCH  29  30
ATOM     30  O   UNL     1     -13.060   3.211   6.297  1.00  0.00    -0.394 OA
ATOM     31  H   UNL     1     -12.754   2.824   7.159  1.00  0.00     0.210 HD
ENDBRANCH  29  30
ENDBRANCH  21  29
ENDBRANCH   1  17
TORSDOF 13
ENDMDL
MODEL 4
REMARK VINA RESULT:    -5.129      2.087      3.873
REMARK INTER + INTRA:          -9.098
REMARK INTER:                  -7.938
REMARK INTRA:                  -1.160
REMARK UNBOUND:                -1.271
REMARK SMILES OC[C@H]1O[C@](CO)(O[C@@H]2O[C@H](CO)[C@@H](O)[C@H](O)[C@@H]2O)[C@@H](O)[C@@H]1O
REMARK SMILES IDX 8 1 9 2 11 3 14 4 10 5 16 6 18 7 12 8 13 9 15 11 17 13 19 15
REMARK SMILES IDX 5 17 20 18 4 19 22 20 3 21 6 22 7 23 21 25 23 27 2 29 1 30
REMARK H PARENT 13 10 15 12 17 14 19 16 7 24 21 26 23 28 1 31
REMARK Flexibility Score: inf
ROOT
ATOM      1  O   UNL     1     -15.205  14.325  -5.401  1.00  0.00    -0.313 OA
ENDROOT
BRANCH   1   2
ATOM      2  C   UNL     1     -14.838  14.490  -4.040  1.00  0.00     0.285 C 
ATOM      3  C   UNL     1     -15.403  15.622  -2.079  1.00  0.00     0.178 C 
ATOM      4  C   UNL     1     -13.972  16.157  -1.842  1.00  0.00     0.177 C 
ATOM      5  O   UNL     1     -15.657  15.496  -3.469  1.00  0.00    -0.341 OA
ATOM      6  C   UNL     1     -12.946  15.233  -2.528  1.00  0.00     0.179 C 
ATOM      7  C   UNL     1     -13.357  14.920  -3.983  1.00  0.00     0.202 C 
BRANCH   3   8
ATOM      8  C   UNL     1     -16.447  16.576  -1.480  1.00  0.00     0.191 C 
BRANCH   8   9
ATOM      9  O   UNL     1     -16.635  16.302  -0.118  1.00  0.00    -0.394 OA
ATOM     10  H   UNL     1     -16.343  17.110   0.379  1.00  0.00     0.210 HD
ENDBRANCH   8   9
ENDBRANCH   3   8
BRANCH   4  11
ATOM     11  O   UNL     1     -13.712  16.206  -0.462  1.00  0.00    -0.387 OA
ATOM     12  H   UNL     1     -13.035  15.504  -0.271  1.00  0.00     0.211 HD
ENDBRANCH   4  11
BRANCH   6  13
ATOM     13  O   UNL     1     -11.676  15.834  -2.498  1.00  0.00    -0.387 OA
ATOM     14  H   UNL     1     -11.057  15.216  -2.969  1.00  0.00     0.211 HD
ENDBRANCH   6  13
BRANCH   7  15
ATOM     15  O   UNL     1     -13.102  16.010  -4.838  1.00  0.00    -0.385 OA
ATOM     16  H   UNL     1     -12.362  16.543  -4.448  1.00  0.00     0.211 HD
ENDBRANCH   7  15
ENDBRANCH   1   2
BRANCH   1  17
ATOM     17  C   UNL     1     -16.041  13.192  -5.640  1.00  0.00     0.224 C 
ATOM     18  C   UNL     1     -16.428  13.206  -7.127  1.00  0.00     0.208 C 
ATOM     19  O   UNL     1     -17.252  13.278  -4.911  1.00  0.00    -0.337 OA
ATOM     20  C   UNL     1     -17.669  14.080  -7.145  1.00  0.00     0.180 C 
ATOM     21  C   UNL     1     -18.175  14.008  -5.695  1.00  0.00     0.179 C 
BRANCH  17  22
ATOM     22  C   UNL     1     -15.281  11.897  -5.253  1.00  0.00     0.225 C 
BRANCH  22  23
ATOM     23  O   UNL     1     -14.225  11.652  -6.142  1.00  0.00    -0.391 OA
ATOM     24  H   UNL     1     -13.971  12.529  -6.531  1.00  0.00     0.210 HD
ENDBRANCH  22  23
ENDBRANCH  17  22
BRANCH  18  25
ATOM     25  O   UNL     1     -16.715  11.922  -7.635  1.00  0.00    -0.385 OA
ATOM     26  H   UNL     1     -16.157  11.261  -7.146  1.00  0.00     0.211 HD
ENDBRANCH  18  25
BRANCH  20  27
ATOM     27  O   UNL     1     -17.328  15.407  -7.461  1.00  0.00    -0.387 OA
ATOM     28  H   UNL     1     -16.340  15.428  -7.570  1.00  0.00     0.211 HD
ENDBRANCH  20  27
BRANCH  21  29
ATOM     29  C   UNL     1     -19.555  13.345  -5.589  1.00  0.00     0.191 C 
BRANCH  29  30
ATOM     30  O   UNL     1     -19.448  12.053  -5.051  1.00  0.00    -0.394 OA
ATOM     31  H   UNL     1     -18.569  11.696  -5.343  1.00  0.00     0.210 HD
ENDBRANCH  29  30
ENDBRANCH  21  29
ENDBRANCH   1  17
TORSDOF 13
ENDMDL
MODEL 5
REMARK VINA RESULT:    -5.109      2.185      3.047
REMARK INTER + INTRA:          -9.068
REMARK INTER:                  -7.880
REMARK INTRA:                  -1.188
REMARK UNBOUND:                -1.271
REMARK SMILES OC[C@H]1O[C@](CO)(O[C@@H]2O[C@H](CO)[C@@H](O)[C@H](O)[C@@H]2O)[C@@H](O)[C@@H]1O
REMARK SMILES IDX 8 1 9 2 11 3 14 4 10 5 16 6 18 7 12 8 13 9 15 11 17 13 19 15
REMARK SMILES IDX 5 17 20 18 4 19 22 20 3 21 6 22 7 23 21 25 23 27 2 29 1 30
REMARK H PARENT 13 10 15 12 17 14 19 16 7 24 21 26 23 28 1 31
REMARK Flexibility Score: inf
ROOT
ATOM      1  O   UNL     1     -16.750  15.072  -5.257  1.00  0.00    -0.313 OA
ENDROOT
BRANCH   1   2
ATOM      2  C   UNL     1     -16.232  14.756  -3.973  1.00  0.00     0.285 C 
ATOM      3  C   UNL     1     -15.813  15.648  -1.859  1.00  0.00     0.178 C 
ATOM      4  C   UNL     1     -14.335  15.196  -1.837  1.00  0.00     0.177 C 
ATOM      5  O   UNL     1     -16.220  15.935  -3.187  1.00  0.00    -0.341 OA
ATOM      6  C   UNL     1     -14.143  13.981  -2.766  1.00  0.00     0.179 C 
ATOM      7  C   UNL     1     -14.795  14.222  -4.145  1.00  0.00     0.202 C 
BRANCH   3   8
ATOM      8  C   UNL     1     -16.008  16.913  -1.009  1.00  0.00     0.191 C 
BRANCH   8   9
ATOM      9  O   UNL     1     -16.259  16.569   0.328  1.00  0.00    -0.394 OA
ATOM     10  H   UNL     1     -15.664  17.137   0.884  1.00  0.00     0.210 HD
ENDBRANCH   8   9
ENDBRANCH   3   8
BRANCH   4  11
ATOM     11  O   UNL     1     -13.970  14.846  -0.525  1.00  0.00    -0.387 OA
ATOM     12  H   UNL     1     -12.979  14.893  -0.480  1.00  0.00     0.211 HD
ENDBRANCH   4  11
BRANCH   6  13
ATOM     13  O   UNL     1     -12.773  13.711  -2.914  1.00  0.00    -0.387 OA
ATOM     14  H   UNL     1     -12.337  14.570  -3.155  1.00  0.00     0.211 HD
ENDBRANCH   6  13
BRANCH   7  15
ATOM     15  O   UNL     1     -14.014  15.084  -4.941  1.00  0.00    -0.385 OA
ATOM     16  H   UNL     1     -13.059  14.914  -4.737  1.00  0.00     0.211 HD
ENDBRANCH   7  15
ENDBRANCH   1   2
BRANCH   1  17
ATOM     17  C   UNL     1     -18.016  14.473  -5.532  1.00  0.00     0.224 C 
ATOM     18  C   UNL     1     -17.820  12.949  -5.522  1.00  0.00     0.208 C 
ATOM     19  O   UNL     1     -18.478  14.807  -6.828  1.00  0.00    -0.337 OA
ATOM     20  C   UNL     1     -17.409  12.651  -6.952  1.00  0.00     0.180 C 
ATOM     21  C   UNL     1     -17.940  13.864  -7.734  1.00  0.00     0.179 C 
BRANCH  17  22
ATOM     22  C   UNL     1     -19.047  14.929  -4.468  1.00  0.00     0.225 C 
BRANCH  22  23
ATOM     23  O   UNL     1     -20.358  14.722  -4.921  1.00  0.00    -0.391 OA
ATOM     24  H   UNL     1     -20.372  14.977  -5.880  1.00  0.00     0.210 HD
ENDBRANCH  22  23
ENDBRANCH  17  22
BRANCH  18  25
ATOM     25  O   UNL     1     -18.993  12.243  -5.183  1.00  0.00    -0.385 OA
ATOM     26  H   UNL     1     -19.181  12.395  -4.219  1.00  0.00     0.211 HD
ENDBRANCH  18  25
BRANCH  20  27
ATOM     27  O   UNL     1     -16.009  12.596  -7.058  1.00  0.00    -0.387 OA
ATOM     28  H   UNL     1     -15.735  11.692  -6.750  1.00  0.00     0.211 HD
ENDBRANCH  20  27
BRANCH  21  29
ATOM     29  C   UNL     1     -19.019  13.477  -8.753  1.00  0.00     0.191 C 
BRANCH  29  30
ATOM     30  O   UNL     1     -20.286  13.445  -8.151  1.00  0.00    -0.394 OA
ATOM     31  H   UNL     1     -20.944  13.665  -8.861  1.00  0.00     0.210 HD
ENDBRANCH  29  30
ENDBRANCH  21  29
ENDBRANCH   1  17
TORSDOF 13
ENDMDL
MODEL 6
REMARK VINA RESULT:    -5.107      9.289     11.891
REMARK INTER + INTRA:          -9.065
REMARK INTER:                  -7.917
REMARK INTRA:                  -1.148
REMARK UNBOUND:                -1.271
REMARK SMILES OC[C@H]1O[C@](CO)(O[C@@H]2O[C@H](CO)[C@@H](O)[C@H](O)[C@@H]2O)[C@@H](O)[C@@H]1O
REMARK SMILES IDX 8 1 9 2 11 3 14 4 10 5 16 6 18 7 12 8 13 9 15 11 17 13 19 15
REMARK SMILES IDX 5 17 20 18 4 19 22 20 3 21 6 22 7 23 21 25 23 27 2 29 1 30
REMARK H PARENT 13 10 15 12 17 14 19 16 7 24 21 26 23 28 1 31
REMARK Flexibility Score: inf
ROOT
ATOM      1  O   UNL     1     -13.193   3.885  -2.877  1.00  0.00    -0.313 OA
ENDROOT
BRANCH   1   2
ATOM      2  C   UNL     1     -12.972   4.151  -1.500  1.00  0.00     0.285 C 
ATOM      3  C   UNL     1     -11.486   3.772   0.258  1.00  0.00     0.178 C 
ATOM      4  C   UNL     1     -12.578   3.242   1.216  1.00  0.00     0.177 C 
ATOM      5  O   UNL     1     -11.811   3.452  -1.084  1.00  0.00    -0.341 OA
ATOM      6  C   UNL     1     -13.953   3.810   0.811  1.00  0.00     0.179 C 
ATOM      7  C   UNL     1     -14.199   3.657  -0.705  1.00  0.00     0.202 C 
BRANCH   3   8
ATOM      8  C   UNL     1     -10.122   3.148   0.589  1.00  0.00     0.191 C 
BRANCH   8   9
ATOM      9  O   UNL     1      -9.494   3.862   1.620  1.00  0.00    -0.394 OA
ATOM     10  H   UNL     1     -10.185   4.455   2.017  1.00  0.00     0.210 HD
ENDBRANCH   8   9
ENDBRANCH   3   8
BRANCH   4  11
ATOM     11  O   UNL     1     -12.277   3.632   2.533  1.00  0.00    -0.387 OA
ATOM     12  H   UNL     1     -11.329   3.386   2.696  1.00  0.00     0.211 HD
ENDBRANCH   4  11
BRANCH   6  13
ATOM     13  O   UNL     1     -14.964   3.161   1.538  1.00  0.00    -0.387 OA
ATOM     14  H   UNL     1     -14.680   2.215   1.640  1.00  0.00     0.211 HD
ENDBRANCH   6  13
BRANCH   7  15
ATOM     15  O   UNL     1     -14.533   2.330  -1.042  1.00  0.00    -0.385 OA
ATOM     16  H   UNL     1     -13.692   1.827  -1.196  1.00  0.00     0.211 HD
ENDBRANCH   7  15
ENDBRANCH   1   2
BRANCH   1  17
ATOM     17  C   UNL     1     -12.501   4.774  -3.754  1.00  0.00     0.224 C 
ATOM     18  C   UNL     1     -13.234   4.756  -5.105  1.00  0.00     0.208 C 
ATOM     19  O   UNL     1     -11.182   4.328  -4.010  1.00  0.00    -0.337 OA
ATOM     20  C   UNL     1     -12.582   3.593  -5.829  1.00  0.00     0.180 C 
ATOM     21  C   UNL     1     -11.234   3.436  -5.106  1.00  0.00     0.179 C 
BRANCH  17  22
ATOM     22  C   UNL     1     -12.469   6.194  -3.133  1.00  0.00     0.225 C 
BRANCH  22  23
ATOM     23  O   UNL     1     -13.678   6.868  -3.361  1.00  0.00    -0.391 OA
ATOM     24  H   UNL     1     -13.803   6.902  -4.345  1.00  0.00     0.210 HD
ENDBRANCH  22  23
ENDBRANCH  17  22
BRANCH  18  25
ATOM     25  O   UNL     1     -13.072   5.952  -5.836  1.00  0.00    -0.385 OA
ATOM     26  H   UNL     1     -13.876   6.081  -6.405  1.00  0.00     0.211 HD
ENDBRANCH  18  25
BRANCH  20  27
ATOM     27  O   UNL     1     -13.346   2.425  -5.663  1.00  0.00    -0.387 OA
ATOM     28  H   UNL     1     -14.280   2.659  -5.906  1.00  0.00     0.211 HD
ENDBRANCH  20  27
BRANCH  21  29
ATOM     29  C   UNL     1     -10.039   3.708  -6.030  1.00  0.00     0.191 C 
BRANCH  29  30
ATOM     30  O   UNL     1     -10.299   4.800  -6.872  1.00  0.00    -0.394 OA
ATOM     31  H   UNL     1     -10.473   5.579  -6.282  1.00  0.00     0.210 HD
ENDBRANCH  29  30
ENDBRANCH  21  29
ENDBRANCH   1  17
TORSDOF 13
ENDMDL
MODEL 7
REMARK VINA RESULT:    -5.034     10.034     12.918
REMARK INTER + INTRA:          -8.954
REMARK INTER:                  -7.748
REMARK INTRA:                  -1.206
REMARK UNBOUND:                -1.271
REMARK SMILES OC[C@H]1O[C@](CO)(O[C@@H]2O[C@H](CO)[C@@H](O)[C@H](O)[C@@H]2O)[C@@H](O)[C@@H]1O
REMARK SMILES IDX 8 1 9 2 11 3 14 4 10 5 16 6 18 7 12 8 13 9 15 11 17 13 19 15
REMARK SMILES IDX 5 17 20 18 4 19 22 20 3 21 6 22 7 23 21 25 23 27 2 29 1 30
REMARK H PARENT 13 10 15 12 17 14 19 16 7 24 21 26 23 28 1 31
REMARK Flexibility Score: inf
ROOT
ATOM      1  O   UNL     1     -12.664   4.141  -0.859  1.00  0.00    -0.313 OA
ENDROOT
BRANCH   1   2
ATOM      2  C   UNL     1     -12.454   3.954  -2.251  1.00  0.00     0.285 C 
ATOM      3  C   UNL     1     -10.976   4.420  -3.995  1.00  0.00     0.178 C 
ATOM      4  C   UNL     1     -12.070   5.014  -4.912  1.00  0.00     0.177 C 
ATOM      5  O   UNL     1     -11.290   4.665  -2.634  1.00  0.00    -0.341 OA
ATOM      6  C   UNL     1     -13.447   4.435  -4.531  1.00  0.00     0.179 C 
ATOM      7  C   UNL     1     -13.682   4.503  -3.007  1.00  0.00     0.202 C 
BRANCH   3   8
ATOM      8  C   UNL     1      -9.609   5.050  -4.299  1.00  0.00     0.191 C 
BRANCH   8   9
ATOM      9  O   UNL     1      -9.163   4.661  -5.570  1.00  0.00    -0.394 OA
ATOM     10  H   UNL     1      -8.376   4.072  -5.427  1.00  0.00     0.210 HD
ENDBRANCH   8   9
ENDBRANCH   3   8
BRANCH   4  11
ATOM     11  O   UNL     1     -11.781   4.699  -6.251  1.00  0.00    -0.387 OA
ATOM     12  H   UNL     1     -12.642   4.725  -6.745  1.00  0.00     0.211 HD
ENDBRANCH   4  11
BRANCH   6  13
ATOM     13  O   UNL     1     -14.457   5.134  -5.212  1.00  0.00    -0.387 OA
ATOM     14  H   UNL     1     -14.976   4.459  -5.724  1.00  0.00     0.211 HD
ENDBRANCH   6  13
BRANCH   7  15
ATOM     15  O   UNL     1     -14.002   5.811  -2.592  1.00  0.00    -0.385 OA
ATOM     16  H   UNL     1     -13.785   5.892  -1.627  1.00  0.00     0.211 HD
ENDBRANCH   7  15
ENDBRANCH   1   2
BRANCH   1  17
ATOM     17  C   UNL     1     -12.939   2.933  -0.149  1.00  0.00     0.224 C 
ATOM     18  C   UNL     1     -14.455   2.874   0.095  1.00  0.00     0.208 C 
ATOM     19  O   UNL     1     -12.329   2.932   1.128  1.00  0.00    -0.337 OA
ATOM     20  C   UNL     1     -14.618   3.634   1.398  1.00  0.00     0.180 C 
ATOM     21  C   UNL     1     -13.220   3.556   2.032  1.00  0.00     0.179 C 
BRANCH  17  22
ATOM     22  C   UNL     1     -12.439   1.721  -0.976  1.00  0.00     0.225 C 
BRANCH  22  23
ATOM     23  O   UNL     1     -12.190   0.618  -0.146  1.00  0.00    -0.391 OA
ATOM     24  H   UNL     1     -11.232   0.664   0.110  1.00  0.00     0.210 HD
ENDBRANCH  22  23
ENDBRANCH  17  22
BRANCH  18  25
ATOM     25  O   UNL     1     -14.942   1.556   0.222  1.00  0.00    -0.385 OA
ATOM     26  H   UNL     1     -15.548   1.521   1.008  1.00  0.00     0.211 HD
ENDBRANCH  18  25
BRANCH  20  27
ATOM     27  O   UNL     1     -14.948   4.976   1.143  1.00  0.00    -0.387 OA
ATOM     28  H   UNL     1     -15.170   5.036   0.176  1.00  0.00     0.211 HD
ENDBRANCH  20  27
BRANCH  21  29
ATOM     29  C   UNL     1     -13.219   2.777   3.354  1.00  0.00     0.191 C 
BRANCH  29  30
ATOM     30  O   UNL     1     -14.298   1.881   3.406  1.00  0.00    -0.394 OA
ATOM     31  H   UNL     1     -14.568   1.817   4.359  1.00  0.00     0.210 HD
ENDBRANCH  29  30
ENDBRANCH  21  29
ENDBRANCH   1  17
TORSDOF 13
ENDMDL
MODEL 8
REMARK VINA RESULT:    -5.028      2.099      6.366
REMARK INTER + INTRA:          -8.944
REMARK INTER:                  -8.199
REMARK INTRA:                  -0.745
REMARK UNBOUND:                -1.271
REMARK SMILES OC[C@H]1O[C@](CO)(O[C@@H]2O[C@H](CO)[C@@H](O)[C@H](O)[C@@H]2O)[C@@H](O)[C@@H]1O
REMARK SMILES IDX 8 1 9 2 11 3 14 4 10 5 16 6 18 7 12 8 13 9 15 11 17 13 19 15
REMARK SMILES IDX 5 17 20 18 4 19 22 20 3 21 6 22 7 23 21 25 23 27 2 29 1 30
REMARK H PARENT 13 10 15 12 17 14 19 16 7 24 21 26 23 28 1 31
REMARK Flexibility Score: inf
ROOT
ATOM      1  O   UNL     1     -15.963  14.269  -3.666  1.00  0.00    -0.313 OA
ENDROOT
BRANCH   1   2
ATOM      2  C   UNL     1     -16.662  14.240  -4.901  1.00  0.00     0.285 C 
ATOM      3  C   UNL     1     -18.791  14.059  -5.837  1.00  0.00     0.178 C 
ATOM      4  C   UNL     1     -18.396  12.908  -6.792  1.00  0.00     0.177 C 
ATOM      5  O   UNL     1     -18.032  13.989  -4.642  1.00  0.00    -0.341 OA
ATOM      6  C   UNL     1     -16.882  12.956  -7.074  1.00  0.00     0.179 C 
ATOM      7  C   UNL     1     -16.072  13.108  -5.768  1.00  0.00     0.202 C 
BRANCH   3   8
ATOM      8  C   UNL     1     -20.280  13.976  -5.472  1.00  0.00     0.191 C 
BRANCH   8   9
ATOM      9  O   UNL     1     -20.664  12.641  -5.281  1.00  0.00    -0.394 OA
ATOM     10  H   UNL     1     -19.833  12.098  -5.317  1.00  0.00     0.210 HD
ENDBRANCH   8   9
ENDBRANCH   3   8
BRANCH   4  11
ATOM     11  O   UNL     1     -19.104  13.036  -7.999  1.00  0.00    -0.387 OA
ATOM     12  H   UNL     1     -20.068  12.943  -7.779  1.00  0.00     0.211 HD
ENDBRANCH   4  11
BRANCH   6  13
ATOM     13  O   UNL     1     -16.492  11.792  -7.757  1.00  0.00    -0.387 OA
ATOM     14  H   UNL     1     -17.091  11.064  -7.444  1.00  0.00     0.211 HD
ENDBRANCH   6  13
BRANCH   7  15
ATOM     15  O   UNL     1     -16.005  11.893  -5.058  1.00  0.00    -0.385 OA
ATOM     16  H   UNL     1     -16.025  12.100  -4.088  1.00  0.00     0.211 HD
ENDBRANCH   7  15
ENDBRANCH   1   2
BRANCH   1  17
ATOM     17  C   UNL     1     -15.268  15.492  -3.424  1.00  0.00     0.224 C 
ATOM     18  C   UNL     1     -13.835  15.325  -3.956  1.00  0.00     0.208 C 
ATOM     19  O   UNL     1     -15.150  15.757  -2.039  1.00  0.00    -0.337 OA
ATOM     20  C   UNL     1     -13.104  14.718  -2.773  1.00  0.00     0.180 C 
ATOM     21  C   UNL     1     -13.982  15.110  -1.574  1.00  0.00     0.179 C 
BRANCH  17  22
ATOM     22  C   UNL     1     -16.012  16.658  -4.125  1.00  0.00     0.225 C 
BRANCH  22  23
ATOM     23  O   UNL     1     -17.219  16.946  -3.471  1.00  0.00    -0.391 OA
ATOM     24  H   UNL     1     -17.263  16.348  -2.680  1.00  0.00     0.210 HD
ENDBRANCH  22  23
ENDBRANCH  17  22
BRANCH  18  25
ATOM     25  O   UNL     1     -13.242  16.546  -4.336  1.00  0.00    -0.385 OA
ATOM     26  H   UNL     1     -12.487  16.734  -3.718  1.00  0.00     0.211 HD
ENDBRANCH  18  25
BRANCH  20  27
ATOM     27  O   UNL     1     -13.062  13.318  -2.890  1.00  0.00    -0.387 OA
ATOM     28  H   UNL     1     -12.398  13.112  -3.600  1.00  0.00     0.211 HD
ENDBRANCH  20  27
BRANCH  21  29
ATOM     29  C   UNL     1     -13.253  16.038  -0.593  1.00  0.00     0.191 C 
BRANCH  29  30
ATOM     30  O   UNL     1     -12.049  15.460  -0.161  1.00  0.00    -0.394 OA
ATOM     31  H   UNL     1     -11.317  15.971  -0.595  1.00  0.00     0.210 HD
ENDBRANCH  29  30
ENDBRANCH  21  29
ENDBRANCH   1  17
TORSDOF 13
ENDMDL
MODEL 9
REMARK VINA RESULT:    -4.871     11.350     14.743
REMARK INTER + INTRA:          -8.705
REMARK INTER:                  -7.757
REMARK INTRA:                  -0.948
REMARK UNBOUND:                -1.271
REMARK SMILES OC[C@H]1O[C@](CO)(O[C@@H]2O[C@H](CO)[C@@H](O)[C@H](O)[C@@H]2O)[C@@H](O)[C@@H]1O
REMARK SMILES IDX 8 1 9 2 11 3 14 4 10 5 16 6 18 7 12 8 13 9 15 11 17 13 19 15
REMARK SMILES IDX 5 17 20 18 4 19 22 20 3 21 6 22 7 23 21 25 23 27 2 29 1 30
REMARK H PARENT 13 10 15 12 17 14 19 16 7 24 21 26 23 28 1 31
REMARK Flexibility Score: inf
ROOT
ATOM      1  O   UNL     1     -13.473   3.122   1.299  1.00  0.00    -0.313 OA
ENDROOT
BRANCH   1   2
ATOM      2  C   UNL     1     -13.303   2.309   2.451  1.00  0.00     0.285 C 
ATOM      3  C   UNL     1     -14.240   0.532   3.636  1.00  0.00     0.178 C 
ATOM      4  C   UNL     1     -14.247   1.288   4.985  1.00  0.00     0.177 C 
ATOM      5  O   UNL     1     -14.417   1.440   2.562  1.00  0.00    -0.341 OA
ATOM      6  C   UNL     1     -13.162   2.383   4.979  1.00  0.00     0.179 C 
ATOM      7  C   UNL     1     -13.224   3.227   3.688  1.00  0.00     0.202 C 
BRANCH   3   8
ATOM      8  C   UNL     1     -15.373  -0.504   3.587  1.00  0.00     0.191 C 
BRANCH   8   9
ATOM      9  O   UNL     1     -16.475   0.009   2.886  1.00  0.00    -0.394 OA
ATOM     10  H   UNL     1     -16.681  -0.641   2.165  1.00  0.00     0.210 HD
ENDBRANCH   8   9
ENDBRANCH   3   8
BRANCH   4  11
ATOM     11  O   UNL     1     -13.999   0.384   6.032  1.00  0.00    -0.387 OA
ATOM     12  H   UNL     1     -14.500  -0.446   5.820  1.00  0.00     0.211 HD
ENDBRANCH   4  11
BRANCH   6  13
ATOM     13  O   UNL     1     -13.315   3.205   6.108  1.00  0.00    -0.387 OA
ATOM     14  H   UNL     1     -13.473   4.126   5.771  1.00  0.00     0.211 HD
ENDBRANCH   6  13
BRANCH   7  15
ATOM     15  O   UNL     1     -14.293   4.144   3.721  1.00  0.00    -0.385 OA
ATOM     16  H   UNL     1     -14.652   4.169   4.646  1.00  0.00     0.211 HD
ENDBRANCH   7  15
ENDBRANCH   1   2
BRANCH   1  17
ATOM     17  C   UNL     1     -12.691   2.708   0.179  1.00  0.00     0.224 C 
ATOM     18  C   UNL     1     -12.365   3.961  -0.648  1.00  0.00     0.208 C 
ATOM     19  O   UNL     1     -13.423   1.847  -0.674  1.00  0.00    -0.337 OA
ATOM     20  C   UNL     1     -13.562   4.078  -1.573  1.00  0.00     0.180 C 
ATOM     21  C   UNL     1     -14.137   2.652  -1.590  1.00  0.00     0.179 C 
BRANCH  17  22
ATOM     22  C   UNL     1     -11.409   1.994   0.678  1.00  0.00     0.225 C 
BRANCH  22  23
ATOM     23  O   UNL     1     -10.911   1.119  -0.298  1.00  0.00    -0.391 OA
ATOM     24  H   UNL     1     -10.354   1.665  -0.912  1.00  0.00     0.210 HD
ENDBRANCH  22  23
ENDBRANCH  17  22
BRANCH  18  25
ATOM     25  O   UNL     1     -11.171   3.837  -1.389  1.00  0.00    -0.385 OA
ATOM     26  H   UNL     1     -10.778   4.743  -1.503  1.00  0.00     0.211 HD
ENDBRANCH  18  25
BRANCH  20  27
ATOM     27  O   UNL     1     -14.510   4.965  -1.035  1.00  0.00    -0.387 OA
ATOM     28  H   UNL     1     -14.345   4.999  -0.056  1.00  0.00     0.211 HD
ENDBRANCH  20  27
BRANCH  21  29
ATOM     29  C   UNL     1     -14.069   2.010  -2.981  1.00  0.00     0.191 C 
BRANCH  29  30
ATOM     30  O   UNL     1     -15.298   2.132  -3.648  1.00  0.00    -0.394 OA
ATOM     31  H   UNL     1     -15.878   2.698  -3.073  1.00  0.00     0.210 HD
ENDBRANCH  29  30
ENDBRANCH  21  29
ENDBRANCH   1  17
TORSDOF 13
ENDMDL
