MODEL 1
REMARK VINA RESULT:    -5.123      0.000      0.000
REMARK INTER + INTRA:          -6.629
REMARK INTER:                  -6.321
REMARK INTRA:                  -0.307
REMARK UNBOUND:                -0.307
REMARK SMILES CCOC(=O)c1ccc(O)c(O)c1
REMARK SMILES IDX 4 1 5 2 3 3 2 4 1 5 6 6 13 7 7 8 11 9 8 10 9 11 12 12 10 14
REMARK H PARENT 12 13 10 15
REMARK Flexibility Score: inf
ROOT
ATOM      1  C   UNL     1       9.464  -7.454  -9.268  1.00  0.00     0.338 C 
ATOM      2  O   UNL     1       9.718  -8.689  -9.216  1.00  0.00    -0.246 OA
ENDROOT
BRANCH   1   3
ATOM      3  O   UNL     1       9.545  -6.771 -10.489  1.00  0.00    -0.462 OA
BRANCH   3   4
ATOM      4  C   UNL     1       8.403  -6.339 -11.226  1.00  0.00     0.230 C 
ATOM      5  C   UNL     1       8.222  -4.831 -11.103  1.00  0.00     0.049 C 
ENDBRANCH   3   4
ENDBRANCH   1   3
BRANCH   1   6
ATOM      6  C   UNL     1       9.087  -6.720  -8.039  1.00  0.00     0.064 A 
ATOM      7  C   UNL     1      10.047  -5.988  -7.316  1.00  0.00     0.065 A 
ATOM      8  C   UNL     1       7.761  -6.749  -7.576  1.00  0.00     0.020 A 
ATOM      9  C   UNL     1       9.686  -5.296  -6.152  1.00  0.00     0.158 A 
ATOM     10  C   UNL     1       7.402  -6.058  -6.415  1.00  0.00     0.051 A 
ATOM     11  C   UNL     1       8.361  -5.330  -5.700  1.00  0.00     0.157 A 
BRANCH   9  12
ATOM     12  O   UNL     1      10.640  -4.571  -5.438  1.00  0.00    -0.504 OA
ATOM     13  H   UNL     1      11.445  -4.160  -5.894  1.00  0.00     0.293 HD
ENDBRANCH   9  12
BRANCH  11  14
ATOM     14  O   UNL     1       8.007  -4.641  -4.542  1.00  0.00    -0.504 OA
ATOM     15  H   UNL     1       8.495  -3.801  -4.255  1.00  0.00     0.293 HD
ENDBRANCH  11  14
ENDBRANCH   1   6
TORSDOF 5
ENDMDL
MODEL 2
REMARK VINA RESULT:    -5.040      1.357      1.706
REMARK INTER + INTRA:          -6.526
REMARK INTER:                  -6.280
REMARK INTRA:                  -0.246
REMARK UNBOUND:                -0.307
REMARK SMILES CCOC(=O)c1ccc(O)c(O)c1
REMARK SMILES IDX 4 1 5 2 3 3 2 4 1 5 6 6 13 7 7 8 11 9 8 10 9 11 12 12 10 14
REMARK H PARENT 12 13 10 15
REMARK Flexibility Score: inf
ROOT
ATOM      1  C   UNL     1       9.545  -7.516  -9.221  1.00  0.00     0.338 C 
ATOM      2  O   UNL     1       8.668  -7.986  -9.999  1.00  0.00    -0.246 OA
ENDROOT
BRANCH   1   3
ATOM      3  O   UNL     1      10.905  -7.706  -9.497  1.00  0.00    -0.462 OA
BRANCH   3   4
ATOM      4  C   UNL     1      11.592  -7.048 -10.558  1.00  0.00     0.230 C 
ATOM      5  C   UNL     1      12.502  -5.954 -10.013  1.00  0.00     0.049 C 
ENDBRANCH   3   4
ENDBRANCH   1   3
BRANCH   1   6
ATOM      6  C   UNL     1       9.138  -6.768  -8.010  1.00  0.00     0.064 A 
ATOM      7  C   UNL     1      10.077  -6.013  -7.281  1.00  0.00     0.065 A 
ATOM      8  C   UNL     1       7.803  -6.804  -7.570  1.00  0.00     0.020 A 
ATOM      9  C   UNL     1       9.687  -5.307  -6.135  1.00  0.00     0.158 A 
ATOM     10  C   UNL     1       7.416  -6.099  -6.427  1.00  0.00     0.051 A 
ATOM     11  C   UNL     1       8.354  -5.350  -5.706  1.00  0.00     0.157 A 
BRANCH   9  12
ATOM     12  O   UNL     1      10.619  -4.561  -5.415  1.00  0.00    -0.504 OA
ATOM     13  H   UNL     1      10.839  -3.604  -5.665  1.00  0.00     0.293 HD
ENDBRANCH   9  12
BRANCH  11  14
ATOM     14  O   UNL     1       7.972  -4.647  -4.566  1.00  0.00    -0.504 OA
ATOM     15  H   UNL     1       7.000  -4.585  -4.283  1.00  0.00     0.293 HD
ENDBRANCH  11  14
ENDBRANCH   1   6
TORSDOF 5
ENDMDL
MODEL 3
REMARK VINA RESULT:    -4.913     17.120     19.018
REMARK INTER + INTRA:          -6.369
REMARK INTER:                  -6.245
REMARK INTRA:                  -0.124
REMARK UNBOUND:                -0.307
REMARK SMILES CCOC(=O)c1ccc(O)c(O)c1
REMARK SMILES IDX 4 1 5 2 3 3 2 4 1 5 6 6 13 7 7 8 11 9 8 10 9 11 12 12 10 14
REMARK H PARENT 12 13 10 15
REMARK Flexibility Score: inf
ROOT
ATOM      1  C   UNL     1      21.724   1.424 -21.860  1.00  0.00     0.338 C 
ATOM      2  O   UNL     1      22.135   0.624 -22.746  1.00  0.00    -0.246 OA
ENDROOT
BRANCH   1   3
ATOM      3  O   UNL     1      21.865   2.806 -22.042  1.00  0.00    -0.462 OA
BRANCH   3   4
ATOM      4  C   UNL     1      22.587   3.387 -23.125  1.00  0.00     0.230 C 
ATOM      5  C   UNL     1      23.012   4.811 -22.785  1.00  0.00     0.049 C 
ENDBRANCH   3   4
ENDBRANCH   1   3
BRANCH   1   6
ATOM      6  C   UNL     1      21.099   0.904 -20.623  1.00  0.00     0.064 A 
ATOM      7  C   UNL     1      19.972   0.064 -20.685  1.00  0.00     0.065 A 
ATOM      8  C   UNL     1      21.626   1.246 -19.366  1.00  0.00     0.020 A 
ATOM      9  C   UNL     1      19.382  -0.425 -19.511  1.00  0.00     0.158 A 
ATOM     10  C   UNL     1      21.038   0.758 -18.196  1.00  0.00     0.051 A 
ATOM     11  C   UNL     1      19.917  -0.078 -18.264  1.00  0.00     0.157 A 
BRANCH   9  12
ATOM     12  O   UNL     1      18.265  -1.257 -19.576  1.00  0.00    -0.504 OA
ATOM     13  H   UNL     1      17.399  -1.019 -19.108  1.00  0.00     0.293 HD
ENDBRANCH   9  12
BRANCH  11  14
ATOM     14  O   UNL     1      19.328  -0.566 -17.099  1.00  0.00    -0.504 OA
ATOM     15  H   UNL     1      19.339  -1.554 -16.874  1.00  0.00     0.293 HD
ENDBRANCH  11  14
ENDBRANCH   1   6
TORSDOF 5
ENDMDL
MODEL 4
REMARK VINA RESULT:    -4.855     16.350     18.517
REMARK INTER + INTRA:          -6.297
REMARK INTER:                  -6.037
REMARK INTRA:                  -0.260
REMARK UNBOUND:                -0.307
REMARK SMILES CCOC(=O)c1ccc(O)c(O)c1
REMARK SMILES IDX 4 1 5 2 3 3 2 4 1 5 6 6 13 7 7 8 11 9 8 10 9 11 12 12 10 14
REMARK H PARENT 12 13 10 15
REMARK Flexibility Score: inf
ROOT
ATOM      1  C   UNL     1      19.738  -1.476 -19.407  1.00  0.00     0.338 C 
ATOM      2  O   UNL     1      19.995  -2.712 -19.371  1.00  0.00    -0.246 OA
ENDROOT
BRANCH   1   3
ATOM      3  O   UNL     1      18.783  -0.931 -18.540  1.00  0.00    -0.462 OA
BRANCH   3   4
ATOM      4  C   UNL     1      18.890  -0.985 -17.119  1.00  0.00     0.230 C 
ATOM      5  C   UNL     1      19.190   0.397 -16.550  1.00  0.00     0.049 C 
ENDBRANCH   3   4
ENDBRANCH   1   3
BRANCH   1   6
ATOM      6  C   UNL     1      20.440  -0.600 -20.372  1.00  0.00     0.064 A 
ATOM      7  C   UNL     1      20.811   0.711 -20.015  1.00  0.00     0.065 A 
ATOM      8  C   UNL     1      20.745  -1.067 -21.662  1.00  0.00     0.020 A 
ATOM      9  C   UNL     1      21.474   1.537 -20.933  1.00  0.00     0.158 A 
ATOM     10  C   UNL     1      21.407  -0.242 -22.575  1.00  0.00     0.051 A 
ATOM     11  C   UNL     1      21.774   1.060 -22.215  1.00  0.00     0.157 A 
BRANCH   9  12
ATOM     12  O   UNL     1      21.840   2.835 -20.577  1.00  0.00    -0.504 OA
ATOM     13  H   UNL     1      22.182   3.497 -21.263  1.00  0.00     0.293 HD
ENDBRANCH   9  12
BRANCH  11  14
ATOM     14  O   UNL     1      22.433   1.885 -23.123  1.00  0.00    -0.504 OA
ATOM     15  H   UNL     1      23.394   1.713 -23.395  1.00  0.00     0.293 HD
ENDBRANCH  11  14
ENDBRANCH   1   6
TORSDOF 5
ENDMDL
MODEL 5
REMARK VINA RESULT:    -4.719      1.829      2.602
REMARK INTER + INTRA:          -6.129
REMARK INTER:                  -5.866
REMARK INTRA:                  -0.264
REMARK UNBOUND:                -0.307
REMARK SMILES CCOC(=O)c1ccc(O)c(O)c1
REMARK SMILES IDX 4 1 5 2 3 3 2 4 1 5 6 6 13 7 7 8 11 9 8 10 9 11 12 12 10 14
REMARK H PARENT 12 13 10 15
REMARK Flexibility Score: inf
ROOT
ATOM      1  C   UNL     1       8.086  -8.398 -10.448  1.00  0.00     0.338 C 
ATOM      2  O   UNL     1       6.989  -8.981 -10.220  1.00  0.00    -0.246 OA
ENDROOT
BRANCH   1   3
ATOM      3  O   UNL     1       8.712  -8.541 -11.693  1.00  0.00    -0.462 OA
BRANCH   3   4
ATOM      4  C   UNL     1       9.099  -7.437 -12.509  1.00  0.00     0.230 C 
ATOM      5  C   UNL     1       7.967  -6.422 -12.612  1.00  0.00     0.049 C 
ENDBRANCH   3   4
ENDBRANCH   1   3
BRANCH   1   6
ATOM      6  C   UNL     1       8.719  -7.569  -9.397  1.00  0.00     0.064 A 
ATOM      7  C   UNL     1       8.055  -6.444  -8.872  1.00  0.00     0.065 A 
ATOM      8  C   UNL     1       9.995  -7.897  -8.909  1.00  0.00     0.020 A 
ATOM      9  C   UNL     1       8.658  -5.662  -7.878  1.00  0.00     0.158 A 
ATOM     10  C   UNL     1      10.595  -7.116  -7.918  1.00  0.00     0.051 A 
ATOM     11  C   UNL     1       9.930  -5.998  -7.399  1.00  0.00     0.157 A 
BRANCH   9  12
ATOM     12  O   UNL     1       7.998  -4.548  -7.360  1.00  0.00    -0.504 OA
ATOM     13  H   UNL     1       7.148  -4.640  -6.817  1.00  0.00     0.293 HD
ENDBRANCH   9  12
BRANCH  11  14
ATOM     14  O   UNL     1      10.526  -5.217  -6.411  1.00  0.00    -0.504 OA
ATOM     15  H   UNL     1      10.114  -4.342  -6.107  1.00  0.00     0.293 HD
ENDBRANCH  11  14
ENDBRANCH   1   6
TORSDOF 5
ENDMDL
MODEL 6
REMARK VINA RESULT:    -4.602     16.437     18.436
REMARK INTER + INTRA:          -5.986
REMARK INTER:                  -5.862
REMARK INTRA:                  -0.123
REMARK UNBOUND:                -0.307
REMARK SMILES CCOC(=O)c1ccc(O)c(O)c1
REMARK SMILES IDX 4 1 5 2 3 3 2 4 1 5 6 6 13 7 7 8 11 9 8 10 9 11 12 12 10 14
REMARK H PARENT 12 13 10 15
REMARK Flexibility Score: inf
ROOT
ATOM      1  C   UNL     1      20.808   0.772 -17.245  1.00  0.00     0.338 C 
ATOM      2  O   UNL     1      19.728   0.779 -16.591  1.00  0.00    -0.246 OA
ENDROOT
BRANCH   1   3
ATOM      3  O   UNL     1      21.996   1.209 -16.645  1.00  0.00    -0.462 OA
BRANCH   3   4
ATOM      4  C   UNL     1      22.067   1.707 -15.311  1.00  0.00     0.230 C 
ATOM      5  C   UNL     1      23.386   2.433 -15.077  1.00  0.00     0.049 C 
ENDBRANCH   3   4
ENDBRANCH   1   3
BRANCH   1   6
ATOM      6  C   UNL     1      20.821   0.310 -18.651  1.00  0.00     0.064 A 
ATOM      7  C   UNL     1      21.289   1.149 -19.680  1.00  0.00     0.065 A 
ATOM      8  C   UNL     1      20.363  -0.978 -18.978  1.00  0.00     0.020 A 
ATOM      9  C   UNL     1      21.298   0.708 -21.010  1.00  0.00     0.158 A 
ATOM     10  C   UNL     1      20.373  -1.417 -20.304  1.00  0.00     0.051 A 
ATOM     11  C   UNL     1      20.840  -0.578 -21.324  1.00  0.00     0.157 A 
BRANCH   9  12
ATOM     12  O   UNL     1      21.762   1.542 -22.027  1.00  0.00    -0.504 OA
ATOM     13  H   UNL     1      21.240   2.359 -22.322  1.00  0.00     0.293 HD
ENDBRANCH   9  12
BRANCH  11  14
ATOM     14  O   UNL     1      20.851  -1.013 -22.647  1.00  0.00    -0.504 OA
ATOM     15  H   UNL     1      21.103  -1.964 -22.891  1.00  0.00     0.293 HD
ENDBRANCH  11  14
ENDBRANCH   1   6
TORSDOF 5
ENDMDL
MODEL 7
REMARK VINA RESULT:    -4.577      2.350      3.592
REMARK INTER + INTRA:          -5.954
REMARK INTER:                  -5.839
REMARK INTRA:                  -0.115
REMARK UNBOUND:                -0.307
REMARK SMILES CCOC(=O)c1ccc(O)c(O)c1
REMARK SMILES IDX 4 1 5 2 3 3 2 4 1 5 6 6 13 7 7 8 11 9 8 10 9 11 12 12 10 14
REMARK H PARENT 12 13 10 15
REMARK Flexibility Score: inf
ROOT
ATOM      1  C   UNL     1       8.011  -5.442 -11.958  1.00  0.00     0.338 C 
ATOM      2  O   UNL     1       7.665  -6.488 -12.576  1.00  0.00    -0.246 OA
ENDROOT
BRANCH   1   3
ATOM      3  O   UNL     1       7.740  -4.181 -12.504  1.00  0.00    -0.462 OA
BRANCH   3   4
ATOM      4  C   UNL     1       7.242  -3.987 -13.826  1.00  0.00     0.230 C 
ATOM      5  C   UNL     1       6.895  -2.521 -14.060  1.00  0.00     0.049 C 
ENDBRANCH   3   4
ENDBRANCH   1   3
BRANCH   1   6
ATOM      6  C   UNL     1       8.710  -5.546 -10.658  1.00  0.00     0.064 A 
ATOM      7  C   UNL     1       8.058  -5.194  -9.461  1.00  0.00     0.065 A 
ATOM      8  C   UNL     1      10.039  -5.998 -10.602  1.00  0.00     0.020 A 
ATOM      9  C   UNL     1       8.724  -5.293  -8.231  1.00  0.00     0.158 A 
ATOM     10  C   UNL     1      10.702  -6.097  -9.376  1.00  0.00     0.051 A 
ATOM     11  C   UNL     1      10.049  -5.746  -8.188  1.00  0.00     0.157 A 
BRANCH   9  12
ATOM     12  O   UNL     1       8.076  -4.944  -7.048  1.00  0.00    -0.504 OA
ATOM     13  H   UNL     1       7.147  -5.285  -6.831  1.00  0.00     0.293 HD
ENDBRANCH   9  12
BRANCH  11  14
ATOM     14  O   UNL     1      10.707  -5.842  -6.965  1.00  0.00    -0.504 OA
ATOM     15  H   UNL     1      10.875  -6.738  -6.522  1.00  0.00     0.293 HD
ENDBRANCH  11  14
ENDBRANCH   1   6
TORSDOF 5
ENDMDL
MODEL 8
REMARK VINA RESULT:    -4.516      1.723      2.479
REMARK INTER + INTRA:          -5.879
REMARK INTER:                  -5.600
REMARK INTRA:                  -0.279
REMARK UNBOUND:                -0.307
REMARK SMILES CCOC(=O)c1ccc(O)c(O)c1
REMARK SMILES IDX 4 1 5 2 3 3 2 4 1 5 6 6 13 7 7 8 11 9 8 10 9 11 12 12 10 14
REMARK H PARENT 12 13 10 15
REMARK Flexibility Score: inf
ROOT
ATOM      1  C   UNL     1       8.745  -6.254  -8.955  1.00  0.00     0.338 C 
ATOM      2  O   UNL     1       8.415  -5.138  -9.444  1.00  0.00    -0.246 OA
ENDROOT
BRANCH   1   3
ATOM      3  O   UNL     1       9.467  -7.174  -9.726  1.00  0.00    -0.462 OA
BRANCH   3   4
ATOM      4  C   UNL     1      10.736  -6.887 -10.310  1.00  0.00     0.230 C 
ATOM      5  C   UNL     1      11.698  -6.339  -9.262  1.00  0.00     0.049 C 
ENDBRANCH   3   4
ENDBRANCH   1   3
BRANCH   1   6
ATOM      6  C   UNL     1       8.363  -6.598  -7.567  1.00  0.00     0.064 A 
ATOM      7  C   UNL     1       8.365  -5.617  -6.557  1.00  0.00     0.065 A 
ATOM      8  C   UNL     1       7.995  -7.914  -7.238  1.00  0.00     0.020 A 
ATOM      9  C   UNL     1       8.004  -5.947  -5.243  1.00  0.00     0.158 A 
ATOM     10  C   UNL     1       7.634  -8.241  -5.929  1.00  0.00     0.051 A 
ATOM     11  C   UNL     1       7.637  -7.262  -4.928  1.00  0.00     0.157 A 
BRANCH   9  12
ATOM     12  O   UNL     1       8.007  -4.974  -4.245  1.00  0.00    -0.504 OA
ATOM     13  H   UNL     1       7.277  -4.932  -3.543  1.00  0.00     0.293 HD
ENDBRANCH   9  12
BRANCH  11  14
ATOM     14  O   UNL     1       7.279  -7.585  -3.621  1.00  0.00    -0.504 OA
ATOM     15  H   UNL     1       6.317  -7.535  -3.307  1.00  0.00     0.293 HD
ENDBRANCH  11  14
ENDBRANCH   1   6
TORSDOF 5
ENDMDL
