MODEL 1
REMARK VINA RESULT:    -4.264      0.000      0.000
REMARK INTER + INTRA:          -9.976
REMARK INTER:                  -7.754
REMARK INTRA:                  -2.222
REMARK UNBOUND:                -2.222
REMARK SMILES CCCCCCCCCCCCCCCC(=O)[O-]
REMARK SMILES IDX 9 1 10 2 11 3 12 4 13 5 14 6 15 7 16 8 17 9 18 10 8 11 7 12
REMARK SMILES IDX 6 13 5 14 4 15 3 16 2 17 1 18
REMARK H PARENT
REMARK Flexibility Score: inf
ROOT
ATOM      1  C   UNL     1      -1.600  44.274  21.475  1.00  0.00     0.000 C 
ENDROOT
BRANCH   1   2
ATOM      2  C   UNL     1      -0.658  43.753  22.567  1.00  0.00     0.000 C 
BRANCH   2   3
ATOM      3  C   UNL     1      -0.983  44.394  23.925  1.00  0.00     0.000 C 
BRANCH   3   4
ATOM      4  C   UNL     1      -1.480  43.371  24.960  1.00  0.00     0.000 C 
BRANCH   4   5
ATOM      5  C   UNL     1      -3.005  43.181  24.918  1.00  0.00     0.000 C 
BRANCH   5   6
ATOM      6  C   UNL     1      -3.781  44.468  25.255  1.00  0.00     0.006 C 
BRANCH   6   7
ATOM      7  C   UNL     1      -4.593  45.036  24.078  1.00  0.00     0.053 C 
BRANCH   7   8
ATOM      8  C   UNL     1      -4.119  46.390  23.646  1.00  0.00     0.041 C 
ATOM      9  O   UNL     1      -4.043  46.676  22.422  1.00  0.00    -0.550 OA
ATOM     10  O   UNL     1      -3.737  47.330  24.596  1.00  0.00    -0.550 OA
ENDBRANCH   7   8
ENDBRANCH   6   7
ENDBRANCH   5   6
ENDBRANCH   4   5
ENDBRANCH   3   4
ENDBRANCH   2   3
ENDBRANCH   1   2
BRANCH   1  11
ATOM     11  C   UNL     1      -1.306  43.599  20.127  1.00  0.00     0.000 C 
BRANCH  11  12
ATOM     12  C   UNL     1      -2.144  44.178  18.975  1.00  0.00    -0.000 C 
BRANCH  12  13
ATOM     13  C   UNL     1      -3.305  45.056  19.474  1.00  0.00    -0.000 C 
BRANCH  13  14
ATOM     14  C   UNL     1      -4.673  44.374  19.314  1.00  0.00    -0.000 C 
BRANCH  14  15
ATOM     15  C   UNL     1      -5.222  43.825  20.640  1.00  0.00    -0.000 C 
BRANCH  15  16
ATOM     16  C   UNL     1      -5.609  42.344  20.501  1.00  0.00    -0.000 C 
BRANCH  16  17
ATOM     17  C   UNL     1      -4.390  41.409  20.532  1.00  0.00    -0.003 C 
ATOM     18  C   UNL     1      -3.752  41.314  21.918  1.00  0.00     0.004 C 
ENDBRANCH  16  17
ENDBRANCH  15  16
ENDBRANCH  14  15
ENDBRANCH  13  14
ENDBRANCH  12  13
ENDBRANCH  11  12
ENDBRANCH   1  11
TORSDOF 14
ENDMDL
MODEL 2
REMARK VINA RESULT:    -4.128      2.775      5.467
REMARK INTER + INTRA:          -9.729
REMARK INTER:                  -7.317
REMARK INTRA:                  -2.412
REMARK UNBOUND:                -2.222
REMARK SMILES CCCCCCCCCCCCCCCC(=O)[O-]
REMARK SMILES IDX 9 1 10 2 11 3 12 4 13 5 14 6 15 7 16 8 17 9 18 10 8 11 7 12
REMARK SMILES IDX 6 13 5 14 4 15 3 16 2 17 1 18
REMARK H PARENT
REMARK Flexibility Score: inf
ROOT
ATOM      1  C   UNL     1      -2.495  44.625  20.790  1.00  0.00     0.000 C 
ENDROOT
BRANCH   1   2
ATOM      2  C   UNL     1      -2.962  44.614  19.329  1.00  0.00     0.000 C 
BRANCH   2   3
ATOM      3  C   UNL     1      -4.489  44.453  19.241  1.00  0.00     0.000 C 
BRANCH   3   4
ATOM      4  C   UNL     1      -5.094  43.830  20.510  1.00  0.00     0.000 C 
BRANCH   4   5
ATOM      5  C   UNL     1      -5.393  42.331  20.347  1.00  0.00     0.000 C 
BRANCH   5   6
ATOM      6  C   UNL     1      -4.463  41.437  21.188  1.00  0.00     0.006 C 
BRANCH   6   7
ATOM      7  C   UNL     1      -3.277  40.852  20.401  1.00  0.00     0.053 C 
BRANCH   7   8
ATOM      8  C   UNL     1      -3.619  40.556  18.973  1.00  0.00     0.041 C 
ATOM      9  O   UNL     1      -4.325  39.553  18.684  1.00  0.00    -0.550 OA
ATOM     10  O   UNL     1      -3.139  41.374  17.958  1.00  0.00    -0.550 OA
ENDBRANCH   7   8
ENDBRANCH   6   7
ENDBRANCH   5   6
ENDBRANCH   4   5
ENDBRANCH   3   4
ENDBRANCH   2   3
ENDBRANCH   1   2
BRANCH   1  11
ATOM     11  C   UNL     1      -1.217  43.792  20.965  1.00  0.00     0.000 C 
BRANCH  11  12
ATOM     12  C   UNL     1      -0.851  43.567  22.441  1.00  0.00    -0.000 C 
BRANCH  12  13
ATOM     13  C   UNL     1      -1.544  44.569  23.381  1.00  0.00    -0.000 C 
BRANCH  13  14
ATOM     14  C   UNL     1      -2.366  43.876  24.479  1.00  0.00    -0.000 C 
BRANCH  14  15
ATOM     15  C   UNL     1      -3.839  43.685  24.086  1.00  0.00    -0.000 C 
BRANCH  15  16
ATOM     16  C   UNL     1      -4.674  44.914  24.478  1.00  0.00    -0.000 C 
BRANCH  16  17
ATOM     17  C   UNL     1      -4.962  45.837  23.283  1.00  0.00    -0.003 C 
ATOM     18  C   UNL     1      -4.100  47.099  23.289  1.00  0.00     0.004 C 
ENDBRANCH  16  17
ENDBRANCH  15  16
ENDBRANCH  14  15
ENDBRANCH  13  14
ENDBRANCH  12  13
ENDBRANCH  11  12
ENDBRANCH   1  11
TORSDOF 14
ENDMDL
MODEL 3
REMARK VINA RESULT:    -4.102      1.339      4.107
REMARK INTER + INTRA:          -9.681
REMARK INTER:                  -7.575
REMARK INTRA:                  -2.105
REMARK UNBOUND:                -2.222
REMARK SMILES CCCCCCCCCCCCCCCC(=O)[O-]
REMARK SMILES IDX 9 1 10 2 11 3 12 4 13 5 14 6 15 7 16 8 17 9 18 10 8 11 7 12
REMARK SMILES IDX 6 13 5 14 4 15 3 16 2 17 1 18
REMARK H PARENT
REMARK Flexibility Score: inf
ROOT
ATOM      1  C   UNL     1      -4.750  44.259  19.250  1.00  0.00     0.000 C 
ENDROOT
BRANCH   1   2
ATOM      2  C   UNL     1      -5.467  43.630  20.451  1.00  0.00     0.000 C 
BRANCH   2   3
ATOM      3  C   UNL     1      -5.115  42.139  20.582  1.00  0.00     0.000 C 
BRANCH   3   4
ATOM      4  C   UNL     1      -4.190  41.851  21.776  1.00  0.00     0.000 C 
BRANCH   4   5
ATOM      5  C   UNL     1      -4.927  41.918  23.124  1.00  0.00     0.000 C 
BRANCH   5   6
ATOM      6  C   UNL     1      -4.326  42.959  24.087  1.00  0.00     0.006 C 
BRANCH   6   7
ATOM      7  C   UNL     1      -4.867  44.385  23.884  1.00  0.00     0.053 C 
BRANCH   7   8
ATOM      8  C   UNL     1      -4.239  45.380  24.812  1.00  0.00     0.041 C 
ATOM      9  O   UNL     1      -4.278  45.200  26.058  1.00  0.00    -0.550 OA
ATOM     10  O   UNL     1      -3.632  46.521  24.302  1.00  0.00    -0.550 OA
ENDBRANCH   7   8
ENDBRANCH   6   7
ENDBRANCH   5   6
ENDBRANCH   4   5
ENDBRANCH   3   4
ENDBRANCH   2   3
ENDBRANCH   1   2
BRANCH   1  11
ATOM     11  C   UNL     1      -3.447  44.947  19.685  1.00  0.00     0.000 C 
BRANCH  11  12
ATOM     12  C   UNL     1      -2.195  44.125  19.337  1.00  0.00    -0.000 C 
BRANCH  12  13
ATOM     13  C   UNL     1      -1.308  43.854  20.565  1.00  0.00    -0.000 C 
BRANCH  13  14
ATOM     14  C   UNL     1      -1.799  44.590  21.822  1.00  0.00    -0.000 C 
BRANCH  14  15
ATOM     15  C   UNL     1      -1.140  44.071  23.109  1.00  0.00    -0.000 C 
BRANCH  15  16
ATOM     16  C   UNL     1      -0.015  43.076  22.785  1.00  0.00    -0.000 C 
BRANCH  16  17
ATOM     17  C   UNL     1       1.352  43.538  23.315  1.00  0.00    -0.003 C 
ATOM     18  C   UNL     1       2.427  43.571  22.229  1.00  0.00     0.004 C 
ENDBRANCH  16  17
ENDBRANCH  15  16
ENDBRANCH  14  15
ENDBRANCH  13  14
ENDBRANCH  12  13
ENDBRANCH  11  12
ENDBRANCH   1  11
TORSDOF 14
ENDMDL
MODEL 4
REMARK VINA RESULT:    -4.031      1.453      4.321
REMARK INTER + INTRA:          -9.552
REMARK INTER:                  -7.097
REMARK INTRA:                  -2.455
REMARK UNBOUND:                -2.222
REMARK SMILES CCCCCCCCCCCCCCCC(=O)[O-]
REMARK SMILES IDX 9 1 10 2 11 3 12 4 13 5 14 6 15 7 16 8 17 9 18 10 8 11 7 12
REMARK SMILES IDX 6 13 5 14 4 15 3 16 2 17 1 18
REMARK H PARENT
REMARK Flexibility Score: inf
ROOT
ATOM      1  C   UNL     1      -4.667  43.052  19.348  1.00  0.00     0.000 C 
ENDROOT
BRANCH   1   2
ATOM      2  C   UNL     1      -4.544  44.454  18.739  1.00  0.00     0.000 C 
BRANCH   2   3
ATOM      3  C   UNL     1      -3.384  45.232  19.382  1.00  0.00     0.000 C 
BRANCH   3   4
ATOM      4  C   UNL     1      -2.330  44.310  20.015  1.00  0.00     0.000 C 
BRANCH   4   5
ATOM      5  C   UNL     1      -2.073  44.636  21.496  1.00  0.00     0.000 C 
BRANCH   5   6
ATOM      6  C   UNL     1      -3.290  45.277  22.190  1.00  0.00     0.006 C 
BRANCH   6   7
ATOM      7  C   UNL     1      -3.030  45.695  23.648  1.00  0.00     0.053 C 
BRANCH   7   8
ATOM      8  C   UNL     1      -4.034  45.122  24.602  1.00  0.00     0.041 C 
ATOM      9  O   UNL     1      -3.678  44.755  25.753  1.00  0.00    -0.550 OA
ATOM     10  O   UNL     1      -5.359  44.971  24.211  1.00  0.00    -0.550 OA
ENDBRANCH   7   8
ENDBRANCH   6   7
ENDBRANCH   5   6
ENDBRANCH   4   5
ENDBRANCH   3   4
ENDBRANCH   2   3
ENDBRANCH   1   2
BRANCH   1  11
ATOM     11  C   UNL     1      -5.684  43.041  20.500  1.00  0.00     0.000 C 
BRANCH  11  12
ATOM     12  C   UNL     1      -5.563  41.792  21.388  1.00  0.00    -0.000 C 
BRANCH  12  13
ATOM     13  C   UNL     1      -4.422  41.907  22.415  1.00  0.00    -0.000 C 
BRANCH  13  14
ATOM     14  C   UNL     1      -3.183  41.089  22.015  1.00  0.00    -0.000 C 
BRANCH  14  15
ATOM     15  C   UNL     1      -1.985  41.333  22.945  1.00  0.00    -0.000 C 
BRANCH  15  16
ATOM     16  C   UNL     1      -2.451  41.875  24.306  1.00  0.00    -0.000 C 
BRANCH  16  17
ATOM     17  C   UNL     1      -1.286  42.386  25.168  1.00  0.00    -0.003 C 
ATOM     18  C   UNL     1      -0.351  43.323  24.405  1.00  0.00     0.004 C 
ENDBRANCH  16  17
ENDBRANCH  15  16
ENDBRANCH  14  15
ENDBRANCH  13  14
ENDBRANCH  12  13
ENDBRANCH  11  12
ENDBRANCH   1  11
TORSDOF 14
ENDMDL
MODEL 5
REMARK VINA RESULT:    -3.985      1.298      3.163
REMARK INTER + INTRA:          -9.469
REMARK INTER:                  -7.058
REMARK INTRA:                  -2.410
REMARK UNBOUND:                -2.222
REMARK SMILES CCCCCCCCCCCCCCCC(=O)[O-]
REMARK SMILES IDX 9 1 10 2 11 3 12 4 13 5 14 6 15 7 16 8 17 9 18 10 8 11 7 12
REMARK SMILES IDX 6 13 5 14 4 15 3 16 2 17 1 18
REMARK H PARENT
REMARK Flexibility Score: inf
ROOT
ATOM      1  C   UNL     1      -3.339  41.454  22.513  1.00  0.00     0.000 C 
ENDROOT
BRANCH   1   2
ATOM      2  C   UNL     1      -2.413  41.484  21.291  1.00  0.00     0.000 C 
BRANCH   2   3
ATOM      3  C   UNL     1      -1.001  41.948  21.684  1.00  0.00     0.000 C 
BRANCH   3   4
ATOM      4  C   UNL     1      -0.891  43.477  21.805  1.00  0.00     0.000 C 
BRANCH   4   5
ATOM      5  C   UNL     1      -0.635  43.937  23.250  1.00  0.00     0.000 C 
BRANCH   5   6
ATOM      6  C   UNL     1      -1.786  44.786  23.823  1.00  0.00     0.006 C 
BRANCH   6   7
ATOM      7  C   UNL     1      -2.838  45.199  22.780  1.00  0.00     0.053 C 
BRANCH   7   8
ATOM      8  C   UNL     1      -3.942  46.027  23.366  1.00  0.00     0.041 C 
ATOM      9  O   UNL     1      -5.137  45.640  23.284  1.00  0.00    -0.550 OA
ATOM     10  O   UNL     1      -3.651  47.238  23.982  1.00  0.00    -0.550 OA
ENDBRANCH   7   8
ENDBRANCH   6   7
ENDBRANCH   5   6
ENDBRANCH   4   5
ENDBRANCH   3   4
ENDBRANCH   2   3
ENDBRANCH   1   2
BRANCH   1  11
ATOM     11  C   UNL     1      -4.694  42.104  22.192  1.00  0.00     0.000 C 
BRANCH  11  12
ATOM     12  C   UNL     1      -4.919  42.296  20.683  1.00  0.00    -0.000 C 
BRANCH  12  13
ATOM     13  C   UNL     1      -5.395  43.717  20.333  1.00  0.00    -0.000 C 
BRANCH  13  14
ATOM     14  C   UNL     1      -4.673  44.295  19.104  1.00  0.00    -0.000 C 
BRANCH  14  15
ATOM     15  C   UNL     1      -3.290  44.870  19.445  1.00  0.00    -0.000 C 
BRANCH  15  16
ATOM     16  C   UNL     1      -2.219  44.321  18.491  1.00  0.00    -0.000 C 
BRANCH  16  17
ATOM     17  C   UNL     1      -2.634  42.994  17.836  1.00  0.00    -0.003 C 
ATOM     18  C   UNL     1      -2.225  42.905  16.367  1.00  0.00     0.004 C 
ENDBRANCH  16  17
ENDBRANCH  15  16
ENDBRANCH  14  15
ENDBRANCH  13  14
ENDBRANCH  12  13
ENDBRANCH  11  12
ENDBRANCH   1  11
TORSDOF 14
ENDMDL
MODEL 6
REMARK VINA RESULT:    -3.982      3.161      5.145
REMARK INTER + INTRA:          -9.463
REMARK INTER:                  -7.455
REMARK INTRA:                  -2.008
REMARK UNBOUND:                -2.222
REMARK SMILES CCCCCCCCCCCCCCCC(=O)[O-]
REMARK SMILES IDX 9 1 10 2 11 3 12 4 13 5 14 6 15 7 16 8 17 9 18 10 8 11 7 12
REMARK SMILES IDX 6 13 5 14 4 15 3 16 2 17 1 18
REMARK H PARENT
REMARK Flexibility Score: inf
ROOT
ATOM      1  C   UNL     1      -4.749  44.238  19.258  1.00  0.00     0.000 C 
ENDROOT
BRANCH   1   2
ATOM      2  C   UNL     1      -5.425  43.516  20.430  1.00  0.00     0.000 C 
BRANCH   2   3
ATOM      3  C   UNL     1      -5.192  41.998  20.347  1.00  0.00     0.000 C 
BRANCH   3   4
ATOM      4  C   UNL     1      -4.487  41.437  21.593  1.00  0.00     0.000 C 
BRANCH   4   5
ATOM      5  C   UNL     1      -4.745  42.284  22.849  1.00  0.00     0.000 C 
BRANCH   5   6
ATOM      6  C   UNL     1      -5.153  41.439  24.071  1.00  0.00     0.006 C 
BRANCH   6   7
ATOM      7  C   UNL     1      -6.113  40.283  23.740  1.00  0.00     0.053 C 
BRANCH   7   8
ATOM      8  C   UNL     1      -7.286  40.219  24.670  1.00  0.00     0.041 C 
ATOM      9  O   UNL     1      -7.508  41.159  25.478  1.00  0.00    -0.550 OA
ATOM     10  O   UNL     1      -8.121  39.108  24.662  1.00  0.00    -0.550 OA
ENDBRANCH   7   8
ENDBRANCH   6   7
ENDBRANCH   5   6
ENDBRANCH   4   5
ENDBRANCH   3   4
ENDBRANCH   2   3
ENDBRANCH   1   2
BRANCH   1  11
ATOM     11  C   UNL     1      -3.586  45.114  19.750  1.00  0.00     0.000 C 
BRANCH  11  12
ATOM     12  C   UNL     1      -2.273  44.330  19.901  1.00  0.00    -0.000 C 
BRANCH  12  13
ATOM     13  C   UNL     1      -1.807  44.234  21.365  1.00  0.00    -0.000 C 
BRANCH  13  14
ATOM     14  C   UNL     1      -2.645  45.113  22.309  1.00  0.00    -0.000 C 
BRANCH  14  15
ATOM     15  C   UNL     1      -2.286  44.904  23.788  1.00  0.00    -0.000 C 
BRANCH  15  16
ATOM     16  C   UNL     1      -0.931  44.193  23.927  1.00  0.00    -0.000 C 
BRANCH  16  17
ATOM     17  C   UNL     1      -0.948  43.095  25.002  1.00  0.00    -0.003 C 
ATOM     18  C   UNL     1      -2.249  43.071  25.803  1.00  0.00     0.004 C 
ENDBRANCH  16  17
ENDBRANCH  15  16
ENDBRANCH  14  15
ENDBRANCH  13  14
ENDBRANCH  12  13
ENDBRANCH  11  12
ENDBRANCH   1  11
TORSDOF 14
ENDMDL
MODEL 7
REMARK VINA RESULT:    -3.959      2.019      3.869
REMARK INTER + INTRA:          -9.421
REMARK INTER:                  -7.166
REMARK INTRA:                  -2.255
REMARK UNBOUND:                -2.222
REMARK SMILES CCCCCCCCCCCCCCCC(=O)[O-]
REMARK SMILES IDX 9 1 10 2 11 3 12 4 13 5 14 6 15 7 16 8 17 9 18 10 8 11 7 12
REMARK SMILES IDX 6 13 5 14 4 15 3 16 2 17 1 18
REMARK H PARENT
REMARK Flexibility Score: inf
ROOT
ATOM      1  C   UNL     1      -3.152  41.751  19.093  1.00  0.00     0.000 C 
ENDROOT
BRANCH   1   2
ATOM      2  C   UNL     1      -1.931  41.696  20.019  1.00  0.00     0.000 C 
BRANCH   2   3
ATOM      3  C   UNL     1      -0.867  42.719  19.588  1.00  0.00     0.000 C 
BRANCH   3   4
ATOM      4  C   UNL     1      -0.153  43.371  20.783  1.00  0.00     0.000 C 
BRANCH   4   5
ATOM      5  C   UNL     1      -0.428  42.640  22.107  1.00  0.00     0.000 C 
BRANCH   5   6
ATOM      6  C   UNL     1       0.085  43.411  23.338  1.00  0.00     0.006 C 
BRANCH   6   7
ATOM      7  C   UNL     1      -0.985  44.275  24.026  1.00  0.00     0.053 C 
BRANCH   7   8
ATOM      8  C   UNL     1      -1.776  43.514  25.046  1.00  0.00     0.041 C 
ATOM      9  O   UNL     1      -3.013  43.714  25.170  1.00  0.00    -0.550 OA
ATOM     10  O   UNL     1      -1.141  42.600  25.879  1.00  0.00    -0.550 OA
ENDBRANCH   7   8
ENDBRANCH   6   7
ENDBRANCH   5   6
ENDBRANCH   4   5
ENDBRANCH   3   4
ENDBRANCH   2   3
ENDBRANCH   1   2
BRANCH   1  11
ATOM     11  C   UNL     1      -2.950  42.790  17.979  1.00  0.00     0.000 C 
BRANCH  11  12
ATOM     12  C   UNL     1      -4.118  43.783  17.872  1.00  0.00    -0.000 C 
BRANCH  12  13
ATOM     13  C   UNL     1      -4.569  44.314  19.244  1.00  0.00    -0.000 C 
BRANCH  13  14
ATOM     14  C   UNL     1      -3.608  45.373  19.812  1.00  0.00    -0.000 C 
BRANCH  14  15
ATOM     15  C   UNL     1      -3.196  45.082  21.263  1.00  0.00    -0.000 C 
BRANCH  15  16
ATOM     16  C   UNL     1      -4.405  44.625  22.094  1.00  0.00    -0.000 C 
BRANCH  16  17
ATOM     17  C   UNL     1      -4.944  45.734  23.012  1.00  0.00    -0.003 C 
ATOM     18  C   UNL     1      -3.859  46.713  23.458  1.00  0.00     0.004 C 
ENDBRANCH  16  17
ENDBRANCH  15  16
ENDBRANCH  14  15
ENDBRANCH  13  14
ENDBRANCH  12  13
ENDBRANCH  11  12
ENDBRANCH   1  11
TORSDOF 14
ENDMDL
MODEL 8
REMARK VINA RESULT:    -3.934      2.195      4.931
REMARK INTER + INTRA:          -9.375
REMARK INTER:                  -7.051
REMARK INTRA:                  -2.324
REMARK UNBOUND:                -2.222
REMARK SMILES CCCCCCCCCCCCCCCC(=O)[O-]
REMARK SMILES IDX 9 1 10 2 11 3 12 4 13 5 14 6 15 7 16 8 17 9 18 10 8 11 7 12
REMARK SMILES IDX 6 13 5 14 4 15 3 16 2 17 1 18
REMARK H PARENT
REMARK Flexibility Score: inf
ROOT
ATOM      1  C   UNL     1      -4.440  42.721  19.971  1.00  0.00     0.000 C 
ENDROOT
BRANCH   1   2
ATOM      2  C   UNL     1      -4.685  44.217  19.734  1.00  0.00     0.000 C 
BRANCH   2   3
ATOM      3  C   UNL     1      -3.373  45.011  19.842  1.00  0.00     0.000 C 
BRANCH   3   4
ATOM      4  C   UNL     1      -2.141  44.105  20.001  1.00  0.00     0.000 C 
BRANCH   4   5
ATOM      5  C   UNL     1      -1.456  44.276  21.367  1.00  0.00     0.000 C 
BRANCH   5   6
ATOM      6  C   UNL     1      -0.423  43.172  21.663  1.00  0.00     0.006 C 
BRANCH   6   7
ATOM      7  C   UNL     1      -0.824  42.231  22.812  1.00  0.00     0.053 C 
BRANCH   7   8
ATOM      8  C   UNL     1      -0.401  42.743  24.155  1.00  0.00     0.041 C 
ATOM      9  O   UNL     1      -0.973  42.333  25.199  1.00  0.00    -0.550 OA
ATOM     10  O   UNL     1       0.609  43.692  24.252  1.00  0.00    -0.550 OA
ENDBRANCH   7   8
ENDBRANCH   6   7
ENDBRANCH   5   6
ENDBRANCH   4   5
ENDBRANCH   3   4
ENDBRANCH   2   3
ENDBRANCH   1   2
BRANCH   1  11
ATOM     11  C   UNL     1      -5.716  42.029  20.475  1.00  0.00     0.000 C 
BRANCH  11  12
ATOM     12  C   UNL     1      -5.572  41.487  21.907  1.00  0.00    -0.000 C 
BRANCH  12  13
ATOM     13  C   UNL     1      -4.259  41.928  22.576  1.00  0.00    -0.000 C 
BRANCH  13  14
ATOM     14  C   UNL     1      -4.387  42.050  24.104  1.00  0.00    -0.000 C 
BRANCH  14  15
ATOM     15  C   UNL     1      -4.603  43.498  24.567  1.00  0.00    -0.000 C 
BRANCH  15  16
ATOM     16  C   UNL     1      -3.915  44.487  23.613  1.00  0.00    -0.000 C 
BRANCH  16  17
ATOM     17  C   UNL     1      -4.843  45.631  23.177  1.00  0.00    -0.003 C 
ATOM     18  C   UNL     1      -4.165  46.999  23.237  1.00  0.00     0.004 C 
ENDBRANCH  16  17
ENDBRANCH  15  16
ENDBRANCH  14  15
ENDBRANCH  13  14
ENDBRANCH  12  13
ENDBRANCH  11  12
ENDBRANCH   1  11
TORSDOF 14
ENDMDL
MODEL 9
REMARK VINA RESULT:    -3.890      1.613      2.853
REMARK INTER + INTRA:          -9.296
REMARK INTER:                  -6.945
REMARK INTRA:                  -2.352
REMARK UNBOUND:                -2.222
REMARK SMILES CCCCCCCCCCCCCCCC(=O)[O-]
REMARK SMILES IDX 9 1 10 2 11 3 12 4 13 5 14 6 15 7 16 8 17 9 18 10 8 11 7 12
REMARK SMILES IDX 6 13 5 14 4 15 3 16 2 17 1 18
REMARK H PARENT
REMARK Flexibility Score: inf
ROOT
ATOM      1  C   UNL     1      -1.759  44.221  18.473  1.00  0.00     0.000 C 
ENDROOT
BRANCH   1   2
ATOM      2  C   UNL     1      -1.136  43.012  19.180  1.00  0.00     0.000 C 
BRANCH   2   3
ATOM      3  C   UNL     1      -0.421  43.440  20.473  1.00  0.00     0.000 C 
BRANCH   3   4
ATOM      4  C   UNL     1      -1.251  43.149  21.734  1.00  0.00     0.000 C 
BRANCH   4   5
ATOM      5  C   UNL     1      -1.457  44.398  22.606  1.00  0.00     0.000 C 
BRANCH   5   6
ATOM      6  C   UNL     1      -0.966  44.208  24.054  1.00  0.00     0.006 C 
BRANCH   6   7
ATOM      7  C   UNL     1      -1.819  43.229  24.880  1.00  0.00     0.053 C 
BRANCH   7   8
ATOM      8  C   UNL     1      -3.268  43.608  24.914  1.00  0.00     0.041 C 
ATOM      9  O   UNL     1      -3.643  44.627  25.552  1.00  0.00    -0.550 OA
ATOM     10  O   UNL     1      -4.208  42.823  24.259  1.00  0.00    -0.550 OA
ENDBRANCH   7   8
ENDBRANCH   6   7
ENDBRANCH   5   6
ENDBRANCH   4   5
ENDBRANCH   3   4
ENDBRANCH   2   3
ENDBRANCH   1   2
BRANCH   1  11
ATOM     11  C   UNL     1      -3.127  43.863  17.873  1.00  0.00     0.000 C 
BRANCH  11  12
ATOM     12  C   UNL     1      -4.287  44.621  18.541  1.00  0.00    -0.000 C 
BRANCH  12  13
ATOM     13  C   UNL     1      -3.934  45.110  19.957  1.00  0.00    -0.000 C 
BRANCH  13  14
ATOM     14  C   UNL     1      -4.676  44.327  21.053  1.00  0.00    -0.000 C 
BRANCH  14  15
ATOM     15  C   UNL     1      -5.755  43.392  20.487  1.00  0.00    -0.000 C 
BRANCH  15  16
ATOM     16  C   UNL     1      -5.550  41.953  20.986  1.00  0.00    -0.000 C 
BRANCH  16  17
ATOM     17  C   UNL     1      -4.226  41.342  20.499  1.00  0.00    -0.003 C 
ATOM     18  C   UNL     1      -4.370  40.602  19.169  1.00  0.00     0.004 C 
ENDBRANCH  16  17
ENDBRANCH  15  16
ENDBRANCH  14  15
ENDBRANCH  13  14
ENDBRANCH  12  13
ENDBRANCH  11  12
ENDBRANCH   1  11
TORSDOF 14
ENDMDL
