MODEL 1
REMARK VINA RESULT:    -5.963      0.000      0.000
REMARK INTER + INTRA:         -18.524
REMARK INTER:                 -15.723
REMARK INTRA:                  -2.801
REMARK UNBOUND:                -2.801
REMARK SMILES CCCCCCCCCCCCCCCCCCCCCCCCCCCCCC(=O)[O-]
REMARK SMILES IDX 16 1 17 2 18 3 19 4 20 5 21 6 22 7 23 8 24 9 25 10 26 11
REMARK SMILES IDX 27 12 28 13 29 14 30 15 31 16 32 17 15 18 14 19 13 20 12 21
REMARK SMILES IDX 11 22 10 23 9 24 8 25 7 26 6 27 5 28 4 29 3 30 2 31 1 32
REMARK H PARENT
REMARK Flexibility Score: inf
ROOT
ATOM      1  C   UNL     1      -8.542 -15.189  -5.975  1.00  0.00     0.000 C 
ENDROOT
BRANCH   1   2
ATOM      2  C   UNL     1      -7.276 -15.860  -6.542  1.00  0.00     0.000 C 
BRANCH   2   3
ATOM      3  C   UNL     1      -7.000 -17.286  -6.027  1.00  0.00     0.000 C 
BRANCH   3   4
ATOM      4  C   UNL     1      -8.056 -17.780  -5.027  1.00  0.00     0.000 C 
BRANCH   4   5
ATOM      5  C   UNL     1      -8.783 -19.026  -5.558  1.00  0.00     0.000 C 
BRANCH   5   6
ATOM      6  C   UNL     1      -9.166 -18.895  -7.042  1.00  0.00     0.000 C 
BRANCH   6   7
ATOM      7  C   UNL     1     -10.446 -18.064  -7.249  1.00  0.00     0.000 C 
BRANCH   7   8
ATOM      8  C   UNL     1     -11.176 -18.424  -8.562  1.00  0.00     0.000 C 
BRANCH   8   9
ATOM      9  C   UNL     1     -10.721 -17.592  -9.776  1.00  0.00     0.000 C 
BRANCH   9  10
ATOM     10  C   UNL     1     -11.657 -17.744 -10.984  1.00  0.00     0.000 C 
BRANCH  10  11
ATOM     11  C   UNL     1     -11.478 -16.583 -11.976  1.00  0.00     0.000 C 
BRANCH  11  12
ATOM     12  C   UNL     1     -10.369 -15.606 -11.553  1.00  0.00     0.000 C 
BRANCH  12  13
ATOM     13  C   UNL     1     -10.913 -14.239 -11.110  1.00  0.00     0.006 C 
BRANCH  13  14
ATOM     14  C   UNL     1     -12.375 -14.066 -11.544  1.00  0.00     0.053 C 
BRANCH  14  15
ATOM     15  C   UNL     1     -12.902 -12.736 -11.103  1.00  0.00     0.041 C 
ATOM     16  O   UNL     1     -14.113 -12.442 -11.285  1.00  0.00    -0.550 OA
ATOM     17  O   UNL     1     -12.059 -11.831 -10.459  1.00  0.00    -0.550 OA
ENDBRANCH  14  15
ENDBRANCH  13  14
ENDBRANCH  12  13
ENDBRANCH  11  12
ENDBRANCH  10  11
ENDBRANCH   9  10
ENDBRANCH   8   9
ENDBRANCH   7   8
ENDBRANCH   6   7
ENDBRANCH   5   6
ENDBRANCH   4   5
ENDBRANCH   3   4
ENDBRANCH   2   3
ENDBRANCH   1   2
BRANCH   1  18
ATOM     18  C   UNL     1      -8.349 -13.697  -5.651  1.00  0.00     0.000 C 
BRANCH  18  19
ATOM     19  C   UNL     1      -6.931 -13.386  -5.139  1.00  0.00     0.000 C 
BRANCH  19  20
ATOM     20  C   UNL     1      -6.865 -12.882  -3.686  1.00  0.00     0.000 C 
BRANCH  20  21
ATOM     21  C   UNL     1      -6.172 -13.833  -2.687  1.00  0.00     0.000 C 
BRANCH  21  22
ATOM     22  C   UNL     1      -6.672 -15.294  -2.693  1.00  0.00     0.000 C 
BRANCH  22  23
ATOM     23  C   UNL     1      -5.560 -16.368  -2.722  1.00  0.00     0.000 C 
BRANCH  23  24
ATOM     24  C   UNL     1      -4.325 -16.041  -1.857  1.00  0.00    -0.000 C 
BRANCH  24  25
ATOM     25  C   UNL     1      -4.049 -17.003  -0.683  1.00  0.00    -0.000 C 
BRANCH  25  26
ATOM     26  C   UNL     1      -2.615 -17.580  -0.629  1.00  0.00    -0.000 C 
BRANCH  26  27
ATOM     27  C   UNL     1      -1.765 -17.277  -1.878  1.00  0.00    -0.000 C 
BRANCH  27  28
ATOM     28  C   UNL     1      -0.648 -16.238  -1.667  1.00  0.00    -0.000 C 
BRANCH  28  29
ATOM     29  C   UNL     1       0.466 -16.661  -0.689  1.00  0.00    -0.000 C 
BRANCH  29  30
ATOM     30  C   UNL     1       0.535 -15.841   0.612  1.00  0.00    -0.000 C 
BRANCH  30  31
ATOM     31  C   UNL     1      -0.510 -16.277   1.651  1.00  0.00    -0.003 C 
ATOM     32  C   UNL     1      -0.472 -15.374   2.880  1.00  0.00     0.004 C 
ENDBRANCH  30  31
ENDBRANCH  29  30
ENDBRANCH  28  29
ENDBRANCH  27  28
ENDBRANCH  26  27
ENDBRANCH  25  26
ENDBRANCH  24  25
ENDBRANCH  23  24
ENDBRANCH  22  23
ENDBRANCH  21  22
ENDBRANCH  20  21
ENDBRANCH  19  20
ENDBRANCH  18  19
ENDBRANCH   1  18
TORSDOF 28
ENDMDL
MODEL 2
REMARK VINA RESULT:    -5.953      1.236      2.691
REMARK INTER + INTRA:         -18.498
REMARK INTER:                 -15.248
REMARK INTRA:                  -3.251
REMARK UNBOUND:                -2.801
REMARK SMILES CCCCCCCCCCCCCCCCCCCCCCCCCCCCCC(=O)[O-]
REMARK SMILES IDX 16 1 17 2 18 3 19 4 20 5 21 6 22 7 23 8 24 9 25 10 26 11
REMARK SMILES IDX 27 12 28 13 29 14 30 15 31 16 32 17 15 18 14 19 13 20 12 21
REMARK SMILES IDX 11 22 10 23 9 24 8 25 7 26 6 27 5 28 4 29 3 30 2 31 1 32
REMARK H PARENT
REMARK Flexibility Score: inf
ROOT
ATOM      1  C   UNL     1      -6.929 -13.199  -4.986  1.00  0.00     0.000 C 
ENDROOT
BRANCH   1   2
ATOM      2  C   UNL     1      -8.264 -13.615  -5.635  1.00  0.00     0.000 C 
BRANCH   2   3
ATOM      3  C   UNL     1      -8.447 -15.131  -5.848  1.00  0.00     0.000 C 
BRANCH   3   4
ATOM      4  C   UNL     1      -7.269 -15.781  -6.588  1.00  0.00     0.000 C 
BRANCH   4   5
ATOM      5  C   UNL     1      -6.617 -16.881  -5.735  1.00  0.00     0.000 C 
BRANCH   5   6
ATOM      6  C   UNL     1      -7.652 -17.714  -4.958  1.00  0.00     0.000 C 
BRANCH   6   7
ATOM      7  C   UNL     1      -8.059 -18.996  -5.708  1.00  0.00     0.000 C 
BRANCH   7   8
ATOM      8  C   UNL     1      -9.380 -18.826  -6.490  1.00  0.00     0.000 C 
BRANCH   8   9
ATOM      9  C   UNL     1      -9.185 -18.618  -8.004  1.00  0.00     0.000 C 
BRANCH   9  10
ATOM     10  C   UNL     1     -10.486 -18.797  -8.800  1.00  0.00     0.000 C 
BRANCH  10  11
ATOM     11  C   UNL     1     -10.820 -17.533  -9.610  1.00  0.00     0.000 C 
BRANCH  11  12
ATOM     12  C   UNL     1      -9.574 -16.699  -9.950  1.00  0.00     0.000 C 
BRANCH  12  13
ATOM     13  C   UNL     1      -9.682 -15.987 -11.307  1.00  0.00     0.006 C 
BRANCH  13  14
ATOM     14  C   UNL     1     -10.639 -14.790 -11.220  1.00  0.00     0.053 C 
BRANCH  14  15
ATOM     15  C   UNL     1     -11.828 -15.000 -12.107  1.00  0.00     0.041 C 
ATOM     16  O   UNL     1     -11.669 -15.278 -13.325  1.00  0.00    -0.550 OA
ATOM     17  O   UNL     1     -13.115 -14.922 -11.577  1.00  0.00    -0.550 OA
ENDBRANCH  14  15
ENDBRANCH  13  14
ENDBRANCH  12  13
ENDBRANCH  11  12
ENDBRANCH  10  11
ENDBRANCH   9  10
ENDBRANCH   8   9
ENDBRANCH   7   8
ENDBRANCH   6   7
ENDBRANCH   5   6
ENDBRANCH   4   5
ENDBRANCH   3   4
ENDBRANCH   2   3
ENDBRANCH   1   2
BRANCH   1  18
ATOM     18  C   UNL     1      -7.015 -13.051  -3.457  1.00  0.00     0.000 C 
BRANCH  18  19
ATOM     19  C   UNL     1      -5.995 -13.939  -2.722  1.00  0.00     0.000 C 
BRANCH  19  20
ATOM     20  C   UNL     1      -6.492 -15.359  -2.395  1.00  0.00     0.000 C 
BRANCH  20  21
ATOM     21  C   UNL     1      -5.391 -16.435  -2.286  1.00  0.00     0.000 C 
BRANCH  21  22
ATOM     22  C   UNL     1      -4.085 -15.993  -1.589  1.00  0.00     0.000 C 
BRANCH  22  23
ATOM     23  C   UNL     1      -3.612 -16.912  -0.440  1.00  0.00     0.000 C 
BRANCH  23  24
ATOM     24  C   UNL     1      -2.392 -17.793  -0.778  1.00  0.00    -0.000 C 
BRANCH  24  25
ATOM     25  C   UNL     1      -1.472 -17.271  -1.900  1.00  0.00    -0.000 C 
BRANCH  25  26
ATOM     26  C   UNL     1      -0.334 -16.333  -1.435  1.00  0.00    -0.000 C 
BRANCH  26  27
ATOM     27  C   UNL     1       1.048 -17.011  -1.353  1.00  0.00    -0.000 C 
BRANCH  27  28
ATOM     28  C   UNL     1       1.148 -18.160  -0.334  1.00  0.00    -0.000 C 
BRANCH  28  29
ATOM     29  C   UNL     1       1.747 -17.775   1.034  1.00  0.00    -0.000 C 
BRANCH  29  30
ATOM     30  C   UNL     1       0.922 -16.754   1.840  1.00  0.00    -0.000 C 
BRANCH  30  31
ATOM     31  C   UNL     1      -0.466 -17.283   2.232  1.00  0.00    -0.003 C 
ATOM     32  C   UNL     1      -1.366 -16.152   2.722  1.00  0.00     0.004 C 
ENDBRANCH  30  31
ENDBRANCH  29  30
ENDBRANCH  28  29
ENDBRANCH  27  28
ENDBRANCH  26  27
ENDBRANCH  25  26
ENDBRANCH  24  25
ENDBRANCH  23  24
ENDBRANCH  22  23
ENDBRANCH  21  22
ENDBRANCH  20  21
ENDBRANCH  19  20
ENDBRANCH  18  19
ENDBRANCH   1  18
TORSDOF 28
ENDMDL
MODEL 3
REMARK VINA RESULT:    -5.911      4.704     12.254
REMARK INTER + INTRA:         -18.388
REMARK INTER:                 -14.797
REMARK INTRA:                  -3.590
REMARK UNBOUND:                -2.801
REMARK SMILES CCCCCCCCCCCCCCCCCCCCCCCCCCCCCC(=O)[O-]
REMARK SMILES IDX 16 1 17 2 18 3 19 4 20 5 21 6 22 7 23 8 24 9 25 10 26 11
REMARK SMILES IDX 27 12 28 13 29 14 30 15 31 16 32 17 15 18 14 19 13 20 12 21
REMARK SMILES IDX 11 22 10 23 9 24 8 25 7 26 6 27 5 28 4 29 3 30 2 31 1 32
REMARK H PARENT
REMARK Flexibility Score: inf
ROOT
ATOM      1  C   UNL     1      -6.922 -13.333  -5.077  1.00  0.00     0.000 C 
ENDROOT
BRANCH   1   2
ATOM      2  C   UNL     1      -6.892 -12.950  -3.585  1.00  0.00     0.000 C 
BRANCH   2   3
ATOM      3  C   UNL     1      -6.152 -13.942  -2.666  1.00  0.00     0.000 C 
BRANCH   3   4
ATOM      4  C   UNL     1      -6.754 -15.355  -2.697  1.00  0.00     0.000 C 
BRANCH   4   5
ATOM      5  C   UNL     1      -5.653 -16.427  -2.662  1.00  0.00     0.000 C 
BRANCH   5   6
ATOM      6  C   UNL     1      -4.459 -16.015  -1.783  1.00  0.00     0.000 C 
BRANCH   6   7
ATOM      7  C   UNL     1      -4.077 -17.102  -0.761  1.00  0.00     0.000 C 
BRANCH   7   8
ATOM      8  C   UNL     1      -2.548 -17.270  -0.625  1.00  0.00     0.000 C 
BRANCH   8   9
ATOM      9  C   UNL     1      -1.829 -17.529  -1.963  1.00  0.00     0.000 C 
BRANCH   9  10
ATOM     10  C   UNL     1      -0.343 -17.145  -1.922  1.00  0.00     0.000 C 
BRANCH  10  11
ATOM     11  C   UNL     1      -0.073 -16.078  -0.848  1.00  0.00     0.000 C 
BRANCH  11  12
ATOM     12  C   UNL     1       1.137 -16.418   0.036  1.00  0.00     0.000 C 
BRANCH  12  13
ATOM     13  C   UNL     1       0.795 -17.396   1.170  1.00  0.00     0.006 C 
BRANCH  13  14
ATOM     14  C   UNL     1       0.750 -16.670   2.521  1.00  0.00     0.053 C 
BRANCH  14  15
ATOM     15  C   UNL     1      -0.631 -16.163   2.801  1.00  0.00     0.041 C 
ATOM     16  O   UNL     1      -0.904 -14.944   2.639  1.00  0.00    -0.550 OA
ATOM     17  O   UNL     1      -1.629 -17.047   3.210  1.00  0.00    -0.550 OA
ENDBRANCH  14  15
ENDBRANCH  13  14
ENDBRANCH  12  13
ENDBRANCH  11  12
ENDBRANCH  10  11
ENDBRANCH   9  10
ENDBRANCH   8   9
ENDBRANCH   7   8
ENDBRANCH   6   7
ENDBRANCH   5   6
ENDBRANCH   4   5
ENDBRANCH   3   4
ENDBRANCH   2   3
ENDBRANCH   1   2
BRANCH   1  18
ATOM     18  C   UNL     1      -8.342 -13.585  -5.613  1.00  0.00     0.000 C 
BRANCH  18  19
ATOM     19  C   UNL     1      -8.529 -15.024  -6.127  1.00  0.00     0.000 C 
BRANCH  19  20
ATOM     20  C   UNL     1      -7.229 -15.736  -6.542  1.00  0.00     0.000 C 
BRANCH  20  21
ATOM     21  C   UNL     1      -7.112 -17.209  -6.099  1.00  0.00     0.000 C 
BRANCH  21  22
ATOM     22  C   UNL     1      -8.357 -17.802  -5.403  1.00  0.00     0.000 C 
BRANCH  22  23
ATOM     23  C   UNL     1      -9.222 -18.732  -6.286  1.00  0.00     0.000 C 
BRANCH  23  24
ATOM     24  C   UNL     1     -10.252 -18.004  -7.173  1.00  0.00    -0.000 C 
BRANCH  24  25
ATOM     25  C   UNL     1     -10.283 -18.424  -8.657  1.00  0.00    -0.000 C 
BRANCH  25  26
ATOM     26  C   UNL     1      -8.927 -18.331  -9.395  1.00  0.00    -0.000 C 
BRANCH  26  27
ATOM     27  C   UNL     1      -8.466 -16.890  -9.691  1.00  0.00    -0.000 C 
BRANCH  27  28
ATOM     28  C   UNL     1      -9.549 -15.973 -10.288  1.00  0.00    -0.000 C 
BRANCH  28  29
ATOM     29  C   UNL     1      -9.579 -15.909 -11.828  1.00  0.00    -0.000 C 
BRANCH  29  30
ATOM     30  C   UNL     1     -10.988 -15.892 -12.450  1.00  0.00    -0.000 C 
BRANCH  30  31
ATOM     31  C   UNL     1     -12.068 -15.408 -11.470  1.00  0.00    -0.003 C 
ATOM     32  C   UNL     1     -13.124 -16.487 -11.240  1.00  0.00     0.004 C 
ENDBRANCH  30  31
ENDBRANCH  29  30
ENDBRANCH  28  29
ENDBRANCH  27  28
ENDBRANCH  26  27
ENDBRANCH  25  26
ENDBRANCH  24  25
ENDBRANCH  23  24
ENDBRANCH  22  23
ENDBRANCH  21  22
ENDBRANCH  20  21
ENDBRANCH  19  20
ENDBRANCH  18  19
ENDBRANCH   1  18
TORSDOF 28
ENDMDL
MODEL 4
REMARK VINA RESULT:    -5.840      1.504      3.365
REMARK INTER + INTRA:         -18.200
REMARK INTER:                 -15.276
REMARK INTRA:                  -2.924
REMARK UNBOUND:                -2.801
REMARK SMILES CCCCCCCCCCCCCCCCCCCCCCCCCCCCCC(=O)[O-]
REMARK SMILES IDX 16 1 17 2 18 3 19 4 20 5 21 6 22 7 23 8 24 9 25 10 26 11
REMARK SMILES IDX 27 12 28 13 29 14 30 15 31 16 32 17 15 18 14 19 13 20 12 21
REMARK SMILES IDX 11 22 10 23 9 24 8 25 7 26 6 27 5 28 4 29 3 30 2 31 1 32
REMARK H PARENT
REMARK Flexibility Score: inf
ROOT
ATOM      1  C   UNL     1      -6.876 -12.978  -3.633  1.00  0.00     0.000 C 
ENDROOT
BRANCH   1   2
ATOM      2  C   UNL     1      -6.909 -13.479  -5.090  1.00  0.00     0.000 C 
BRANCH   2   3
ATOM      3  C   UNL     1      -8.309 -13.833  -5.631  1.00  0.00     0.000 C 
BRANCH   3   4
ATOM      4  C   UNL     1      -8.489 -15.335  -5.898  1.00  0.00     0.000 C 
BRANCH   4   5
ATOM      5  C   UNL     1      -7.167 -15.982  -6.340  1.00  0.00     0.000 C 
BRANCH   5   6
ATOM      6  C   UNL     1      -7.014 -17.422  -5.819  1.00  0.00     0.000 C 
BRANCH   6   7
ATOM      7  C   UNL     1      -8.154 -18.343  -6.290  1.00  0.00     0.000 C 
BRANCH   7   8
ATOM      8  C   UNL     1      -7.877 -18.959  -7.679  1.00  0.00     0.000 C 
BRANCH   8   9
ATOM      9  C   UNL     1      -9.039 -18.793  -8.677  1.00  0.00     0.000 C 
BRANCH   9  10
ATOM     10  C   UNL     1      -9.834 -17.498  -8.452  1.00  0.00     0.000 C 
BRANCH  10  11
ATOM     11  C   UNL     1      -9.364 -16.385  -9.404  1.00  0.00     0.000 C 
BRANCH  11  12
ATOM     12  C   UNL     1      -9.083 -16.898 -10.825  1.00  0.00     0.000 C 
BRANCH  12  13
ATOM     13  C   UNL     1      -9.634 -15.969 -11.917  1.00  0.00     0.006 C 
BRANCH  13  14
ATOM     14  C   UNL     1     -10.460 -14.832 -11.301  1.00  0.00     0.053 C 
BRANCH  14  15
ATOM     15  C   UNL     1     -11.760 -14.671 -12.026  1.00  0.00     0.041 C 
ATOM     16  O   UNL     1     -12.609 -13.831 -11.626  1.00  0.00    -0.550 OA
ATOM     17  O   UNL     1     -12.019 -15.428 -13.168  1.00  0.00    -0.550 OA
ENDBRANCH  14  15
ENDBRANCH  13  14
ENDBRANCH  12  13
ENDBRANCH  11  12
ENDBRANCH  10  11
ENDBRANCH   9  10
ENDBRANCH   8   9
ENDBRANCH   7   8
ENDBRANCH   6   7
ENDBRANCH   5   6
ENDBRANCH   4   5
ENDBRANCH   3   4
ENDBRANCH   2   3
ENDBRANCH   1   2
BRANCH   1  18
ATOM     18  C   UNL     1      -6.133 -13.929  -2.678  1.00  0.00     0.000 C 
BRANCH  18  19
ATOM     19  C   UNL     1      -6.742 -15.343  -2.666  1.00  0.00     0.000 C 
BRANCH  19  20
ATOM     20  C   UNL     1      -5.722 -16.485  -2.508  1.00  0.00     0.000 C 
BRANCH  20  21
ATOM     21  C   UNL     1      -4.365 -16.079  -1.896  1.00  0.00     0.000 C 
BRANCH  21  22
ATOM     22  C   UNL     1      -3.894 -16.920  -0.688  1.00  0.00     0.000 C 
BRANCH  22  23
ATOM     23  C   UNL     1      -2.554 -17.663  -0.891  1.00  0.00     0.000 C 
BRANCH  23  24
ATOM     24  C   UNL     1      -1.312 -16.751  -0.947  1.00  0.00    -0.000 C 
BRANCH  24  25
ATOM     25  C   UNL     1      -0.203 -17.054   0.081  1.00  0.00    -0.000 C 
BRANCH  25  26
ATOM     26  C   UNL     1      -0.536 -18.171   1.098  1.00  0.00    -0.000 C 
BRANCH  26  27
ATOM     27  C   UNL     1      -0.153 -17.836   2.552  1.00  0.00    -0.000 C 
BRANCH  27  28
ATOM     28  C   UNL     1      -1.044 -16.780   3.231  1.00  0.00    -0.000 C 
BRANCH  28  29
ATOM     29  C   UNL     1      -0.291 -15.581   3.843  1.00  0.00    -0.000 C 
BRANCH  29  30
ATOM     30  C   UNL     1       0.418 -14.670   2.824  1.00  0.00    -0.000 C 
BRANCH  30  31
ATOM     31  C   UNL     1       1.423 -13.709   3.479  1.00  0.00    -0.003 C 
ATOM     32  C   UNL     1       0.870 -12.288   3.531  1.00  0.00     0.004 C 
ENDBRANCH  30  31
ENDBRANCH  29  30
ENDBRANCH  28  29
ENDBRANCH  27  28
ENDBRANCH  26  27
ENDBRANCH  25  26
ENDBRANCH  24  25
ENDBRANCH  23  24
ENDBRANCH  22  23
ENDBRANCH  21  22
ENDBRANCH  20  21
ENDBRANCH  19  20
ENDBRANCH  18  19
ENDBRANCH   1  18
TORSDOF 28
ENDMDL
MODEL 5
REMARK VINA RESULT:    -5.768      4.725     12.551
REMARK INTER + INTRA:         -18.011
REMARK INTER:                 -14.543
REMARK INTRA:                  -3.468
REMARK UNBOUND:                -2.801
REMARK SMILES CCCCCCCCCCCCCCCCCCCCCCCCCCCCCC(=O)[O-]
REMARK SMILES IDX 16 1 17 2 18 3 19 4 20 5 21 6 22 7 23 8 24 9 25 10 26 11
REMARK SMILES IDX 27 12 28 13 29 14 30 15 31 16 32 17 15 18 14 19 13 20 12 21
REMARK SMILES IDX 11 22 10 23 9 24 8 25 7 26 6 27 5 28 4 29 3 30 2 31 1 32
REMARK H PARENT
REMARK Flexibility Score: inf
ROOT
ATOM      1  C   UNL     1      -8.502 -15.091  -6.006  1.00  0.00     0.000 C 
ENDROOT
BRANCH   1   2
ATOM      2  C   UNL     1      -8.249 -13.612  -5.658  1.00  0.00     0.000 C 
BRANCH   2   3
ATOM      3  C   UNL     1      -6.889 -13.316  -4.995  1.00  0.00     0.000 C 
BRANCH   3   4
ATOM      4  C   UNL     1      -7.000 -13.043  -3.487  1.00  0.00     0.000 C 
BRANCH   4   5
ATOM      5  C   UNL     1      -5.993 -13.892  -2.694  1.00  0.00     0.000 C 
BRANCH   5   6
ATOM      6  C   UNL     1      -6.484 -15.333  -2.474  1.00  0.00     0.000 C 
BRANCH   6   7
ATOM      7  C   UNL     1      -5.326 -16.347  -2.411  1.00  0.00     0.000 C 
BRANCH   7   8
ATOM      8  C   UNL     1      -4.174 -15.867  -1.500  1.00  0.00     0.000 C 
BRANCH   8   9
ATOM      9  C   UNL     1      -3.565 -16.982  -0.628  1.00  0.00     0.000 C 
BRANCH   9  10
ATOM     10  C   UNL     1      -2.525 -17.823  -1.380  1.00  0.00     0.000 C 
BRANCH  10  11
ATOM     11  C   UNL     1      -1.264 -18.043  -0.527  1.00  0.00     0.000 C 
BRANCH  11  12
ATOM     12  C   UNL     1      -0.261 -16.885  -0.641  1.00  0.00     0.000 C 
BRANCH  12  13
ATOM     13  C   UNL     1       0.116 -16.282   0.721  1.00  0.00     0.006 C 
BRANCH  13  14
ATOM     14  C   UNL     1       0.272 -17.382   1.780  1.00  0.00     0.053 C 
BRANCH  14  15
ATOM     15  C   UNL     1      -0.585 -17.090   2.973  1.00  0.00     0.041 C 
ATOM     16  O   UNL     1      -0.063 -16.960   4.112  1.00  0.00    -0.550 OA
ATOM     17  O   UNL     1      -1.961 -16.926   2.820  1.00  0.00    -0.550 OA
ENDBRANCH  14  15
ENDBRANCH  13  14
ENDBRANCH  12  13
ENDBRANCH  11  12
ENDBRANCH  10  11
ENDBRANCH   9  10
ENDBRANCH   8   9
ENDBRANCH   7   8
ENDBRANCH   6   7
ENDBRANCH   5   6
ENDBRANCH   4   5
ENDBRANCH   3   4
ENDBRANCH   2   3
ENDBRANCH   1   2
BRANCH   1  18
ATOM     18  C   UNL     1      -7.264 -15.802  -6.582  1.00  0.00     0.000 C 
BRANCH  18  19
ATOM     19  C   UNL     1      -6.885 -17.061  -5.783  1.00  0.00     0.000 C 
BRANCH  19  20
ATOM     20  C   UNL     1      -8.020 -17.649  -4.926  1.00  0.00     0.000 C 
BRANCH  20  21
ATOM     21  C   UNL     1      -8.588 -18.998  -5.415  1.00  0.00     0.000 C 
BRANCH  21  22
ATOM     22  C   UNL     1      -9.048 -19.039  -6.889  1.00  0.00     0.000 C 
BRANCH  22  23
ATOM     23  C   UNL     1     -10.208 -18.079  -7.240  1.00  0.00     0.000 C 
BRANCH  23  24
ATOM     24  C   UNL     1     -10.399 -17.822  -8.749  1.00  0.00    -0.000 C 
BRANCH  24  25
ATOM     25  C   UNL     1      -9.478 -16.756  -9.375  1.00  0.00    -0.000 C 
BRANCH  25  26
ATOM     26  C   UNL     1      -9.187 -16.941 -10.883  1.00  0.00    -0.000 C 
BRANCH  26  27
ATOM     27  C   UNL     1      -9.545 -15.717 -11.750  1.00  0.00    -0.000 C 
BRANCH  27  28
ATOM     28  C   UNL     1     -10.802 -14.949 -11.301  1.00  0.00    -0.000 C 
BRANCH  28  29
ATOM     29  C   UNL     1     -12.134 -15.704 -11.488  1.00  0.00    -0.000 C 
BRANCH  29  30
ATOM     30  C   UNL     1     -12.360 -16.283 -12.896  1.00  0.00    -0.000 C 
BRANCH  30  31
ATOM     31  C   UNL     1     -13.023 -17.670 -12.873  1.00  0.00    -0.003 C 
ATOM     32  C   UNL     1     -12.108 -18.704 -12.223  1.00  0.00     0.004 C 
ENDBRANCH  30  31
ENDBRANCH  29  30
ENDBRANCH  28  29
ENDBRANCH  27  28
ENDBRANCH  26  27
ENDBRANCH  25  26
ENDBRANCH  24  25
ENDBRANCH  23  24
ENDBRANCH  22  23
ENDBRANCH  21  22
ENDBRANCH  20  21
ENDBRANCH  19  20
ENDBRANCH  18  19
ENDBRANCH   1  18
TORSDOF 28
ENDMDL
MODEL 6
REMARK VINA RESULT:    -5.722      4.251     11.665
REMARK INTER + INTRA:         -17.889
REMARK INTER:                 -14.502
REMARK INTRA:                  -3.388
REMARK UNBOUND:                -2.801
REMARK SMILES CCCCCCCCCCCCCCCCCCCCCCCCCCCCCC(=O)[O-]
REMARK SMILES IDX 16 1 17 2 18 3 19 4 20 5 21 6 22 7 23 8 24 9 25 10 26 11
REMARK SMILES IDX 27 12 28 13 29 14 30 15 31 16 32 17 15 18 14 19 13 20 12 21
REMARK SMILES IDX 11 22 10 23 9 24 8 25 7 26 6 27 5 28 4 29 3 30 2 31 1 32
REMARK H PARENT
REMARK Flexibility Score: inf
ROOT
ATOM      1  C   UNL     1      -6.943 -13.215  -5.070  1.00  0.00     0.000 C 
ENDROOT
BRANCH   1   2
ATOM      2  C   UNL     1      -6.954 -12.924  -3.557  1.00  0.00     0.000 C 
BRANCH   2   3
ATOM      3  C   UNL     1      -6.156 -13.918  -2.690  1.00  0.00     0.000 C 
BRANCH   3   4
ATOM      4  C   UNL     1      -6.792 -15.315  -2.637  1.00  0.00     0.000 C 
BRANCH   4   5
ATOM      5  C   UNL     1      -5.727 -16.401  -2.416  1.00  0.00     0.000 C 
BRANCH   5   6
ATOM      6  C   UNL     1      -4.456 -15.850  -1.747  1.00  0.00     0.000 C 
BRANCH   6   7
ATOM      7  C   UNL     1      -3.752 -16.899  -0.867  1.00  0.00     0.000 C 
BRANCH   7   8
ATOM      8  C   UNL     1      -2.270 -17.094  -1.255  1.00  0.00     0.000 C 
BRANCH   8   9
ATOM      9  C   UNL     1      -1.659 -18.412  -0.741  1.00  0.00     0.000 C 
BRANCH   9  10
ATOM     10  C   UNL     1      -0.286 -18.214  -0.084  1.00  0.00     0.000 C 
BRANCH  10  11
ATOM     11  C   UNL     1       0.850 -18.388  -1.105  1.00  0.00     0.000 C 
BRANCH  11  12
ATOM     12  C   UNL     1       1.418 -17.048  -1.597  1.00  0.00     0.000 C 
BRANCH  12  13
ATOM     13  C   UNL     1       1.023 -16.725  -3.046  1.00  0.00     0.006 C 
BRANCH  13  14
ATOM     14  C   UNL     1       0.543 -17.987  -3.775  1.00  0.00     0.053 C 
BRANCH  14  15
ATOM     15  C   UNL     1       0.911 -17.931  -5.225  1.00  0.00     0.041 C 
ATOM     16  O   UNL     1       0.890 -18.977  -5.926  1.00  0.00    -0.550 OA
ATOM     17  O   UNL     1       1.244 -16.711  -5.812  1.00  0.00    -0.550 OA
ENDBRANCH  14  15
ENDBRANCH  13  14
ENDBRANCH  12  13
ENDBRANCH  11  12
ENDBRANCH  10  11
ENDBRANCH   9  10
ENDBRANCH   8   9
ENDBRANCH   7   8
ENDBRANCH   6   7
ENDBRANCH   5   6
ENDBRANCH   4   5
ENDBRANCH   3   4
ENDBRANCH   2   3
ENDBRANCH   1   2
BRANCH   1  18
ATOM     18  C   UNL     1      -8.335 -13.544  -5.637  1.00  0.00     0.000 C 
BRANCH  18  19
ATOM     19  C   UNL     1      -8.496 -15.039  -5.968  1.00  0.00     0.000 C 
BRANCH  19  20
ATOM     20  C   UNL     1      -7.239 -15.711  -6.548  1.00  0.00     0.000 C 
BRANCH  20  21
ATOM     21  C   UNL     1      -6.806 -17.018  -5.850  1.00  0.00     0.000 C 
BRANCH  21  22
ATOM     22  C   UNL     1      -7.943 -17.848  -5.214  1.00  0.00     0.000 C 
BRANCH  22  23
ATOM     23  C   UNL     1      -8.621 -18.865  -6.161  1.00  0.00     0.000 C 
BRANCH  23  24
ATOM     24  C   UNL     1      -9.883 -18.339  -6.875  1.00  0.00    -0.000 C 
BRANCH  24  25
ATOM     25  C   UNL     1      -9.948 -18.581  -8.397  1.00  0.00    -0.000 C 
BRANCH  25  26
ATOM     26  C   UNL     1      -8.789 -17.959  -9.212  1.00  0.00    -0.000 C 
BRANCH  26  27
ATOM     27  C   UNL     1      -8.923 -16.442  -9.443  1.00  0.00    -0.000 C 
BRANCH  27  28
ATOM     28  C   UNL     1      -9.557 -16.044 -10.789  1.00  0.00    -0.000 C 
BRANCH  28  29
ATOM     29  C   UNL     1      -9.857 -17.216 -11.745  1.00  0.00    -0.000 C 
BRANCH  29  30
ATOM     30  C   UNL     1     -11.353 -17.491 -11.986  1.00  0.00    -0.000 C 
BRANCH  30  31
ATOM     31  C   UNL     1     -12.256 -16.878 -10.904  1.00  0.00    -0.003 C 
ATOM     32  C   UNL     1     -13.478 -16.206 -11.525  1.00  0.00     0.004 C 
ENDBRANCH  30  31
ENDBRANCH  29  30
ENDBRANCH  28  29
ENDBRANCH  27  28
ENDBRANCH  26  27
ENDBRANCH  25  26
ENDBRANCH  24  25
ENDBRANCH  23  24
ENDBRANCH  22  23
ENDBRANCH  21  22
ENDBRANCH  20  21
ENDBRANCH  19  20
ENDBRANCH  18  19
ENDBRANCH   1  18
TORSDOF 28
ENDMDL
MODEL 7
REMARK VINA RESULT:    -5.709      4.607     12.104
REMARK INTER + INTRA:         -17.855
REMARK INTER:                 -14.766
REMARK INTRA:                  -3.089
REMARK UNBOUND:                -2.801
REMARK SMILES CCCCCCCCCCCCCCCCCCCCCCCCCCCCCC(=O)[O-]
REMARK SMILES IDX 16 1 17 2 18 3 19 4 20 5 21 6 22 7 23 8 24 9 25 10 26 11
REMARK SMILES IDX 27 12 28 13 29 14 30 15 31 16 32 17 15 18 14 19 13 20 12 21
REMARK SMILES IDX 11 22 10 23 9 24 8 25 7 26 6 27 5 28 4 29 3 30 2 31 1 32
REMARK H PARENT
REMARK Flexibility Score: inf
ROOT
ATOM      1  C   UNL     1      -8.631 -13.760  -5.627  1.00  0.00     0.000 C 
ENDROOT
BRANCH   1   2
ATOM      2  C   UNL     1      -7.229 -13.216  -5.290  1.00  0.00     0.000 C 
BRANCH   2   3
ATOM      3  C   UNL     1      -6.979 -12.924  -3.797  1.00  0.00     0.000 C 
BRANCH   3   4
ATOM      4  C   UNL     1      -5.972 -13.890  -3.155  1.00  0.00     0.000 C 
BRANCH   4   5
ATOM      5  C   UNL     1      -6.690 -15.024  -2.408  1.00  0.00     0.000 C 
BRANCH   5   6
ATOM      6  C   UNL     1      -5.922 -16.355  -2.479  1.00  0.00     0.000 C 
BRANCH   6   7
ATOM      7  C   UNL     1      -4.438 -16.200  -2.096  1.00  0.00     0.000 C 
BRANCH   7   8
ATOM      8  C   UNL     1      -4.106 -16.875  -0.746  1.00  0.00     0.000 C 
BRANCH   8   9
ATOM      9  C   UNL     1      -2.601 -17.119  -0.526  1.00  0.00     0.000 C 
BRANCH   9  10
ATOM     10  C   UNL     1      -1.775 -16.926  -1.805  1.00  0.00     0.000 C 
BRANCH  10  11
ATOM     11  C   UNL     1      -0.383 -16.352  -1.487  1.00  0.00     0.000 C 
BRANCH  11  12
ATOM     12  C   UNL     1       0.274 -17.028  -0.274  1.00  0.00     0.000 C 
BRANCH  12  13
ATOM     13  C   UNL     1       1.446 -16.217   0.301  1.00  0.00     0.006 C 
BRANCH  13  14
ATOM     14  C   UNL     1       1.730 -14.982  -0.563  1.00  0.00     0.053 C 
BRANCH  14  15
ATOM     15  C   UNL     1       1.498 -13.726   0.219  1.00  0.00     0.041 C 
ATOM     16  O   UNL     1       1.378 -12.622  -0.375  1.00  0.00    -0.550 OA
ATOM     17  O   UNL     1       1.379 -13.782   1.607  1.00  0.00    -0.550 OA
ENDBRANCH  14  15
ENDBRANCH  13  14
ENDBRANCH  12  13
ENDBRANCH  11  12
ENDBRANCH  10  11
ENDBRANCH   9  10
ENDBRANCH   8   9
ENDBRANCH   7   8
ENDBRANCH   6   7
ENDBRANCH   5   6
ENDBRANCH   4   5
ENDBRANCH   3   4
ENDBRANCH   2   3
ENDBRANCH   1   2
BRANCH   1  18
ATOM     18  C   UNL     1      -8.666 -15.289  -5.795  1.00  0.00     0.000 C 
BRANCH  18  19
ATOM     19  C   UNL     1      -7.437 -15.827  -6.549  1.00  0.00     0.000 C 
BRANCH  19  20
ATOM     20  C   UNL     1      -6.616 -16.878  -5.781  1.00  0.00     0.000 C 
BRANCH  20  21
ATOM     21  C   UNL     1      -7.434 -18.022  -5.146  1.00  0.00     0.000 C 
BRANCH  21  22
ATOM     22  C   UNL     1      -7.934 -19.112  -6.120  1.00  0.00     0.000 C 
BRANCH  22  23
ATOM     23  C   UNL     1      -9.434 -19.029  -6.482  1.00  0.00     0.000 C 
BRANCH  23  24
ATOM     24  C   UNL     1      -9.727 -18.518  -7.908  1.00  0.00    -0.000 C 
BRANCH  24  25
ATOM     25  C   UNL     1      -8.618 -18.759  -8.953  1.00  0.00    -0.000 C 
BRANCH  25  26
ATOM     26  C   UNL     1      -8.209 -17.515  -9.776  1.00  0.00    -0.000 C 
BRANCH  26  27
ATOM     27  C   UNL     1      -9.279 -16.407  -9.820  1.00  0.00    -0.000 C 
BRANCH  27  28
ATOM     28  C   UNL     1     -10.162 -16.408 -11.081  1.00  0.00    -0.000 C 
BRANCH  28  29
ATOM     29  C   UNL     1     -10.477 -15.015 -11.664  1.00  0.00    -0.000 C 
BRANCH  29  30
ATOM     30  C   UNL     1     -11.960 -14.604 -11.601  1.00  0.00    -0.000 C 
BRANCH  30  31
ATOM     31  C   UNL     1     -12.156 -13.129 -11.220  1.00  0.00    -0.003 C 
ATOM     32  C   UNL     1     -13.634 -12.747 -11.248  1.00  0.00     0.004 C 
ENDBRANCH  30  31
ENDBRANCH  29  30
ENDBRANCH  28  29
ENDBRANCH  27  28
ENDBRANCH  26  27
ENDBRANCH  25  26
ENDBRANCH  24  25
ENDBRANCH  23  24
ENDBRANCH  22  23
ENDBRANCH  21  22
ENDBRANCH  20  21
ENDBRANCH  19  20
ENDBRANCH  18  19
ENDBRANCH   1  18
TORSDOF 28
ENDMDL
MODEL 8
REMARK VINA RESULT:    -5.707      1.403      3.581
REMARK INTER + INTRA:         -17.849
REMARK INTER:                 -14.894
REMARK INTRA:                  -2.955
REMARK UNBOUND:                -2.801
REMARK SMILES CCCCCCCCCCCCCCCCCCCCCCCCCCCCCC(=O)[O-]
REMARK SMILES IDX 16 1 17 2 18 3 19 4 20 5 21 6 22 7 23 8 24 9 25 10 26 11
REMARK SMILES IDX 27 12 28 13 29 14 30 15 31 16 32 17 15 18 14 19 13 20 12 21
REMARK SMILES IDX 11 22 10 23 9 24 8 25 7 26 6 27 5 28 4 29 3 30 2 31 1 32
REMARK H PARENT
REMARK Flexibility Score: inf
ROOT
ATOM      1  C   UNL     1      -6.498 -14.111  -2.613  1.00  0.00     0.000 C 
ENDROOT
BRANCH   1   2
ATOM      2  C   UNL     1      -6.878 -13.025  -3.638  1.00  0.00     0.000 C 
BRANCH   2   3
ATOM      3  C   UNL     1      -6.903 -13.488  -5.108  1.00  0.00     0.000 C 
BRANCH   3   4
ATOM      4  C   UNL     1      -8.319 -13.535  -5.701  1.00  0.00     0.000 C 
BRANCH   4   5
ATOM      5  C   UNL     1      -8.758 -14.982  -5.976  1.00  0.00     0.000 C 
BRANCH   5   6
ATOM      6  C   UNL     1      -7.706 -15.774  -6.771  1.00  0.00     0.000 C 
BRANCH   6   7
ATOM      7  C   UNL     1      -7.549 -17.219  -6.264  1.00  0.00     0.000 C 
BRANCH   7   8
ATOM      8  C   UNL     1      -8.184 -18.251  -7.222  1.00  0.00     0.000 C 
BRANCH   8   9
ATOM      9  C   UNL     1      -9.705 -18.081  -7.401  1.00  0.00     0.000 C 
BRANCH   9  10
ATOM     10  C   UNL     1     -10.155 -18.264  -8.857  1.00  0.00     0.000 C 
BRANCH  10  11
ATOM     11  C   UNL     1      -9.168 -17.599  -9.832  1.00  0.00     0.000 C 
BRANCH  11  12
ATOM     12  C   UNL     1      -9.503 -16.123 -10.101  1.00  0.00     0.000 C 
BRANCH  12  13
ATOM     13  C   UNL     1      -9.734 -15.823 -11.589  1.00  0.00     0.006 C 
BRANCH  13  14
ATOM     14  C   UNL     1     -10.959 -16.582 -12.115  1.00  0.00     0.053 C 
BRANCH  14  15
ATOM     15  C   UNL     1     -12.089 -15.636 -12.386  1.00  0.00     0.041 C 
ATOM     16  O   UNL     1     -11.897 -14.392 -12.348  1.00  0.00    -0.550 OA
ATOM     17  O   UNL     1     -13.350 -16.133 -12.714  1.00  0.00    -0.550 OA
ENDBRANCH  14  15
ENDBRANCH  13  14
ENDBRANCH  12  13
ENDBRANCH  11  12
ENDBRANCH  10  11
ENDBRANCH   9  10
ENDBRANCH   8   9
ENDBRANCH   7   8
ENDBRANCH   6   7
ENDBRANCH   5   6
ENDBRANCH   4   5
ENDBRANCH   3   4
ENDBRANCH   2   3
ENDBRANCH   1   2
BRANCH   1  18
ATOM     18  C   UNL     1      -6.745 -15.542  -3.122  1.00  0.00     0.000 C 
BRANCH  18  19
ATOM     19  C   UNL     1      -5.526 -16.458  -2.914  1.00  0.00     0.000 C 
BRANCH  19  20
ATOM     20  C   UNL     1      -4.665 -16.119  -1.684  1.00  0.00     0.000 C 
BRANCH  20  21
ATOM     21  C   UNL     1      -3.176 -16.511  -1.791  1.00  0.00     0.000 C 
BRANCH  21  22
ATOM     22  C   UNL     1      -2.698 -17.605  -0.811  1.00  0.00     0.000 C 
BRANCH  22  23
ATOM     23  C   UNL     1      -1.359 -18.281  -1.187  1.00  0.00     0.000 C 
BRANCH  23  24
ATOM     24  C   UNL     1      -0.875 -18.001  -2.624  1.00  0.00    -0.000 C 
BRANCH  24  25
ATOM     25  C   UNL     1       0.349 -17.072  -2.757  1.00  0.00    -0.000 C 
BRANCH  25  26
ATOM     26  C   UNL     1       0.121 -15.613  -2.296  1.00  0.00    -0.000 C 
BRANCH  26  27
ATOM     27  C   UNL     1       0.996 -15.185  -1.102  1.00  0.00    -0.000 C 
BRANCH  27  28
ATOM     28  C   UNL     1       1.307 -16.304  -0.090  1.00  0.00    -0.000 C 
BRANCH  28  29
ATOM     29  C   UNL     1       0.971 -15.974   1.378  1.00  0.00    -0.000 C 
BRANCH  29  30
ATOM     30  C   UNL     1      -0.456 -16.348   1.818  1.00  0.00    -0.000 C 
BRANCH  30  31
ATOM     31  C   UNL     1      -0.492 -17.091   3.163  1.00  0.00    -0.003 C 
ATOM     32  C   UNL     1      -0.117 -18.560   2.988  1.00  0.00     0.004 C 
ENDBRANCH  30  31
ENDBRANCH  29  30
ENDBRANCH  28  29
ENDBRANCH  27  28
ENDBRANCH  26  27
ENDBRANCH  25  26
ENDBRANCH  24  25
ENDBRANCH  23  24
ENDBRANCH  22  23
ENDBRANCH  21  22
ENDBRANCH  20  21
ENDBRANCH  19  20
ENDBRANCH  18  19
ENDBRANCH   1  18
TORSDOF 28
ENDMDL
MODEL 9
REMARK VINA RESULT:    -5.697      1.596      3.492
REMARK INTER + INTRA:         -17.825
REMARK INTER:                 -14.582
REMARK INTRA:                  -3.242
REMARK UNBOUND:                -2.801
REMARK SMILES CCCCCCCCCCCCCCCCCCCCCCCCCCCCCC(=O)[O-]
REMARK SMILES IDX 16 1 17 2 18 3 19 4 20 5 21 6 22 7 23 8 24 9 25 10 26 11
REMARK SMILES IDX 27 12 28 13 29 14 30 15 31 16 32 17 15 18 14 19 13 20 12 21
REMARK SMILES IDX 11 22 10 23 9 24 8 25 7 26 6 27 5 28 4 29 3 30 2 31 1 32
REMARK H PARENT
REMARK Flexibility Score: inf
ROOT
ATOM      1  C   UNL     1      -7.057 -12.953  -3.628  1.00  0.00     0.000 C 
ENDROOT
BRANCH   1   2
ATOM      2  C   UNL     1      -7.020 -13.493  -5.070  1.00  0.00     0.000 C 
BRANCH   2   3
ATOM      3  C   UNL     1      -8.397 -13.688  -5.734  1.00  0.00     0.000 C 
BRANCH   3   4
ATOM      4  C   UNL     1      -8.575 -15.082  -6.354  1.00  0.00     0.000 C 
BRANCH   4   5
ATOM      5  C   UNL     1      -8.107 -16.182  -5.388  1.00  0.00     0.000 C 
BRANCH   5   6
ATOM      6  C   UNL     1      -7.030 -17.090  -6.007  1.00  0.00     0.000 C 
BRANCH   6   7
ATOM      7  C   UNL     1      -7.388 -18.584  -5.904  1.00  0.00     0.000 C 
BRANCH   7   8
ATOM      8  C   UNL     1      -8.062 -19.118  -7.187  1.00  0.00     0.000 C 
BRANCH   8   9
ATOM      9  C   UNL     1      -9.597 -18.982  -7.186  1.00  0.00     0.000 C 
BRANCH   9  10
ATOM     10  C   UNL     1     -10.099 -17.915  -8.168  1.00  0.00     0.000 C 
BRANCH  10  11
ATOM     11  C   UNL     1      -9.007 -17.534  -9.182  1.00  0.00     0.000 C 
BRANCH  11  12
ATOM     12  C   UNL     1      -9.281 -16.189  -9.873  1.00  0.00     0.000 C 
BRANCH  12  13
ATOM     13  C   UNL     1     -10.064 -16.338 -11.186  1.00  0.00     0.006 C 
BRANCH  13  14
ATOM     14  C   UNL     1     -11.571 -16.439 -10.914  1.00  0.00     0.053 C 
BRANCH  14  15
ATOM     15  C   UNL     1     -12.326 -15.458 -11.755  1.00  0.00     0.041 C 
ATOM     16  O   UNL     1     -11.717 -14.735 -12.588  1.00  0.00    -0.550 OA
ATOM     17  O   UNL     1     -13.713 -15.366 -11.643  1.00  0.00    -0.550 OA
ENDBRANCH  14  15
ENDBRANCH  13  14
ENDBRANCH  12  13
ENDBRANCH  11  12
ENDBRANCH  10  11
ENDBRANCH   9  10
ENDBRANCH   8   9
ENDBRANCH   7   8
ENDBRANCH   6   7
ENDBRANCH   5   6
ENDBRANCH   4   5
ENDBRANCH   3   4
ENDBRANCH   2   3
ENDBRANCH   1   2
BRANCH   1  18
ATOM     18  C   UNL     1      -6.096 -13.689  -2.677  1.00  0.00     0.000 C 
BRANCH  18  19
ATOM     19  C   UNL     1      -6.567 -15.120  -2.357  1.00  0.00     0.000 C 
BRANCH  19  20
ATOM     20  C   UNL     1      -5.599 -16.232  -2.800  1.00  0.00     0.000 C 
BRANCH  20  21
ATOM     21  C   UNL     1      -4.219 -16.221  -2.110  1.00  0.00     0.000 C 
BRANCH  21  22
ATOM     22  C   UNL     1      -4.139 -16.961  -0.756  1.00  0.00     0.000 C 
BRANCH  22  23
ATOM     23  C   UNL     1      -2.768 -17.604  -0.441  1.00  0.00     0.000 C 
BRANCH  23  24
ATOM     24  C   UNL     1      -1.955 -16.887   0.656  1.00  0.00    -0.000 C 
BRANCH  24  25
ATOM     25  C   UNL     1      -0.540 -17.440   0.918  1.00  0.00    -0.000 C 
BRANCH  25  26
ATOM     26  C   UNL     1      -0.184 -18.733   0.147  1.00  0.00    -0.000 C 
BRANCH  26  27
ATOM     27  C   UNL     1       1.328 -18.952  -0.054  1.00  0.00    -0.000 C 
BRANCH  27  28
ATOM     28  C   UNL     1       1.836 -18.691  -1.484  1.00  0.00    -0.000 C 
BRANCH  28  29
ATOM     29  C   UNL     1       0.750 -18.296  -2.505  1.00  0.00    -0.000 C 
BRANCH  29  30
ATOM     30  C   UNL     1       1.169 -17.205  -3.509  1.00  0.00    -0.000 C 
BRANCH  30  31
ATOM     31  C   UNL     1       1.030 -15.784  -2.940  1.00  0.00    -0.003 C 
ATOM     32  C   UNL     1      -0.366 -15.557  -2.365  1.00  0.00     0.004 C 
ENDBRANCH  30  31
ENDBRANCH  29  30
ENDBRANCH  28  29
ENDBRANCH  27  28
ENDBRANCH  26  27
ENDBRANCH  25  26
ENDBRANCH  24  25
ENDBRANCH  23  24
ENDBRANCH  22  23
ENDBRANCH  21  22
ENDBRANCH  20  21
ENDBRANCH  19  20
ENDBRANCH  18  19
ENDBRANCH   1  18
TORSDOF 28
ENDMDL
