MODEL 1
REMARK VINA RESULT:    -4.821      0.000      0.000
REMARK INTER + INTRA:          -5.276
REMARK INTER:                  -5.244
REMARK INTRA:                  -0.033
REMARK UNBOUND:                -0.033
REMARK SMILES COc1ccccc1O
REMARK SMILES IDX 3 1 4 2 5 3 6 4 7 5 8 6 2 7 1 8 9 9
REMARK H PARENT 9 10
REMARK Flexibility Score: inf
ROOT
ATOM      1  C   UNL     1      23.802   4.267  29.419  1.00  0.00     0.160 A 
ATOM      2  C   UNL     1      24.813   4.993  28.758  1.00  0.00     0.050 A 
ATOM      3  C   UNL     1      25.077   6.318  29.110  1.00  0.00     0.004 A 
ATOM      4  C   UNL     1      24.338   6.935  30.121  1.00  0.00     0.004 A 
ATOM      5  C   UNL     1      23.335   6.226  30.783  1.00  0.00     0.050 A 
ATOM      6  C   UNL     1      23.062   4.897  30.439  1.00  0.00     0.157 A 
ENDROOT
BRANCH   1   7
ATOM      7  O   UNL     1      23.508   2.933  29.094  1.00  0.00    -0.493 OA
ATOM      8  C   UNL     1      24.483   1.905  28.948  1.00  0.00     0.278 C 
ENDBRANCH   1   7
BRANCH   6   9
ATOM      9  O   UNL     1      22.052   4.219  31.122  1.00  0.00    -0.504 OA
ATOM     10  H   UNL     1      21.948   4.276  32.128  1.00  0.00     0.293 HD
ENDBRANCH   6   9
TORSDOF 2
ENDMDL
MODEL 2
REMARK VINA RESULT:    -4.620     11.417     12.250
REMARK INTER + INTRA:          -5.058
REMARK INTER:                  -5.032
REMARK INTRA:                  -0.026
REMARK UNBOUND:                -0.033
REMARK SMILES COc1ccccc1O
REMARK SMILES IDX 3 1 4 2 5 3 6 4 7 5 8 6 2 7 1 8 9 9
REMARK H PARENT 9 10
REMARK Flexibility Score: inf
ROOT
ATOM      1  C   UNL     1      16.619  -4.053  34.049  1.00  0.00     0.160 A 
ATOM      2  C   UNL     1      16.614  -2.991  33.121  1.00  0.00     0.050 A 
ATOM      3  C   UNL     1      15.885  -1.829  33.383  1.00  0.00     0.004 A 
ATOM      4  C   UNL     1      15.156  -1.710  34.567  1.00  0.00     0.004 A 
ATOM      5  C   UNL     1      15.154  -2.754  35.493  1.00  0.00     0.050 A 
ATOM      6  C   UNL     1      15.881  -3.924  35.242  1.00  0.00     0.157 A 
ENDROOT
BRANCH   1   7
ATOM      7  O   UNL     1      17.339  -5.237  33.822  1.00  0.00    -0.493 OA
ATOM      8  C   UNL     1      17.895  -5.613  32.566  1.00  0.00     0.278 C 
ENDBRANCH   1   7
BRANCH   6   9
ATOM      9  O   UNL     1      15.857  -4.948  36.190  1.00  0.00    -0.504 OA
ATOM     10  H   UNL     1      16.012  -4.774  37.176  1.00  0.00     0.293 HD
ENDBRANCH   6   9
TORSDOF 2
ENDMDL
MODEL 3
REMARK VINA RESULT:    -4.465     11.763     13.017
REMARK INTER + INTRA:          -4.890
REMARK INTER:                  -4.849
REMARK INTRA:                  -0.040
REMARK UNBOUND:                -0.033
REMARK SMILES COc1ccccc1O
REMARK SMILES IDX 3 1 4 2 5 3 6 4 7 5 8 6 2 7 1 8 9 9
REMARK H PARENT 9 10
REMARK Flexibility Score: inf
ROOT
ATOM      1  C   UNL     1      14.719  -2.638  35.217  1.00  0.00     0.160 A 
ATOM      2  C   UNL     1      14.859  -1.606  34.267  1.00  0.00     0.050 A 
ATOM      3  C   UNL     1      15.803  -1.711  33.243  1.00  0.00     0.004 A 
ATOM      4  C   UNL     1      16.616  -2.842  33.153  1.00  0.00     0.004 A 
ATOM      5  C   UNL     1      16.486  -3.871  34.087  1.00  0.00     0.050 A 
ATOM      6  C   UNL     1      15.544  -3.776  35.118  1.00  0.00     0.157 A 
ENDROOT
BRANCH   1   7
ATOM      7  O   UNL     1      13.782  -2.569  36.260  1.00  0.00    -0.493 OA
ATOM      8  C   UNL     1      12.371  -2.517  36.073  1.00  0.00     0.278 C 
ENDBRANCH   1   7
BRANCH   6   9
ATOM      9  O   UNL     1      15.441  -4.823  36.034  1.00  0.00    -0.504 OA
ATOM     10  H   UNL     1      15.031  -5.717  35.789  1.00  0.00     0.293 HD
ENDBRANCH   6   9
TORSDOF 2
ENDMDL
MODEL 4
REMARK VINA RESULT:    -4.370      1.698      2.495
REMARK INTER + INTRA:          -4.785
REMARK INTER:                  -4.759
REMARK INTRA:                  -0.026
REMARK UNBOUND:                -0.033
REMARK SMILES COc1ccccc1O
REMARK SMILES IDX 3 1 4 2 5 3 6 4 7 5 8 6 2 7 1 8 9 9
REMARK H PARENT 9 10
REMARK Flexibility Score: inf
ROOT
ATOM      1  C   UNL     1      24.794   4.040  29.437  1.00  0.00     0.160 A 
ATOM      2  C   UNL     1      23.442   4.066  29.838  1.00  0.00     0.050 A 
ATOM      3  C   UNL     1      22.907   5.206  30.443  1.00  0.00     0.004 A 
ATOM      4  C   UNL     1      23.708   6.329  30.653  1.00  0.00     0.004 A 
ATOM      5  C   UNL     1      25.047   6.315  30.259  1.00  0.00     0.050 A 
ATOM      6  C   UNL     1      25.595   5.179  29.653  1.00  0.00     0.157 A 
ENDROOT
BRANCH   1   7
ATOM      7  O   UNL     1      25.368   2.913  28.827  1.00  0.00    -0.493 OA
ATOM      8  C   UNL     1      24.826   1.597  28.892  1.00  0.00     0.278 C 
ENDBRANCH   1   7
BRANCH   6   9
ATOM      9  O   UNL     1      26.937   5.199  29.272  1.00  0.00    -0.504 OA
ATOM     10  H   UNL     1      27.689   5.074  29.939  1.00  0.00     0.293 HD
ENDBRANCH   6   9
TORSDOF 2
ENDMDL
MODEL 5
REMARK VINA RESULT:    -4.367     12.905     14.330
REMARK INTER + INTRA:          -4.783
REMARK INTER:                  -4.740
REMARK INTRA:                  -0.043
REMARK UNBOUND:                -0.033
REMARK SMILES COc1ccccc1O
REMARK SMILES IDX 3 1 4 2 5 3 6 4 7 5 8 6 2 7 1 8 9 9
REMARK H PARENT 9 10
REMARK Flexibility Score: inf
ROOT
ATOM      1  C   UNL     1      17.378  -6.633  26.219  1.00  0.00     0.160 A 
ATOM      2  C   UNL     1      18.383  -6.310  27.154  1.00  0.00     0.050 A 
ATOM      3  C   UNL     1      19.219  -7.305  27.663  1.00  0.00     0.004 A 
ATOM      4  C   UNL     1      19.065  -8.629  27.250  1.00  0.00     0.004 A 
ATOM      5  C   UNL     1      18.074  -8.961  26.324  1.00  0.00     0.050 A 
ATOM      6  C   UNL     1      17.230  -7.971  25.807  1.00  0.00     0.157 A 
ENDROOT
BRANCH   1   7
ATOM      7  O   UNL     1      16.518  -5.660  25.685  1.00  0.00    -0.493 OA
ATOM      8  C   UNL     1      15.305  -5.231  26.298  1.00  0.00     0.278 C 
ENDBRANCH   1   7
BRANCH   6   9
ATOM      9  O   UNL     1      16.250  -8.338  24.884  1.00  0.00    -0.504 OA
ATOM     10  H   UNL     1      15.291  -8.021  24.961  1.00  0.00     0.293 HD
ENDBRANCH   6   9
TORSDOF 2
ENDMDL
MODEL 6
REMARK VINA RESULT:    -4.356      1.368      2.063
REMARK INTER + INTRA:          -4.770
REMARK INTER:                  -4.744
REMARK INTRA:                  -0.026
REMARK UNBOUND:                -0.033
REMARK SMILES COc1ccccc1O
REMARK SMILES IDX 3 1 4 2 5 3 6 4 7 5 8 6 2 7 1 8 9 9
REMARK H PARENT 9 10
REMARK Flexibility Score: inf
ROOT
ATOM      1  C   UNL     1      25.204   4.453  29.200  1.00  0.00     0.160 A 
ATOM      2  C   UNL     1      25.671   5.727  29.584  1.00  0.00     0.050 A 
ATOM      3  C   UNL     1      24.848   6.592  30.308  1.00  0.00     0.004 A 
ATOM      4  C   UNL     1      23.555   6.201  30.656  1.00  0.00     0.004 A 
ATOM      5  C   UNL     1      23.081   4.942  30.283  1.00  0.00     0.050 A 
ATOM      6  C   UNL     1      23.897   4.066  29.557  1.00  0.00     0.157 A 
ENDROOT
BRANCH   1   7
ATOM      7  O   UNL     1      26.002   3.555  28.473  1.00  0.00    -0.493 OA
ATOM      8  C   UNL     1      27.152   3.928  27.720  1.00  0.00     0.278 C 
ENDBRANCH   1   7
BRANCH   6   9
ATOM      9  O   UNL     1      23.392   2.816  29.200  1.00  0.00    -0.504 OA
ATOM     10  H   UNL     1      23.275   2.537  28.233  1.00  0.00     0.293 HD
ENDBRANCH   6   9
TORSDOF 2
ENDMDL
MODEL 7
REMARK VINA RESULT:    -4.348     12.174     13.042
REMARK INTER + INTRA:          -4.762
REMARK INTER:                  -4.717
REMARK INTRA:                  -0.045
REMARK UNBOUND:                -0.033
REMARK SMILES COc1ccccc1O
REMARK SMILES IDX 3 1 4 2 5 3 6 4 7 5 8 6 2 7 1 8 9 9
REMARK H PARENT 9 10
REMARK Flexibility Score: inf
ROOT
ATOM      1  C   UNL     1      16.584  -4.205  34.630  1.00  0.00     0.160 A 
ATOM      2  C   UNL     1      16.557  -4.003  33.235  1.00  0.00     0.050 A 
ATOM      3  C   UNL     1      17.325  -4.808  32.391  1.00  0.00     0.004 A 
ATOM      4  C   UNL     1      18.126  -5.819  32.923  1.00  0.00     0.004 A 
ATOM      5  C   UNL     1      18.160  -6.029  34.303  1.00  0.00     0.050 A 
ATOM      6  C   UNL     1      17.395  -5.228  35.159  1.00  0.00     0.157 A 
ENDROOT
BRANCH   1   7
ATOM      7  O   UNL     1      15.826  -3.417  35.511  1.00  0.00    -0.493 OA
ATOM      8  C   UNL     1      14.414  -3.514  35.668  1.00  0.00     0.278 C 
ENDBRANCH   1   7
BRANCH   6   9
ATOM      9  O   UNL     1      17.453  -5.465  36.533  1.00  0.00    -0.504 OA
ATOM     10  H   UNL     1      17.872  -6.302  36.919  1.00  0.00     0.293 HD
ENDBRANCH   6   9
TORSDOF 2
ENDMDL
MODEL 8
REMARK VINA RESULT:    -4.340     11.124     12.203
REMARK INTER + INTRA:          -4.753
REMARK INTER:                  -4.728
REMARK INTRA:                  -0.025
REMARK UNBOUND:                -0.033
REMARK SMILES COc1ccccc1O
REMARK SMILES IDX 3 1 4 2 5 3 6 4 7 5 8 6 2 7 1 8 9 9
REMARK H PARENT 9 10
REMARK Flexibility Score: inf
ROOT
ATOM      1  C   UNL     1      16.236  -3.471  33.646  1.00  0.00     0.160 A 
ATOM      2  C   UNL     1      15.647  -4.349  34.578  1.00  0.00     0.050 A 
ATOM      3  C   UNL     1      14.771  -3.862  35.551  1.00  0.00     0.004 A 
ATOM      4  C   UNL     1      14.472  -2.500  35.607  1.00  0.00     0.004 A 
ATOM      5  C   UNL     1      15.049  -1.621  34.688  1.00  0.00     0.050 A 
ATOM      6  C   UNL     1      15.929  -2.098  33.709  1.00  0.00     0.157 A 
ENDROOT
BRANCH   1   7
ATOM      7  O   UNL     1      17.121  -3.923  32.654  1.00  0.00    -0.493 OA
ATOM      8  C   UNL     1      17.504  -5.283  32.475  1.00  0.00     0.278 C 
ENDBRANCH   1   7
BRANCH   6   9
ATOM      9  O   UNL     1      16.487  -1.191  32.808  1.00  0.00    -0.504 OA
ATOM     10  H   UNL     1      16.495  -1.360  31.808  1.00  0.00     0.293 HD
ENDBRANCH   6   9
TORSDOF 2
ENDMDL
MODEL 9
REMARK VINA RESULT:    -4.328      7.233      8.089
REMARK INTER + INTRA:          -4.740
REMARK INTER:                  -4.702
REMARK INTRA:                  -0.037
REMARK UNBOUND:                -0.033
REMARK SMILES COc1ccccc1O
REMARK SMILES IDX 3 1 4 2 5 3 6 4 7 5 8 6 2 7 1 8 9 9
REMARK H PARENT 9 10
REMARK Flexibility Score: inf
ROOT
ATOM      1  C   UNL     1      26.104  -0.512  25.522  1.00  0.00     0.160 A 
ATOM      2  C   UNL     1      24.999  -0.947  24.761  1.00  0.00     0.050 A 
ATOM      3  C   UNL     1      24.992  -0.789  23.374  1.00  0.00     0.004 A 
ATOM      4  C   UNL     1      26.080  -0.198  22.730  1.00  0.00     0.004 A 
ATOM      5  C   UNL     1      27.179   0.236  23.472  1.00  0.00     0.050 A 
ATOM      6  C   UNL     1      27.198   0.083  24.864  1.00  0.00     0.157 A 
ENDROOT
BRANCH   1   7
ATOM      7  O   UNL     1      26.148  -0.654  26.918  1.00  0.00    -0.493 OA
ATOM      8  C   UNL     1      26.034  -1.896  27.607  1.00  0.00     0.278 C 
ENDBRANCH   1   7
BRANCH   6   9
ATOM      9  O   UNL     1      28.313   0.528  25.575  1.00  0.00    -0.504 OA
ATOM     10  H   UNL     1      29.236   0.137  25.430  1.00  0.00     0.293 HD
ENDBRANCH   6   9
TORSDOF 2
ENDMDL
