MODEL 1
REMARK VINA RESULT:    -3.465      0.000      0.000
REMARK INTER + INTRA:          -3.896
REMARK INTER:                  -3.870
REMARK INTRA:                  -0.027
REMARK UNBOUND:                -0.027
REMARK SMILES CCCC(=O)[O-]
REMARK SMILES IDX 3 1 4 2 5 3 6 4 2 5 1 6
REMARK H PARENT
REMARK Flexibility Score: inf
ROOT
ATOM      1  C   UNL     1      14.760   1.222  27.569  1.00  0.00     0.052 C 
ENDROOT
BRANCH   1   2
ATOM      2  C   UNL     1      13.504   0.623  28.122  1.00  0.00     0.041 C 
ATOM      3  O   UNL     1      12.624   0.169  27.345  1.00  0.00    -0.550 OA
ATOM      4  O   UNL     1      13.320   0.535  29.496  1.00  0.00    -0.550 OA
ENDBRANCH   1   2
BRANCH   1   5
ATOM      5  C   UNL     1      15.152   0.585  26.229  1.00  0.00     0.003 C 
ATOM      6  C   UNL     1      15.573   1.625  25.191  1.00  0.00     0.004 C 
ENDBRANCH   1   5
TORSDOF 2
ENDMDL
MODEL 2
REMARK VINA RESULT:    -3.464      2.166      3.455
REMARK INTER + INTRA:          -3.895
REMARK INTER:                  -3.879
REMARK INTRA:                  -0.016
REMARK UNBOUND:                -0.027
REMARK SMILES CCCC(=O)[O-]
REMARK SMILES IDX 3 1 4 2 5 3 6 4 2 5 1 6
REMARK H PARENT
REMARK Flexibility Score: inf
ROOT
ATOM      1  C   UNL     1      14.759   1.247  27.518  1.00  0.00     0.052 C 
ENDROOT
BRANCH   1   2
ATOM      2  C   UNL     1      15.236   0.665  26.223  1.00  0.00     0.041 C 
ATOM      3  O   UNL     1      15.264  -0.583  26.061  1.00  0.00    -0.550 OA
ATOM      4  O   UNL     1      15.617   1.503  25.181  1.00  0.00    -0.550 OA
ENDBRANCH   1   2
BRANCH   1   5
ATOM      5  C   UNL     1      13.563   0.470  28.084  1.00  0.00     0.003 C 
ATOM      6  C   UNL     1      13.493   0.540  29.608  1.00  0.00     0.004 C 
ENDBRANCH   1   5
TORSDOF 2
ENDMDL
MODEL 3
REMARK VINA RESULT:    -3.463      0.071      1.323
REMARK INTER + INTRA:          -3.894
REMARK INTER:                  -3.869
REMARK INTRA:                  -0.025
REMARK UNBOUND:                -0.027
REMARK SMILES CCCC(=O)[O-]
REMARK SMILES IDX 3 1 4 2 5 3 6 4 2 5 1 6
REMARK H PARENT
REMARK Flexibility Score: inf
ROOT
ATOM      1  C   UNL     1      14.792   1.192  27.613  1.00  0.00     0.052 C 
ENDROOT
BRANCH   1   2
ATOM      2  C   UNL     1      13.532   0.602  28.166  1.00  0.00     0.041 C 
ATOM      3  O   UNL     1      13.333   0.583  29.409  1.00  0.00    -0.550 OA
ATOM      4  O   UNL     1      12.561   0.104  27.306  1.00  0.00    -0.550 OA
ENDBRANCH   1   2
BRANCH   1   5
ATOM      5  C   UNL     1      15.168   0.569  26.263  1.00  0.00     0.003 C 
ATOM      6  C   UNL     1      15.555   1.619  25.224  1.00  0.00     0.004 C 
ENDBRANCH   1   5
TORSDOF 2
ENDMDL
MODEL 4
REMARK VINA RESULT:    -3.420      1.934      2.733
REMARK INTER + INTRA:          -3.846
REMARK INTER:                  -3.821
REMARK INTRA:                  -0.025
REMARK UNBOUND:                -0.027
REMARK SMILES CCCC(=O)[O-]
REMARK SMILES IDX 3 1 4 2 5 3 6 4 2 5 1 6
REMARK H PARENT
REMARK Flexibility Score: inf
ROOT
ATOM      1  C   UNL     1      13.642  -1.297  26.236  1.00  0.00     0.052 C 
ENDROOT
BRANCH   1   2
ATOM      2  C   UNL     1      12.846  -0.207  26.883  1.00  0.00     0.041 C 
ATOM      3  O   UNL     1      13.257   0.335  27.943  1.00  0.00    -0.550 OA
ATOM      4  O   UNL     1      11.666   0.236  26.298  1.00  0.00    -0.550 OA
ENDBRANCH   1   2
BRANCH   1   5
ATOM      5  C   UNL     1      15.141  -0.969  26.211  1.00  0.00     0.003 C 
ATOM      6  C   UNL     1      16.007  -2.173  26.577  1.00  0.00     0.004 C 
ENDBRANCH   1   5
TORSDOF 2
ENDMDL
MODEL 5
REMARK VINA RESULT:    -3.407      2.736      3.590
REMARK INTER + INTRA:          -3.832
REMARK INTER:                  -3.810
REMARK INTRA:                  -0.022
REMARK UNBOUND:                -0.027
REMARK SMILES CCCC(=O)[O-]
REMARK SMILES IDX 3 1 4 2 5 3 6 4 2 5 1 6
REMARK H PARENT
REMARK Flexibility Score: inf
ROOT
ATOM      1  C   UNL     1      13.500  -1.206  26.211  1.00  0.00     0.052 C 
ENDROOT
BRANCH   1   2
ATOM      2  C   UNL     1      14.978  -0.969  26.188  1.00  0.00     0.041 C 
ATOM      3  O   UNL     1      15.431   0.205  26.141  1.00  0.00    -0.550 OA
ATOM      4  O   UNL     1      15.857  -2.043  26.255  1.00  0.00    -0.550 OA
ENDBRANCH   1   2
BRANCH   1   5
ATOM      5  C   UNL     1      12.749  -0.056  26.896  1.00  0.00     0.003 C 
ATOM      6  C   UNL     1      11.430   0.274  26.201  1.00  0.00     0.004 C 
ENDBRANCH   1   5
TORSDOF 2
ENDMDL
MODEL 6
REMARK VINA RESULT:    -3.358      2.052      3.081
REMARK INTER + INTRA:          -3.777
REMARK INTER:                  -3.713
REMARK INTRA:                  -0.064
REMARK UNBOUND:                -0.027
REMARK SMILES CCCC(=O)[O-]
REMARK SMILES IDX 3 1 4 2 5 3 6 4 2 5 1 6
REMARK H PARENT
REMARK Flexibility Score: inf
ROOT
ATOM      1  C   UNL     1      14.522   0.722  26.363  1.00  0.00     0.052 C 
ENDROOT
BRANCH   1   2
ATOM      2  C   UNL     1      14.617  -0.771  26.298  1.00  0.00     0.041 C 
ATOM      3  O   UNL     1      15.727  -1.343  26.457  1.00  0.00    -0.550 OA
ATOM      4  O   UNL     1      13.473  -1.534  26.097  1.00  0.00    -0.550 OA
ENDBRANCH   1   2
BRANCH   1   5
ATOM      5  C   UNL     1      14.741   1.245  27.788  1.00  0.00     0.003 C 
ATOM      6  C   UNL     1      13.648   0.785  28.751  1.00  0.00     0.004 C 
ENDBRANCH   1   5
TORSDOF 2
ENDMDL
MODEL 7
REMARK VINA RESULT:    -3.335      1.899      2.226
REMARK INTER + INTRA:          -3.752
REMARK INTER:                  -3.698
REMARK INTRA:                  -0.053
REMARK UNBOUND:                -0.027
REMARK SMILES CCCC(=O)[O-]
REMARK SMILES IDX 3 1 4 2 5 3 6 4 2 5 1 6
REMARK H PARENT
REMARK Flexibility Score: inf
ROOT
ATOM      1  C   UNL     1      14.756  -0.829  28.068  1.00  0.00     0.052 C 
ENDROOT
BRANCH   1   2
ATOM      2  C   UNL     1      14.362   0.590  28.341  1.00  0.00     0.041 C 
ATOM      3  O   UNL     1      14.815   1.522  27.627  1.00  0.00    -0.550 OA
ATOM      4  O   UNL     1      13.467   0.880  29.364  1.00  0.00    -0.550 OA
ENDBRANCH   1   2
BRANCH   1   5
ATOM      5  C   UNL     1      14.664  -1.167  26.574  1.00  0.00     0.003 C 
ATOM      6  C   UNL     1      13.222  -1.185  26.069  1.00  0.00     0.004 C 
ENDBRANCH   1   5
TORSDOF 2
ENDMDL
MODEL 8
REMARK VINA RESULT:    -3.330      1.333      1.668
REMARK INTER + INTRA:          -3.746
REMARK INTER:                  -3.725
REMARK INTRA:                  -0.021
REMARK UNBOUND:                -0.027
REMARK SMILES CCCC(=O)[O-]
REMARK SMILES IDX 3 1 4 2 5 3 6 4 2 5 1 6
REMARK H PARENT
REMARK Flexibility Score: inf
ROOT
ATOM      1  C   UNL     1      15.106  -0.009  26.431  1.00  0.00     0.052 C 
ENDROOT
BRANCH   1   2
ATOM      2  C   UNL     1      13.697  -0.465  26.649  1.00  0.00     0.041 C 
ATOM      3  O   UNL     1      13.288  -1.533  26.124  1.00  0.00    -0.550 OA
ATOM      4  O   UNL     1      12.843   0.273  27.460  1.00  0.00    -0.550 OA
ENDBRANCH   1   2
BRANCH   1   5
ATOM      5  C   UNL     1      15.187   1.508  26.213  1.00  0.00     0.003 C 
ATOM      6  C   UNL     1      15.483   1.872  24.759  1.00  0.00     0.004 C 
ENDBRANCH   1   5
TORSDOF 2
ENDMDL
MODEL 9
REMARK VINA RESULT:    -3.304      2.467      2.966
REMARK INTER + INTRA:          -3.717
REMARK INTER:                  -3.660
REMARK INTRA:                  -0.057
REMARK UNBOUND:                -0.027
REMARK SMILES CCCC(=O)[O-]
REMARK SMILES IDX 3 1 4 2 5 3 6 4 2 5 1 6
REMARK H PARENT
REMARK Flexibility Score: inf
ROOT
ATOM      1  C   UNL     1      13.498   0.945  25.592  1.00  0.00     0.052 C 
ENDROOT
BRANCH   1   2
ATOM      2  C   UNL     1      14.764   1.342  26.287  1.00  0.00     0.041 C 
ATOM      3  O   UNL     1      15.812   1.552  25.622  1.00  0.00    -0.550 OA
ATOM      4  O   UNL     1      14.778   1.512  27.666  1.00  0.00    -0.550 OA
ENDBRANCH   1   2
BRANCH   1   5
ATOM      5  C   UNL     1      12.845  -0.276  26.252  1.00  0.00     0.003 C 
ATOM      6  C   UNL     1      13.757  -1.501  26.241  1.00  0.00     0.004 C 
ENDBRANCH   1   5
TORSDOF 2
ENDMDL
