MODEL 1
REMARK VINA RESULT:    -3.298      0.000      0.000
REMARK INTER + INTRA:          -6.394
REMARK INTER:                  -5.611
REMARK INTRA:                  -0.783
REMARK UNBOUND:                -0.783
REMARK SMILES CCCCCCCCCCCCCC(=O)[O-]
REMARK SMILES IDX 8 1 9 2 10 3 11 4 12 5 13 6 14 7 15 8 16 9 7 10 6 11 5 12
REMARK SMILES IDX 4 13 3 14 2 15 1 16
REMARK H PARENT
REMARK Flexibility Score: inf
ROOT
ATOM      1  C   UNL     1     -21.386  -1.587   6.886  1.00  0.00     0.000 C 
ENDROOT
BRANCH   1   2
ATOM      2  C   UNL     1     -20.584  -2.276   8.004  1.00  0.00     0.000 C 
BRANCH   2   3
ATOM      3  C   UNL     1     -20.627  -1.497   9.328  1.00  0.00     0.000 C 
BRANCH   3   4
ATOM      4  C   UNL     1     -20.973  -2.390  10.528  1.00  0.00     0.000 C 
BRANCH   4   5
ATOM      5  C   UNL     1     -20.420  -1.795  11.832  1.00  0.00     0.006 C 
BRANCH   5   6
ATOM      6  C   UNL     1     -21.471  -1.773  12.950  1.00  0.00     0.053 C 
BRANCH   6   7
ATOM      7  C   UNL     1     -21.527  -0.441  13.635  1.00  0.00     0.041 C 
ATOM      8  O   UNL     1     -21.368  -0.362  14.881  1.00  0.00    -0.550 OA
ATOM      9  O   UNL     1     -21.790   0.708  12.900  1.00  0.00    -0.550 OA
ENDBRANCH   6   7
ENDBRANCH   5   6
ENDBRANCH   4   5
ENDBRANCH   3   4
ENDBRANCH   2   3
ENDBRANCH   1   2
BRANCH   1  10
ATOM     10  C   UNL     1     -20.646  -0.385   6.271  1.00  0.00     0.000 C 
BRANCH  10  11
ATOM     11  C   UNL     1     -21.462   0.919   6.202  1.00  0.00    -0.000 C 
BRANCH  11  12
ATOM     12  C   UNL     1     -21.063   1.934   7.286  1.00  0.00    -0.000 C 
BRANCH  12  13
ATOM     13  C   UNL     1     -21.762   1.674   8.631  1.00  0.00    -0.000 C 
BRANCH  13  14
ATOM     14  C   UNL     1     -22.415   2.932   9.244  1.00  0.00    -0.000 C 
BRANCH  14  15
ATOM     15  C   UNL     1     -22.454   4.104   8.252  1.00  0.00    -0.003 C 
ATOM     16  C   UNL     1     -22.049   5.412   8.926  1.00  0.00     0.004 C 
ENDBRANCH  14  15
ENDBRANCH  13  14
ENDBRANCH  12  13
ENDBRANCH  11  12
ENDBRANCH  10  11
ENDBRANCH   1  10
TORSDOF 12
ENDMDL
MODEL 2
REMARK VINA RESULT:    -3.136      1.550      4.774
REMARK INTER + INTRA:          -6.119
REMARK INTER:                  -5.609
REMARK INTRA:                  -0.510
REMARK UNBOUND:                -0.783
REMARK SMILES CCCCCCCCCCCCCC(=O)[O-]
REMARK SMILES IDX 8 1 9 2 10 3 11 4 12 5 13 6 14 7 15 8 16 9 7 10 6 11 5 12
REMARK SMILES IDX 4 13 3 14 2 15 1 16
REMARK H PARENT
REMARK Flexibility Score: inf
ROOT
ATOM      1  C   UNL     1     -21.015   1.527   7.203  1.00  0.00     0.000 C 
ENDROOT
BRANCH   1   2
ATOM      2  C   UNL     1     -21.422   1.173   8.644  1.00  0.00     0.000 C 
BRANCH   2   3
ATOM      3  C   UNL     1     -22.309   2.249   9.288  1.00  0.00     0.000 C 
BRANCH   3   4
ATOM      4  C   UNL     1     -22.815   1.842  10.680  1.00  0.00     0.000 C 
BRANCH   4   5
ATOM      5  C   UNL     1     -21.816   0.905  11.374  1.00  0.00     0.006 C 
BRANCH   5   6
ATOM      6  C   UNL     1     -21.847   1.053  12.902  1.00  0.00     0.053 C 
BRANCH   6   7
ATOM      7  C   UNL     1     -21.436  -0.213  13.591  1.00  0.00     0.041 C 
ATOM      8  O   UNL     1     -21.106  -0.194  14.806  1.00  0.00    -0.550 OA
ATOM      9  O   UNL     1     -21.383  -1.406  12.881  1.00  0.00    -0.550 OA
ENDBRANCH   6   7
ENDBRANCH   5   6
ENDBRANCH   4   5
ENDBRANCH   3   4
ENDBRANCH   2   3
ENDBRANCH   1   2
BRANCH   1  10
ATOM     10  C   UNL     1     -21.398   0.435   6.186  1.00  0.00     0.000 C 
BRANCH  10  11
ATOM     11  C   UNL     1     -20.447  -0.776   6.138  1.00  0.00    -0.000 C 
BRANCH  11  12
ATOM     12  C   UNL     1     -20.977  -1.987   6.922  1.00  0.00    -0.000 C 
BRANCH  12  13
ATOM     13  C   UNL     1     -20.645  -1.917   8.422  1.00  0.00    -0.000 C 
BRANCH  13  14
ATOM     14  C   UNL     1     -20.169  -3.262   9.014  1.00  0.00    -0.000 C 
BRANCH  14  15
ATOM     15  C   UNL     1     -19.865  -4.299   7.922  1.00  0.00    -0.003 C 
ATOM     16  C   UNL     1     -20.480  -5.653   8.261  1.00  0.00     0.004 C 
ENDBRANCH  14  15
ENDBRANCH  13  14
ENDBRANCH  12  13
ENDBRANCH  11  12
ENDBRANCH  10  11
ENDBRANCH   1  10
TORSDOF 12
ENDMDL
MODEL 3
REMARK VINA RESULT:    -2.653      1.009      1.430
REMARK INTER + INTRA:          -5.298
REMARK INTER:                  -4.552
REMARK INTRA:                  -0.745
REMARK UNBOUND:                -0.783
REMARK SMILES CCCCCCCCCCCCCC(=O)[O-]
REMARK SMILES IDX 8 1 9 2 10 3 11 4 12 5 13 6 14 7 15 8 16 9 7 10 6 11 5 12
REMARK SMILES IDX 4 13 3 14 2 15 1 16
REMARK H PARENT
REMARK Flexibility Score: inf
ROOT
ATOM      1  C   UNL     1     -20.619  -2.649   7.234  1.00  0.00     0.000 C 
ENDROOT
BRANCH   1   2
ATOM      2  C   UNL     1     -20.251  -2.919   8.703  1.00  0.00     0.000 C 
BRANCH   2   3
ATOM      3  C   UNL     1     -20.646  -1.761   9.633  1.00  0.00     0.000 C 
BRANCH   3   4
ATOM      4  C   UNL     1     -20.027  -1.889  11.033  1.00  0.00     0.000 C 
BRANCH   4   5
ATOM      5  C   UNL     1     -21.117  -2.046  12.103  1.00  0.00     0.006 C 
BRANCH   5   6
ATOM      6  C   UNL     1     -21.683  -0.693  12.557  1.00  0.00     0.053 C 
BRANCH   6   7
ATOM      7  C   UNL     1     -21.717  -0.577  14.050  1.00  0.00     0.041 C 
ATOM      8  O   UNL     1     -22.807  -0.689  14.669  1.00  0.00    -0.550 OA
ATOM      9  O   UNL     1     -20.550  -0.310  14.754  1.00  0.00    -0.550 OA
ENDBRANCH   6   7
ENDBRANCH   5   6
ENDBRANCH   4   5
ENDBRANCH   3   4
ENDBRANCH   2   3
ENDBRANCH   1   2
BRANCH   1  10
ATOM     10  C   UNL     1     -21.425  -1.350   7.046  1.00  0.00     0.000 C 
BRANCH  10  11
ATOM     11  C   UNL     1     -20.802  -0.327   6.079  1.00  0.00    -0.000 C 
BRANCH  11  12
ATOM     12  C   UNL     1     -20.209   0.896   6.798  1.00  0.00    -0.000 C 
BRANCH  12  13
ATOM     13  C   UNL     1     -21.288   1.816   7.394  1.00  0.00    -0.000 C 
BRANCH  13  14
ATOM     14  C   UNL     1     -21.734   1.408   8.815  1.00  0.00    -0.000 C 
BRANCH  14  15
ATOM     15  C   UNL     1     -22.497   2.535   9.527  1.00  0.00    -0.003 C 
ATOM     16  C   UNL     1     -22.507   3.810   8.689  1.00  0.00     0.004 C 
ENDBRANCH  14  15
ENDBRANCH  13  14
ENDBRANCH  12  13
ENDBRANCH  11  12
ENDBRANCH  10  11
ENDBRANCH   1  10
TORSDOF 12
ENDMDL
MODEL 4
REMARK VINA RESULT:    -2.564      3.296      5.107
REMARK INTER + INTRA:          -5.146
REMARK INTER:                  -4.380
REMARK INTRA:                  -0.766
REMARK UNBOUND:                -0.783
REMARK SMILES CCCCCCCCCCCCCC(=O)[O-]
REMARK SMILES IDX 8 1 9 2 10 3 11 4 12 5 13 6 14 7 15 8 16 9 7 10 6 11 5 12
REMARK SMILES IDX 4 13 3 14 2 15 1 16
REMARK H PARENT
REMARK Flexibility Score: inf
ROOT
ATOM      1  C   UNL     1     -20.615   0.829   7.276  1.00  0.00     0.000 C 
ENDROOT
BRANCH   1   2
ATOM      2  C   UNL     1     -21.408  -0.285   6.570  1.00  0.00     0.000 C 
BRANCH   2   3
ATOM      3  C   UNL     1     -21.029  -1.688   7.070  1.00  0.00     0.000 C 
BRANCH   3   4
ATOM      4  C   UNL     1     -20.670  -1.705   8.563  1.00  0.00     0.000 C 
BRANCH   4   5
ATOM      5  C   UNL     1     -20.517  -3.145   9.074  1.00  0.00     0.006 C 
BRANCH   5   6
ATOM      6  C   UNL     1     -19.862  -4.064   8.033  1.00  0.00     0.053 C 
BRANCH   6   7
ATOM      7  C   UNL     1     -20.331  -5.480   8.168  1.00  0.00     0.041 C 
ATOM      8  O   UNL     1     -19.695  -6.413   7.612  1.00  0.00    -0.550 OA
ATOM      9  O   UNL     1     -21.491  -5.764   8.879  1.00  0.00    -0.550 OA
ENDBRANCH   6   7
ENDBRANCH   5   6
ENDBRANCH   4   5
ENDBRANCH   3   4
ENDBRANCH   2   3
ENDBRANCH   1   2
BRANCH   1  10
ATOM     10  C   UNL     1     -21.405   2.146   7.392  1.00  0.00     0.000 C 
BRANCH  10  11
ATOM     11  C   UNL     1     -22.196   2.322   8.701  1.00  0.00    -0.000 C 
BRANCH  11  12
ATOM     12  C   UNL     1     -21.761   1.341   9.802  1.00  0.00    -0.000 C 
BRANCH  12  13
ATOM     13  C   UNL     1     -22.571   1.504  11.099  1.00  0.00    -0.000 C 
BRANCH  13  14
ATOM     14  C   UNL     1     -21.736   1.298  12.382  1.00  0.00    -0.000 C 
BRANCH  14  15
ATOM     15  C   UNL     1     -21.723  -0.170  12.833  1.00  0.00    -0.003 C 
ATOM     16  C   UNL     1     -21.336  -0.292  14.304  1.00  0.00     0.004 C 
ENDBRANCH  14  15
ENDBRANCH  13  14
ENDBRANCH  12  13
ENDBRANCH  11  12
ENDBRANCH  10  11
ENDBRANCH   1  10
TORSDOF 12
ENDMDL
MODEL 5
REMARK VINA RESULT:    -2.525      2.718      4.926
REMARK INTER + INTRA:          -5.080
REMARK INTER:                  -4.327
REMARK INTRA:                  -0.754
REMARK UNBOUND:                -0.783
REMARK SMILES CCCCCCCCCCCCCC(=O)[O-]
REMARK SMILES IDX 8 1 9 2 10 3 11 4 12 5 13 6 14 7 15 8 16 9 7 10 6 11 5 12
REMARK SMILES IDX 4 13 3 14 2 15 1 16
REMARK H PARENT
REMARK Flexibility Score: inf
ROOT
ATOM      1  C   UNL     1     -20.854  -0.845  13.299  1.00  0.00     0.000 C 
ENDROOT
BRANCH   1   2
ATOM      2  C   UNL     1     -21.191  -1.847  12.181  1.00  0.00     0.000 C 
BRANCH   2   3
ATOM      3  C   UNL     1     -20.148  -1.844  11.052  1.00  0.00     0.000 C 
BRANCH   3   4
ATOM      4  C   UNL     1     -20.767  -2.133   9.676  1.00  0.00     0.000 C 
BRANCH   4   5
ATOM      5  C   UNL     1     -20.963  -0.835   8.879  1.00  0.00     0.006 C 
BRANCH   5   6
ATOM      6  C   UNL     1     -20.981  -1.082   7.364  1.00  0.00     0.053 C 
BRANCH   6   7
ATOM      7  C   UNL     1     -21.007   0.201   6.592  1.00  0.00     0.041 C 
ATOM      8  O   UNL     1     -20.260   1.157   6.925  1.00  0.00    -0.550 OA
ATOM      9  O   UNL     1     -21.885   0.354   5.526  1.00  0.00    -0.550 OA
ENDBRANCH   6   7
ENDBRANCH   5   6
ENDBRANCH   4   5
ENDBRANCH   3   4
ENDBRANCH   2   3
ENDBRANCH   1   2
BRANCH   1  10
ATOM     10  C   UNL     1     -21.871   0.308  13.398  1.00  0.00     0.000 C 
BRANCH  10  11
ATOM     11  C   UNL     1     -21.668   1.448  12.384  1.00  0.00    -0.000 C 
BRANCH  11  12
ATOM     12  C   UNL     1     -22.537   1.295  11.125  1.00  0.00    -0.000 C 
BRANCH  12  13
ATOM     13  C   UNL     1     -21.908   1.948   9.883  1.00  0.00    -0.000 C 
BRANCH  13  14
ATOM     14  C   UNL     1     -22.822   2.989   9.200  1.00  0.00    -0.000 C 
BRANCH  14  15
ATOM     15  C   UNL     1     -22.027   3.967   8.321  1.00  0.00    -0.003 C 
ATOM     16  C   UNL     1     -22.137   5.395   8.847  1.00  0.00     0.004 C 
ENDBRANCH  14  15
ENDBRANCH  13  14
ENDBRANCH  12  13
ENDBRANCH  11  12
ENDBRANCH  10  11
ENDBRANCH   1  10
TORSDOF 12
ENDMDL
MODEL 6
REMARK VINA RESULT:    -2.422      3.107      6.807
REMARK INTER + INTRA:          -4.904
REMARK INTER:                  -3.974
REMARK INTRA:                  -0.930
REMARK UNBOUND:                -0.783
REMARK SMILES CCCCCCCCCCCCCC(=O)[O-]
REMARK SMILES IDX 8 1 9 2 10 3 11 4 12 5 13 6 14 7 15 8 16 9 7 10 6 11 5 12
REMARK SMILES IDX 4 13 3 14 2 15 1 16
REMARK H PARENT
REMARK Flexibility Score: inf
ROOT
ATOM      1  C   UNL     1     -21.385   0.504  13.041  1.00  0.00     0.000 C 
ENDROOT
BRANCH   1   2
ATOM      2  C   UNL     1     -22.167   1.408  12.072  1.00  0.00     0.000 C 
BRANCH   2   3
ATOM      3  C   UNL     1     -21.792   1.162  10.602  1.00  0.00     0.000 C 
BRANCH   3   4
ATOM      4  C   UNL     1     -22.385   2.217   9.657  1.00  0.00     0.000 C 
BRANCH   4   5
ATOM      5  C   UNL     1     -21.814   2.067   8.239  1.00  0.00     0.006 C 
BRANCH   5   6
ATOM      6  C   UNL     1     -21.183   0.686   8.012  1.00  0.00     0.053 C 
BRANCH   6   7
ATOM      7  C   UNL     1     -21.148   0.324   6.559  1.00  0.00     0.041 C 
ATOM      8  O   UNL     1     -21.822   0.983   5.725  1.00  0.00    -0.550 OA
ATOM      9  O   UNL     1     -20.398  -0.765   6.131  1.00  0.00    -0.550 OA
ENDBRANCH   6   7
ENDBRANCH   5   6
ENDBRANCH   4   5
ENDBRANCH   3   4
ENDBRANCH   2   3
ENDBRANCH   1   2
BRANCH   1  10
ATOM     10  C   UNL     1     -21.726  -0.989  12.876  1.00  0.00     0.000 C 
BRANCH  10  11
ATOM     11  C   UNL     1     -20.647  -1.832  12.172  1.00  0.00    -0.000 C 
BRANCH  11  12
ATOM     12  C   UNL     1     -21.152  -2.498  10.882  1.00  0.00    -0.000 C 
BRANCH  12  13
ATOM     13  C   UNL     1     -20.220  -2.257   9.682  1.00  0.00    -0.000 C 
BRANCH  13  14
ATOM     14  C   UNL     1     -20.564  -3.118   8.447  1.00  0.00    -0.000 C 
BRANCH  14  15
ATOM     15  C   UNL     1     -19.682  -4.372   8.353  1.00  0.00    -0.003 C 
ATOM     16  C   UNL     1     -20.524  -5.622   8.117  1.00  0.00     0.004 C 
ENDBRANCH  14  15
ENDBRANCH  13  14
ENDBRANCH  12  13
ENDBRANCH  11  12
ENDBRANCH  10  11
ENDBRANCH   1  10
TORSDOF 12
ENDMDL
MODEL 7
REMARK VINA RESULT:    -2.406      1.759      5.008
REMARK INTER + INTRA:          -4.877
REMARK INTER:                  -4.576
REMARK INTRA:                  -0.300
REMARK UNBOUND:                -0.783
REMARK SMILES CCCCCCCCCCCCCC(=O)[O-]
REMARK SMILES IDX 8 1 9 2 10 3 11 4 12 5 13 6 14 7 15 8 16 9 7 10 6 11 5 12
REMARK SMILES IDX 4 13 3 14 2 15 1 16
REMARK H PARENT
REMARK Flexibility Score: inf
ROOT
ATOM      1  C   UNL     1     -20.648  -2.624   7.008  1.00  0.00     0.000 C 
ENDROOT
BRANCH   1   2
ATOM      2  C   UNL     1     -21.336  -1.249   7.061  1.00  0.00     0.000 C 
BRANCH   2   3
ATOM      3  C   UNL     1     -20.667  -0.218   6.139  1.00  0.00     0.000 C 
BRANCH   3   4
ATOM      4  C   UNL     1     -20.367   1.107   6.857  1.00  0.00     0.000 C 
BRANCH   4   5
ATOM      5  C   UNL     1     -21.552   1.536   7.735  1.00  0.00     0.006 C 
BRANCH   5   6
ATOM      6  C   UNL     1     -21.495   0.905   9.133  1.00  0.00     0.053 C 
BRANCH   6   7
ATOM      7  C   UNL     1     -22.292   1.691  10.130  1.00  0.00     0.041 C 
ATOM      8  O   UNL     1     -23.171   2.503   9.740  1.00  0.00    -0.550 OA
ATOM      9  O   UNL     1     -22.037   1.551  11.489  1.00  0.00    -0.550 OA
ENDBRANCH   6   7
ENDBRANCH   5   6
ENDBRANCH   4   5
ENDBRANCH   3   4
ENDBRANCH   2   3
ENDBRANCH   1   2
BRANCH   1  10
ATOM     10  C   UNL     1     -20.275  -3.163   8.402  1.00  0.00     0.000 C 
BRANCH  10  11
ATOM     11  C   UNL     1     -20.225  -2.105   9.519  1.00  0.00    -0.000 C 
BRANCH  11  12
ATOM     12  C   UNL     1     -21.023  -2.512  10.768  1.00  0.00    -0.000 C 
BRANCH  12  13
ATOM     13  C   UNL     1     -20.780  -1.574  11.963  1.00  0.00    -0.000 C 
BRANCH  13  14
ATOM     14  C   UNL     1     -21.613  -1.934  13.213  1.00  0.00    -0.000 C 
BRANCH  14  15
ATOM     15  C   UNL     1     -22.027  -0.687  14.009  1.00  0.00    -0.003 C 
ATOM     16  C   UNL     1     -20.835  -0.077  14.740  1.00  0.00     0.004 C 
ENDBRANCH  14  15
ENDBRANCH  13  14
ENDBRANCH  12  13
ENDBRANCH  11  12
ENDBRANCH  10  11
ENDBRANCH   1  10
TORSDOF 12
ENDMDL
MODEL 8
REMARK VINA RESULT:    -2.348      2.476      5.596
REMARK INTER + INTRA:          -4.779
REMARK INTER:                  -3.953
REMARK INTRA:                  -0.825
REMARK UNBOUND:                -0.783
REMARK SMILES CCCCCCCCCCCCCC(=O)[O-]
REMARK SMILES IDX 8 1 9 2 10 3 11 4 12 5 13 6 14 7 15 8 16 9 7 10 6 11 5 12
REMARK SMILES IDX 4 13 3 14 2 15 1 16
REMARK H PARENT
REMARK Flexibility Score: inf
ROOT
ATOM      1  C   UNL     1     -21.629  -0.785   7.165  1.00  0.00     0.000 C 
ENDROOT
BRANCH   1   2
ATOM      2  C   UNL     1     -20.912   0.416   6.525  1.00  0.00     0.000 C 
BRANCH   2   3
ATOM      3  C   UNL     1     -21.142   1.723   7.300  1.00  0.00     0.000 C 
BRANCH   3   4
ATOM      4  C   UNL     1     -21.774   1.487   8.680  1.00  0.00     0.000 C 
BRANCH   4   5
ATOM      5  C   UNL     1     -22.236   2.811   9.305  1.00  0.00     0.006 C 
BRANCH   5   6
ATOM      6  C   UNL     1     -22.465   3.903   8.250  1.00  0.00     0.053 C 
BRANCH   6   7
ATOM      7  C   UNL     1     -22.061   5.255   8.753  1.00  0.00     0.041 C 
ATOM      8  O   UNL     1     -22.605   6.291   8.290  1.00  0.00    -0.550 OA
ATOM      9  O   UNL     1     -21.058   5.371   9.708  1.00  0.00    -0.550 OA
ENDBRANCH   6   7
ENDBRANCH   5   6
ENDBRANCH   4   5
ENDBRANCH   3   4
ENDBRANCH   2   3
ENDBRANCH   1   2
BRANCH   1  10
ATOM     10  C   UNL     1     -20.714  -2.015   7.323  1.00  0.00     0.000 C 
BRANCH  10  11
ATOM     11  C   UNL     1     -20.562  -2.536   8.764  1.00  0.00    -0.000 C 
BRANCH  11  12
ATOM     12  C   UNL     1     -20.735  -1.434   9.822  1.00  0.00    -0.000 C 
BRANCH  12  13
ATOM     13  C   UNL     1     -20.279  -1.878  11.223  1.00  0.00    -0.000 C 
BRANCH  13  14
ATOM     14  C   UNL     1     -21.438  -2.031  12.232  1.00  0.00    -0.000 C 
BRANCH  14  15
ATOM     15  C   UNL     1     -21.337  -1.022  13.387  1.00  0.00    -0.003 C 
ATOM     16  C   UNL     1     -21.720   0.382  12.928  1.00  0.00     0.004 C 
ENDBRANCH  14  15
ENDBRANCH  13  14
ENDBRANCH  12  13
ENDBRANCH  11  12
ENDBRANCH  10  11
ENDBRANCH   1  10
TORSDOF 12
ENDMDL
MODEL 9
REMARK VINA RESULT:    -2.267      2.204      5.131
REMARK INTER + INTRA:          -4.640
REMARK INTER:                  -4.297
REMARK INTRA:                  -0.343
REMARK UNBOUND:                -0.783
REMARK SMILES CCCCCCCCCCCCCC(=O)[O-]
REMARK SMILES IDX 8 1 9 2 10 3 11 4 12 5 13 6 14 7 15 8 16 9 7 10 6 11 5 12
REMARK SMILES IDX 4 13 3 14 2 15 1 16
REMARK H PARENT
REMARK Flexibility Score: inf
ROOT
ATOM      1  C   UNL     1     -22.120   2.666   7.751  1.00  0.00     0.000 C 
ENDROOT
BRANCH   1   2
ATOM      2  C   UNL     1     -20.990   1.735   7.277  1.00  0.00     0.000 C 
BRANCH   2   3
ATOM      3  C   UNL     1     -21.463   0.724   6.220  1.00  0.00     0.000 C 
BRANCH   3   4
ATOM      4  C   UNL     1     -20.551  -0.509   6.133  1.00  0.00     0.000 C 
BRANCH   4   5
ATOM      5  C   UNL     1     -21.061  -1.633   7.046  1.00  0.00     0.006 C 
BRANCH   5   6
ATOM      6  C   UNL     1     -21.030  -1.237   8.528  1.00  0.00     0.053 C 
BRANCH   6   7
ATOM      7  C   UNL     1     -20.352  -2.276   9.368  1.00  0.00     0.041 C 
ATOM      8  O   UNL     1     -20.121  -2.055  10.585  1.00  0.00    -0.550 OA
ATOM      9  O   UNL     1     -19.942  -3.474   8.796  1.00  0.00    -0.550 OA
ENDBRANCH   6   7
ENDBRANCH   5   6
ENDBRANCH   4   5
ENDBRANCH   3   4
ENDBRANCH   2   3
ENDBRANCH   1   2
BRANCH   1  10
ATOM     10  C   UNL     1     -22.352   2.601   9.272  1.00  0.00     0.000 C 
BRANCH  10  11
ATOM     11  C   UNL     1     -21.819   1.332   9.961  1.00  0.00    -0.000 C 
BRANCH  11  12
ATOM     12  C   UNL     1     -22.413   1.115  11.363  1.00  0.00    -0.000 C 
BRANCH  12  13
ATOM     13  C   UNL     1     -21.613   1.830  12.465  1.00  0.00    -0.000 C 
BRANCH  13  14
ATOM     14  C   UNL     1     -21.407   0.975  13.735  1.00  0.00    -0.000 C 
BRANCH  14  15
ATOM     15  C   UNL     1     -21.543  -0.528  13.448  1.00  0.00    -0.003 C 
ATOM     16  C   UNL     1     -22.273  -1.242  14.581  1.00  0.00     0.004 C 
ENDBRANCH  14  15
ENDBRANCH  13  14
ENDBRANCH  12  13
ENDBRANCH  11  12
ENDBRANCH  10  11
ENDBRANCH   1  10
TORSDOF 12
ENDMDL
