MODEL 1
REMARK VINA RESULT:     4.194      0.000      0.000
REMARK INTER + INTRA:           6.529
REMARK INTER:                   6.155
REMARK INTRA:                   0.374
REMARK UNBOUND:                 0.374
REMARK SMILES O=c1c(O[C@H]2O[C@@H](CO)[C@H](O)[C@@H](O)[C@@H]2O)c(-c2ccc(O)c(O)c2)oc2cc(O)cc(O)c12
REMARK SMILES IDX 4 1 3 2 16 3 25 4 2 5 26 6 1 7 33 8 27 9 31 10 28 11 30 12
REMARK SMILES IDX 17 13 18 14 19 15 20 16 24 17 22 18 21 19 23 21 32 23 29 25
REMARK SMILES IDX 5 27 14 28 6 29 12 30 7 31 10 32 15 33 13 35 8 37 9 38 11 40
REMARK H PARENT 21 20 23 22 32 24 29 26 15 34 13 36 9 39 11 41
REMARK Flexibility Score: inf
ROOT
ATOM      1  O   UNL     1      35.126 -32.511   9.665  1.00  0.00    -0.454 OA
ENDROOT
BRANCH   1   2
ATOM      2  C   UNL     1      35.801 -32.429   8.432  1.00  0.00     0.214 A 
ATOM      3  C   UNL     1      37.183 -32.163   8.448  1.00  0.00     0.180 A 
ATOM      4  O   UNL     1      37.847 -32.007   7.311  1.00  0.00    -0.452 OA
ATOM      5  C   UNL     1      35.159 -32.559   7.178  1.00  0.00     0.239 A 
ATOM      6  C   UNL     1      37.288 -32.140   6.115  1.00  0.00     0.146 A 
ATOM      7  O   UNL     1      33.909 -32.684   7.130  1.00  0.00    -0.285 OA
ATOM      8  C   UNL     1      35.918 -32.476   5.987  1.00  0.00     0.111 A 
ATOM      9  C   UNL     1      38.080 -31.935   4.982  1.00  0.00     0.094 A 
ATOM     10  C   UNL     1      35.384 -32.663   4.676  1.00  0.00     0.134 A 
ATOM     11  C   UNL     1      37.533 -32.053   3.707  1.00  0.00     0.123 A 
ATOM     12  C   UNL     1      36.190 -32.413   3.558  1.00  0.00     0.093 A 
BRANCH   3  13
ATOM     13  C   UNL     1      37.934 -32.029   9.717  1.00  0.00     0.025 A 
ATOM     14  C   UNL     1      38.106 -33.125  10.581  1.00  0.00     0.016 A 
ATOM     15  C   UNL     1      38.832 -32.980  11.766  1.00  0.00     0.051 A 
ATOM     16  C   UNL     1      39.409 -31.750  12.098  1.00  0.00     0.157 A 
ATOM     17  C   UNL     1      38.531 -30.800  10.042  1.00  0.00     0.062 A 
ATOM     18  C   UNL     1      39.260 -30.655  11.231  1.00  0.00     0.158 A 
BRANCH  16  19
ATOM     19  O   UNL     1      40.125 -31.636  13.288  1.00  0.00    -0.504 OA
ATOM     20  H   UNL     1      40.718 -32.381  13.633  1.00  0.00     0.293 HD
ENDBRANCH  16  19
BRANCH  18  21
ATOM     21  O   UNL     1      39.835 -29.426  11.552  1.00  0.00    -0.504 OA
ATOM     22  H   UNL     1      39.442 -28.553  11.222  1.00  0.00     0.293 HD
ENDBRANCH  18  21
ENDBRANCH   3  13
BRANCH  10  23
ATOM     23  O   UNL     1      34.089 -33.125   4.424  1.00  0.00    -0.507 OA
ATOM     24  H   UNL     1      33.844 -33.749   3.670  1.00  0.00     0.293 HD
ENDBRANCH  10  23
BRANCH  11  25
ATOM     25  O   UNL     1      38.334 -31.821   2.591  1.00  0.00    -0.508 OA
ATOM     26  H   UNL     1      39.199 -31.297   2.660  1.00  0.00     0.293 HD
ENDBRANCH  11  25
ENDBRANCH   1   2
BRANCH   1  27
ATOM     27  C   UNL     1      35.209 -31.592  10.755  1.00  0.00     0.339 C 
ATOM     28  C   UNL     1      33.820 -31.551  11.471  1.00  0.00     0.214 C 
ATOM     29  O   UNL     1      35.602 -30.323  10.251  1.00  0.00    -0.332 OA
ATOM     30  C   UNL     1      33.096 -30.192  11.286  1.00  0.00     0.180 C 
ATOM     31  C   UNL     1      35.523 -29.341  11.263  1.00  0.00     0.179 C 
ATOM     32  C   UNL     1      34.037 -28.977  11.517  1.00  0.00     0.177 C 
BRANCH  28  33
ATOM     33  O   UNL     1      33.927 -31.880  12.835  1.00  0.00    -0.384 OA
ATOM     34  H   UNL     1      33.068 -31.663  13.278  1.00  0.00     0.211 HD
ENDBRANCH  28  33
BRANCH  30  35
ATOM     35  O   UNL     1      32.582 -30.122   9.978  1.00  0.00    -0.387 OA
ATOM     36  H   UNL     1      33.202 -29.555   9.449  1.00  0.00     0.211 HD
ENDBRANCH  30  35
BRANCH  31  37
ATOM     37  C   UNL     1      36.342 -28.117  10.839  1.00  0.00     0.191 C 
BRANCH  37  38
ATOM     38  O   UNL     1      37.207 -27.724  11.869  1.00  0.00    -0.394 OA
ATOM     39  H   UNL     1      37.043 -26.756  12.013  1.00  0.00     0.210 HD
ENDBRANCH  37  38
ENDBRANCH  31  37
BRANCH  32  40
ATOM     40  O   UNL     1      33.865 -28.426  12.800  1.00  0.00    -0.387 OA
ATOM     41  H   UNL     1      34.752 -28.390  13.241  1.00  0.00     0.211 HD
ENDBRANCH  32  40
ENDBRANCH   1  27
TORSDOF 12
ENDMDL
