MODEL 1
REMARK VINA RESULT:    -3.000      0.000      0.000
REMARK INTER + INTRA:          -4.936
REMARK INTER:                  -4.578
REMARK INTRA:                  -0.358
REMARK UNBOUND:                -0.358
REMARK SMILES CC1=CCC[C@@H](C)C(=O)C[C@H](C(C)C)C(=O)C1
REMARK SMILES IDX 8 1 9 2 6 3 7 4 5 5 4 6 3 7 2 8 1 9 10 11 11 12 15 13 16 14
REMARK SMILES IDX 17 15 12 17 13 18 14 19
REMARK H PARENT
REMARK Flexibility Score: 70.00
ROOT
ATOM      1  C   UNL     1       1.582   8.500  -4.566  1.00  0.00     0.136 C 
ATOM      2  O   UNL     1       1.701   9.484  -5.286  1.00  0.00    -0.299 OA
ENDROOT
BRANCH   1   3
ATOM      3  C   UNL     1       2.822   7.740  -4.137  1.00  0.00     0.053 C 
ATOM      4  C   UNL     1       3.055   6.537  -5.061  1.00  0.00     0.016 C 
BRANCH   3   5
ATOM      5  C   UNL     1       2.698   7.288  -2.663  1.00  0.00     0.015 C 
BRANCH   5   6
ATOM      6  C   UNL     1       2.575   5.756  -2.548  1.00  0.00     0.028 C 
BRANCH   6   7
ATOM      7  C   UNL     1       1.615   5.311  -1.472  1.00  0.00    -0.028 C 
ATOM      8  C   UNL     1       0.326   4.936  -1.672  1.00  0.00    -0.070 CG0
ATOM      9  C   UNL     1      -0.527   4.595  -0.476  1.00  0.00     0.039 C 
ATOM     10  G   UNL     1      -0.288   4.722  -3.047  1.00  0.00     0.000 G0
ENDBRANCH   6   7
ENDBRANCH   5   6
ENDBRANCH   3   5
ENDBRANCH   1   3
BRANCH   1  11
ATOM     11  C   UNL     1       0.199   8.090  -4.110  1.00  0.00     0.087 C 
BRANCH  11  12
ATOM     12  C   UNL     1      -0.233   6.729  -4.721  1.00  0.00     0.066 C 
BRANCH  12  13
ATOM     13  C   UNL     1      -0.973   5.915  -3.669  1.00  0.00     0.140 C 
ATOM     14  O   UNL     1      -2.114   6.222  -3.350  1.00  0.00    -0.299 OA
BRANCH  13  15
ATOM     15  C   UNL     1      -0.319   4.703  -3.053  1.00  0.00     0.106 CG0
ATOM     16  G   UNL     1       0.317   4.964  -1.696  1.00  0.00     0.000 G0
ENDBRANCH  13  15
ENDBRANCH  12  13
BRANCH  12  17
ATOM     17  C   UNL     1      -1.089   6.883  -6.022  1.00  0.00    -0.006 C 
ATOM     18  C   UNL     1      -1.728   8.279  -6.147  1.00  0.00     0.008 C 
ATOM     19  C   UNL     1      -0.236   6.620  -7.280  1.00  0.00     0.008 C 
ENDBRANCH  12  17
ENDBRANCH  11  12
ENDBRANCH   1  11
TORSDOF 1
ENDMDL
MODEL 2
REMARK VINA RESULT:    -2.703     13.629     14.976
REMARK INTER + INTRA:          -4.483
REMARK INTER:                  -4.223
REMARK INTRA:                  -0.260
REMARK UNBOUND:                -0.358
REMARK SMILES CC1=CCC[C@@H](C)C(=O)C[C@H](C(C)C)C(=O)C1
REMARK SMILES IDX 8 1 9 2 6 3 7 4 5 5 4 6 3 7 2 8 1 9 10 11 11 12 15 13 16 14
REMARK SMILES IDX 17 15 12 17 13 18 14 19
REMARK H PARENT
REMARK Flexibility Score: 70.00
ROOT
ATOM      1  C   UNL     1      -9.264   4.783   6.136  1.00  0.00     0.136 C 
ATOM      2  O   UNL     1      -8.833   4.150   5.182  1.00  0.00    -0.299 OA
ENDROOT
BRANCH   1   3
ATOM      3  C   UNL     1      -9.868   6.156   5.906  1.00  0.00     0.053 C 
ATOM      4  C   UNL     1     -10.714   6.156   4.626  1.00  0.00     0.016 C 
BRANCH   3   5
ATOM      5  C   UNL     1      -8.758   7.231   5.834  1.00  0.00     0.015 C 
BRANCH   5   6
ATOM      6  C   UNL     1      -8.686   8.060   7.131  1.00  0.00     0.028 C 
BRANCH   6   7
ATOM      7  C   UNL     1      -7.347   7.975   7.823  1.00  0.00    -0.028 C 
ATOM      8  C   UNL     1      -7.048   7.158   8.865  1.00  0.00    -0.070 CG0
ATOM      9  C   UNL     1      -5.682   7.253   9.496  1.00  0.00     0.039 C 
ATOM     10  G   UNL     1      -7.971   6.059   9.368  1.00  0.00     0.000 G0
ENDBRANCH   6   7
ENDBRANCH   5   6
ENDBRANCH   3   5
ENDBRANCH   1   3
BRANCH   1  11
ATOM     11  C   UNL     1      -9.201   4.163   7.515  1.00  0.00     0.087 C 
BRANCH  11  12
ATOM     12  C   UNL     1      -7.740   3.868   7.951  1.00  0.00     0.066 C 
BRANCH  12  13
ATOM     13  C   UNL     1      -7.421   4.656   9.214  1.00  0.00     0.140 C 
ATOM     14  O   UNL     1      -6.689   4.173  10.068  1.00  0.00    -0.299 OA
BRANCH  13  15
ATOM     15  C   UNL     1      -7.970   6.050   9.394  1.00  0.00     0.106 CG0
ATOM     16  G   UNL     1      -7.060   7.147   8.863  1.00  0.00     0.000 G0
ENDBRANCH  13  15
ENDBRANCH  12  13
BRANCH  12  17
ATOM     17  C   UNL     1      -7.453   2.342   8.149  1.00  0.00    -0.006 C 
ATOM     18  C   UNL     1      -8.743   1.512   8.289  1.00  0.00     0.008 C 
ATOM     19  C   UNL     1      -6.630   1.777   6.974  1.00  0.00     0.008 C 
ENDBRANCH  12  17
ENDBRANCH  11  12
ENDBRANCH   1  11
TORSDOF 1
ENDMDL
MODEL 3
REMARK VINA RESULT:    -2.679     10.541     11.324
REMARK INTER + INTRA:          -4.447
REMARK INTER:                  -4.535
REMARK INTRA:                   0.089
REMARK UNBOUND:                -0.358
REMARK SMILES CC1=CCC[C@@H](C)C(=O)C[C@H](C(C)C)C(=O)C1
REMARK SMILES IDX 8 1 9 2 6 3 7 4 5 5 4 6 3 7 2 8 1 9 10 11 11 12 15 13 16 14
REMARK SMILES IDX 17 15 12 17 13 18 14 19
REMARK H PARENT
REMARK Flexibility Score: 70.00
ROOT
ATOM      1  C   UNL     1       0.644  14.119   3.528  1.00  0.00     0.136 C 
ATOM      2  O   UNL     1       1.413  13.238   3.164  1.00  0.00    -0.299 OA
ENDROOT
BRANCH   1   3
ATOM      3  C   UNL     1       0.988  14.947   4.751  1.00  0.00     0.053 C 
ATOM      4  C   UNL     1       2.474  14.789   5.099  1.00  0.00     0.016 C 
BRANCH   3   5
ATOM      5  C   UNL     1       0.096  14.543   5.948  1.00  0.00     0.015 C 
BRANCH   5   6
ATOM      6  C   UNL     1      -0.960  15.621   6.258  1.00  0.00     0.028 C 
BRANCH   6   7
ATOM      7  C   UNL     1      -2.298  15.050   6.663  1.00  0.00    -0.028 C 
ATOM      8  C   UNL     1      -3.271  14.640   5.810  1.00  0.00    -0.070 CG0
ATOM      9  C   UNL     1      -4.586  14.166   6.378  1.00  0.00     0.039 C 
ATOM     10  G   UNL     1      -3.078  14.515   4.307  1.00  0.00     0.000 G0
ENDBRANCH   6   7
ENDBRANCH   5   6
ENDBRANCH   3   5
ENDBRANCH   1   3
BRANCH   1  11
ATOM     11  C   UNL     1      -0.615  14.367   2.727  1.00  0.00     0.087 C 
BRANCH  11  12
ATOM     12  C   UNL     1      -1.534  13.114   2.689  1.00  0.00     0.066 C 
BRANCH  12  13
ATOM     13  C   UNL     1      -2.508  13.167   3.857  1.00  0.00     0.140 C 
ATOM     14  O   UNL     1      -2.785  12.144   4.469  1.00  0.00    -0.299 OA
BRANCH  13  15
ATOM     15  C   UNL     1      -3.098  14.486   4.291  1.00  0.00     0.106 CG0
ATOM     16  G   UNL     1      -3.256  14.629   5.797  1.00  0.00     0.000 G0
ENDBRANCH  13  15
ENDBRANCH  12  13
BRANCH  12  17
ATOM     17  C   UNL     1      -2.290  12.948   1.329  1.00  0.00    -0.006 C 
ATOM     18  C   UNL     1      -2.303  14.245   0.498  1.00  0.00     0.008 C 
ATOM     19  C   UNL     1      -1.659  11.826   0.479  1.00  0.00     0.008 C 
ENDBRANCH  12  17
ENDBRANCH  11  12
ENDBRANCH   1  11
TORSDOF 1
ENDMDL
MODEL 4
REMARK VINA RESULT:    -2.648      1.772      4.225
REMARK INTER + INTRA:          -4.399
REMARK INTER:                  -4.085
REMARK INTRA:                  -0.314
REMARK UNBOUND:                -0.358
REMARK SMILES CC1=CCC[C@@H](C)C(=O)C[C@H](C(C)C)C(=O)C1
REMARK SMILES IDX 8 1 9 2 6 3 7 4 5 5 4 6 3 7 2 8 1 9 10 11 11 12 15 13 16 14
REMARK SMILES IDX 17 15 12 17 13 18 14 19
REMARK H PARENT
REMARK Flexibility Score: 70.00
ROOT
ATOM      1  C   UNL     1       2.653   6.353  -2.651  1.00  0.00     0.136 C 
ATOM      2  O   UNL     1       3.193   6.660  -1.595  1.00  0.00    -0.299 OA
ENDROOT
BRANCH   1   3
ATOM      3  C   UNL     1       2.938   7.171  -3.896  1.00  0.00     0.053 C 
ATOM      4  C   UNL     1       4.414   7.038  -4.293  1.00  0.00     0.016 C 
BRANCH   3   5
ATOM      5  C   UNL     1       2.559   8.653  -3.668  1.00  0.00     0.015 C 
BRANCH   5   6
ATOM      6  C   UNL     1       1.059   8.901  -3.922  1.00  0.00     0.028 C 
BRANCH   6   7
ATOM      7  C   UNL     1       0.530   8.181  -5.139  1.00  0.00    -0.028 C 
ATOM      8  C   UNL     1      -0.376   7.171  -5.124  1.00  0.00    -0.070 CG0
ATOM      9  C   UNL     1      -0.742   6.501  -6.425  1.00  0.00     0.039 C 
ATOM     10  G   UNL     1      -1.145   6.743  -3.882  1.00  0.00     0.000 G0
ENDBRANCH   6   7
ENDBRANCH   5   6
ENDBRANCH   3   5
ENDBRANCH   1   3
BRANCH   1  11
ATOM     11  C   UNL     1       1.736   5.150  -2.681  1.00  0.00     0.087 C 
BRANCH  11  12
ATOM     12  C   UNL     1       0.322   5.485  -2.131  1.00  0.00     0.066 C 
BRANCH  12  13
ATOM     13  C   UNL     1      -0.683   5.456  -3.273  1.00  0.00     0.140 C 
ATOM     14  O   UNL     1      -1.132   4.388  -3.667  1.00  0.00    -0.299 OA
BRANCH  13  15
ATOM     15  C   UNL     1      -1.164   6.747  -3.890  1.00  0.00     0.106 CG0
ATOM     16  G   UNL     1      -0.381   7.175  -5.122  1.00  0.00     0.000 G0
ENDBRANCH  13  15
ENDBRANCH  12  13
BRANCH  12  17
ATOM     17  C   UNL     1      -0.122   4.543  -0.963  1.00  0.00    -0.006 C 
ATOM     18  C   UNL     1       0.786   3.307  -0.823  1.00  0.00     0.008 C 
ATOM     19  C   UNL     1      -0.134   5.298   0.382  1.00  0.00     0.008 C 
ENDBRANCH  12  17
ENDBRANCH  11  12
ENDBRANCH   1  11
TORSDOF 1
ENDMDL
MODEL 5
REMARK VINA RESULT:    -2.616      2.241      4.515
REMARK INTER + INTRA:          -4.351
REMARK INTER:                  -4.153
REMARK INTRA:                  -0.198
REMARK UNBOUND:                -0.358
REMARK SMILES CC1=CCC[C@@H](C)C(=O)C[C@H](C(C)C)C(=O)C1
REMARK SMILES IDX 8 1 9 2 6 3 7 4 5 5 4 6 3 7 2 8 1 9 10 11 11 12 15 13 16 14
REMARK SMILES IDX 17 15 12 17 13 18 14 19
REMARK H PARENT
REMARK Flexibility Score: 70.00
ROOT
ATOM      1  C   UNL     1      -0.714   6.748  -3.607  1.00  0.00     0.136 C 
ATOM      2  O   UNL     1      -1.799   7.244  -3.334  1.00  0.00    -0.299 OA
ENDROOT
BRANCH   1   3
ATOM      3  C   UNL     1       0.042   7.241  -4.826  1.00  0.00     0.053 C 
ATOM      4  C   UNL     1       0.064   8.775  -4.853  1.00  0.00     0.016 C 
BRANCH   3   5
ATOM      5  C   UNL     1      -0.588   6.676  -6.120  1.00  0.00     0.015 C 
BRANCH   5   6
ATOM      6  C   UNL     1       0.349   5.668  -6.814  1.00  0.00     0.028 C 
BRANCH   6   7
ATOM      7  C   UNL     1       1.814   5.952  -6.580  1.00  0.00    -0.028 C 
ATOM      8  C   UNL     1       2.622   5.270  -5.730  1.00  0.00    -0.070 CG0
ATOM      9  C   UNL     1       4.047   5.732  -5.551  1.00  0.00     0.039 C 
ATOM     10  G   UNL     1       2.216   3.984  -5.027  1.00  0.00     0.000 G0
ENDBRANCH   6   7
ENDBRANCH   5   6
ENDBRANCH   3   5
ENDBRANCH   1   3
BRANCH   1  11
ATOM     11  C   UNL     1      -0.152   5.674  -2.702  1.00  0.00     0.087 C 
BRANCH  11  12
ATOM     12  C   UNL     1       0.124   4.353  -3.472  1.00  0.00     0.066 C 
BRANCH  12  13
ATOM     13  C   UNL     1       1.627   4.172  -3.640  1.00  0.00     0.140 C 
ATOM     14  O   UNL     1       2.353   4.146  -2.655  1.00  0.00    -0.299 OA
BRANCH  13  15
ATOM     15  C   UNL     1       2.216   3.976  -5.015  1.00  0.00     0.106 CG0
ATOM     16  G   UNL     1       2.605   5.270  -5.713  1.00  0.00     0.000 G0
ENDBRANCH  13  15
ENDBRANCH  12  13
BRANCH  12  17
ATOM     17  C   UNL     1      -0.525   3.100  -2.796  1.00  0.00    -0.006 C 
ATOM     18  C   UNL     1      -1.724   3.466  -1.902  1.00  0.00     0.008 C 
ATOM     19  C   UNL     1      -0.995   2.083  -3.855  1.00  0.00     0.008 C 
ENDBRANCH  12  17
ENDBRANCH  11  12
ENDBRANCH   1  11
TORSDOF 1
ENDMDL
MODEL 6
REMARK VINA RESULT:    -2.591      1.946      3.847
REMARK INTER + INTRA:          -4.312
REMARK INTER:                  -3.928
REMARK INTRA:                  -0.383
REMARK UNBOUND:                -0.358
REMARK SMILES CC1=CCC[C@@H](C)C(=O)C[C@H](C(C)C)C(=O)C1
REMARK SMILES IDX 8 1 9 2 6 3 7 4 5 5 4 6 3 7 2 8 1 9 10 11 11 12 15 13 16 14
REMARK SMILES IDX 17 15 12 17 13 18 14 19
REMARK H PARENT
REMARK Flexibility Score: 70.00
ROOT
ATOM      1  C   UNL     1      -1.119   5.765  -3.346  1.00  0.00     0.136 C 
ATOM      2  O   UNL     1      -1.764   6.550  -2.662  1.00  0.00    -0.299 OA
ENDROOT
BRANCH   1   3
ATOM      3  C   UNL     1      -0.590   4.491  -2.716  1.00  0.00     0.053 C 
ATOM      4  C   UNL     1      -1.747   3.664  -2.139  1.00  0.00     0.016 C 
BRANCH   3   5
ATOM      5  C   UNL     1       0.452   4.820  -1.622  1.00  0.00     0.015 C 
BRANCH   5   6
ATOM      6  C   UNL     1       1.840   5.106  -2.227  1.00  0.00     0.028 C 
BRANCH   6   7
ATOM      7  C   UNL     1       2.226   4.140  -3.322  1.00  0.00    -0.028 C 
ATOM      8  C   UNL     1       2.474   4.473  -4.614  1.00  0.00    -0.070 CG0
ATOM      9  C   UNL     1       2.771   3.374  -5.605  1.00  0.00     0.039 C 
ATOM     10  G   UNL     1       2.590   5.906  -5.111  1.00  0.00     0.000 G0
ENDBRANCH   6   7
ENDBRANCH   5   6
ENDBRANCH   3   5
ENDBRANCH   1   3
BRANCH   1  11
ATOM     11  C   UNL     1      -0.892   6.084  -4.808  1.00  0.00     0.087 C 
BRANCH  11  12
ATOM     12  C   UNL     1       0.272   7.094  -5.007  1.00  0.00     0.066 C 
BRANCH  12  13
ATOM     13  C   UNL     1       1.380   6.434  -5.816  1.00  0.00     0.140 C 
ATOM     14  O   UNL     1       1.290   6.367  -7.035  1.00  0.00    -0.299 OA
BRANCH  13  15
ATOM     15  C   UNL     1       2.610   5.904  -5.122  1.00  0.00     0.106 CG0
ATOM     16  G   UNL     1       2.475   4.471  -4.628  1.00  0.00     0.000 G0
ENDBRANCH  13  15
ENDBRANCH  12  13
BRANCH  12  17
ATOM     17  C   UNL     1      -0.186   8.438  -5.665  1.00  0.00    -0.006 C 
ATOM     18  C   UNL     1      -1.595   8.345  -6.280  1.00  0.00     0.008 C 
ATOM     19  C   UNL     1      -0.172   9.589  -4.639  1.00  0.00     0.008 C 
ENDBRANCH  12  17
ENDBRANCH  11  12
ENDBRANCH   1  11
TORSDOF 1
ENDMDL
MODEL 7
REMARK VINA RESULT:    -2.435     11.818     13.116
REMARK INTER + INTRA:          -4.074
REMARK INTER:                  -3.733
REMARK INTRA:                  -0.342
REMARK UNBOUND:                -0.358
REMARK SMILES CC1=CCC[C@@H](C)C(=O)C[C@H](C(C)C)C(=O)C1
REMARK SMILES IDX 8 1 9 2 6 3 7 4 5 5 4 6 3 7 2 8 1 9 10 11 11 12 15 13 16 14
REMARK SMILES IDX 17 15 12 17 13 18 14 19
REMARK H PARENT
REMARK Flexibility Score: 70.00
ROOT
ATOM      1  C   UNL     1      -2.596  13.295   4.154  1.00  0.00     0.136 C 
ATOM      2  O   UNL     1      -2.777  12.199   4.669  1.00  0.00    -0.299 OA
ENDROOT
BRANCH   1   3
ATOM      3  C   UNL     1      -1.477  13.465   3.144  1.00  0.00     0.053 C 
ATOM      4  C   UNL     1      -1.659  12.483   1.979  1.00  0.00     0.016 C 
BRANCH   3   5
ATOM      5  C   UNL     1      -0.101  13.268   3.822  1.00  0.00     0.015 C 
BRANCH   5   6
ATOM      6  C   UNL     1       0.533  14.614   4.221  1.00  0.00     0.028 C 
BRANCH   6   7
ATOM      7  C   UNL     1       0.226  15.732   3.254  1.00  0.00    -0.028 C 
ATOM      8  C   UNL     1      -0.583  16.792   3.506  1.00  0.00    -0.070 CG0
ATOM      9  C   UNL     1      -0.851  17.783   2.401  1.00  0.00     0.039 C 
ATOM     10  G   UNL     1      -1.150  17.114   4.880  1.00  0.00     0.000 G0
ENDBRANCH   6   7
ENDBRANCH   5   6
ENDBRANCH   3   5
ENDBRANCH   1   3
BRANCH   1  11
ATOM     11  C   UNL     1      -3.513  14.439   4.527  1.00  0.00     0.087 C 
BRANCH  11  12
ATOM     12  C   UNL     1      -2.910  15.322   5.654  1.00  0.00     0.066 C 
BRANCH  12  13
ATOM     13  C   UNL     1      -2.583  16.699   5.095  1.00  0.00     0.140 C 
ATOM     14  O   UNL     1      -3.485  17.487   4.841  1.00  0.00    -0.299 OA
BRANCH  13  15
ATOM     15  C   UNL     1      -1.145  17.113   4.897  1.00  0.00     0.106 CG0
ATOM     16  G   UNL     1      -0.593  16.798   3.515  1.00  0.00     0.000 G0
ENDBRANCH  13  15
ENDBRANCH  12  13
BRANCH  12  17
ATOM     17  C   UNL     1      -3.834  15.427   6.913  1.00  0.00    -0.006 C 
ATOM     18  C   UNL     1      -4.367  14.057   7.371  1.00  0.00     0.008 C 
ATOM     19  C   UNL     1      -3.087  16.083   8.092  1.00  0.00     0.008 C 
ENDBRANCH  12  17
ENDBRANCH  11  12
ENDBRANCH   1  11
TORSDOF 1
ENDMDL
MODEL 8
REMARK VINA RESULT:    -2.396      2.390      4.230
REMARK INTER + INTRA:          -4.015
REMARK INTER:                  -3.914
REMARK INTRA:                  -0.101
REMARK UNBOUND:                -0.358
REMARK SMILES CC1=CCC[C@@H](C)C(=O)C[C@H](C(C)C)C(=O)C1
REMARK SMILES IDX 8 1 9 2 6 3 7 4 5 5 4 6 3 7 2 8 1 9 10 11 11 12 15 13 16 14
REMARK SMILES IDX 17 15 12 17 13 18 14 19
REMARK H PARENT
REMARK Flexibility Score: 70.00
ROOT
ATOM      1  C   UNL     1      -1.313   5.591  -3.441  1.00  0.00     0.136 C 
ATOM      2  O   UNL     1      -2.131   6.501  -3.395  1.00  0.00    -0.299 OA
ENDROOT
BRANCH   1   3
ATOM      3  C   UNL     1      -1.371   4.488  -2.401  1.00  0.00     0.053 C 
ATOM      4  C   UNL     1      -0.480   4.841  -1.202  1.00  0.00     0.016 C 
BRANCH   3   5
ATOM      5  C   UNL     1      -0.949   3.136  -3.021  1.00  0.00     0.015 C 
BRANCH   5   6
ATOM      6  C   UNL     1       0.148   2.446  -2.188  1.00  0.00     0.028 C 
BRANCH   6   7
ATOM      7  C   UNL     1       1.250   1.846  -3.028  1.00  0.00    -0.028 C 
ATOM      8  C   UNL     1       2.276   2.533  -3.590  1.00  0.00    -0.070 CG0
ATOM      9  C   UNL     1       3.253   1.794  -4.470  1.00  0.00     0.039 C 
ATOM     10  G   UNL     1       2.577   3.995  -3.293  1.00  0.00     0.000 G0
ENDBRANCH   6   7
ENDBRANCH   5   6
ENDBRANCH   3   5
ENDBRANCH   1   3
BRANCH   1  11
ATOM     11  C   UNL     1      -0.285   5.586  -4.551  1.00  0.00     0.087 C 
BRANCH  11  12
ATOM     12  C   UNL     1       1.112   6.044  -4.049  1.00  0.00     0.066 C 
BRANCH  12  13
ATOM     13  C   UNL     1       2.140   4.967  -4.365  1.00  0.00     0.140 C 
ATOM     14  O   UNL     1       2.640   4.908  -5.481  1.00  0.00    -0.299 OA
BRANCH  13  15
ATOM     15  C   UNL     1       2.578   4.002  -3.292  1.00  0.00     0.106 CG0
ATOM     16  G   UNL     1       2.262   2.546  -3.600  1.00  0.00     0.000 G0
ENDBRANCH  13  15
ENDBRANCH  12  13
BRANCH  12  17
ATOM     17  C   UNL     1       1.549   7.431  -4.629  1.00  0.00    -0.006 C 
ATOM     18  C   UNL     1       0.504   8.534  -4.374  1.00  0.00     0.008 C 
ATOM     19  C   UNL     1       2.895   7.882  -4.026  1.00  0.00     0.008 C 
ENDBRANCH  12  17
ENDBRANCH  11  12
ENDBRANCH   1  11
TORSDOF 1
ENDMDL
MODEL 9
REMARK VINA RESULT:    -2.385      2.395      4.861
REMARK INTER + INTRA:          -3.997
REMARK INTER:                  -3.872
REMARK INTRA:                  -0.126
REMARK UNBOUND:                -0.358
REMARK SMILES CC1=CCC[C@@H](C)C(=O)C[C@H](C(C)C)C(=O)C1
REMARK SMILES IDX 8 1 9 2 6 3 7 4 5 5 4 6 3 7 2 8 1 9 10 11 11 12 15 13 16 14
REMARK SMILES IDX 17 15 12 17 13 18 14 19
REMARK H PARENT
REMARK Flexibility Score: 70.00
ROOT
ATOM      1  C   UNL     1       1.057   3.710  -5.471  1.00  0.00     0.136 C 
ATOM      2  O   UNL     1       1.865   3.171  -4.726  1.00  0.00    -0.299 OA
ENDROOT
BRANCH   1   3
ATOM      3  C   UNL     1       1.414   3.913  -6.931  1.00  0.00     0.053 C 
ATOM      4  C   UNL     1       2.924   4.140  -7.082  1.00  0.00     0.016 C 
BRANCH   3   5
ATOM      5  C   UNL     1       0.616   5.097  -7.525  1.00  0.00     0.015 C 
BRANCH   5   6
ATOM      6  C   UNL     1       1.386   6.425  -7.388  1.00  0.00     0.028 C 
BRANCH   6   7
ATOM      7  C   UNL     1       0.485   7.622  -7.196  1.00  0.00    -0.028 C 
ATOM      8  C   UNL     1      -0.025   8.042  -6.011  1.00  0.00    -0.070 CG0
ATOM      9  C   UNL     1      -0.977   9.213  -6.001  1.00  0.00     0.039 C 
ATOM     10  G   UNL     1       0.395   7.477  -4.662  1.00  0.00     0.000 G0
ENDBRANCH   6   7
ENDBRANCH   5   6
ENDBRANCH   3   5
ENDBRANCH   1   3
BRANCH   1  11
ATOM     11  C   UNL     1      -0.283   4.135  -4.913  1.00  0.00     0.087 C 
BRANCH  11  12
ATOM     12  C   UNL     1      -0.127   5.080  -3.689  1.00  0.00     0.066 C 
BRANCH  12  13
ATOM     13  C   UNL     1      -0.588   6.480  -4.070  1.00  0.00     0.140 C 
ATOM     14  O   UNL     1      -1.747   6.818  -3.867  1.00  0.00    -0.299 OA
BRANCH  13  15
ATOM     15  C   UNL     1       0.393   7.466  -4.654  1.00  0.00     0.106 CG0
ATOM     16  G   UNL     1      -0.029   8.040  -5.997  1.00  0.00     0.000 G0
ENDBRANCH  13  15
ENDBRANCH  12  13
BRANCH  12  17
ATOM     17  C   UNL     1      -0.878   4.565  -2.416  1.00  0.00    -0.006 C 
ATOM     18  C   UNL     1      -0.932   3.027  -2.344  1.00  0.00     0.008 C 
ATOM     19  C   UNL     1      -0.210   5.092  -1.130  1.00  0.00     0.008 C 
ENDBRANCH  12  17
ENDBRANCH  11  12
ENDBRANCH   1  11
TORSDOF 1
ENDMDL
