MODEL 1
REMARK VINA RESULT:    -4.122      0.000      0.000
REMARK INTER + INTRA:          -8.939
REMARK INTER:                  -7.014
REMARK INTRA:                  -1.925
REMARK UNBOUND:                -1.925
REMARK SMILES CCCCCCCCCCCCCC(=O)[O-]
REMARK SMILES IDX 8 1 9 2 10 3 11 4 12 5 13 6 14 7 15 8 16 9 7 10 6 11 5 12
REMARK SMILES IDX 4 13 3 14 2 15 1 16
REMARK H PARENT
REMARK Flexibility Score: inf
ROOT
ATOM      1  C   UNL     1       8.041 -18.102  21.205  1.00  0.00     0.000 C 
ENDROOT
BRANCH   1   2
ATOM      2  C   UNL     1       8.096 -16.639  20.731  1.00  0.00     0.000 C 
BRANCH   2   3
ATOM      3  C   UNL     1       7.000 -15.724  21.315  1.00  0.00     0.000 C 
BRANCH   3   4
ATOM      4  C   UNL     1       6.937 -15.677  22.855  1.00  0.00     0.000 C 
BRANCH   4   5
ATOM      5  C   UNL     1       8.187 -15.092  23.537  1.00  0.00     0.006 C 
BRANCH   5   6
ATOM      6  C   UNL     1       8.604 -15.876  24.788  1.00  0.00     0.053 C 
BRANCH   6   7
ATOM      7  C   UNL     1      10.074 -16.151  24.765  1.00  0.00     0.041 C 
ATOM      8  O   UNL     1      10.590 -16.918  25.620  1.00  0.00    -0.550 OA
ATOM      9  O   UNL     1      10.870 -15.598  23.768  1.00  0.00    -0.550 OA
ENDBRANCH   6   7
ENDBRANCH   5   6
ENDBRANCH   4   5
ENDBRANCH   3   4
ENDBRANCH   2   3
ENDBRANCH   1   2
BRANCH   1  10
ATOM     10  C   UNL     1       9.285 -18.517  22.002  1.00  0.00     0.000 C 
BRANCH  10  11
ATOM     11  C   UNL     1       8.895 -19.297  23.263  1.00  0.00    -0.000 C 
BRANCH  11  12
ATOM     12  C   UNL     1       7.369 -19.326  23.440  1.00  0.00    -0.000 C 
BRANCH  12  13
ATOM     13  C   UNL     1       6.795 -20.753  23.431  1.00  0.00    -0.000 C 
BRANCH  13  14
ATOM     14  C   UNL     1       7.539 -21.747  22.518  1.00  0.00    -0.000 C 
BRANCH  14  15
ATOM     15  C   UNL     1       7.082 -21.699  21.044  1.00  0.00    -0.003 C 
ATOM     16  C   UNL     1       8.253 -21.778  20.066  1.00  0.00     0.004 C 
ENDBRANCH  14  15
ENDBRANCH  13  14
ENDBRANCH  12  13
ENDBRANCH  11  12
ENDBRANCH  10  11
ENDBRANCH   1  10
TORSDOF 12
ENDMDL
MODEL 2
REMARK VINA RESULT:    -4.066      2.917      5.608
REMARK INTER + INTRA:          -8.843
REMARK INTER:                  -6.749
REMARK INTRA:                  -2.094
REMARK UNBOUND:                -1.925
REMARK SMILES CCCCCCCCCCCCCC(=O)[O-]
REMARK SMILES IDX 8 1 9 2 10 3 11 4 12 5 13 6 14 7 15 8 16 9 7 10 6 11 5 12
REMARK SMILES IDX 4 13 3 14 2 15 1 16
REMARK H PARENT
REMARK Flexibility Score: inf
ROOT
ATOM      1  C   UNL     1       7.176 -19.657  25.021  1.00  0.00     0.000 C 
ENDROOT
BRANCH   1   2
ATOM      2  C   UNL     1       6.438 -20.106  23.747  1.00  0.00     0.000 C 
BRANCH   2   3
ATOM      3  C   UNL     1       7.123 -21.246  22.966  1.00  0.00     0.000 C 
BRANCH   3   4
ATOM      4  C   UNL     1       7.123 -21.082  21.432  1.00  0.00     0.000 C 
BRANCH   4   5
ATOM      5  C   UNL     1       7.915 -22.156  20.666  1.00  0.00     0.006 C 
BRANCH   5   6
ATOM      6  C   UNL     1       8.741 -23.060  21.590  1.00  0.00     0.053 C 
BRANCH   6   7
ATOM      7  C   UNL     1      10.199 -22.759  21.447  1.00  0.00     0.041 C 
ATOM      8  O   UNL     1      10.628 -22.171  20.420  1.00  0.00    -0.550 OA
ATOM      9  O   UNL     1      11.080 -23.086  22.471  1.00  0.00    -0.550 OA
ENDBRANCH   6   7
ENDBRANCH   5   6
ENDBRANCH   4   5
ENDBRANCH   3   4
ENDBRANCH   2   3
ENDBRANCH   1   2
BRANCH   1  10
ATOM     10  C   UNL     1       7.167 -18.134  25.210  1.00  0.00     0.000 C 
BRANCH  10  11
ATOM     11  C   UNL     1       6.991 -17.414  23.868  1.00  0.00    -0.000 C 
BRANCH  11  12
ATOM     12  C   UNL     1       8.042 -16.306  23.698  1.00  0.00    -0.000 C 
BRANCH  12  13
ATOM     13  C   UNL     1       9.307 -16.791  22.970  1.00  0.00    -0.000 C 
BRANCH  13  14
ATOM     14  C   UNL     1       9.066 -17.878  21.905  1.00  0.00    -0.000 C 
BRANCH  14  15
ATOM     15  C   UNL     1      10.100 -19.024  21.941  1.00  0.00    -0.003 C 
ATOM     16  C   UNL     1      10.411 -19.486  23.365  1.00  0.00     0.004 C 
ENDBRANCH  14  15
ENDBRANCH  13  14
ENDBRANCH  12  13
ENDBRANCH  11  12
ENDBRANCH  10  11
ENDBRANCH   1  10
TORSDOF 12
ENDMDL
MODEL 3
REMARK VINA RESULT:    -3.970      1.222      2.630
REMARK INTER + INTRA:          -8.680
REMARK INTER:                  -6.963
REMARK INTRA:                  -1.717
REMARK UNBOUND:                -1.925
REMARK SMILES CCCCCCCCCCCCCC(=O)[O-]
REMARK SMILES IDX 8 1 9 2 10 3 11 4 12 5 13 6 14 7 15 8 16 9 7 10 6 11 5 12
REMARK SMILES IDX 4 13 3 14 2 15 1 16
REMARK H PARENT
REMARK Flexibility Score: inf
ROOT
ATOM      1  C   UNL     1       8.426 -17.814  21.347  1.00  0.00     0.000 C 
ENDROOT
BRANCH   1   2
ATOM      2  C   UNL     1       7.509 -16.583  21.449  1.00  0.00     0.000 C 
BRANCH   2   3
ATOM      3  C   UNL     1       7.157 -16.151  22.887  1.00  0.00     0.000 C 
BRANCH   3   4
ATOM      4  C   UNL     1       8.032 -15.019  23.465  1.00  0.00     0.000 C 
BRANCH   4   5
ATOM      5  C   UNL     1       8.966 -15.444  24.612  1.00  0.00     0.006 C 
BRANCH   5   6
ATOM      6  C   UNL     1      10.366 -15.840  24.123  1.00  0.00     0.053 C 
BRANCH   6   7
ATOM      7  C   UNL     1      10.852 -17.049  24.857  1.00  0.00     0.041 C 
ATOM      8  O   UNL     1      11.501 -17.941  24.250  1.00  0.00    -0.550 OA
ATOM      9  O   UNL     1      10.630 -17.170  26.223  1.00  0.00    -0.550 OA
ENDBRANCH   6   7
ENDBRANCH   5   6
ENDBRANCH   4   5
ENDBRANCH   3   4
ENDBRANCH   2   3
ENDBRANCH   1   2
BRANCH   1  10
ATOM     10  C   UNL     1       7.785 -18.972  20.569  1.00  0.00     0.000 C 
BRANCH  10  11
ATOM     11  C   UNL     1       8.558 -20.278  20.789  1.00  0.00    -0.000 C 
BRANCH  11  12
ATOM     12  C   UNL     1       8.487 -20.715  22.260  1.00  0.00    -0.000 C 
BRANCH  12  13
ATOM     13  C   UNL     1       7.048 -20.973  22.737  1.00  0.00    -0.000 C 
BRANCH  13  14
ATOM     14  C   UNL     1       6.601 -20.122  23.942  1.00  0.00    -0.000 C 
BRANCH  14  15
ATOM     15  C   UNL     1       7.748 -19.322  24.597  1.00  0.00    -0.003 C 
ATOM     16  C   UNL     1       7.287 -18.542  25.828  1.00  0.00     0.004 C 
ENDBRANCH  14  15
ENDBRANCH  13  14
ENDBRANCH  12  13
ENDBRANCH  11  12
ENDBRANCH  10  11
ENDBRANCH   1  10
TORSDOF 12
ENDMDL
MODEL 4
REMARK VINA RESULT:    -3.948      2.783      6.004
REMARK INTER + INTRA:          -8.642
REMARK INTER:                  -7.366
REMARK INTRA:                  -1.276
REMARK UNBOUND:                -1.925
REMARK SMILES CCCCCCCCCCCCCC(=O)[O-]
REMARK SMILES IDX 8 1 9 2 10 3 11 4 12 5 13 6 14 7 15 8 16 9 7 10 6 11 5 12
REMARK SMILES IDX 4 13 3 14 2 15 1 16
REMARK H PARENT
REMARK Flexibility Score: inf
ROOT
ATOM      1  C   UNL     1       8.385 -18.825  22.249  1.00  0.00     0.000 C 
ENDROOT
BRANCH   1   2
ATOM      2  C   UNL     1       7.592 -19.592  23.322  1.00  0.00     0.000 C 
BRANCH   2   3
ATOM      3  C   UNL     1       7.114 -20.997  22.900  1.00  0.00     0.000 C 
BRANCH   3   4
ATOM      4  C   UNL     1       6.937 -21.199  21.381  1.00  0.00     0.000 C 
BRANCH   4   5
ATOM      5  C   UNL     1       7.661 -22.428  20.803  1.00  0.00     0.006 C 
BRANCH   5   6
ATOM      6  C   UNL     1       8.660 -23.048  21.788  1.00  0.00     0.053 C 
BRANCH   6   7
ATOM      7  C   UNL     1      10.059 -22.664  21.424  1.00  0.00     0.041 C 
ATOM      8  O   UNL     1      11.029 -23.070  22.117  1.00  0.00    -0.550 OA
ATOM      9  O   UNL     1      10.297 -21.896  20.291  1.00  0.00    -0.550 OA
ENDBRANCH   6   7
ENDBRANCH   5   6
ENDBRANCH   4   5
ENDBRANCH   3   4
ENDBRANCH   2   3
ENDBRANCH   1   2
BRANCH   1  10
ATOM     10  C   UNL     1       7.630 -17.603  21.709  1.00  0.00     0.000 C 
BRANCH  10  11
ATOM     11  C   UNL     1       8.275 -16.299  22.194  1.00  0.00    -0.000 C 
BRANCH  11  12
ATOM     12  C   UNL     1       7.770 -15.925  23.595  1.00  0.00    -0.000 C 
BRANCH  12  13
ATOM     13  C   UNL     1       8.894 -15.435  24.523  1.00  0.00    -0.000 C 
BRANCH  13  14
ATOM     14  C   UNL     1      10.322 -15.675  23.996  1.00  0.00    -0.000 C 
BRANCH  14  15
ATOM     15  C   UNL     1      11.054 -16.843  24.694  1.00  0.00    -0.003 C 
ATOM     16  C   UNL     1      10.337 -17.309  25.960  1.00  0.00     0.004 C 
ENDBRANCH  14  15
ENDBRANCH  13  14
ENDBRANCH  12  13
ENDBRANCH  11  12
ENDBRANCH  10  11
ENDBRANCH   1  10
TORSDOF 12
ENDMDL
MODEL 5
REMARK VINA RESULT:    -3.946      1.917      3.469
REMARK INTER + INTRA:          -8.639
REMARK INTER:                  -7.307
REMARK INTRA:                  -1.332
REMARK UNBOUND:                -1.925
REMARK SMILES CCCCCCCCCCCCCC(=O)[O-]
REMARK SMILES IDX 8 1 9 2 10 3 11 4 12 5 13 6 14 7 15 8 16 9 7 10 6 11 5 12
REMARK SMILES IDX 4 13 3 14 2 15 1 16
REMARK H PARENT
REMARK Flexibility Score: inf
ROOT
ATOM      1  C   UNL     1       7.311 -21.077  22.928  1.00  0.00     0.000 C 
ENDROOT
BRANCH   1   2
ATOM      2  C   UNL     1       6.463 -20.076  23.733  1.00  0.00     0.000 C 
BRANCH   2   3
ATOM      3  C   UNL     1       7.138 -18.714  23.995  1.00  0.00     0.000 C 
BRANCH   3   4
ATOM      4  C   UNL     1       7.136 -18.254  25.467  1.00  0.00     0.000 C 
BRANCH   4   5
ATOM      5  C   UNL     1       8.184 -17.181  25.812  1.00  0.00     0.006 C 
BRANCH   5   6
ATOM      6  C   UNL     1       8.487 -16.244  24.636  1.00  0.00     0.053 C 
BRANCH   6   7
ATOM      7  C   UNL     1       9.956 -15.986  24.539  1.00  0.00     0.041 C 
ATOM      8  O   UNL     1      10.770 -16.698  25.185  1.00  0.00    -0.550 OA
ATOM      9  O   UNL     1      10.433 -14.989  23.696  1.00  0.00    -0.550 OA
ENDBRANCH   6   7
ENDBRANCH   5   6
ENDBRANCH   4   5
ENDBRANCH   3   4
ENDBRANCH   2   3
ENDBRANCH   1   2
BRANCH   1  10
ATOM     10  C   UNL     1       6.898 -21.157  21.452  1.00  0.00     0.000 C 
BRANCH  10  11
ATOM     11  C   UNL     1       7.804 -22.123  20.679  1.00  0.00    -0.000 C 
BRANCH  11  12
ATOM     12  C   UNL     1       8.616 -23.002  21.642  1.00  0.00    -0.000 C 
BRANCH  12  13
ATOM     13  C   UNL     1      10.131 -22.919  21.390  1.00  0.00    -0.000 C 
BRANCH  13  14
ATOM     14  C   UNL     1      10.916 -22.086  22.422  1.00  0.00    -0.000 C 
BRANCH  14  15
ATOM     15  C   UNL     1      10.975 -20.579  22.089  1.00  0.00    -0.003 C 
ATOM     16  C   UNL     1      10.616 -19.701  23.286  1.00  0.00     0.004 C 
ENDBRANCH  14  15
ENDBRANCH  13  14
ENDBRANCH  12  13
ENDBRANCH  11  12
ENDBRANCH  10  11
ENDBRANCH   1  10
TORSDOF 12
ENDMDL
MODEL 6
REMARK VINA RESULT:    -3.930      1.872      3.352
REMARK INTER + INTRA:          -8.612
REMARK INTER:                  -7.090
REMARK INTRA:                  -1.522
REMARK UNBOUND:                -1.925
REMARK SMILES CCCCCCCCCCCCCC(=O)[O-]
REMARK SMILES IDX 8 1 9 2 10 3 11 4 12 5 13 6 14 7 15 8 16 9 7 10 6 11 5 12
REMARK SMILES IDX 4 13 3 14 2 15 1 16
REMARK H PARENT
REMARK Flexibility Score: inf
ROOT
ATOM      1  C   UNL     1       7.435 -20.425  21.453  1.00  0.00     0.000 C 
ENDROOT
BRANCH   1   2
ATOM      2  C   UNL     1       7.778 -19.255  20.514  1.00  0.00     0.000 C 
BRANCH   2   3
ATOM      3  C   UNL     1       7.930 -17.886  21.209  1.00  0.00     0.000 C 
BRANCH   3   4
ATOM      4  C   UNL     1       7.887 -17.924  22.750  1.00  0.00     0.000 C 
BRANCH   4   5
ATOM      5  C   UNL     1       7.121 -16.761  23.405  1.00  0.00     0.006 C 
BRANCH   5   6
ATOM      6  C   UNL     1       7.909 -15.445  23.391  1.00  0.00     0.053 C 
BRANCH   6   7
ATOM      7  C   UNL     1       9.035 -15.500  24.373  1.00  0.00     0.041 C 
ATOM      8  O   UNL     1      10.201 -15.178  24.021  1.00  0.00    -0.550 OA
ATOM      9  O   UNL     1       8.790 -15.861  25.692  1.00  0.00    -0.550 OA
ENDBRANCH   6   7
ENDBRANCH   5   6
ENDBRANCH   4   5
ENDBRANCH   3   4
ENDBRANCH   2   3
ENDBRANCH   1   2
BRANCH   1  10
ATOM     10  C   UNL     1       7.636 -21.797  20.795  1.00  0.00     0.000 C 
BRANCH  10  11
ATOM     11  C   UNL     1       8.211 -22.808  21.794  1.00  0.00    -0.000 C 
BRANCH  11  12
ATOM     12  C   UNL     1       9.570 -23.341  21.314  1.00  0.00    -0.000 C 
BRANCH  12  13
ATOM     13  C   UNL     1      10.756 -22.699  22.054  1.00  0.00    -0.000 C 
BRANCH  13  14
ATOM     14  C   UNL     1      11.521 -21.630  21.250  1.00  0.00    -0.000 C 
BRANCH  14  15
ATOM     15  C   UNL     1      11.257 -20.186  21.728  1.00  0.00    -0.003 C 
ATOM     16  C   UNL     1      10.807 -20.126  23.187  1.00  0.00     0.004 C 
ENDBRANCH  14  15
ENDBRANCH  13  14
ENDBRANCH  12  13
ENDBRANCH  11  12
ENDBRANCH  10  11
ENDBRANCH   1  10
TORSDOF 12
ENDMDL
MODEL 7
REMARK VINA RESULT:    -3.928      3.029      5.904
REMARK INTER + INTRA:          -8.608
REMARK INTER:                  -6.999
REMARK INTRA:                  -1.609
REMARK UNBOUND:                -1.925
REMARK SMILES CCCCCCCCCCCCCC(=O)[O-]
REMARK SMILES IDX 8 1 9 2 10 3 11 4 12 5 13 6 14 7 15 8 16 9 7 10 6 11 5 12
REMARK SMILES IDX 4 13 3 14 2 15 1 16
REMARK H PARENT
REMARK Flexibility Score: inf
ROOT
ATOM      1  C   UNL     1       6.887 -18.270  25.300  1.00  0.00     0.000 C 
ENDROOT
BRANCH   1   2
ATOM      2  C   UNL     1       6.741 -19.648  24.631  1.00  0.00     0.000 C 
BRANCH   2   3
ATOM      3  C   UNL     1       7.877 -20.021  23.655  1.00  0.00     0.000 C 
BRANCH   3   4
ATOM      4  C   UNL     1       7.479 -20.047  22.165  1.00  0.00     0.000 C 
BRANCH   4   5
ATOM      5  C   UNL     1       7.019 -21.419  21.641  1.00  0.00     0.006 C 
BRANCH   5   6
ATOM      6  C   UNL     1       8.139 -22.468  21.655  1.00  0.00     0.053 C 
BRANCH   6   7
ATOM      7  C   UNL     1       9.062 -22.262  20.496  1.00  0.00     0.041 C 
ATOM      8  O   UNL     1       8.602 -21.946  19.367  1.00  0.00    -0.550 OA
ATOM      9  O   UNL     1      10.436 -22.371  20.673  1.00  0.00    -0.550 OA
ENDBRANCH   6   7
ENDBRANCH   5   6
ENDBRANCH   4   5
ENDBRANCH   3   4
ENDBRANCH   2   3
ENDBRANCH   1   2
BRANCH   1  10
ATOM     10  C   UNL     1       8.294 -18.029  25.867  1.00  0.00     0.000 C 
BRANCH  10  11
ATOM     11  C   UNL     1       8.620 -16.531  25.909  1.00  0.00    -0.000 C 
BRANCH  11  12
ATOM     12  C   UNL     1       9.837 -16.210  25.029  1.00  0.00    -0.000 C 
BRANCH  12  13
ATOM     13  C   UNL     1       9.448 -15.591  23.675  1.00  0.00    -0.000 C 
BRANCH  13  14
ATOM     14  C   UNL     1       9.118 -16.609  22.567  1.00  0.00    -0.000 C 
BRANCH  14  15
ATOM     15  C   UNL     1       7.744 -16.379  21.901  1.00  0.00    -0.003 C 
ATOM     16  C   UNL     1       6.814 -15.522  22.758  1.00  0.00     0.004 C 
ENDBRANCH  14  15
ENDBRANCH  13  14
ENDBRANCH  12  13
ENDBRANCH  11  12
ENDBRANCH  10  11
ENDBRANCH   1  10
TORSDOF 12
ENDMDL
MODEL 8
REMARK VINA RESULT:    -3.904      1.424      3.896
REMARK INTER + INTRA:          -8.568
REMARK INTER:                  -6.901
REMARK INTRA:                  -1.667
REMARK UNBOUND:                -1.925
REMARK SMILES CCCCCCCCCCCCCC(=O)[O-]
REMARK SMILES IDX 8 1 9 2 10 3 11 4 12 5 13 6 14 7 15 8 16 9 7 10 6 11 5 12
REMARK SMILES IDX 4 13 3 14 2 15 1 16
REMARK H PARENT
REMARK Flexibility Score: inf
ROOT
ATOM      1  C   UNL     1       7.394 -19.732  24.382  1.00  0.00     0.000 C 
ENDROOT
BRANCH   1   2
ATOM      2  C   UNL     1       6.799 -18.432  24.951  1.00  0.00     0.000 C 
BRANCH   2   3
ATOM      3  C   UNL     1       7.831 -17.443  25.532  1.00  0.00     0.000 C 
BRANCH   3   4
ATOM      4  C   UNL     1       9.244 -18.021  25.747  1.00  0.00     0.000 C 
BRANCH   4   5
ATOM      5  C   UNL     1      10.384 -16.989  25.676  1.00  0.00     0.006 C 
BRANCH   5   6
ATOM      6  C   UNL     1      10.232 -16.014  24.501  1.00  0.00     0.053 C 
BRANCH   6   7
ATOM      7  C   UNL     1      11.375 -16.163  23.548  1.00  0.00     0.041 C 
ATOM      8  O   UNL     1      11.796 -17.308  23.235  1.00  0.00    -0.550 OA
ATOM      9  O   UNL     1      11.945 -15.038  22.966  1.00  0.00    -0.550 OA
ENDBRANCH   6   7
ENDBRANCH   5   6
ENDBRANCH   4   5
ENDBRANCH   3   4
ENDBRANCH   2   3
ENDBRANCH   1   2
BRANCH   1  10
ATOM     10  C   UNL     1       6.446 -20.446  23.409  1.00  0.00     0.000 C 
BRANCH  10  11
ATOM     11  C   UNL     1       7.176 -20.836  22.118  1.00  0.00    -0.000 C 
BRANCH  11  12
ATOM     12  C   UNL     1       8.342 -19.877  21.835  1.00  0.00    -0.000 C 
BRANCH  12  13
ATOM     13  C   UNL     1       7.911 -18.632  21.042  1.00  0.00    -0.000 C 
BRANCH  13  14
ATOM     14  C   UNL     1       8.296 -17.286  21.686  1.00  0.00    -0.000 C 
BRANCH  14  15
ATOM     15  C   UNL     1       7.285 -16.153  21.409  1.00  0.00    -0.003 C 
ATOM     16  C   UNL     1       7.022 -15.290  22.642  1.00  0.00     0.004 C 
ENDBRANCH  14  15
ENDBRANCH  13  14
ENDBRANCH  12  13
ENDBRANCH  11  12
ENDBRANCH  10  11
ENDBRANCH   1  10
TORSDOF 12
ENDMDL
MODEL 9
REMARK VINA RESULT:    -3.864      2.934      5.685
REMARK INTER + INTRA:          -8.500
REMARK INTER:                  -6.416
REMARK INTRA:                  -2.084
REMARK UNBOUND:                -1.925
REMARK SMILES CCCCCCCCCCCCCC(=O)[O-]
REMARK SMILES IDX 8 1 9 2 10 3 11 4 12 5 13 6 14 7 15 8 16 9 7 10 6 11 5 12
REMARK SMILES IDX 4 13 3 14 2 15 1 16
REMARK H PARENT
REMARK Flexibility Score: inf
ROOT
ATOM      1  C   UNL     1       8.936 -16.988  20.751  1.00  0.00     0.000 C 
ENDROOT
BRANCH   1   2
ATOM      2  C   UNL     1       9.207 -18.502  20.713  1.00  0.00     0.000 C 
BRANCH   2   3
ATOM      3  C   UNL     1       9.985 -19.055  21.925  1.00  0.00     0.000 C 
BRANCH   3   4
ATOM      4  C   UNL     1       9.127 -19.789  22.976  1.00  0.00     0.000 C 
BRANCH   4   5
ATOM      5  C   UNL     1       7.729 -20.211  22.490  1.00  0.00     0.006 C 
BRANCH   5   6
ATOM      6  C   UNL     1       7.557 -21.734  22.423  1.00  0.00     0.053 C 
BRANCH   6   7
ATOM      7  C   UNL     1       8.228 -22.282  21.204  1.00  0.00     0.041 C 
ATOM      8  O   UNL     1       7.982 -21.793  20.070  1.00  0.00    -0.550 OA
ATOM      9  O   UNL     1       9.163 -23.303  21.324  1.00  0.00    -0.550 OA
ENDBRANCH   6   7
ENDBRANCH   5   6
ENDBRANCH   4   5
ENDBRANCH   3   4
ENDBRANCH   2   3
ENDBRANCH   1   2
BRANCH   1  10
ATOM     10  C   UNL     1       7.492 -16.650  21.148  1.00  0.00     0.000 C 
BRANCH  10  11
ATOM     11  C   UNL     1       7.460 -15.726  22.371  1.00  0.00    -0.000 C 
BRANCH  11  12
ATOM     12  C   UNL     1       7.462 -16.540  23.674  1.00  0.00    -0.000 C 
BRANCH  12  13
ATOM     13  C   UNL     1       8.553 -16.085  24.659  1.00  0.00    -0.000 C 
BRANCH  13  14
ATOM     14  C   UNL     1       9.664 -15.215  24.041  1.00  0.00    -0.000 C 
BRANCH  14  15
ATOM     15  C   UNL     1      10.972 -15.985  23.758  1.00  0.00    -0.003 C 
ATOM     16  C   UNL     1      11.274 -17.037  24.824  1.00  0.00     0.004 C 
ENDBRANCH  14  15
ENDBRANCH  13  14
ENDBRANCH  12  13
ENDBRANCH  11  12
ENDBRANCH  10  11
ENDBRANCH   1  10
TORSDOF 12
ENDMDL
