MODEL 1
REMARK VINA RESULT:    -4.830      0.000      0.000
REMARK INTER + INTRA:          -7.634
REMARK INTER:                  -7.371
REMARK INTRA:                  -0.263
REMARK UNBOUND:                -0.263
REMARK SMILES O=C([O-])CCCCCCCCC(=O)[O-]
REMARK SMILES IDX 7 1 6 2 5 3 4 4 2 5 1 6 3 7 8 8 9 9 10 10 11 11 12 12 13 13
REMARK SMILES IDX 14 14
REMARK H PARENT
REMARK Flexibility Score: inf
ROOT
ATOM      1  C   UNL     1     -29.212 -22.231 -21.944  1.00  0.00     0.000 C 
ENDROOT
BRANCH   1   2
ATOM      2  C   UNL     1     -28.413 -23.094 -20.950  1.00  0.00     0.000 C 
BRANCH   2   3
ATOM      3  C   UNL     1     -29.049 -23.125 -19.552  1.00  0.00     0.006 C 
BRANCH   3   4
ATOM      4  C   UNL     1     -28.400 -22.124 -18.588  1.00  0.00     0.053 C 
BRANCH   4   5
ATOM      5  C   UNL     1     -28.220 -22.742 -17.237  1.00  0.00     0.041 C 
ATOM      6  O   UNL     1     -27.064 -22.958 -16.788  1.00  0.00    -0.550 OA
ATOM      7  O   UNL     1     -29.331 -23.125 -16.494  1.00  0.00    -0.550 OA
ENDBRANCH   4   5
ENDBRANCH   3   4
ENDBRANCH   2   3
ENDBRANCH   1   2
BRANCH   1   8
ATOM      8  C   UNL     1     -30.717 -22.535 -21.914  1.00  0.00     0.000 C 
BRANCH   8   9
ATOM      9  C   UNL     1     -31.573 -21.270 -21.751  1.00  0.00     0.000 C 
BRANCH   9  10
ATOM     10  C   UNL     1     -31.969 -20.694 -23.119  1.00  0.00     0.006 C 
BRANCH  10  11
ATOM     11  C   UNL     1     -31.478 -21.568 -24.281  1.00  0.00     0.053 C 
BRANCH  11  12
ATOM     12  C   UNL     1     -30.937 -20.743 -25.409  1.00  0.00     0.041 C 
ATOM     13  O   UNL     1     -30.889 -19.489 -25.309  1.00  0.00    -0.550 OA
ATOM     14  O   UNL     1     -30.519 -21.357 -26.583  1.00  0.00    -0.550 OA
ENDBRANCH  11  12
ENDBRANCH  10  11
ENDBRANCH   9  10
ENDBRANCH   8   9
ENDBRANCH   1   8
TORSDOF 9
ENDMDL
MODEL 2
REMARK VINA RESULT:    -4.793      0.894      7.501
REMARK INTER + INTRA:          -7.578
REMARK INTER:                  -7.236
REMARK INTRA:                  -0.342
REMARK UNBOUND:                -0.263
REMARK SMILES O=C([O-])CCCCCCCCC(=O)[O-]
REMARK SMILES IDX 7 1 6 2 5 3 4 4 2 5 1 6 3 7 8 8 9 9 10 10 11 11 12 12 13 13
REMARK SMILES IDX 14 14
REMARK H PARENT
REMARK Flexibility Score: inf
ROOT
ATOM      1  C   UNL     1     -31.452 -20.976 -21.522  1.00  0.00     0.000 C 
ENDROOT
BRANCH   1   2
ATOM      2  C   UNL     1     -31.975 -20.793 -22.958  1.00  0.00     0.000 C 
BRANCH   2   3
ATOM      3  C   UNL     1     -31.241 -21.685 -23.971  1.00  0.00     0.006 C 
BRANCH   3   4
ATOM      4  C   UNL     1     -30.403 -20.876 -24.970  1.00  0.00     0.053 C 
BRANCH   4   5
ATOM      5  C   UNL     1     -30.919 -21.070 -26.361  1.00  0.00     0.041 C 
ATOM      6  O   UNL     1     -31.100 -20.077 -27.113  1.00  0.00    -0.550 OA
ATOM      7  O   UNL     1     -31.246 -22.344 -26.809  1.00  0.00    -0.550 OA
ENDBRANCH   4   5
ENDBRANCH   3   4
ENDBRANCH   2   3
ENDBRANCH   1   2
BRANCH   1   8
ATOM      8  C   UNL     1     -30.706 -22.305 -21.329  1.00  0.00     0.000 C 
BRANCH   8   9
ATOM      9  C   UNL     1     -29.214 -22.107 -21.021  1.00  0.00     0.000 C 
BRANCH   9  10
ATOM     10  C   UNL     1     -28.989 -21.878 -19.519  1.00  0.00     0.006 C 
BRANCH  10  11
ATOM     11  C   UNL     1     -28.358 -23.096 -18.833  1.00  0.00     0.053 C 
BRANCH  11  12
ATOM     12  C   UNL     1     -28.133 -22.858 -17.371  1.00  0.00     0.041 C 
ATOM     13  O   UNL     1     -26.962 -22.812 -16.909  1.00  0.00    -0.550 OA
ATOM     14  O   UNL     1     -29.217 -22.721 -16.513  1.00  0.00    -0.550 OA
ENDBRANCH  11  12
ENDBRANCH  10  11
ENDBRANCH   9  10
ENDBRANCH   8   9
ENDBRANCH   1   8
TORSDOF 9
ENDMDL
MODEL 3
REMARK VINA RESULT:    -4.510      0.918      1.438
REMARK INTER + INTRA:          -7.145
REMARK INTER:                  -6.766
REMARK INTRA:                  -0.379
REMARK UNBOUND:                -0.263
REMARK SMILES O=C([O-])CCCCCCCCC(=O)[O-]
REMARK SMILES IDX 7 1 6 2 5 3 4 4 2 5 1 6 3 7 8 8 9 9 10 10 11 11 12 12 13 13
REMARK SMILES IDX 14 14
REMARK H PARENT
REMARK Flexibility Score: inf
ROOT
ATOM      1  C   UNL     1     -29.360 -21.808 -21.551  1.00  0.00     0.000 C 
ENDROOT
BRANCH   1   2
ATOM      2  C   UNL     1     -28.891 -23.109 -20.875  1.00  0.00     0.000 C 
BRANCH   2   3
ATOM      3  C   UNL     1     -29.038 -23.065 -19.346  1.00  0.00     0.006 C 
BRANCH   3   4
ATOM      4  C   UNL     1     -27.696 -22.867 -18.630  1.00  0.00     0.053 C 
BRANCH   4   5
ATOM      5  C   UNL     1     -27.885 -22.909 -17.146  1.00  0.00     0.041 C 
ATOM      6  O   UNL     1     -29.043 -22.911 -16.655  1.00  0.00    -0.550 OA
ATOM      7  O   UNL     1     -26.779 -22.897 -16.304  1.00  0.00    -0.550 OA
ENDBRANCH   4   5
ENDBRANCH   3   4
ENDBRANCH   2   3
ENDBRANCH   1   2
BRANCH   1   8
ATOM      8  C   UNL     1     -30.721 -21.326 -21.028  1.00  0.00     0.000 C 
BRANCH   8   9
ATOM      9  C   UNL     1     -31.719 -21.033 -22.158  1.00  0.00     0.000 C 
BRANCH   9  10
ATOM     10  C   UNL     1     -31.226 -21.614 -23.491  1.00  0.00     0.006 C 
BRANCH  10  11
ATOM     11  C   UNL     1     -31.713 -20.800 -24.697  1.00  0.00     0.053 C 
BRANCH  11  12
ATOM     12  C   UNL     1     -31.188 -21.349 -25.988  1.00  0.00     0.041 C 
ATOM     13  O   UNL     1     -31.714 -22.371 -26.502  1.00  0.00    -0.550 OA
ATOM     14  O   UNL     1     -30.097 -20.752 -26.607  1.00  0.00    -0.550 OA
ENDBRANCH  11  12
ENDBRANCH  10  11
ENDBRANCH   9  10
ENDBRANCH   8   9
ENDBRANCH   1   8
TORSDOF 9
ENDMDL
MODEL 4
REMARK VINA RESULT:    -3.985      1.822      6.654
REMARK INTER + INTRA:          -6.344
REMARK INTER:                  -5.881
REMARK INTRA:                  -0.463
REMARK UNBOUND:                -0.263
REMARK SMILES O=C([O-])CCCCCCCCC(=O)[O-]
REMARK SMILES IDX 7 1 6 2 5 3 4 4 2 5 1 6 3 7 8 8 9 9 10 10 11 11 12 12 13 13
REMARK SMILES IDX 14 14
REMARK H PARENT
REMARK Flexibility Score: inf
ROOT
ATOM      1  C   UNL     1     -28.557 -21.517 -22.641  1.00  0.00     0.000 C 
ENDROOT
BRANCH   1   2
ATOM      2  C   UNL     1     -29.106 -21.577 -24.078  1.00  0.00     0.000 C 
BRANCH   2   3
ATOM      3  C   UNL     1     -30.511 -20.965 -24.200  1.00  0.00     0.006 C 
BRANCH   3   4
ATOM      4  C   UNL     1     -31.528 -21.634 -23.267  1.00  0.00     0.053 C 
BRANCH   4   5
ATOM      5  C   UNL     1     -32.040 -20.650 -22.263  1.00  0.00     0.041 C 
ATOM      6  O   UNL     1     -31.671 -20.721 -21.062  1.00  0.00    -0.550 OA
ATOM      7  O   UNL     1     -32.965 -19.685 -22.644  1.00  0.00    -0.550 OA
ENDBRANCH   4   5
ENDBRANCH   3   4
ENDBRANCH   2   3
ENDBRANCH   1   2
BRANCH   1   8
ATOM      8  C   UNL     1     -28.460 -22.904 -21.987  1.00  0.00     0.000 C 
BRANCH   8   9
ATOM      9  C   UNL     1     -29.057 -22.934 -20.572  1.00  0.00     0.000 C 
BRANCH   9  10
ATOM     10  C   UNL     1     -27.955 -23.094 -19.514  1.00  0.00     0.006 C 
BRANCH  10  11
ATOM     11  C   UNL     1     -28.102 -22.089 -18.365  1.00  0.00     0.053 C 
BRANCH  11  12
ATOM     12  C   UNL     1     -28.078 -22.765 -17.028  1.00  0.00     0.041 C 
ATOM     13  O   UNL     1     -29.155 -23.108 -16.472  1.00  0.00    -0.550 OA
ATOM     14  O   UNL     1     -26.869 -22.984 -16.379  1.00  0.00    -0.550 OA
ENDBRANCH  11  12
ENDBRANCH  10  11
ENDBRANCH   9  10
ENDBRANCH   8   9
ENDBRANCH   1   8
TORSDOF 9
ENDMDL
MODEL 5
REMARK VINA RESULT:    -3.791      1.915      2.442
REMARK INTER + INTRA:          -6.049
REMARK INTER:                  -6.163
REMARK INTRA:                   0.114
REMARK UNBOUND:                -0.263
REMARK SMILES O=C([O-])CCCCCCCCC(=O)[O-]
REMARK SMILES IDX 7 1 6 2 5 3 4 4 2 5 1 6 3 7 8 8 9 9 10 10 11 11 12 12 13 13
REMARK SMILES IDX 14 14
REMARK H PARENT
REMARK Flexibility Score: inf
ROOT
ATOM      1  C   UNL     1     -28.622 -22.913 -21.904  1.00  0.00     0.000 C 
ENDROOT
BRANCH   1   2
ATOM      2  C   UNL     1     -29.270 -22.161 -20.727  1.00  0.00     0.000 C 
BRANCH   2   3
ATOM      3  C   UNL     1     -29.048 -22.868 -19.380  1.00  0.00     0.006 C 
BRANCH   3   4
ATOM      4  C   UNL     1     -28.192 -22.040 -18.414  1.00  0.00     0.053 C 
BRANCH   4   5
ATOM      5  C   UNL     1     -28.012 -22.769 -17.121  1.00  0.00     0.041 C 
ATOM      6  O   UNL     1     -26.861 -23.103 -16.736  1.00  0.00    -0.550 OA
ATOM      7  O   UNL     1     -29.122 -23.123 -16.362  1.00  0.00    -0.550 OA
ENDBRANCH   4   5
ENDBRANCH   3   4
ENDBRANCH   2   3
ENDBRANCH   1   2
BRANCH   1   8
ATOM      8  C   UNL     1     -28.091 -21.965 -22.990  1.00  0.00     0.000 C 
BRANCH   8   9
ATOM      9  C   UNL     1     -29.208 -21.408 -23.885  1.00  0.00     0.000 C 
BRANCH   9  10
ATOM     10  C   UNL     1     -30.578 -21.960 -23.463  1.00  0.00     0.006 C 
BRANCH  10  11
ATOM     11  C   UNL     1     -31.714 -20.966 -23.734  1.00  0.00     0.053 C 
BRANCH  11  12
ATOM     12  C   UNL     1     -32.295 -20.424 -22.464  1.00  0.00     0.041 C 
ATOM     13  O   UNL     1     -32.200 -21.080 -21.393  1.00  0.00    -0.550 OA
ATOM     14  O   UNL     1     -32.972 -19.211 -22.470  1.00  0.00    -0.550 OA
ENDBRANCH  11  12
ENDBRANCH  10  11
ENDBRANCH   9  10
ENDBRANCH   8   9
ENDBRANCH   1   8
TORSDOF 9
ENDMDL
MODEL 6
REMARK VINA RESULT:    -3.676      3.160      5.877
REMARK INTER + INTRA:          -5.872
REMARK INTER:                  -5.170
REMARK INTRA:                  -0.702
REMARK UNBOUND:                -0.263
REMARK SMILES O=C([O-])CCCCCCCCC(=O)[O-]
REMARK SMILES IDX 7 1 6 2 5 3 4 4 2 5 1 6 3 7 8 8 9 9 10 10 11 11 12 12 13 13
REMARK SMILES IDX 14 14
REMARK H PARENT
REMARK Flexibility Score: inf
ROOT
ATOM      1  C   UNL     1     -27.844 -22.670 -22.443  1.00  0.00     0.000 C 
ENDROOT
BRANCH   1   2
ATOM      2  C   UNL     1     -28.140 -21.538 -23.443  1.00  0.00     0.000 C 
BRANCH   2   3
ATOM      3  C   UNL     1     -29.529 -21.668 -24.087  1.00  0.00     0.006 C 
BRANCH   3   4
ATOM      4  C   UNL     1     -29.854 -20.501 -25.029  1.00  0.00     0.053 C 
BRANCH   4   5
ATOM      5  C   UNL     1     -30.865 -20.920 -26.048  1.00  0.00     0.041 C 
ATOM      6  O   UNL     1     -30.994 -20.268 -27.117  1.00  0.00    -0.550 OA
ATOM      7  O   UNL     1     -31.701 -22.001 -25.796  1.00  0.00    -0.550 OA
ENDBRANCH   4   5
ENDBRANCH   3   4
ENDBRANCH   2   3
ENDBRANCH   1   2
BRANCH   1   8
ATOM      8  C   UNL     1     -29.035 -22.968 -21.518  1.00  0.00     0.000 C 
BRANCH   8   9
ATOM      9  C   UNL     1     -29.105 -22.011 -20.319  1.00  0.00     0.000 C 
BRANCH   9  10
ATOM     10  C   UNL     1     -30.205 -20.958 -20.520  1.00  0.00     0.006 C 
BRANCH  10  11
ATOM     11  C   UNL     1     -31.407 -21.513 -21.295  1.00  0.00     0.053 C 
BRANCH  11  12
ATOM     12  C   UNL     1     -32.254 -20.418 -21.869  1.00  0.00     0.041 C 
ATOM     13  O   UNL     1     -32.726 -20.526 -23.031  1.00  0.00    -0.550 OA
ATOM     14  O   UNL     1     -32.491 -19.264 -21.134  1.00  0.00    -0.550 OA
ENDBRANCH  11  12
ENDBRANCH  10  11
ENDBRANCH   9  10
ENDBRANCH   8   9
ENDBRANCH   1   8
TORSDOF 9
ENDMDL
MODEL 7
REMARK VINA RESULT:    -3.625      2.154      2.995
REMARK INTER + INTRA:          -5.795
REMARK INTER:                  -5.386
REMARK INTRA:                  -0.409
REMARK UNBOUND:                -0.263
REMARK SMILES O=C([O-])CCCCCCCCC(=O)[O-]
REMARK SMILES IDX 7 1 6 2 5 3 4 4 2 5 1 6 3 7 8 8 9 9 10 10 11 11 12 12 13 13
REMARK SMILES IDX 14 14
REMARK H PARENT
REMARK Flexibility Score: inf
ROOT
ATOM      1  C   UNL     1     -28.236 -21.298 -23.585  1.00  0.00     0.000 C 
ENDROOT
BRANCH   1   2
ATOM      2  C   UNL     1     -27.635 -22.399 -22.693  1.00  0.00     0.000 C 
BRANCH   2   3
ATOM      3  C   UNL     1     -28.637 -22.932 -21.657  1.00  0.00     0.006 C 
BRANCH   3   4
ATOM      4  C   UNL     1     -28.007 -23.125 -20.272  1.00  0.00     0.053 C 
BRANCH   4   5
ATOM      5  C   UNL     1     -28.656 -22.220 -19.273  1.00  0.00     0.041 C 
ATOM      6  O   UNL     1     -29.204 -21.151 -19.648  1.00  0.00    -0.550 OA
ATOM      7  O   UNL     1     -28.614 -22.535 -17.919  1.00  0.00    -0.550 OA
ENDBRANCH   4   5
ENDBRANCH   3   4
ENDBRANCH   2   3
ENDBRANCH   1   2
BRANCH   1   8
ATOM      8  C   UNL     1     -29.642 -21.652 -24.094  1.00  0.00     0.000 C 
BRANCH   8   9
ATOM      9  C   UNL     1     -30.112 -20.724 -25.223  1.00  0.00     0.000 C 
BRANCH   9  10
ATOM     10  C   UNL     1     -31.288 -19.850 -24.762  1.00  0.00     0.006 C 
BRANCH  10  11
ATOM     11  C   UNL     1     -32.350 -20.656 -24.002  1.00  0.00     0.053 C 
BRANCH  11  12
ATOM     12  C   UNL     1     -32.404 -20.279 -22.553  1.00  0.00     0.041 C 
ATOM     13  O   UNL     1     -31.992 -21.081 -21.674  1.00  0.00    -0.550 OA
ATOM     14  O   UNL     1     -32.943 -19.057 -22.172  1.00  0.00    -0.550 OA
ENDBRANCH  11  12
ENDBRANCH  10  11
ENDBRANCH   9  10
ENDBRANCH   8   9
ENDBRANCH   1   8
TORSDOF 9
ENDMDL
MODEL 8
REMARK VINA RESULT:    -3.480      3.454      4.206
REMARK INTER + INTRA:          -5.574
REMARK INTER:                  -4.976
REMARK INTRA:                  -0.598
REMARK UNBOUND:                -0.263
REMARK SMILES O=C([O-])CCCCCCCCC(=O)[O-]
REMARK SMILES IDX 7 1 6 2 5 3 4 4 2 5 1 6 3 7 8 8 9 9 10 10 11 11 12 12 13 13
REMARK SMILES IDX 14 14
REMARK H PARENT
REMARK Flexibility Score: inf
ROOT
ATOM      1  C   UNL     1     -28.769 -22.285 -21.007  1.00  0.00     0.000 C 
ENDROOT
BRANCH   1   2
ATOM      2  C   UNL     1     -30.058 -23.108 -20.825  1.00  0.00     0.000 C 
BRANCH   2   3
ATOM      3  C   UNL     1     -31.284 -22.433 -21.460  1.00  0.00     0.006 C 
BRANCH   3   4
ATOM      4  C   UNL     1     -31.375 -20.940 -21.122  1.00  0.00     0.053 C 
BRANCH   4   5
ATOM      5  C   UNL     1     -32.389 -20.269 -21.995  1.00  0.00     0.041 C 
ATOM      6  O   UNL     1     -32.774 -20.821 -23.059  1.00  0.00    -0.550 OA
ATOM      7  O   UNL     1     -32.873 -19.010 -21.657  1.00  0.00    -0.550 OA
ENDBRANCH   4   5
ENDBRANCH   3   4
ENDBRANCH   2   3
ENDBRANCH   1   2
BRANCH   1   8
ATOM      8  C   UNL     1     -28.061 -22.584 -22.337  1.00  0.00     0.000 C 
BRANCH   8   9
ATOM      9  C   UNL     1     -28.257 -21.469 -23.375  1.00  0.00     0.000 C 
BRANCH   9  10
ATOM     10  C   UNL     1     -29.569 -21.665 -24.150  1.00  0.00     0.006 C 
BRANCH  10  11
ATOM     11  C   UNL     1     -29.875 -20.485 -25.082  1.00  0.00     0.053 C 
BRANCH  11  12
ATOM     12  C   UNL     1     -30.891 -20.847 -26.123  1.00  0.00     0.041 C 
ATOM     13  O   UNL     1     -31.071 -20.098 -27.119  1.00  0.00    -0.550 OA
ATOM     14  O   UNL     1     -31.662 -21.992 -25.974  1.00  0.00    -0.550 OA
ENDBRANCH  11  12
ENDBRANCH  10  11
ENDBRANCH   9  10
ENDBRANCH   8   9
ENDBRANCH   1   8
TORSDOF 9
ENDMDL
