MODEL 1
REMARK VINA RESULT:    -5.334      0.000      0.000
REMARK INTER + INTRA:          -7.279
REMARK INTER:                  -6.893
REMARK INTRA:                  -0.386
REMARK UNBOUND:                -0.386
REMARK SMILES CCO[C@@H]1O[C@H](CO)[C@H](O)[C@H](O)[C@H]1O
REMARK SMILES IDX 4 1 13 2 11 3 9 4 6 5 5 6 3 7 2 8 1 9 14 10 12 12 7 14 8 15
REMARK SMILES IDX 10 17
REMARK H PARENT 14 11 12 13 8 16 10 18
REMARK Flexibility Score: inf
ROOT
ATOM      1  C   UNL     1      38.551   7.255  44.288  1.00  0.00     0.281 C 
ATOM      2  C   UNL     1      38.222   5.754  44.381  1.00  0.00     0.202 C 
ATOM      3  C   UNL     1      38.268   5.092  42.995  1.00  0.00     0.179 C 
ATOM      4  C   UNL     1      39.609   5.408  42.325  1.00  0.00     0.177 C 
ATOM      5  C   UNL     1      39.925   6.926  42.343  1.00  0.00     0.178 C 
ATOM      6  O   UNL     1      39.792   7.514  43.635  1.00  0.00    -0.341 OA
ENDROOT
BRANCH   1   7
ATOM      7  O   UNL     1      37.486   7.948  43.661  1.00  0.00    -0.350 OA
BRANCH   7   8
ATOM      8  C   UNL     1      36.396   8.095  44.547  1.00  0.00     0.160 C 
ATOM      9  C   UNL     1      35.781   9.473  44.360  1.00  0.00     0.035 C 
ENDBRANCH   7   8
ENDBRANCH   1   7
BRANCH   2  10
ATOM     10  O   UNL     1      39.143   5.134  45.243  1.00  0.00    -0.385 OA
ATOM     11  H   UNL     1      39.221   4.188  44.949  1.00  0.00     0.211 HD
ENDBRANCH   2  10
BRANCH   3  12
ATOM     12  O   UNL     1      37.203   5.535  42.194  1.00  0.00    -0.387 OA
ATOM     13  H   UNL     1      36.472   5.802  42.810  1.00  0.00     0.211 HD
ENDBRANCH   3  12
BRANCH   5  14
ATOM     14  C   UNL     1      39.223   7.748  41.237  1.00  0.00     0.191 C 
BRANCH  14  15
ATOM     15  O   UNL     1      39.216   9.110  41.571  1.00  0.00    -0.394 OA
ATOM     16  H   UNL     1      40.067   9.293  42.044  1.00  0.00     0.210 HD
ENDBRANCH  14  15
ENDBRANCH   5  14
BRANCH   4  17
ATOM     17  O   UNL     1      39.634   4.913  41.010  1.00  0.00    -0.387 OA
ATOM     18  H   UNL     1      40.234   5.509  40.489  1.00  0.00     0.211 HD
ENDBRANCH   4  17
TORSDOF 7
ENDMDL
MODEL 2
REMARK VINA RESULT:    -5.174     14.479     15.907
REMARK INTER + INTRA:          -7.072
REMARK INTER:                  -6.653
REMARK INTRA:                  -0.420
REMARK UNBOUND:                -0.386
REMARK SMILES CCO[C@@H]1O[C@H](CO)[C@H](O)[C@H](O)[C@H]1O
REMARK SMILES IDX 4 1 13 2 11 3 9 4 6 5 5 6 3 7 2 8 1 9 14 10 12 12 7 14 8 15
REMARK SMILES IDX 10 17
REMARK H PARENT 14 11 12 13 8 16 10 18
REMARK Flexibility Score: inf
ROOT
ATOM      1  C   UNL     1      22.880   5.504  37.879  1.00  0.00     0.281 C 
ATOM      2  C   UNL     1      23.271   4.935  39.256  1.00  0.00     0.202 C 
ATOM      3  C   UNL     1      24.420   3.924  39.130  1.00  0.00     0.179 C 
ATOM      4  C   UNL     1      25.577   4.563  38.354  1.00  0.00     0.177 C 
ATOM      5  C   UNL     1      25.103   5.196  37.020  1.00  0.00     0.178 C 
ATOM      6  O   UNL     1      23.984   6.066  37.175  1.00  0.00    -0.341 OA
ENDROOT
BRANCH   1   7
ATOM      7  O   UNL     1      22.231   4.507  37.108  1.00  0.00    -0.350 OA
BRANCH   7   8
ATOM      8  C   UNL     1      20.842   4.507  37.359  1.00  0.00     0.160 C 
ATOM      9  C   UNL     1      20.209   5.704  36.667  1.00  0.00     0.035 C 
ENDBRANCH   7   8
ENDBRANCH   1   7
BRANCH   2  10
ATOM     10  O   UNL     1      23.650   5.995  40.099  1.00  0.00    -0.385 OA
ATOM     11  H   UNL     1      24.039   6.699  39.518  1.00  0.00     0.211 HD
ENDBRANCH   2  10
BRANCH   3  12
ATOM     12  O   UNL     1      23.987   2.753  38.486  1.00  0.00    -0.387 OA
ATOM     13  H   UNL     1      24.163   2.877  37.516  1.00  0.00     0.211 HD
ENDBRANCH   3  12
BRANCH   5  14
ATOM     14  C   UNL     1      24.927   4.196  35.854  1.00  0.00     0.191 C 
BRANCH  14  15
ATOM     15  O   UNL     1      26.172   3.697  35.446  1.00  0.00    -0.394 OA
ATOM     16  H   UNL     1      26.042   2.737  35.238  1.00  0.00     0.210 HD
ENDBRANCH  14  15
ENDBRANCH   5  14
BRANCH   4  17
ATOM     17  O   UNL     1      26.596   3.624  38.122  1.00  0.00    -0.387 OA
ATOM     18  H   UNL     1      26.573   2.982  38.880  1.00  0.00     0.211 HD
ENDBRANCH   4  17
TORSDOF 7
ENDMDL
MODEL 3
REMARK VINA RESULT:    -5.074     14.164     15.591
REMARK INTER + INTRA:          -6.944
REMARK INTER:                  -6.909
REMARK INTRA:                  -0.035
REMARK UNBOUND:                -0.386
REMARK SMILES CCO[C@@H]1O[C@H](CO)[C@H](O)[C@H](O)[C@H]1O
REMARK SMILES IDX 4 1 13 2 11 3 9 4 6 5 5 6 3 7 2 8 1 9 14 10 12 12 7 14 8 15
REMARK SMILES IDX 10 17
REMARK H PARENT 14 11 12 13 8 16 10 18
REMARK Flexibility Score: inf
ROOT
ATOM      1  C   UNL     1      23.572   3.927  38.200  1.00  0.00     0.281 C 
ATOM      2  C   UNL     1      24.611   4.986  38.615  1.00  0.00     0.202 C 
ATOM      3  C   UNL     1      25.883   4.875  37.761  1.00  0.00     0.179 C 
ATOM      4  C   UNL     1      25.503   4.905  36.277  1.00  0.00     0.177 C 
ATOM      5  C   UNL     1      24.390   3.880  35.940  1.00  0.00     0.178 C 
ATOM      6  O   UNL     1      23.262   3.967  36.810  1.00  0.00    -0.341 OA
ENDROOT
BRANCH   1   7
ATOM      7  O   UNL     1      24.008   2.638  38.594  1.00  0.00    -0.350 OA
BRANCH   7   8
ATOM      8  C   UNL     1      22.907   1.815  38.916  1.00  0.00     0.160 C 
ATOM      9  C   UNL     1      21.930   2.601  39.776  1.00  0.00     0.035 C 
ENDBRANCH   7   8
ENDBRANCH   1   7
BRANCH   2  10
ATOM     10  O   UNL     1      24.045   6.265  38.476  1.00  0.00    -0.385 OA
ATOM     11  H   UNL     1      23.808   6.371  37.517  1.00  0.00     0.211 HD
ENDBRANCH   2  10
BRANCH   3  12
ATOM     12  O   UNL     1      26.586   3.697  38.063  1.00  0.00    -0.387 OA
ATOM     13  H   UNL     1      27.249   3.930  38.765  1.00  0.00     0.211 HD
ENDBRANCH   3  12
BRANCH   5  14
ATOM     14  C   UNL     1      24.883   2.428  35.744  1.00  0.00     0.191 C 
BRANCH  14  15
ATOM     15  O   UNL     1      26.256   2.413  35.461  1.00  0.00    -0.394 OA
ATOM     16  H   UNL     1      26.482   1.488  35.187  1.00  0.00     0.210 HD
ENDBRANCH  14  15
ENDBRANCH   5  14
BRANCH   4  17
ATOM     17  O   UNL     1      26.635   4.690  35.472  1.00  0.00    -0.387 OA
ATOM     18  H   UNL     1      27.427   4.745  36.069  1.00  0.00     0.211 HD
ENDBRANCH   4  17
TORSDOF 7
ENDMDL
MODEL 4
REMARK VINA RESULT:    -5.042     14.908     16.556
REMARK INTER + INTRA:          -6.902
REMARK INTER:                  -6.514
REMARK INTRA:                  -0.388
REMARK UNBOUND:                -0.386
REMARK SMILES CCO[C@@H]1O[C@H](CO)[C@H](O)[C@H](O)[C@H]1O
REMARK SMILES IDX 4 1 13 2 11 3 9 4 6 5 5 6 3 7 2 8 1 9 14 10 12 12 7 14 8 15
REMARK SMILES IDX 10 17
REMARK H PARENT 14 11 12 13 8 16 10 18
REMARK Flexibility Score: inf
ROOT
ATOM      1  C   UNL     1      23.946   3.719  36.922  1.00  0.00     0.281 C 
ATOM      2  C   UNL     1      25.203   4.472  37.397  1.00  0.00     0.202 C 
ATOM      3  C   UNL     1      24.849   5.519  38.463  1.00  0.00     0.179 C 
ATOM      4  C   UNL     1      24.047   4.851  39.586  1.00  0.00     0.177 C 
ATOM      5  C   UNL     1      22.848   4.035  39.037  1.00  0.00     0.178 C 
ATOM      6  O   UNL     1      23.210   3.133  37.993  1.00  0.00    -0.341 OA
ENDROOT
BRANCH   1   7
ATOM      7  O   UNL     1      23.129   4.579  36.146  1.00  0.00    -0.350 OA
BRANCH   7   8
ATOM      8  C   UNL     1      22.439   3.849  35.153  1.00  0.00     0.160 C 
ATOM      9  C   UNL     1      21.529   4.792  34.382  1.00  0.00     0.035 C 
ENDBRANCH   7   8
ENDBRANCH   1   7
BRANCH   2  10
ATOM     10  O   UNL     1      26.125   3.545  37.916  1.00  0.00    -0.385 OA
ATOM     11  H   UNL     1      26.810   4.068  38.409  1.00  0.00     0.211 HD
ENDBRANCH   2  10
BRANCH   3  12
ATOM     12  O   UNL     1      24.117   6.577  37.902  1.00  0.00    -0.387 OA
ATOM     13  H   UNL     1      23.491   6.176  37.244  1.00  0.00     0.211 HD
ENDBRANCH   3  12
BRANCH   5  14
ATOM     14  C   UNL     1      21.595   4.874  38.695  1.00  0.00     0.191 C 
BRANCH  14  15
ATOM     15  O   UNL     1      20.968   5.317  39.869  1.00  0.00    -0.394 OA
ATOM     16  H   UNL     1      21.641   5.843  40.372  1.00  0.00     0.210 HD
ENDBRANCH  14  15
ENDBRANCH   5  14
BRANCH   4  17
ATOM     17  O   UNL     1      23.611   5.807  40.518  1.00  0.00    -0.387 OA
ATOM     18  H   UNL     1      24.414   6.314  40.807  1.00  0.00     0.211 HD
ENDBRANCH   4  17
TORSDOF 7
ENDMDL
MODEL 5
REMARK VINA RESULT:    -4.886      4.278      6.106
REMARK INTER + INTRA:          -6.700
REMARK INTER:                  -6.291
REMARK INTRA:                  -0.410
REMARK UNBOUND:                -0.386
REMARK SMILES CCO[C@@H]1O[C@H](CO)[C@H](O)[C@H](O)[C@H]1O
REMARK SMILES IDX 4 1 13 2 11 3 9 4 6 5 5 6 3 7 2 8 1 9 14 10 12 12 7 14 8 15
REMARK SMILES IDX 10 17
REMARK H PARENT 14 11 12 13 8 16 10 18
REMARK Flexibility Score: inf
ROOT
ATOM      1  C   UNL     1      34.129   3.384  43.368  1.00  0.00     0.281 C 
ATOM      2  C   UNL     1      34.425   4.896  43.351  1.00  0.00     0.202 C 
ATOM      3  C   UNL     1      35.432   5.273  44.448  1.00  0.00     0.179 C 
ATOM      4  C   UNL     1      36.673   4.381  44.327  1.00  0.00     0.177 C 
ATOM      5  C   UNL     1      36.303   2.877  44.259  1.00  0.00     0.178 C 
ATOM      6  O   UNL     1      35.306   2.585  43.282  1.00  0.00    -0.341 OA
ENDROOT
BRANCH   1   7
ATOM      7  O   UNL     1      33.365   3.052  44.515  1.00  0.00    -0.350 OA
BRANCH   7   8
ATOM      8  C   UNL     1      32.465   2.002  44.228  1.00  0.00     0.160 C 
ATOM      9  C   UNL     1      31.335   2.534  43.362  1.00  0.00     0.035 C 
ENDBRANCH   7   8
ENDBRANCH   1   7
BRANCH   2  10
ATOM     10  O   UNL     1      34.930   5.250  42.088  1.00  0.00    -0.385 OA
ATOM     11  H   UNL     1      35.918   5.294  42.175  1.00  0.00     0.211 HD
ENDBRANCH   2  10
BRANCH   3  12
ATOM     12  O   UNL     1      34.857   5.142  45.722  1.00  0.00    -0.387 OA
ATOM     13  H   UNL     1      35.133   5.940  46.245  1.00  0.00     0.211 HD
ENDBRANCH   3  12
BRANCH   5  14
ATOM     14  C   UNL     1      36.011   2.218  45.626  1.00  0.00     0.191 C 
BRANCH  14  15
ATOM     15  O   UNL     1      37.182   2.148  46.395  1.00  0.00    -0.394 OA
ATOM     16  H   UNL     1      37.209   1.241  46.794  1.00  0.00     0.210 HD
ENDBRANCH  14  15
ENDBRANCH   5  14
BRANCH   4  17
ATOM     17  O   UNL     1      37.562   4.625  45.387  1.00  0.00    -0.387 OA
ATOM     18  H   UNL     1      37.953   5.525  45.234  1.00  0.00     0.211 HD
ENDBRANCH   4  17
TORSDOF 7
ENDMDL
MODEL 6
REMARK VINA RESULT:    -4.838      1.942      3.009
REMARK INTER + INTRA:          -6.639
REMARK INTER:                  -6.434
REMARK INTRA:                  -0.205
REMARK UNBOUND:                -0.386
REMARK SMILES CCO[C@@H]1O[C@H](CO)[C@H](O)[C@H](O)[C@H]1O
REMARK SMILES IDX 4 1 13 2 11 3 9 4 6 5 5 6 3 7 2 8 1 9 14 10 12 12 7 14 8 15
REMARK SMILES IDX 10 17
REMARK H PARENT 14 11 12 13 8 16 10 18
REMARK Flexibility Score: inf
ROOT
ATOM      1  C   UNL     1      36.356   8.624  45.288  1.00  0.00     0.281 C 
ATOM      2  C   UNL     1      35.276   7.553  45.529  1.00  0.00     0.202 C 
ATOM      3  C   UNL     1      35.442   6.373  44.560  1.00  0.00     0.179 C 
ATOM      4  C   UNL     1      36.882   5.853  44.636  1.00  0.00     0.177 C 
ATOM      5  C   UNL     1      37.922   6.992  44.475  1.00  0.00     0.178 C 
ATOM      6  O   UNL     1      37.681   8.101  45.339  1.00  0.00    -0.341 OA
ENDROOT
BRANCH   1   7
ATOM      7  O   UNL     1      36.113   9.291  44.061  1.00  0.00    -0.350 OA
BRANCH   7   8
ATOM      8  C   UNL     1      35.258  10.398  44.256  1.00  0.00     0.160 C 
ATOM      9  C   UNL     1      35.954  11.659  43.771  1.00  0.00     0.035 C 
ENDBRANCH   7   8
ENDBRANCH   1   7
BRANCH   2  10
ATOM     10  O   UNL     1      35.364   7.104  46.859  1.00  0.00    -0.385 OA
ATOM     11  H   UNL     1      34.460   7.209  47.258  1.00  0.00     0.211 HD
ENDBRANCH   2  10
BRANCH   3  12
ATOM     12  O   UNL     1      35.129   6.757  43.246  1.00  0.00    -0.387 OA
ATOM     13  H   UNL     1      35.899   7.289  42.912  1.00  0.00     0.211 HD
ENDBRANCH   3  12
BRANCH   5  14
ATOM     14  C   UNL     1      38.195   7.419  43.015  1.00  0.00     0.191 C 
BRANCH  14  15
ATOM     15  O   UNL     1      39.497   7.927  42.890  1.00  0.00    -0.394 OA
ATOM     16  H   UNL     1      39.409   8.889  42.673  1.00  0.00     0.210 HD
ENDBRANCH  14  15
ENDBRANCH   5  14
BRANCH   4  17
ATOM     17  O   UNL     1      37.096   4.848  43.677  1.00  0.00    -0.387 OA
ATOM     18  H   UNL     1      36.714   5.180  42.823  1.00  0.00     0.211 HD
ENDBRANCH   4  17
TORSDOF 7
ENDMDL
MODEL 7
REMARK VINA RESULT:    -4.815      1.764      4.191
REMARK INTER + INTRA:          -6.609
REMARK INTER:                  -6.363
REMARK INTRA:                  -0.246
REMARK UNBOUND:                -0.386
REMARK SMILES CCO[C@@H]1O[C@H](CO)[C@H](O)[C@H](O)[C@H]1O
REMARK SMILES IDX 4 1 13 2 11 3 9 4 6 5 5 6 3 7 2 8 1 9 14 10 12 12 7 14 8 15
REMARK SMILES IDX 10 17
REMARK H PARENT 14 11 12 13 8 16 10 18
REMARK Flexibility Score: inf
ROOT
ATOM      1  C   UNL     1      37.881   7.068  42.978  1.00  0.00     0.281 C 
ATOM      2  C   UNL     1      37.085   5.749  42.965  1.00  0.00     0.202 C 
ATOM      3  C   UNL     1      36.511   5.438  44.355  1.00  0.00     0.179 C 
ATOM      4  C   UNL     1      35.724   6.651  44.864  1.00  0.00     0.177 C 
ATOM      5  C   UNL     1      36.548   7.961  44.768  1.00  0.00     0.178 C 
ATOM      6  O   UNL     1      37.128   8.168  43.482  1.00  0.00    -0.341 OA
ENDROOT
BRANCH   1   7
ATOM      7  O   UNL     1      39.090   6.898  43.699  1.00  0.00    -0.350 OA
BRANCH   7   8
ATOM      8  C   UNL     1      40.124   6.460  42.843  1.00  0.00     0.160 C 
ATOM      9  C   UNL     1      40.124   7.312  41.583  1.00  0.00     0.035 C 
ENDBRANCH   7   8
ENDBRANCH   1   7
BRANCH   2  10
ATOM     10  O   UNL     1      36.045   5.850  42.024  1.00  0.00    -0.385 OA
ATOM     11  H   UNL     1      35.812   4.923  41.753  1.00  0.00     0.211 HD
ENDBRANCH   2  10
BRANCH   3  12
ATOM     12  O   UNL     1      37.536   5.106  45.257  1.00  0.00    -0.387 OA
ATOM     13  H   UNL     1      38.309   5.691  45.040  1.00  0.00     0.211 HD
ENDBRANCH   3  12
BRANCH   5  14
ATOM     14  C   UNL     1      37.555   8.180  45.921  1.00  0.00     0.191 C 
BRANCH  14  15
ATOM     15  O   UNL     1      37.285   9.387  46.582  1.00  0.00    -0.394 OA
ATOM     16  H   UNL     1      36.466   9.763  46.168  1.00  0.00     0.210 HD
ENDBRANCH  14  15
ENDBRANCH   5  14
BRANCH   4  17
ATOM     17  O   UNL     1      35.284   6.438  46.182  1.00  0.00    -0.387 OA
ATOM     18  H   UNL     1      36.084   6.186  46.715  1.00  0.00     0.211 HD
ENDBRANCH   4  17
TORSDOF 7
ENDMDL
MODEL 8
REMARK VINA RESULT:    -4.687      4.072      5.159
REMARK INTER + INTRA:          -6.444
REMARK INTER:                  -6.061
REMARK INTRA:                  -0.383
REMARK UNBOUND:                -0.386
REMARK SMILES CCO[C@@H]1O[C@H](CO)[C@H](O)[C@H](O)[C@H]1O
REMARK SMILES IDX 4 1 13 2 11 3 9 4 6 5 5 6 3 7 2 8 1 9 14 10 12 12 7 14 8 15
REMARK SMILES IDX 10 17
REMARK H PARENT 14 11 12 13 8 16 10 18
REMARK Flexibility Score: inf
ROOT
ATOM      1  C   UNL     1      34.532   3.195  45.114  1.00  0.00     0.281 C 
ATOM      2  C   UNL     1      35.650   2.170  45.385  1.00  0.00     0.202 C 
ATOM      3  C   UNL     1      36.858   2.416  44.467  1.00  0.00     0.179 C 
ATOM      4  C   UNL     1      37.295   3.880  44.584  1.00  0.00     0.177 C 
ATOM      5  C   UNL     1      36.109   4.859  44.391  1.00  0.00     0.178 C 
ATOM      6  O   UNL     1      34.980   4.545  45.205  1.00  0.00    -0.341 OA
ENDROOT
BRANCH   1   7
ATOM      7  O   UNL     1      33.930   2.936  43.858  1.00  0.00    -0.350 OA
BRANCH   7   8
ATOM      8  C   UNL     1      32.958   1.918  43.971  1.00  0.00     0.160 C 
ATOM      9  C   UNL     1      31.618   2.450  43.488  1.00  0.00     0.035 C 
ENDBRANCH   7   8
ENDBRANCH   1   7
BRANCH   2  10
ATOM     10  O   UNL     1      36.041   2.261  46.732  1.00  0.00    -0.385 OA
ATOM     11  H   UNL     1      36.628   1.480  46.914  1.00  0.00     0.211 HD
ENDBRANCH   2  10
BRANCH   3  12
ATOM     12  O   UNL     1      36.544   2.104  43.134  1.00  0.00    -0.387 OA
ATOM     13  H   UNL     1      37.356   1.690  42.738  1.00  0.00     0.211 HD
ENDBRANCH   3  12
BRANCH   5  14
ATOM     14  C   UNL     1      35.726   5.133  42.919  1.00  0.00     0.191 C 
BRANCH  14  15
ATOM     15  O   UNL     1      36.744   5.850  42.275  1.00  0.00    -0.394 OA
ATOM     16  H   UNL     1      37.584   5.343  42.414  1.00  0.00     0.210 HD
ENDBRANCH  14  15
ENDBRANCH   5  14
BRANCH   4  17
ATOM     17  O   UNL     1      38.325   4.163  43.670  1.00  0.00    -0.387 OA
ATOM     18  H   UNL     1      37.947   4.028  42.761  1.00  0.00     0.211 HD
ENDBRANCH   4  17
TORSDOF 7
ENDMDL
MODEL 9
REMARK VINA RESULT:    -4.527      1.714      3.382
REMARK INTER + INTRA:          -6.237
REMARK INTER:                  -5.824
REMARK INTRA:                  -0.413
REMARK UNBOUND:                -0.386
REMARK SMILES CCO[C@@H]1O[C@H](CO)[C@H](O)[C@H](O)[C@H]1O
REMARK SMILES IDX 4 1 13 2 11 3 9 4 6 5 5 6 3 7 2 8 1 9 14 10 12 12 7 14 8 15
REMARK SMILES IDX 10 17
REMARK H PARENT 14 11 12 13 8 16 10 18
REMARK Flexibility Score: inf
ROOT
ATOM      1  C   UNL     1      39.541   7.005  42.917  1.00  0.00     0.281 C 
ATOM      2  C   UNL     1      38.137   7.261  43.495  1.00  0.00     0.202 C 
ATOM      3  C   UNL     1      37.208   6.064  43.241  1.00  0.00     0.179 C 
ATOM      4  C   UNL     1      37.881   4.783  43.748  1.00  0.00     0.177 C 
ATOM      5  C   UNL     1      39.323   4.628  43.202  1.00  0.00     0.178 C 
ATOM      6  O   UNL     1      40.125   5.793  43.389  1.00  0.00    -0.341 OA
ENDROOT
BRANCH   1   7
ATOM      7  O   UNL     1      39.497   7.038  41.501  1.00  0.00    -0.350 OA
BRANCH   7   8
ATOM      8  C   UNL     1      39.193   8.338  41.041  1.00  0.00     0.160 C 
ATOM      9  C   UNL     1      38.625   8.251  39.634  1.00  0.00     0.035 C 
ENDBRANCH   7   8
ENDBRANCH   1   7
BRANCH   2  10
ATOM     10  O   UNL     1      38.245   7.504  44.875  1.00  0.00    -0.385 OA
ATOM     11  H   UNL     1      38.852   6.809  45.242  1.00  0.00     0.211 HD
ENDBRANCH   2  10
BRANCH   3  12
ATOM     12  O   UNL     1      36.903   5.949  41.875  1.00  0.00    -0.387 OA
ATOM     13  H   UNL     1      37.716   5.593  41.428  1.00  0.00     0.211 HD
ENDBRANCH   3  12
BRANCH   5  14
ATOM     14  C   UNL     1      39.417   4.061  41.767  1.00  0.00     0.191 C 
BRANCH  14  15
ATOM     15  O   UNL     1      39.000   2.722  41.743  1.00  0.00    -0.394 OA
ATOM     16  H   UNL     1      38.187   2.665  42.306  1.00  0.00     0.210 HD
ENDBRANCH  14  15
ENDBRANCH   5  14
BRANCH   4  17
ATOM     17  O   UNL     1      37.105   3.656  43.425  1.00  0.00    -0.387 OA
ATOM     18  H   UNL     1      37.066   3.091  44.241  1.00  0.00     0.211 HD
ENDBRANCH   4  17
TORSDOF 7
ENDMDL
