MODEL 1
REMARK VINA RESULT:    -4.128      0.000      0.000
REMARK INTER + INTRA:          -5.694
REMARK INTER:                  -5.334
REMARK INTRA:                  -0.359
REMARK UNBOUND:                -0.359
REMARK SMILES C=CC(=O)CCCCC
REMARK SMILES IDX 6 1 7 2 8 3 9 4 5 5 3 6 4 7 2 8 1 9
REMARK H PARENT
REMARK Flexibility Score: inf
ROOT
ATOM      1  C   UNL     1     -14.415 -36.224  38.080  1.00  0.00     0.008 C 
ENDROOT
BRANCH   1   2
ATOM      2  C   UNL     1     -13.925 -35.893  36.661  1.00  0.00     0.000 C 
BRANCH   2   3
ATOM      3  C   UNL     1     -12.574 -35.165  36.657  1.00  0.00    -0.003 C 
ATOM      4  C   UNL     1     -12.519 -34.102  37.751  1.00  0.00     0.004 C 
ENDBRANCH   2   3
ENDBRANCH   1   2
BRANCH   1   5
ATOM      5  C   UNL     1     -13.853 -37.558  38.604  1.00  0.00     0.080 C 
BRANCH   5   6
ATOM      6  C   UNL     1     -12.879 -37.379  39.745  1.00  0.00     0.155 C 
ATOM      7  O   UNL     1     -11.672 -37.100  39.510  1.00  0.00    -0.295 OA
BRANCH   6   8
ATOM      8  C   UNL     1     -13.301 -37.502  41.156  1.00  0.00     0.039 C 
ATOM      9  C   UNL     1     -14.337 -36.845  41.676  1.00  0.00     0.012 C 
ENDBRANCH   6   8
ENDBRANCH   5   6
ENDBRANCH   1   5
TORSDOF 5
ENDMDL
MODEL 2
REMARK VINA RESULT:    -4.127      3.459      5.393
REMARK INTER + INTRA:          -5.693
REMARK INTER:                  -5.140
REMARK INTRA:                  -0.553
REMARK UNBOUND:                -0.359
REMARK SMILES C=CC(=O)CCCCC
REMARK SMILES IDX 6 1 7 2 8 3 9 4 5 5 3 6 4 7 2 8 1 9
REMARK H PARENT
REMARK Flexibility Score: inf
ROOT
ATOM      1  C   UNL     1     -12.896 -42.030  38.403  1.00  0.00     0.008 C 
ENDROOT
BRANCH   1   2
ATOM      2  C   UNL     1     -12.377 -41.552  39.769  1.00  0.00     0.000 C 
BRANCH   2   3
ATOM      3  C   UNL     1     -13.510 -41.164  40.729  1.00  0.00    -0.003 C 
ATOM      4  C   UNL     1     -13.058 -40.074  41.698  1.00  0.00     0.004 C 
ENDBRANCH   2   3
ENDBRANCH   1   2
BRANCH   1   5
ATOM      5  C   UNL     1     -13.759 -40.972  37.693  1.00  0.00     0.080 C 
BRANCH   5   6
ATOM      6  C   UNL     1     -12.935 -39.924  36.979  1.00  0.00     0.155 C 
ATOM      7  O   UNL     1     -12.357 -40.204  35.894  1.00  0.00    -0.295 OA
BRANCH   6   8
ATOM      8  C   UNL     1     -12.795 -38.551  37.507  1.00  0.00     0.039 C 
ATOM      9  C   UNL     1     -13.518 -38.073  38.519  1.00  0.00     0.012 C 
ENDBRANCH   6   8
ENDBRANCH   5   6
ENDBRANCH   1   5
TORSDOF 5
ENDMDL
MODEL 3
REMARK VINA RESULT:    -4.108      2.191      4.763
REMARK INTER + INTRA:          -5.668
REMARK INTER:                  -5.495
REMARK INTRA:                  -0.173
REMARK UNBOUND:                -0.359
REMARK SMILES C=CC(=O)CCCCC
REMARK SMILES IDX 6 1 7 2 8 3 9 4 5 5 3 6 4 7 2 8 1 9
REMARK H PARENT
REMARK Flexibility Score: inf
ROOT
ATOM      1  C   UNL     1     -13.279 -37.433  40.059  1.00  0.00     0.008 C 
ENDROOT
BRANCH   1   2
ATOM      2  C   UNL     1     -13.368 -38.630  41.019  1.00  0.00     0.000 C 
BRANCH   2   3
ATOM      3  C   UNL     1     -13.083 -39.968  40.324  1.00  0.00    -0.003 C 
ATOM      4  C   UNL     1     -13.494 -41.144  41.207  1.00  0.00     0.004 C 
ENDBRANCH   2   3
ENDBRANCH   1   2
BRANCH   1   5
ATOM      5  C   UNL     1     -14.572 -36.598  40.029  1.00  0.00     0.080 C 
BRANCH   5   6
ATOM      6  C   UNL     1     -14.614 -35.620  38.878  1.00  0.00     0.155 C 
ATOM      7  O   UNL     1     -14.753 -34.386  39.100  1.00  0.00    -0.295 OA
BRANCH   6   8
ATOM      8  C   UNL     1     -14.477 -36.062  37.475  1.00  0.00     0.039 C 
ATOM      9  C   UNL     1     -13.485 -35.676  36.673  1.00  0.00     0.012 C 
ENDBRANCH   6   8
ENDBRANCH   5   6
ENDBRANCH   1   5
TORSDOF 5
ENDMDL
MODEL 4
REMARK VINA RESULT:    -4.085      2.631      4.673
REMARK INTER + INTRA:          -5.638
REMARK INTER:                  -5.071
REMARK INTRA:                  -0.567
REMARK UNBOUND:                -0.359
REMARK SMILES C=CC(=O)CCCCC
REMARK SMILES IDX 6 1 7 2 8 3 9 4 5 5 3 6 4 7 2 8 1 9
REMARK H PARENT
REMARK Flexibility Score: inf
ROOT
ATOM      1  C   UNL     1     -12.532 -40.852  41.765  1.00  0.00     0.008 C 
ENDROOT
BRANCH   1   2
ATOM      2  C   UNL     1     -13.641 -41.120  40.735  1.00  0.00     0.000 C 
BRANCH   2   3
ATOM      3  C   UNL     1     -13.091 -41.341  39.319  1.00  0.00    -0.003 C 
ATOM      4  C   UNL     1     -13.518 -40.215  38.381  1.00  0.00     0.004 C 
ENDBRANCH   2   3
ENDBRANCH   1   2
BRANCH   1   5
ATOM      5  C   UNL     1     -12.704 -39.502  42.484  1.00  0.00     0.080 C 
BRANCH   5   6
ATOM      6  C   UNL     1     -12.632 -38.321  41.542  1.00  0.00     0.155 C 
ATOM      7  O   UNL     1     -11.588 -38.115  40.864  1.00  0.00    -0.295 OA
BRANCH   6   8
ATOM      8  C   UNL     1     -13.767 -37.392  41.369  1.00  0.00     0.039 C 
ATOM      9  C   UNL     1     -14.173 -36.935  40.185  1.00  0.00     0.012 C 
ENDBRANCH   6   8
ENDBRANCH   5   6
ENDBRANCH   1   5
TORSDOF 5
ENDMDL
MODEL 5
REMARK VINA RESULT:    -4.081      3.931      5.467
REMARK INTER + INTRA:          -5.633
REMARK INTER:                  -5.040
REMARK INTRA:                  -0.593
REMARK UNBOUND:                -0.359
REMARK SMILES C=CC(=O)CCCCC
REMARK SMILES IDX 6 1 7 2 8 3 9 4 5 5 3 6 4 7 2 8 1 9
REMARK H PARENT
REMARK Flexibility Score: inf
ROOT
ATOM      1  C   UNL     1     -13.163 -40.571  41.495  1.00  0.00     0.008 C 
ENDROOT
BRANCH   1   2
ATOM      2  C   UNL     1     -13.345 -40.966  40.020  1.00  0.00     0.000 C 
BRANCH   2   3
ATOM      3  C   UNL     1     -12.322 -42.012  39.558  1.00  0.00    -0.003 C 
ATOM      4  C   UNL     1     -11.316 -42.323  40.663  1.00  0.00     0.004 C 
ENDBRANCH   2   3
ENDBRANCH   1   2
BRANCH   1   5
ATOM      5  C   UNL     1     -12.927 -39.062  41.680  1.00  0.00     0.080 C 
BRANCH   5   6
ATOM      6  C   UNL     1     -11.495 -38.728  42.029  1.00  0.00     0.155 C 
ATOM      7  O   UNL     1     -11.173 -38.492  43.225  1.00  0.00    -0.295 OA
BRANCH   6   8
ATOM      8  C   UNL     1     -10.432 -38.687  41.002  1.00  0.00     0.039 C 
ATOM      9  C   UNL     1     -10.630 -38.267  39.753  1.00  0.00     0.012 C 
ENDBRANCH   6   8
ENDBRANCH   5   6
ENDBRANCH   1   5
TORSDOF 5
ENDMDL
MODEL 6
REMARK VINA RESULT:    -4.078      2.947      4.944
REMARK INTER + INTRA:          -5.629
REMARK INTER:                  -5.110
REMARK INTRA:                  -0.519
REMARK UNBOUND:                -0.359
REMARK SMILES C=CC(=O)CCCCC
REMARK SMILES IDX 6 1 7 2 8 3 9 4 5 5 3 6 4 7 2 8 1 9
REMARK H PARENT
REMARK Flexibility Score: inf
ROOT
ATOM      1  C   UNL     1     -13.263 -41.096  39.128  1.00  0.00     0.008 C 
ENDROOT
BRANCH   1   2
ATOM      2  C   UNL     1     -13.687 -41.144  40.605  1.00  0.00     0.000 C 
BRANCH   2   3
ATOM      3  C   UNL     1     -12.508 -41.409  41.551  1.00  0.00    -0.003 C 
ATOM      4  C   UNL     1     -11.367 -42.114  40.821  1.00  0.00     0.004 C 
ENDBRANCH   2   3
ENDBRANCH   1   2
BRANCH   1   5
ATOM      5  C   UNL     1     -13.424 -39.695  38.511  1.00  0.00     0.080 C 
BRANCH   5   6
ATOM      6  C   UNL     1     -12.564 -38.652  39.187  1.00  0.00     0.155 C 
ATOM      7  O   UNL     1     -11.308 -38.773  39.192  1.00  0.00    -0.295 OA
BRANCH   6   8
ATOM      8  C   UNL     1     -13.150 -37.462  39.839  1.00  0.00     0.039 C 
ATOM      9  C   UNL     1     -13.758 -37.496  41.024  1.00  0.00     0.012 C 
ENDBRANCH   6   8
ENDBRANCH   5   6
ENDBRANCH   1   5
TORSDOF 5
ENDMDL
MODEL 7
REMARK VINA RESULT:    -4.061      2.331      2.853
REMARK INTER + INTRA:          -5.608
REMARK INTER:                  -5.373
REMARK INTRA:                  -0.235
REMARK UNBOUND:                -0.359
REMARK SMILES C=CC(=O)CCCCC
REMARK SMILES IDX 6 1 7 2 8 3 9 4 5 5 3 6 4 7 2 8 1 9
REMARK H PARENT
REMARK Flexibility Score: inf
ROOT
ATOM      1  C   UNL     1     -12.737 -38.001  37.654  1.00  0.00     0.008 C 
ENDROOT
BRANCH   1   2
ATOM      2  C   UNL     1     -13.897 -37.300  38.380  1.00  0.00     0.000 C 
BRANCH   2   3
ATOM      3  C   UNL     1     -14.296 -35.976  37.716  1.00  0.00    -0.003 C 
ATOM      4  C   UNL     1     -13.431 -35.694  36.490  1.00  0.00     0.004 C 
ENDBRANCH   2   3
ENDBRANCH   1   2
BRANCH   1   5
ATOM      5  C   UNL     1     -12.789 -39.533  37.793  1.00  0.00     0.080 C 
BRANCH   5   6
ATOM      6  C   UNL     1     -12.577 -40.002  39.214  1.00  0.00     0.155 C 
ATOM      7  O   UNL     1     -11.584 -39.592  39.874  1.00  0.00    -0.295 OA
BRANCH   6   8
ATOM      8  C   UNL     1     -13.518 -40.928  39.877  1.00  0.00     0.039 C 
ATOM      9  C   UNL     1     -13.504 -41.181  41.185  1.00  0.00     0.012 C 
ENDBRANCH   6   8
ENDBRANCH   5   6
ENDBRANCH   1   5
TORSDOF 5
ENDMDL
MODEL 8
REMARK VINA RESULT:    -4.056      3.136      5.158
REMARK INTER + INTRA:          -5.600
REMARK INTER:                  -4.965
REMARK INTRA:                  -0.636
REMARK UNBOUND:                -0.359
REMARK SMILES C=CC(=O)CCCCC
REMARK SMILES IDX 6 1 7 2 8 3 9 4 5 5 3 6 4 7 2 8 1 9
REMARK H PARENT
REMARK Flexibility Score: inf
ROOT
ATOM      1  C   UNL     1     -12.980 -40.533  39.228  1.00  0.00     0.008 C 
ENDROOT
BRANCH   1   2
ATOM      2  C   UNL     1     -13.484 -40.955  40.618  1.00  0.00     0.000 C 
BRANCH   2   3
ATOM      3  C   UNL     1     -12.381 -41.584  41.480  1.00  0.00    -0.003 C 
ATOM      4  C   UNL     1     -11.287 -42.199  40.610  1.00  0.00     0.004 C 
ENDBRANCH   2   3
ENDBRANCH   1   2
BRANCH   1   5
ATOM      5  C   UNL     1     -13.150 -39.025  38.968  1.00  0.00     0.080 C 
BRANCH   5   6
ATOM      6  C   UNL     1     -12.312 -38.171  39.892  1.00  0.00     0.155 C 
ATOM      7  O   UNL     1     -12.868 -37.377  40.698  1.00  0.00    -0.295 OA
BRANCH   6   8
ATOM      8  C   UNL     1     -10.836 -38.248  39.898  1.00  0.00     0.039 C 
ATOM      9  C   UNL     1     -10.122 -38.622  40.959  1.00  0.00     0.012 C 
ENDBRANCH   6   8
ENDBRANCH   5   6
ENDBRANCH   1   5
TORSDOF 5
ENDMDL
MODEL 9
REMARK VINA RESULT:    -4.037      3.187      4.124
REMARK INTER + INTRA:          -5.576
REMARK INTER:                  -5.027
REMARK INTRA:                  -0.549
REMARK UNBOUND:                -0.359
REMARK SMILES C=CC(=O)CCCCC
REMARK SMILES IDX 6 1 7 2 8 3 9 4 5 5 3 6 4 7 2 8 1 9
REMARK H PARENT
REMARK Flexibility Score: inf
ROOT
ATOM      1  C   UNL     1     -12.547 -39.055  37.949  1.00  0.00     0.008 C 
ENDROOT
BRANCH   1   2
ATOM      2  C   UNL     1     -13.245 -37.816  38.534  1.00  0.00     0.000 C 
BRANCH   2   3
ATOM      3  C   UNL     1     -12.752 -37.473  39.947  1.00  0.00    -0.003 C 
ATOM      4  C   UNL     1     -13.906 -37.481  40.947  1.00  0.00     0.004 C 
ENDBRANCH   2   3
ENDBRANCH   1   2
BRANCH   1   5
ATOM      5  C   UNL     1     -13.484 -40.272  37.851  1.00  0.00     0.080 C 
BRANCH   5   6
ATOM      6  C   UNL     1     -13.038 -41.428  38.717  1.00  0.00     0.155 C 
ATOM      7  O   UNL     1     -12.903 -42.578  38.219  1.00  0.00    -0.295 OA
BRANCH   6   8
ATOM      8  C   UNL     1     -12.729 -41.252  40.152  1.00  0.00     0.039 C 
ATOM      9  C   UNL     1     -13.657 -41.227  41.108  1.00  0.00     0.012 C 
ENDBRANCH   6   8
ENDBRANCH   5   6
ENDBRANCH   1   5
TORSDOF 5
ENDMDL
