MODEL 1
REMARK VINA RESULT:    -4.019      0.000      0.000
REMARK INTER + INTRA:         -14.629
REMARK INTER:                 -10.128
REMARK INTRA:                  -4.500
REMARK UNBOUND:                -4.500
REMARK SMILES CCCCCCCCCCCCCCCCCCCCCCCCCCCC(=O)[O-]
REMARK SMILES IDX 15 1 16 2 17 3 18 4 19 5 20 6 21 7 22 8 23 9 24 10 25 11
REMARK SMILES IDX 26 12 27 13 28 14 29 15 30 16 14 17 13 18 12 19 11 20 10 21
REMARK SMILES IDX 9 22 8 23 7 24 6 25 5 26 4 27 3 28 2 29 1 30
REMARK H PARENT
REMARK Flexibility Score: inf
ROOT
ATOM      1  C   UNL     1     -15.176   4.751  31.611  1.00  0.00     0.000 C 
ENDROOT
BRANCH   1   2
ATOM      2  C   UNL     1     -16.448   5.617  31.524  1.00  0.00     0.000 C 
BRANCH   2   3
ATOM      3  C   UNL     1     -16.356   6.821  30.566  1.00  0.00     0.000 C 
BRANCH   3   4
ATOM      4  C   UNL     1     -15.022   6.880  29.803  1.00  0.00     0.000 C 
BRANCH   4   5
ATOM      5  C   UNL     1     -14.825   8.217  29.069  1.00  0.00     0.000 C 
BRANCH   5   6
ATOM      6  C   UNL     1     -13.590   8.217  28.150  1.00  0.00     0.000 C 
BRANCH   6   7
ATOM      7  C   UNL     1     -12.394   8.962  28.765  1.00  0.00     0.000 C 
BRANCH   7   8
ATOM      8  C   UNL     1     -11.042   8.430  28.257  1.00  0.00     0.000 C 
BRANCH   8   9
ATOM      9  C   UNL     1     -10.761   6.985  28.705  1.00  0.00     0.000 C 
BRANCH   9  10
ATOM     10  C   UNL     1     -10.284   6.829  30.161  1.00  0.00     0.000 C 
BRANCH  10  11
ATOM     11  C   UNL     1     -11.014   5.704  30.914  1.00  0.00     0.000 C 
BRANCH  11  12
ATOM     12  C   UNL     1     -10.370   4.322  30.691  1.00  0.00     0.006 C 
BRANCH  12  13
ATOM     13  C   UNL     1     -11.078   3.163  31.413  1.00  0.00     0.053 C 
BRANCH  13  14
ATOM     14  C   UNL     1     -10.270   1.902  31.383  1.00  0.00     0.041 C 
ATOM     15  O   UNL     1     -10.804   0.813  31.042  1.00  0.00    -0.550 OA
ATOM     16  O   UNL     1      -8.915   1.935  31.693  1.00  0.00    -0.550 OA
ENDBRANCH  13  14
ENDBRANCH  12  13
ENDBRANCH  11  12
ENDBRANCH  10  11
ENDBRANCH   9  10
ENDBRANCH   8   9
ENDBRANCH   7   8
ENDBRANCH   6   7
ENDBRANCH   5   6
ENDBRANCH   4   5
ENDBRANCH   3   4
ENDBRANCH   2   3
ENDBRANCH   1   2
BRANCH   1  17
ATOM     17  C   UNL     1     -15.236   3.571  32.602  1.00  0.00     0.000 C 
BRANCH  17  18
ATOM     18  C   UNL     1     -16.598   3.404  33.310  1.00  0.00     0.000 C 
BRANCH  18  19
ATOM     19  C   UNL     1     -16.592   2.285  34.363  1.00  0.00     0.000 C 
BRANCH  19  20
ATOM     20  C   UNL     1     -16.100   0.961  33.763  1.00  0.00     0.000 C 
BRANCH  20  21
ATOM     21  C   UNL     1     -17.125   0.320  32.809  1.00  0.00     0.000 C 
BRANCH  21  22
ATOM     22  C   UNL     1     -16.523  -0.363  31.565  1.00  0.00    -0.000 C 
BRANCH  22  23
ATOM     23  C   UNL     1     -15.758   0.576  30.614  1.00  0.00    -0.000 C 
BRANCH  23  24
ATOM     24  C   UNL     1     -16.686   1.529  29.847  1.00  0.00    -0.000 C 
BRANCH  24  25
ATOM     25  C   UNL     1     -16.067   1.929  28.500  1.00  0.00    -0.000 C 
BRANCH  25  26
ATOM     26  C   UNL     1     -15.983   3.453  28.317  1.00  0.00    -0.000 C 
BRANCH  26  27
ATOM     27  C   UNL     1     -14.570   3.929  27.936  1.00  0.00    -0.000 C 
BRANCH  27  28
ATOM     28  C   UNL     1     -13.473   3.199  28.738  1.00  0.00    -0.000 C 
BRANCH  28  29
ATOM     29  C   UNL     1     -12.435   2.484  27.855  1.00  0.00    -0.003 C 
ATOM     30  C   UNL     1     -12.466   0.963  28.000  1.00  0.00     0.004 C 
ENDBRANCH  28  29
ENDBRANCH  27  28
ENDBRANCH  26  27
ENDBRANCH  25  26
ENDBRANCH  24  25
ENDBRANCH  23  24
ENDBRANCH  22  23
ENDBRANCH  21  22
ENDBRANCH  20  21
ENDBRANCH  19  20
ENDBRANCH  18  19
ENDBRANCH  17  18
ENDBRANCH   1  17
TORSDOF 26
ENDMDL
MODEL 2
REMARK VINA RESULT:    -3.968      2.216      7.053
REMARK INTER + INTRA:         -14.500
REMARK INTER:                 -10.004
REMARK INTRA:                  -4.496
REMARK UNBOUND:                -4.500
REMARK SMILES CCCCCCCCCCCCCCCCCCCCCCCCCCCC(=O)[O-]
REMARK SMILES IDX 15 1 16 2 17 3 18 4 19 5 20 6 21 7 22 8 23 9 24 10 25 11
REMARK SMILES IDX 26 12 27 13 28 14 29 15 30 16 14 17 13 18 12 19 11 20 10 21
REMARK SMILES IDX 9 22 8 23 7 24 6 25 5 26 4 27 3 28 2 29 1 30
REMARK H PARENT
REMARK Flexibility Score: inf
ROOT
ATOM      1  C   UNL     1     -14.124   6.396  29.528  1.00  0.00     0.000 C 
ENDROOT
BRANCH   1   2
ATOM      2  C   UNL     1     -15.376   7.251  29.807  1.00  0.00     0.000 C 
BRANCH   2   3
ATOM      3  C   UNL     1     -16.364   6.653  30.827  1.00  0.00     0.000 C 
BRANCH   3   4
ATOM      4  C   UNL     1     -16.234   5.126  30.964  1.00  0.00     0.000 C 
BRANCH   4   5
ATOM      5  C   UNL     1     -17.074   4.567  32.125  1.00  0.00     0.000 C 
BRANCH   5   6
ATOM      6  C   UNL     1     -16.228   3.808  33.163  1.00  0.00     0.000 C 
BRANCH   6   7
ATOM      7  C   UNL     1     -16.916   2.528  33.666  1.00  0.00     0.000 C 
BRANCH   7   8
ATOM      8  C   UNL     1     -16.093   1.261  33.376  1.00  0.00     0.000 C 
BRANCH   8   9
ATOM      9  C   UNL     1     -15.920   0.991  31.870  1.00  0.00     0.000 C 
BRANCH   9  10
ATOM     10  C   UNL     1     -14.466   0.995  31.365  1.00  0.00     0.000 C 
BRANCH  10  11
ATOM     11  C   UNL     1     -14.103   2.276  30.594  1.00  0.00     0.000 C 
BRANCH  11  12
ATOM     12  C   UNL     1     -14.253   2.117  29.069  1.00  0.00     0.006 C 
BRANCH  12  13
ATOM     13  C   UNL     1     -13.335   3.030  28.237  1.00  0.00     0.053 C 
BRANCH  13  14
ATOM     14  C   UNL     1     -13.961   3.422  26.934  1.00  0.00     0.041 C 
ATOM     15  O   UNL     1     -15.191   3.234  26.739  1.00  0.00    -0.550 OA
ATOM     16  O   UNL     1     -13.193   4.030  25.948  1.00  0.00    -0.550 OA
ENDBRANCH  13  14
ENDBRANCH  12  13
ENDBRANCH  11  12
ENDBRANCH  10  11
ENDBRANCH   9  10
ENDBRANCH   8   9
ENDBRANCH   7   8
ENDBRANCH   6   7
ENDBRANCH   5   6
ENDBRANCH   4   5
ENDBRANCH   3   4
ENDBRANCH   2   3
ENDBRANCH   1   2
BRANCH   1  17
ATOM     17  C   UNL     1     -13.225   6.883  28.374  1.00  0.00     0.000 C 
BRANCH  17  18
ATOM     18  C   UNL     1     -13.026   8.413  28.326  1.00  0.00     0.000 C 
BRANCH  18  19
ATOM     19  C   UNL     1     -11.548   8.822  28.215  1.00  0.00     0.000 C 
BRANCH  19  20
ATOM     20  C   UNL     1     -10.740   8.309  29.415  1.00  0.00     0.000 C 
BRANCH  20  21
ATOM     21  C   UNL     1      -9.636   7.316  29.009  1.00  0.00     0.000 C 
BRANCH  21  22
ATOM     22  C   UNL     1      -9.687   5.953  29.728  1.00  0.00    -0.000 C 
BRANCH  22  23
ATOM     23  C   UNL     1     -10.587   5.910  30.976  1.00  0.00    -0.000 C 
BRANCH  23  24
ATOM     24  C   UNL     1     -11.184   4.518  31.231  1.00  0.00    -0.000 C 
BRANCH  24  25
ATOM     25  C   UNL     1     -10.454   3.449  30.404  1.00  0.00    -0.000 C 
BRANCH  25  26
ATOM     26  C   UNL     1     -10.167   2.172  31.210  1.00  0.00    -0.000 C 
BRANCH  26  27
ATOM     27  C   UNL     1      -8.730   2.125  31.759  1.00  0.00    -0.000 C 
BRANCH  27  28
ATOM     28  C   UNL     1      -7.717   2.785  30.800  1.00  0.00    -0.000 C 
BRANCH  28  29
ATOM     29  C   UNL     1      -7.033   4.032  31.387  1.00  0.00    -0.003 C 
ATOM     30  C   UNL     1      -7.484   4.352  32.811  1.00  0.00     0.004 C 
ENDBRANCH  28  29
ENDBRANCH  27  28
ENDBRANCH  26  27
ENDBRANCH  25  26
ENDBRANCH  24  25
ENDBRANCH  23  24
ENDBRANCH  22  23
ENDBRANCH  21  22
ENDBRANCH  20  21
ENDBRANCH  19  20
ENDBRANCH  18  19
ENDBRANCH  17  18
ENDBRANCH   1  17
TORSDOF 26
ENDMDL
MODEL 3
REMARK VINA RESULT:    -3.943      4.428      7.354
REMARK INTER + INTRA:         -14.438
REMARK INTER:                 -11.663
REMARK INTRA:                  -2.775
REMARK UNBOUND:                -4.500
REMARK SMILES CCCCCCCCCCCCCCCCCCCCCCCCCCCC(=O)[O-]
REMARK SMILES IDX 15 1 16 2 17 3 18 4 19 5 20 6 21 7 22 8 23 9 24 10 25 11
REMARK SMILES IDX 26 12 27 13 28 14 29 15 30 16 14 17 13 18 12 19 11 20 10 21
REMARK SMILES IDX 9 22 8 23 7 24 6 25 5 26 4 27 3 28 2 29 1 30
REMARK H PARENT
REMARK Flexibility Score: inf
ROOT
ATOM      1  C   UNL     1     -10.423   6.593  30.237  1.00  0.00     0.000 C 
ENDROOT
BRANCH   1   2
ATOM      2  C   UNL     1     -11.411   5.527  30.749  1.00  0.00     0.000 C 
BRANCH   2   3
ATOM      3  C   UNL     1     -11.084   4.078  30.339  1.00  0.00     0.000 C 
BRANCH   3   4
ATOM      4  C   UNL     1     -10.833   3.156  31.545  1.00  0.00     0.000 C 
BRANCH   4   5
ATOM      5  C   UNL     1      -9.364   2.712  31.648  1.00  0.00     0.000 C 
BRANCH   5   6
ATOM      6  C   UNL     1      -8.521   3.641  32.540  1.00  0.00     0.000 C 
BRANCH   6   7
ATOM      7  C   UNL     1      -7.687   4.646  31.727  1.00  0.00     0.000 C 
BRANCH   7   8
ATOM      8  C   UNL     1      -6.362   4.046  31.227  1.00  0.00     0.000 C 
BRANCH   8   9
ATOM      9  C   UNL     1      -5.230   5.085  31.137  1.00  0.00     0.000 C 
BRANCH   9  10
ATOM     10  C   UNL     1      -5.182   6.106  32.288  1.00  0.00     0.000 C 
BRANCH  10  11
ATOM     11  C   UNL     1      -4.583   5.524  33.580  1.00  0.00     0.000 C 
BRANCH  11  12
ATOM     12  C   UNL     1      -3.052   5.366  33.510  1.00  0.00     0.006 C 
BRANCH  12  13
ATOM     13  C   UNL     1      -2.293   5.943  34.717  1.00  0.00     0.053 C 
BRANCH  13  14
ATOM     14  C   UNL     1      -1.626   7.245  34.394  1.00  0.00     0.041 C 
ATOM     15  O   UNL     1      -2.225   8.333  34.603  1.00  0.00    -0.550 OA
ATOM     16  O   UNL     1      -0.327   7.258  33.900  1.00  0.00    -0.550 OA
ENDBRANCH  13  14
ENDBRANCH  12  13
ENDBRANCH  11  12
ENDBRANCH  10  11
ENDBRANCH   9  10
ENDBRANCH   8   9
ENDBRANCH   7   8
ENDBRANCH   6   7
ENDBRANCH   5   6
ENDBRANCH   4   5
ENDBRANCH   3   4
ENDBRANCH   2   3
ENDBRANCH   1   2
BRANCH   1  17
ATOM     17  C   UNL     1     -10.834   7.320  28.942  1.00  0.00     0.000 C 
BRANCH  17  18
ATOM     18  C   UNL     1     -12.310   7.115  28.539  1.00  0.00     0.000 C 
BRANCH  18  19
ATOM     19  C   UNL     1     -13.051   8.438  28.289  1.00  0.00     0.000 C 
BRANCH  19  20
ATOM     20  C   UNL     1     -14.481   8.386  28.848  1.00  0.00     0.000 C 
BRANCH  20  21
ATOM     21  C   UNL     1     -14.786   7.068  29.583  1.00  0.00     0.000 C 
BRANCH  21  22
ATOM     22  C   UNL     1     -16.054   7.087  30.459  1.00  0.00    -0.000 C 
BRANCH  22  23
ATOM     23  C   UNL     1     -16.377   5.757  31.163  1.00  0.00    -0.000 C 
BRANCH  23  24
ATOM     24  C   UNL     1     -15.324   4.671  30.895  1.00  0.00    -0.000 C 
BRANCH  24  25
ATOM     25  C   UNL     1     -14.981   3.912  32.184  1.00  0.00    -0.000 C 
BRANCH  25  26
ATOM     26  C   UNL     1     -14.402   2.514  31.911  1.00  0.00    -0.000 C 
BRANCH  26  27
ATOM     27  C   UNL     1     -15.464   1.516  31.417  1.00  0.00    -0.000 C 
BRANCH  27  28
ATOM     28  C   UNL     1     -16.611   1.333  32.435  1.00  0.00    -0.000 C 
BRANCH  28  29
ATOM     29  C   UNL     1     -16.177   0.633  33.734  1.00  0.00    -0.003 C 
ATOM     30  C   UNL     1     -16.354   1.505  34.976  1.00  0.00     0.004 C 
ENDBRANCH  28  29
ENDBRANCH  27  28
ENDBRANCH  26  27
ENDBRANCH  25  26
ENDBRANCH  24  25
ENDBRANCH  23  24
ENDBRANCH  22  23
ENDBRANCH  21  22
ENDBRANCH  20  21
ENDBRANCH  19  20
ENDBRANCH  18  19
ENDBRANCH  17  18
ENDBRANCH   1  17
TORSDOF 26
ENDMDL
MODEL 4
REMARK VINA RESULT:    -3.886      2.051      4.998
REMARK INTER + INTRA:         -14.293
REMARK INTER:                  -9.535
REMARK INTRA:                  -4.758
REMARK UNBOUND:                -4.500
REMARK SMILES CCCCCCCCCCCCCCCCCCCCCCCCCCCC(=O)[O-]
REMARK SMILES IDX 15 1 16 2 17 3 18 4 19 5 20 6 21 7 22 8 23 9 24 10 25 11
REMARK SMILES IDX 26 12 27 13 28 14 29 15 30 16 14 17 13 18 12 19 11 20 10 21
REMARK SMILES IDX 9 22 8 23 7 24 6 25 5 26 4 27 3 28 2 29 1 30
REMARK H PARENT
REMARK Flexibility Score: inf
ROOT
ATOM      1  C   UNL     1     -11.831   5.010  30.816  1.00  0.00     0.000 C 
ENDROOT
BRANCH   1   2
ATOM      2  C   UNL     1     -10.433   5.655  30.881  1.00  0.00     0.000 C 
BRANCH   2   3
ATOM      3  C   UNL     1     -10.257   6.928  30.031  1.00  0.00     0.000 C 
BRANCH   3   4
ATOM      4  C   UNL     1      -8.860   7.037  29.397  1.00  0.00     0.000 C 
BRANCH   4   5
ATOM      5  C   UNL     1      -7.998   5.791  29.657  1.00  0.00     0.000 C 
BRANCH   5   6
ATOM      6  C   UNL     1      -6.688   6.113  30.399  1.00  0.00     0.000 C 
BRANCH   6   7
ATOM      7  C   UNL     1      -6.528   5.304  31.697  1.00  0.00     0.000 C 
BRANCH   7   8
ATOM      8  C   UNL     1      -6.935   3.830  31.529  1.00  0.00     0.000 C 
BRANCH   8   9
ATOM      9  C   UNL     1      -8.131   3.434  32.413  1.00  0.00     0.000 C 
BRANCH   9  10
ATOM     10  C   UNL     1      -9.034   2.327  31.839  1.00  0.00     0.000 C 
BRANCH  10  11
ATOM     11  C   UNL     1      -9.003   2.265  30.302  1.00  0.00     0.000 C 
BRANCH  11  12
ATOM     12  C   UNL     1      -8.619   0.871  29.769  1.00  0.00     0.006 C 
BRANCH  12  13
ATOM     13  C   UNL     1      -9.015  -0.297  30.688  1.00  0.00     0.053 C 
BRANCH  13  14
ATOM     14  C   UNL     1     -10.452  -0.685  30.520  1.00  0.00     0.041 C 
ATOM     15  O   UNL     1     -11.241  -0.640  31.501  1.00  0.00    -0.550 OA
ATOM     16  O   UNL     1     -10.930  -1.060  29.269  1.00  0.00    -0.550 OA
ENDBRANCH  13  14
ENDBRANCH  12  13
ENDBRANCH  11  12
ENDBRANCH  10  11
ENDBRANCH   9  10
ENDBRANCH   8   9
ENDBRANCH   7   8
ENDBRANCH   6   7
ENDBRANCH   5   6
ENDBRANCH   4   5
ENDBRANCH   3   4
ENDBRANCH   2   3
ENDBRANCH   1   2
BRANCH   1  17
ATOM     17  C   UNL     1     -12.141   4.212  29.533  1.00  0.00     0.000 C 
BRANCH  17  18
ATOM     18  C   UNL     1     -12.527   2.738  29.780  1.00  0.00     0.000 C 
BRANCH  18  19
ATOM     19  C   UNL     1     -12.968   2.469  31.228  1.00  0.00     0.000 C 
BRANCH  19  20
ATOM     20  C   UNL     1     -14.032   1.363  31.287  1.00  0.00     0.000 C 
BRANCH  20  21
ATOM     21  C   UNL     1     -15.287   1.783  32.073  1.00  0.00     0.000 C 
BRANCH  21  22
ATOM     22  C   UNL     1     -15.192   3.156  32.770  1.00  0.00    -0.000 C 
BRANCH  22  23
ATOM     23  C   UNL     1     -16.159   4.226  32.230  1.00  0.00    -0.000 C 
BRANCH  23  24
ATOM     24  C   UNL     1     -16.755   3.854  30.865  1.00  0.00    -0.000 C 
BRANCH  24  25
ATOM     25  C   UNL     1     -16.292   4.835  29.779  1.00  0.00    -0.000 C 
BRANCH  25  26
ATOM     26  C   UNL     1     -15.346   5.917  30.324  1.00  0.00    -0.000 C 
BRANCH  26  27
ATOM     27  C   UNL     1     -15.906   7.340  30.152  1.00  0.00    -0.000 C 
BRANCH  27  28
ATOM     28  C   UNL     1     -14.945   8.254  29.363  1.00  0.00    -0.000 C 
BRANCH  28  29
ATOM     29  C   UNL     1     -13.704   7.523  28.821  1.00  0.00    -0.003 C 
ATOM     30  C   UNL     1     -13.099   8.196  27.590  1.00  0.00     0.004 C 
ENDBRANCH  28  29
ENDBRANCH  27  28
ENDBRANCH  26  27
ENDBRANCH  25  26
ENDBRANCH  24  25
ENDBRANCH  23  24
ENDBRANCH  22  23
ENDBRANCH  21  22
ENDBRANCH  20  21
ENDBRANCH  19  20
ENDBRANCH  18  19
ENDBRANCH  17  18
ENDBRANCH   1  17
TORSDOF 26
ENDMDL
MODEL 5
REMARK VINA RESULT:    -3.881      3.437      7.791
REMARK INTER + INTRA:         -14.281
REMARK INTER:                 -10.745
REMARK INTRA:                  -3.536
REMARK UNBOUND:                -4.500
REMARK SMILES CCCCCCCCCCCCCCCCCCCCCCCCCCCC(=O)[O-]
REMARK SMILES IDX 15 1 16 2 17 3 18 4 19 5 20 6 21 7 22 8 23 9 24 10 25 11
REMARK SMILES IDX 26 12 27 13 28 14 29 15 30 16 14 17 13 18 12 19 11 20 10 21
REMARK SMILES IDX 9 22 8 23 7 24 6 25 5 26 4 27 3 28 2 29 1 30
REMARK H PARENT
REMARK Flexibility Score: inf
ROOT
ATOM      1  C   UNL     1     -10.965   5.096  31.219  1.00  0.00     0.000 C 
ENDROOT
BRANCH   1   2
ATOM      2  C   UNL     1     -11.712   5.816  30.079  1.00  0.00     0.000 C 
BRANCH   2   3
ATOM      3  C   UNL     1     -10.821   6.638  29.128  1.00  0.00     0.000 C 
BRANCH   3   4
ATOM      4  C   UNL     1     -10.923   8.154  29.369  1.00  0.00     0.000 C 
BRANCH   4   5
ATOM      5  C   UNL     1     -11.588   8.892  28.196  1.00  0.00     0.000 C 
BRANCH   5   6
ATOM      6  C   UNL     1     -12.733   8.087  27.555  1.00  0.00     0.000 C 
BRANCH   6   7
ATOM      7  C   UNL     1     -14.086   8.813  27.637  1.00  0.00     0.000 C 
BRANCH   7   8
ATOM      8  C   UNL     1     -14.756   8.660  29.014  1.00  0.00     0.000 C 
BRANCH   8   9
ATOM      9  C   UNL     1     -15.016   7.191  29.394  1.00  0.00     0.000 C 
BRANCH   9  10
ATOM     10  C   UNL     1     -16.044   6.975  30.519  1.00  0.00     0.000 C 
BRANCH  10  11
ATOM     11  C   UNL     1     -16.358   5.490  30.768  1.00  0.00     0.000 C 
BRANCH  11  12
ATOM     12  C   UNL     1     -15.176   4.565  30.420  1.00  0.00     0.006 C 
BRANCH  12  13
ATOM     13  C   UNL     1     -15.489   3.062  30.519  1.00  0.00     0.053 C 
BRANCH  13  14
ATOM     14  C   UNL     1     -14.866   2.435  31.728  1.00  0.00     0.041 C 
ATOM     15  O   UNL     1     -15.260   2.752  32.881  1.00  0.00    -0.550 OA
ATOM     16  O   UNL     1     -13.876   1.470  31.580  1.00  0.00    -0.550 OA
ENDBRANCH  13  14
ENDBRANCH  12  13
ENDBRANCH  11  12
ENDBRANCH  10  11
ENDBRANCH   9  10
ENDBRANCH   8   9
ENDBRANCH   7   8
ENDBRANCH   6   7
ENDBRANCH   5   6
ENDBRANCH   4   5
ENDBRANCH   3   4
ENDBRANCH   2   3
ENDBRANCH   1   2
BRANCH   1  17
ATOM     17  C   UNL     1     -11.156   3.568  31.284  1.00  0.00     0.000 C 
BRANCH  17  18
ATOM     18  C   UNL     1      -9.842   2.767  31.403  1.00  0.00     0.000 C 
BRANCH  18  19
ATOM     19  C   UNL     1      -8.641   3.490  30.773  1.00  0.00     0.000 C 
BRANCH  19  20
ATOM     20  C   UNL     1      -7.392   3.364  31.657  1.00  0.00     0.000 C 
BRANCH  20  21
ATOM     21  C   UNL     1      -7.023   4.683  32.360  1.00  0.00     0.000 C 
BRANCH  21  22
ATOM     22  C   UNL     1      -5.515   4.997  32.412  1.00  0.00    -0.000 C 
BRANCH  22  23
ATOM     23  C   UNL     1      -5.055   5.774  33.659  1.00  0.00    -0.000 C 
BRANCH  23  24
ATOM     24  C   UNL     1      -4.247   7.032  33.311  1.00  0.00    -0.000 C 
BRANCH  24  25
ATOM     25  C   UNL     1      -3.702   6.954  31.877  1.00  0.00    -0.000 C 
BRANCH  25  26
ATOM     26  C   UNL     1      -4.176   8.123  30.999  1.00  0.00    -0.000 C 
BRANCH  26  27
ATOM     27  C   UNL     1      -4.890   7.654  29.719  1.00  0.00    -0.000 C 
BRANCH  27  28
ATOM     28  C   UNL     1      -6.411   7.911  29.772  1.00  0.00    -0.000 C 
BRANCH  28  29
ATOM     29  C   UNL     1      -7.257   6.696  29.352  1.00  0.00    -0.003 C 
ATOM     30  C   UNL     1      -6.451   5.626  28.619  1.00  0.00     0.004 C 
ENDBRANCH  28  29
ENDBRANCH  27  28
ENDBRANCH  26  27
ENDBRANCH  25  26
ENDBRANCH  24  25
ENDBRANCH  23  24
ENDBRANCH  22  23
ENDBRANCH  21  22
ENDBRANCH  20  21
ENDBRANCH  19  20
ENDBRANCH  18  19
ENDBRANCH  17  18
ENDBRANCH   1  17
TORSDOF 26
ENDMDL
MODEL 6
REMARK VINA RESULT:    -3.856      2.184      5.453
REMARK INTER + INTRA:         -14.218
REMARK INTER:                 -10.157
REMARK INTRA:                  -4.061
REMARK UNBOUND:                -4.500
REMARK SMILES CCCCCCCCCCCCCCCCCCCCCCCCCCCC(=O)[O-]
REMARK SMILES IDX 15 1 16 2 17 3 18 4 19 5 20 6 21 7 22 8 23 9 24 10 25 11
REMARK SMILES IDX 26 12 27 13 28 14 29 15 30 16 14 17 13 18 12 19 11 20 10 21
REMARK SMILES IDX 9 22 8 23 7 24 6 25 5 26 4 27 3 28 2 29 1 30
REMARK H PARENT
REMARK Flexibility Score: inf
ROOT
ATOM      1  C   UNL     1     -12.431   7.436  28.665  1.00  0.00     0.000 C 
ENDROOT
BRANCH   1   2
ATOM      2  C   UNL     1     -11.048   7.628  29.317  1.00  0.00     0.000 C 
BRANCH   2   3
ATOM      3  C   UNL     1     -10.635   6.530  30.316  1.00  0.00     0.000 C 
BRANCH   3   4
ATOM      4  C   UNL     1     -11.614   5.344  30.342  1.00  0.00     0.000 C 
BRANCH   4   5
ATOM      5  C   UNL     1     -11.158   4.227  31.295  1.00  0.00     0.000 C 
BRANCH   5   6
ATOM      6  C   UNL     1     -10.367   3.117  30.581  1.00  0.00     0.000 C 
BRANCH   6   7
ATOM      7  C   UNL     1      -9.816   2.062  31.554  1.00  0.00     0.000 C 
BRANCH   7   8
ATOM      8  C   UNL     1      -8.466   2.473  32.169  1.00  0.00     0.000 C 
BRANCH   8   9
ATOM      9  C   UNL     1      -7.601   3.309  31.209  1.00  0.00     0.000 C 
BRANCH   9  10
ATOM     10  C   UNL     1      -7.185   4.694  31.738  1.00  0.00     0.000 C 
BRANCH  10  11
ATOM     11  C   UNL     1      -7.068   5.750  30.625  1.00  0.00     0.000 C 
BRANCH  11  12
ATOM     12  C   UNL     1      -6.892   5.126  29.227  1.00  0.00     0.006 C 
BRANCH  12  13
ATOM     13  C   UNL     1      -7.838   5.687  28.152  1.00  0.00     0.053 C 
BRANCH  13  14
ATOM     14  C   UNL     1      -8.749   4.636  27.597  1.00  0.00     0.041 C 
ATOM     15  O   UNL     1      -8.401   3.425  27.607  1.00  0.00    -0.550 OA
ATOM     16  O   UNL     1     -10.000   4.988  27.104  1.00  0.00    -0.550 OA
ENDBRANCH  13  14
ENDBRANCH  12  13
ENDBRANCH  11  12
ENDBRANCH  10  11
ENDBRANCH   9  10
ENDBRANCH   8   9
ENDBRANCH   7   8
ENDBRANCH   6   7
ENDBRANCH   5   6
ENDBRANCH   4   5
ENDBRANCH   3   4
ENDBRANCH   2   3
ENDBRANCH   1   2
BRANCH   1  17
ATOM     17  C   UNL     1     -13.349   8.674  28.664  1.00  0.00     0.000 C 
BRANCH  17  18
ATOM     18  C   UNL     1     -14.796   8.394  29.122  1.00  0.00     0.000 C 
BRANCH  18  19
ATOM     19  C   UNL     1     -14.970   6.994  29.735  1.00  0.00     0.000 C 
BRANCH  19  20
ATOM     20  C   UNL     1     -16.252   6.913  30.576  1.00  0.00     0.000 C 
BRANCH  20  21
ATOM     21  C   UNL     1     -16.395   5.570  31.316  1.00  0.00     0.000 C 
BRANCH  21  22
ATOM     22  C   UNL     1     -15.106   4.727  31.395  1.00  0.00    -0.000 C 
BRANCH  22  23
ATOM     23  C   UNL     1     -14.970   3.866  32.664  1.00  0.00    -0.000 C 
BRANCH  23  24
ATOM     24  C   UNL     1     -16.317   3.318  33.158  1.00  0.00    -0.000 C 
BRANCH  24  25
ATOM     25  C   UNL     1     -16.108   2.167  34.153  1.00  0.00    -0.000 C 
BRANCH  25  26
ATOM     26  C   UNL     1     -16.276   0.785  33.503  1.00  0.00    -0.000 C 
BRANCH  26  27
ATOM     27  C   UNL     1     -16.141   0.827  31.971  1.00  0.00    -0.000 C 
BRANCH  27  28
ATOM     28  C   UNL     1     -14.894   0.064  31.474  1.00  0.00    -0.000 C 
BRANCH  28  29
ATOM     29  C   UNL     1     -13.723   0.983  31.084  1.00  0.00    -0.003 C 
ATOM     30  C   UNL     1     -13.624   1.226  29.579  1.00  0.00     0.004 C 
ENDBRANCH  28  29
ENDBRANCH  27  28
ENDBRANCH  26  27
ENDBRANCH  25  26
ENDBRANCH  24  25
ENDBRANCH  23  24
ENDBRANCH  22  23
ENDBRANCH  21  22
ENDBRANCH  20  21
ENDBRANCH  19  20
ENDBRANCH  18  19
ENDBRANCH  17  18
ENDBRANCH   1  17
TORSDOF 26
ENDMDL
MODEL 7
REMARK VINA RESULT:    -3.850      3.044      6.944
REMARK INTER + INTRA:         -14.201
REMARK INTER:                 -10.345
REMARK INTRA:                  -3.856
REMARK UNBOUND:                -4.500
REMARK SMILES CCCCCCCCCCCCCCCCCCCCCCCCCCCC(=O)[O-]
REMARK SMILES IDX 15 1 16 2 17 3 18 4 19 5 20 6 21 7 22 8 23 9 24 10 25 11
REMARK SMILES IDX 26 12 27 13 28 14 29 15 30 16 14 17 13 18 12 19 11 20 10 21
REMARK SMILES IDX 9 22 8 23 7 24 6 25 5 26 4 27 3 28 2 29 1 30
REMARK H PARENT
REMARK Flexibility Score: inf
ROOT
ATOM      1  C   UNL     1     -10.808   5.920  29.533  1.00  0.00     0.000 C 
ENDROOT
BRANCH   1   2
ATOM      2  C   UNL     1      -9.854   7.121  29.387  1.00  0.00     0.000 C 
BRANCH   2   3
ATOM      3  C   UNL     1     -10.388   8.283  28.527  1.00  0.00     0.000 C 
BRANCH   3   4
ATOM      4  C   UNL     1     -11.794   8.743  28.949  1.00  0.00     0.000 C 
BRANCH   4   5
ATOM      5  C   UNL     1     -12.835   8.545  27.835  1.00  0.00     0.000 C 
BRANCH   5   6
ATOM      6  C   UNL     1     -14.261   8.344  28.378  1.00  0.00     0.000 C 
BRANCH   6   7
ATOM      7  C   UNL     1     -14.360   7.167  29.363  1.00  0.00     0.000 C 
BRANCH   7   8
ATOM      8  C   UNL     1     -15.701   7.139  30.117  1.00  0.00     0.000 C 
BRANCH   8   9
ATOM      9  C   UNL     1     -15.957   5.802  30.835  1.00  0.00     0.000 C 
BRANCH   9  10
ATOM     10  C   UNL     1     -16.690   4.736  29.999  1.00  0.00     0.000 C 
BRANCH  10  11
ATOM     11  C   UNL     1     -15.733   3.718  29.354  1.00  0.00     0.000 C 
BRANCH  11  12
ATOM     12  C   UNL     1     -16.007   2.272  29.810  1.00  0.00     0.006 C 
BRANCH  12  13
ATOM     13  C   UNL     1     -16.721   2.153  31.167  1.00  0.00     0.053 C 
BRANCH  13  14
ATOM     14  C   UNL     1     -15.762   1.888  32.287  1.00  0.00     0.041 C 
ATOM     15  O   UNL     1     -15.643   0.727  32.760  1.00  0.00    -0.550 OA
ATOM     16  O   UNL     1     -14.971   2.917  32.784  1.00  0.00    -0.550 OA
ENDBRANCH  13  14
ENDBRANCH  12  13
ENDBRANCH  11  12
ENDBRANCH  10  11
ENDBRANCH   9  10
ENDBRANCH   8   9
ENDBRANCH   7   8
ENDBRANCH   6   7
ENDBRANCH   5   6
ENDBRANCH   4   5
ENDBRANCH   3   4
ENDBRANCH   2   3
ENDBRANCH   1   2
BRANCH   1  17
ATOM     17  C   UNL     1     -11.169   5.523  30.978  1.00  0.00     0.000 C 
BRANCH  17  18
ATOM     18  C   UNL     1     -12.389   4.584  31.094  1.00  0.00     0.000 C 
BRANCH  18  19
ATOM     19  C   UNL     1     -12.277   3.343  30.194  1.00  0.00     0.000 C 
BRANCH  19  20
ATOM     20  C   UNL     1     -11.876   2.103  31.006  1.00  0.00     0.000 C 
BRANCH  20  21
ATOM     21  C   UNL     1     -10.351   1.960  31.161  1.00  0.00     0.000 C 
BRANCH  21  22
ATOM     22  C   UNL     1      -9.578   1.740  29.846  1.00  0.00    -0.000 C 
BRANCH  22  23
ATOM     23  C   UNL     1      -8.602   2.870  29.470  1.00  0.00    -0.000 C 
BRANCH  23  24
ATOM     24  C   UNL     1      -7.587   3.173  30.582  1.00  0.00    -0.000 C 
BRANCH  24  25
ATOM     25  C   UNL     1      -7.529   4.678  30.876  1.00  0.00    -0.000 C 
BRANCH  25  26
ATOM     26  C   UNL     1      -7.008   4.987  32.289  1.00  0.00    -0.000 C 
BRANCH  26  27
ATOM     27  C   UNL     1      -5.472   5.007  32.366  1.00  0.00    -0.000 C 
BRANCH  27  28
ATOM     28  C   UNL     1      -4.961   5.618  33.688  1.00  0.00    -0.000 C 
BRANCH  28  29
ATOM     29  C   UNL     1      -4.095   6.874  33.494  1.00  0.00    -0.003 C 
ATOM     30  C   UNL     1      -3.991   7.314  32.034  1.00  0.00     0.004 C 
ENDBRANCH  28  29
ENDBRANCH  27  28
ENDBRANCH  26  27
ENDBRANCH  25  26
ENDBRANCH  24  25
ENDBRANCH  23  24
ENDBRANCH  22  23
ENDBRANCH  21  22
ENDBRANCH  20  21
ENDBRANCH  19  20
ENDBRANCH  18  19
ENDBRANCH  17  18
ENDBRANCH   1  17
TORSDOF 26
ENDMDL
MODEL 8
REMARK VINA RESULT:    -3.844      2.500      6.876
REMARK INTER + INTRA:         -14.188
REMARK INTER:                 -10.444
REMARK INTRA:                  -3.744
REMARK UNBOUND:                -4.500
REMARK SMILES CCCCCCCCCCCCCCCCCCCCCCCCCCCC(=O)[O-]
REMARK SMILES IDX 15 1 16 2 17 3 18 4 19 5 20 6 21 7 22 8 23 9 24 10 25 11
REMARK SMILES IDX 26 12 27 13 28 14 29 15 30 16 14 17 13 18 12 19 11 20 10 21
REMARK SMILES IDX 9 22 8 23 7 24 6 25 5 26 4 27 3 28 2 29 1 30
REMARK H PARENT
REMARK Flexibility Score: inf
ROOT
ATOM      1  C   UNL     1     -15.929   6.454  30.315  1.00  0.00     0.000 C 
ENDROOT
BRANCH   1   2
ATOM      2  C   UNL     1     -15.757   5.204  29.430  1.00  0.00     0.000 C 
BRANCH   2   3
ATOM      3  C   UNL     1     -16.810   4.099  29.642  1.00  0.00     0.000 C 
BRANCH   3   4
ATOM      4  C   UNL     1     -16.296   2.941  30.514  1.00  0.00     0.000 C 
BRANCH   4   5
ATOM      5  C   UNL     1     -16.293   3.289  32.011  1.00  0.00     0.000 C 
BRANCH   5   6
ATOM      6  C   UNL     1     -14.891   3.208  32.641  1.00  0.00     0.000 C 
BRANCH   6   7
ATOM      7  C   UNL     1     -13.797   2.875  31.612  1.00  0.00     0.000 C 
BRANCH   7   8
ATOM      8  C   UNL     1     -12.936   4.097  31.249  1.00  0.00     0.000 C 
BRANCH   8   9
ATOM      9  C   UNL     1     -11.911   3.800  30.139  1.00  0.00     0.000 C 
BRANCH   9  10
ATOM     10  C   UNL     1     -12.253   2.602  29.233  1.00  0.00     0.000 C 
BRANCH  10  11
ATOM     11  C   UNL     1     -11.026   1.739  28.893  1.00  0.00     0.000 C 
BRANCH  11  12
ATOM     12  C   UNL     1      -9.992   1.696  30.034  1.00  0.00     0.006 C 
BRANCH  12  13
ATOM     13  C   UNL     1     -10.371   0.774  31.205  1.00  0.00     0.053 C 
BRANCH  13  14
ATOM     14  C   UNL     1     -10.738  -0.603  30.743  1.00  0.00     0.041 C 
ATOM     15  O   UNL     1      -9.974  -1.238  29.969  1.00  0.00    -0.550 OA
ATOM     16  O   UNL     1     -11.907  -1.201  31.199  1.00  0.00    -0.550 OA
ENDBRANCH  13  14
ENDBRANCH  12  13
ENDBRANCH  11  12
ENDBRANCH  10  11
ENDBRANCH   9  10
ENDBRANCH   8   9
ENDBRANCH   7   8
ENDBRANCH   6   7
ENDBRANCH   5   6
ENDBRANCH   4   5
ENDBRANCH   3   4
ENDBRANCH   2   3
ENDBRANCH   1   2
BRANCH   1  17
ATOM     17  C   UNL     1     -15.351   7.764  29.744  1.00  0.00     0.000 C 
BRANCH  17  18
ATOM     18  C   UNL     1     -14.262   7.562  28.668  1.00  0.00     0.000 C 
BRANCH  18  19
ATOM     19  C   UNL     1     -13.514   8.860  28.324  1.00  0.00     0.000 C 
BRANCH  19  20
ATOM     20  C   UNL     1     -12.001   8.700  28.532  1.00  0.00     0.000 C 
BRANCH  20  21
ATOM     21  C   UNL     1     -11.612   7.290  29.015  1.00  0.00     0.000 C 
BRANCH  21  22
ATOM     22  C   UNL     1     -10.527   7.251  30.110  1.00  0.00    -0.000 C 
BRANCH  22  23
ATOM     23  C   UNL     1      -9.096   7.005  29.597  1.00  0.00    -0.000 C 
BRANCH  23  24
ATOM     24  C   UNL     1      -8.849   5.542  29.204  1.00  0.00    -0.000 C 
BRANCH  24  25
ATOM     25  C   UNL     1      -7.908   4.857  30.206  1.00  0.00    -0.000 C 
BRANCH  25  26
ATOM     26  C   UNL     1      -8.563   4.640  31.580  1.00  0.00    -0.000 C 
BRANCH  26  27
ATOM     27  C   UNL     1      -7.534   4.392  32.697  1.00  0.00    -0.000 C 
BRANCH  27  28
ATOM     28  C   UNL     1      -6.151   4.989  32.359  1.00  0.00    -0.000 C 
BRANCH  28  29
ATOM     29  C   UNL     1      -5.472   5.684  33.552  1.00  0.00    -0.003 C 
ATOM     30  C   UNL     1      -3.956   5.495  33.575  1.00  0.00     0.004 C 
ENDBRANCH  28  29
ENDBRANCH  27  28
ENDBRANCH  26  27
ENDBRANCH  25  26
ENDBRANCH  24  25
ENDBRANCH  23  24
ENDBRANCH  22  23
ENDBRANCH  21  22
ENDBRANCH  20  21
ENDBRANCH  19  20
ENDBRANCH  18  19
ENDBRANCH  17  18
ENDBRANCH   1  17
TORSDOF 26
ENDMDL
MODEL 9
REMARK VINA RESULT:    -3.773      1.997      6.210
REMARK INTER + INTRA:         -14.008
REMARK INTER:                  -9.032
REMARK INTRA:                  -4.977
REMARK UNBOUND:                -4.500
REMARK SMILES CCCCCCCCCCCCCCCCCCCCCCCCCCCC(=O)[O-]
REMARK SMILES IDX 15 1 16 2 17 3 18 4 19 5 20 6 21 7 22 8 23 9 24 10 25 11
REMARK SMILES IDX 26 12 27 13 28 14 29 15 30 16 14 17 13 18 12 19 11 20 10 21
REMARK SMILES IDX 9 22 8 23 7 24 6 25 5 26 4 27 3 28 2 29 1 30
REMARK H PARENT
REMARK Flexibility Score: inf
ROOT
ATOM      1  C   UNL     1     -14.425   5.191  30.596  1.00  0.00     0.000 C 
ENDROOT
BRANCH   1   2
ATOM      2  C   UNL     1     -15.453   4.589  31.573  1.00  0.00     0.000 C 
BRANCH   2   3
ATOM      3  C   UNL     1     -14.854   3.771  32.734  1.00  0.00     0.000 C 
BRANCH   3   4
ATOM      4  C   UNL     1     -15.683   2.521  33.077  1.00  0.00     0.000 C 
BRANCH   4   5
ATOM      5  C   UNL     1     -16.068   1.711  31.828  1.00  0.00     0.000 C 
BRANCH   5   6
ATOM      6  C   UNL     1     -14.897   0.884  31.267  1.00  0.00     0.000 C 
BRANCH   6   7
ATOM      7  C   UNL     1     -14.565   1.240  29.809  1.00  0.00     0.000 C 
BRANCH   7   8
ATOM      8  C   UNL     1     -13.167   1.867  29.657  1.00  0.00     0.000 C 
BRANCH   8   9
ATOM      9  C   UNL     1     -12.313   1.740  30.931  1.00  0.00     0.000 C 
BRANCH   9  10
ATOM     10  C   UNL     1     -11.487   2.988  31.294  1.00  0.00     0.000 C 
BRANCH  10  11
ATOM     11  C   UNL     1      -9.996   2.677  31.512  1.00  0.00     0.000 C 
BRANCH  11  12
ATOM     12  C   UNL     1      -9.153   3.943  31.759  1.00  0.00     0.006 C 
BRANCH  12  13
ATOM     13  C   UNL     1      -7.632   3.711  31.746  1.00  0.00     0.053 C 
BRANCH  13  14
ATOM     14  C   UNL     1      -6.866   4.990  31.890  1.00  0.00     0.041 C 
ATOM     15  O   UNL     1      -6.216   5.224  32.943  1.00  0.00    -0.550 OA
ATOM     16  O   UNL     1      -6.837   5.906  30.846  1.00  0.00    -0.550 OA
ENDBRANCH  13  14
ENDBRANCH  12  13
ENDBRANCH  11  12
ENDBRANCH  10  11
ENDBRANCH   9  10
ENDBRANCH   8   9
ENDBRANCH   7   8
ENDBRANCH   6   7
ENDBRANCH   5   6
ENDBRANCH   4   5
ENDBRANCH   3   4
ENDBRANCH   2   3
ENDBRANCH   1   2
BRANCH   1  17
ATOM     17  C   UNL     1     -15.012   5.930  29.377  1.00  0.00     0.000 C 
BRANCH  17  18
ATOM     18  C   UNL     1     -14.871   7.466  29.435  1.00  0.00     0.000 C 
BRANCH  18  19
ATOM     19  C   UNL     1     -14.163   8.049  28.202  1.00  0.00     0.000 C 
BRANCH  19  20
ATOM     20  C   UNL     1     -13.144   9.125  28.604  1.00  0.00     0.000 C 
BRANCH  20  21
ATOM     21  C   UNL     1     -11.693   8.718  28.292  1.00  0.00     0.000 C 
BRANCH  21  22
ATOM     22  C   UNL     1     -10.732   8.744  29.497  1.00  0.00    -0.000 C 
BRANCH  22  23
ATOM     23  C   UNL     1     -10.280   7.360  29.998  1.00  0.00    -0.000 C 
BRANCH  23  24
ATOM     24  C   UNL     1     -11.096   6.211  29.387  1.00  0.00    -0.000 C 
BRANCH  24  25
ATOM     25  C   UNL     1     -10.256   5.423  28.372  1.00  0.00    -0.000 C 
BRANCH  25  26
ATOM     26  C   UNL     1     -10.967   4.154  27.874  1.00  0.00    -0.000 C 
BRANCH  26  27
ATOM     27  C   UNL     1     -11.623   4.341  26.495  1.00  0.00    -0.000 C 
BRANCH  27  28
ATOM     28  C   UNL     1     -13.140   4.604  26.603  1.00  0.00    -0.000 C 
BRANCH  28  29
ATOM     29  C   UNL     1     -14.006   3.475  26.018  1.00  0.00    -0.003 C 
ATOM     30  C   UNL     1     -15.258   3.187  26.845  1.00  0.00     0.004 C 
ENDBRANCH  28  29
ENDBRANCH  27  28
ENDBRANCH  26  27
ENDBRANCH  25  26
ENDBRANCH  24  25
ENDBRANCH  23  24
ENDBRANCH  22  23
ENDBRANCH  21  22
ENDBRANCH  20  21
ENDBRANCH  19  20
ENDBRANCH  18  19
ENDBRANCH  17  18
ENDBRANCH   1  17
TORSDOF 26
ENDMDL
