MODEL 1
REMARK VINA RESULT:    -2.434      0.000      0.000
REMARK INTER + INTRA:          -2.434
REMARK INTER:                  -2.434
REMARK INTRA:                   0.000
REMARK UNBOUND:                 0.000
REMARK SMILES CC(=O)[O-]
REMARK SMILES IDX 1 1 2 2 3 3 4 4
REMARK H PARENT
REMARK Flexibility Score: inf
ROOT
ATOM      1  C   UNL     1     -50.934  22.926 -40.113  1.00  0.00     0.063 C 
ATOM      2  C   UNL     1     -51.825  23.447 -39.036  1.00  0.00     0.038 C 
ATOM      3  O   UNL     1     -52.526  22.652 -38.357  1.00  0.00    -0.550 OA
ATOM      4  O   UNL     1     -51.923  24.814 -38.816  1.00  0.00    -0.550 OA
ENDROOT
TORSDOF 0
ENDMDL
MODEL 2
REMARK VINA RESULT:    -2.352     16.662     16.818
REMARK INTER + INTRA:          -2.352
REMARK INTER:                  -2.352
REMARK INTRA:                   0.000
REMARK UNBOUND:                 0.000
REMARK SMILES CC(=O)[O-]
REMARK SMILES IDX 1 1 2 2 3 3 4 4
REMARK H PARENT
REMARK Flexibility Score: inf
ROOT
ATOM      1  C   UNL     1     -37.400  17.024 -29.973  1.00  0.00     0.063 C 
ATOM      2  C   UNL     1     -38.472  17.591 -30.841  1.00  0.00     0.038 C 
ATOM      3  O   UNL     1     -39.390  16.848 -31.278  1.00  0.00    -0.550 OA
ATOM      4  O   UNL     1     -38.431  18.928 -31.212  1.00  0.00    -0.550 OA
ENDROOT
TORSDOF 0
ENDMDL
MODEL 3
REMARK VINA RESULT:    -2.343      1.567      2.268
REMARK INTER + INTRA:          -2.343
REMARK INTER:                  -2.343
REMARK INTRA:                   0.000
REMARK UNBOUND:                 0.000
REMARK SMILES CC(=O)[O-]
REMARK SMILES IDX 1 1 2 2 3 3 4 4
REMARK H PARENT
REMARK Flexibility Score: inf
ROOT
ATOM      1  C   UNL     1     -51.873  24.148 -38.418  1.00  0.00     0.063 C 
ATOM      2  C   UNL     1     -51.764  22.981 -39.341  1.00  0.00     0.038 C 
ATOM      3  O   UNL     1     -50.784  22.885 -40.125  1.00  0.00    -0.550 OA
ATOM      4  O   UNL     1     -52.771  22.026 -39.375  1.00  0.00    -0.550 OA
ENDROOT
TORSDOF 0
ENDMDL
MODEL 4
REMARK VINA RESULT:    -2.308     16.347     16.447
REMARK INTER + INTRA:          -2.308
REMARK INTER:                  -2.308
REMARK INTRA:                   0.000
REMARK UNBOUND:                 0.000
REMARK SMILES CC(=O)[O-]
REMARK SMILES IDX 1 1 2 2 3 3 4 4
REMARK H PARENT
REMARK Flexibility Score: inf
ROOT
ATOM      1  C   UNL     1     -39.776  21.202 -29.162  1.00  0.00     0.063 C 
ATOM      2  C   UNL     1     -39.918  19.924 -28.407  1.00  0.00     0.038 C 
ATOM      3  O   UNL     1     -41.058  19.518 -28.061  1.00  0.00    -0.550 OA
ATOM      4  O   UNL     1     -38.789  19.206 -28.037  1.00  0.00    -0.550 OA
ENDROOT
TORSDOF 0
ENDMDL
MODEL 5
REMARK VINA RESULT:    -2.278     16.685     16.915
REMARK INTER + INTRA:          -2.278
REMARK INTER:                  -2.278
REMARK INTRA:                   0.000
REMARK UNBOUND:                 0.000
REMARK SMILES CC(=O)[O-]
REMARK SMILES IDX 1 1 2 2 3 3 4 4
REMARK H PARENT
REMARK Flexibility Score: inf
ROOT
ATOM      1  C   UNL     1     -38.346  19.021 -30.934  1.00  0.00     0.063 C 
ATOM      2  C   UNL     1     -38.448  17.558 -30.663  1.00  0.00     0.038 C 
ATOM      3  O   UNL     1     -37.666  17.011 -29.843  1.00  0.00    -0.550 OA
ATOM      4  O   UNL     1     -39.372  16.785 -31.355  1.00  0.00    -0.550 OA
ENDROOT
TORSDOF 0
ENDMDL
MODEL 6
REMARK VINA RESULT:    -2.264     16.564     16.693
REMARK INTER + INTRA:          -2.264
REMARK INTER:                  -2.264
REMARK INTRA:                   0.000
REMARK UNBOUND:                 0.000
REMARK SMILES CC(=O)[O-]
REMARK SMILES IDX 1 1 2 2 3 3 4 4
REMARK H PARENT
REMARK Flexibility Score: inf
ROOT
ATOM      1  C   UNL     1     -39.087  17.115 -31.134  1.00  0.00     0.063 C 
ATOM      2  C   UNL     1     -38.376  18.318 -30.615  1.00  0.00     0.038 C 
ATOM      3  O   UNL     1     -37.899  18.316 -29.450  1.00  0.00    -0.550 OA
ATOM      4  O   UNL     1     -38.285  19.463 -31.395  1.00  0.00    -0.550 OA
ENDROOT
TORSDOF 0
ENDMDL
MODEL 7
REMARK VINA RESULT:    -2.263     16.276     16.388
REMARK INTER + INTRA:          -2.263
REMARK INTER:                  -2.263
REMARK INTRA:                   0.000
REMARK UNBOUND:                 0.000
REMARK SMILES CC(=O)[O-]
REMARK SMILES IDX 1 1 2 2 3 3 4 4
REMARK H PARENT
REMARK Flexibility Score: inf
ROOT
ATOM      1  C   UNL     1     -38.612  19.296 -28.393  1.00  0.00     0.063 C 
ATOM      2  C   UNL     1     -39.908  20.015 -28.558  1.00  0.00     0.038 C 
ATOM      3  O   UNL     1     -39.948  21.113 -29.171  1.00  0.00    -0.550 OA
ATOM      4  O   UNL     1     -41.066  19.501 -27.988  1.00  0.00    -0.550 OA
ENDROOT
TORSDOF 0
ENDMDL
MODEL 8
REMARK VINA RESULT:    -2.260     16.613     16.786
REMARK INTER + INTRA:          -2.260
REMARK INTER:                  -2.260
REMARK INTRA:                   0.000
REMARK UNBOUND:                 0.000
REMARK SMILES CC(=O)[O-]
REMARK SMILES IDX 1 1 2 2 3 3 4 4
REMARK H PARENT
REMARK Flexibility Score: inf
ROOT
ATOM      1  C   UNL     1     -39.019  17.127 -31.101  1.00  0.00     0.063 C 
ATOM      2  C   UNL     1     -38.380  18.374 -30.591  1.00  0.00     0.038 C 
ATOM      3  O   UNL     1     -38.270  19.380 -31.340  1.00  0.00    -0.550 OA
ATOM      4  O   UNL     1     -37.856  18.411 -29.306  1.00  0.00    -0.550 OA
ENDROOT
TORSDOF 0
ENDMDL
MODEL 9
REMARK VINA RESULT:    -2.196     16.257     16.296
REMARK INTER + INTRA:          -2.196
REMARK INTER:                  -2.196
REMARK INTRA:                   0.000
REMARK UNBOUND:                 0.000
REMARK SMILES CC(=O)[O-]
REMARK SMILES IDX 1 1 2 2 3 3 4 4
REMARK H PARENT
REMARK Flexibility Score: inf
ROOT
ATOM      1  C   UNL     1     -40.606  19.617 -28.125  1.00  0.00     0.063 C 
ATOM      2  C   UNL     1     -39.603  20.486 -28.804  1.00  0.00     0.038 C 
ATOM      3  O   UNL     1     -38.378  20.205 -28.742  1.00  0.00    -0.550 OA
ATOM      4  O   UNL     1     -40.013  21.638 -29.462  1.00  0.00    -0.550 OA
ENDROOT
TORSDOF 0
ENDMDL
