MODEL 1
REMARK VINA RESULT:    -3.425      0.000      0.000
REMARK INTER + INTRA:          -5.398
REMARK INTER:                  -5.228
REMARK INTRA:                  -0.171
REMARK UNBOUND:                -0.171
REMARK SMILES CC1=CCC[C@@H](C)C(=O)C[C@H](C(C)C)C(=O)C1
REMARK SMILES IDX 8 1 9 2 6 3 7 4 5 5 4 6 3 7 2 8 1 9 10 11 11 12 15 13 16 14
REMARK SMILES IDX 17 15 12 17 13 18 14 19
REMARK H PARENT
REMARK Flexibility Score: 70.00
ROOT
ATOM      1  C   UNL     1      -6.886   3.723  52.834  1.00  0.00     0.136 C 
ATOM      2  O   UNL     1      -5.692   3.854  53.068  1.00  0.00    -0.299 OA
ENDROOT
BRANCH   1   3
ATOM      3  C   UNL     1      -7.382   3.800  51.404  1.00  0.00     0.053 C 
ATOM      4  C   UNL     1      -6.755   5.001  50.681  1.00  0.00     0.016 C 
BRANCH   3   5
ATOM      5  C   UNL     1      -8.925   3.883  51.378  1.00  0.00     0.015 C 
BRANCH   5   6
ATOM      6  C   UNL     1      -9.428   5.339  51.298  1.00  0.00     0.028 C 
BRANCH   6   7
ATOM      7  C   UNL     1     -10.779   5.490  51.947  1.00  0.00    -0.028 C 
ATOM      8  C   UNL     1     -10.992   5.944  53.204  1.00  0.00    -0.070 CG0
ATOM      9  C   UNL     1     -12.419   6.088  53.670  1.00  0.00     0.039 C 
ATOM     10  G   UNL     1      -9.870   6.325  54.157  1.00  0.00     0.000 G0
ENDBRANCH   6   7
ENDBRANCH   5   6
ENDBRANCH   3   5
ENDBRANCH   1   3
BRANCH   1  11
ATOM     11  C   UNL     1      -7.839   3.486  53.982  1.00  0.00     0.087 C 
BRANCH  11  12
ATOM     12  C   UNL     1      -7.941   4.708  54.932  1.00  0.00     0.066 C 
BRANCH  12  13
ATOM     13  C   UNL     1      -9.379   5.208  55.022  1.00  0.00     0.140 C 
ATOM     14  O   UNL     1     -10.158   4.626  55.763  1.00  0.00    -0.299 OA
BRANCH  13  15
ATOM     15  C   UNL     1      -9.885   6.351  54.171  1.00  0.00     0.106 CG0
ATOM     16  G   UNL     1     -10.978   5.913  53.209  1.00  0.00     0.000 G0
ENDBRANCH  13  15
ENDBRANCH  12  13
BRANCH  12  17
ATOM     17  C   UNL     1      -7.340   4.434  56.348  1.00  0.00    -0.006 C 
ATOM     18  C   UNL     1      -6.108   5.321  56.606  1.00  0.00     0.008 C 
ATOM     19  C   UNL     1      -6.937   2.961  56.540  1.00  0.00     0.008 C 
ENDBRANCH  12  17
ENDBRANCH  11  12
ENDBRANCH   1  11
TORSDOF 1
ENDMDL
MODEL 2
REMARK VINA RESULT:    -3.369      1.831      4.216
REMARK INTER + INTRA:          -5.312
REMARK INTER:                  -5.011
REMARK INTRA:                  -0.301
REMARK UNBOUND:                -0.171
REMARK SMILES CC1=CCC[C@@H](C)C(=O)C[C@H](C(C)C)C(=O)C1
REMARK SMILES IDX 8 1 9 2 6 3 7 4 5 5 4 6 3 7 2 8 1 9 10 11 11 12 15 13 16 14
REMARK SMILES IDX 17 15 12 17 13 18 14 19
REMARK H PARENT
REMARK Flexibility Score: 70.00
ROOT
ATOM      1  C   UNL     1      -7.148   4.153  52.391  1.00  0.00     0.136 C 
ATOM      2  O   UNL     1      -7.141   3.928  51.188  1.00  0.00    -0.299 OA
ENDROOT
BRANCH   1   3
ATOM      3  C   UNL     1      -6.127   3.481  53.286  1.00  0.00     0.053 C 
ATOM      4  C   UNL     1      -6.604   2.077  53.687  1.00  0.00     0.016 C 
BRANCH   3   5
ATOM      5  C   UNL     1      -5.856   4.350  54.535  1.00  0.00     0.015 C 
BRANCH   5   6
ATOM      6  C   UNL     1      -6.491   3.754  55.807  1.00  0.00     0.028 C 
BRANCH   6   7
ATOM      7  C   UNL     1      -7.174   4.816  56.629  1.00  0.00    -0.028 C 
ATOM      8  C   UNL     1      -8.513   4.992  56.718  1.00  0.00    -0.070 CG0
ATOM      9  C   UNL     1      -9.024   6.070  57.641  1.00  0.00     0.039 C 
ATOM     10  G   UNL     1      -9.519   4.152  55.948  1.00  0.00     0.000 G0
ENDBRANCH   6   7
ENDBRANCH   5   6
ENDBRANCH   3   5
ENDBRANCH   1   3
BRANCH   1  11
ATOM     11  C   UNL     1      -8.181   5.102  52.955  1.00  0.00     0.087 C 
BRANCH  11  12
ATOM     12  C   UNL     1      -9.512   4.389  53.311  1.00  0.00     0.066 C 
BRANCH  12  13
ATOM     13  C   UNL     1     -10.009   4.822  54.686  1.00  0.00     0.140 C 
ATOM     14  O   UNL     1     -10.757   5.785  54.764  1.00  0.00    -0.299 OA
BRANCH  13  15
ATOM     15  C   UNL     1      -9.547   4.142  55.956  1.00  0.00     0.106 CG0
ATOM     16  G   UNL     1      -8.515   4.966  56.709  1.00  0.00     0.000 G0
ENDBRANCH  13  15
ENDBRANCH  12  13
BRANCH  12  17
ATOM     17  C   UNL     1     -10.614   4.571  52.219  1.00  0.00    -0.006 C 
ATOM     18  C   UNL     1     -10.737   3.312  51.342  1.00  0.00     0.008 C 
ATOM     19  C   UNL     1     -10.344   5.782  51.308  1.00  0.00     0.008 C 
ENDBRANCH  12  17
ENDBRANCH  11  12
ENDBRANCH   1  11
TORSDOF 1
ENDMDL
MODEL 3
REMARK VINA RESULT:    -3.266      3.991      6.062
REMARK INTER + INTRA:          -5.155
REMARK INTER:                  -4.858
REMARK INTRA:                  -0.297
REMARK UNBOUND:                -0.171
REMARK SMILES CC1=CCC[C@@H](C)C(=O)C[C@H](C(C)C)C(=O)C1
REMARK SMILES IDX 8 1 9 2 6 3 7 4 5 5 4 6 3 7 2 8 1 9 10 11 11 12 15 13 16 14
REMARK SMILES IDX 17 15 12 17 13 18 14 19
REMARK H PARENT
REMARK Flexibility Score: 70.00
ROOT
ATOM      1  C   UNL     1      -7.021   4.536  55.409  1.00  0.00     0.136 C 
ATOM      2  O   UNL     1      -8.139   4.803  54.987  1.00  0.00    -0.299 OA
ENDROOT
BRANCH   1   3
ATOM      3  C   UNL     1      -6.219   3.429  54.755  1.00  0.00     0.053 C 
ATOM      4  C   UNL     1      -5.985   3.740  53.269  1.00  0.00     0.016 C 
BRANCH   3   5
ATOM      5  C   UNL     1      -6.938   2.073  54.930  1.00  0.00     0.015 C 
BRANCH   5   6
ATOM      6  C   UNL     1      -6.482   1.333  56.204  1.00  0.00     0.028 C 
BRANCH   6   7
ATOM      7  C   UNL     1      -5.002   1.492  56.431  1.00  0.00    -0.028 C 
ATOM      8  C   UNL     1      -4.437   2.035  57.535  1.00  0.00    -0.070 CG0
ATOM      9  C   UNL     1      -2.932   2.058  57.620  1.00  0.00     0.039 C 
ATOM     10  G   UNL     1      -5.244   2.606  58.691  1.00  0.00     0.000 G0
ENDBRANCH   6   7
ENDBRANCH   5   6
ENDBRANCH   3   5
ENDBRANCH   1   3
BRANCH   1  11
ATOM     11  C   UNL     1      -6.468   5.321  56.575  1.00  0.00     0.087 C 
BRANCH  11  12
ATOM     12  C   UNL     1      -6.766   4.648  57.940  1.00  0.00     0.066 C 
BRANCH  12  13
ATOM     13  C   UNL     1      -5.490   4.093  58.563  1.00  0.00     0.140 C 
ATOM     14  O   UNL     1      -4.621   4.877  58.919  1.00  0.00    -0.299 OA
BRANCH  13  15
ATOM     15  C   UNL     1      -5.238   2.608  58.687  1.00  0.00     0.106 CG0
ATOM     16  G   UNL     1      -4.431   2.061  57.520  1.00  0.00     0.000 G0
ENDBRANCH  13  15
ENDBRANCH  12  13
BRANCH  12  17
ATOM     17  C   UNL     1      -7.528   5.585  58.931  1.00  0.00    -0.006 C 
ATOM     18  C   UNL     1      -7.958   4.820  60.196  1.00  0.00     0.008 C 
ATOM     19  C   UNL     1      -8.775   6.225  58.294  1.00  0.00     0.008 C 
ENDBRANCH  12  17
ENDBRANCH  11  12
ENDBRANCH   1  11
TORSDOF 1
ENDMDL
MODEL 4
REMARK VINA RESULT:    -3.257      2.096      4.152
REMARK INTER + INTRA:          -5.141
REMARK INTER:                  -4.852
REMARK INTRA:                  -0.289
REMARK UNBOUND:                -0.171
REMARK SMILES CC1=CCC[C@@H](C)C(=O)C[C@H](C(C)C)C(=O)C1
REMARK SMILES IDX 8 1 9 2 6 3 7 4 5 5 4 6 3 7 2 8 1 9 10 11 11 12 15 13 16 14
REMARK SMILES IDX 17 15 12 17 13 18 14 19
REMARK H PARENT
REMARK Flexibility Score: 70.00
ROOT
ATOM      1  C   UNL     1      -8.810   5.464  51.910  1.00  0.00     0.136 C 
ATOM      2  O   UNL     1      -9.544   5.778  50.983  1.00  0.00    -0.299 OA
ENDROOT
BRANCH   1   3
ATOM      3  C   UNL     1      -7.631   4.546  51.656  1.00  0.00     0.053 C 
ATOM      4  C   UNL     1      -6.783   5.070  50.488  1.00  0.00     0.016 C 
BRANCH   3   5
ATOM      5  C   UNL     1      -8.125   3.108  51.380  1.00  0.00     0.015 C 
BRANCH   5   6
ATOM      6  C   UNL     1      -8.011   2.205  52.625  1.00  0.00     0.028 C 
BRANCH   6   7
ATOM      7  C   UNL     1      -6.930   2.688  53.557  1.00  0.00    -0.028 C 
ATOM      8  C   UNL     1      -7.129   3.108  54.828  1.00  0.00    -0.070 CG0
ATOM      9  C   UNL     1      -5.919   3.500  55.639  1.00  0.00     0.039 C 
ATOM     10  G   UNL     1      -8.502   3.192  55.475  1.00  0.00     0.000 G0
ENDBRANCH   6   7
ENDBRANCH   5   6
ENDBRANCH   3   5
ENDBRANCH   1   3
BRANCH   1  11
ATOM     11  C   UNL     1      -9.098   6.005  53.291  1.00  0.00     0.087 C 
BRANCH  11  12
ATOM     12  C   UNL     1      -9.922   5.017  54.158  1.00  0.00     0.066 C 
BRANCH  12  13
ATOM     13  C   UNL     1      -9.130   4.579  55.385  1.00  0.00     0.140 C 
ATOM     14  O   UNL     1      -8.939   5.388  56.280  1.00  0.00    -0.299 OA
BRANCH  13  15
ATOM     15  C   UNL     1      -8.516   3.201  55.492  1.00  0.00     0.106 CG0
ATOM     16  G   UNL     1      -7.147   3.127  54.834  1.00  0.00     0.000 G0
ENDBRANCH  13  15
ENDBRANCH  12  13
BRANCH  12  17
ATOM     17  C   UNL     1     -11.328   5.574  54.551  1.00  0.00    -0.006 C 
ATOM     18  C   UNL     1     -12.406   5.103  53.559  1.00  0.00     0.008 C 
ATOM     19  C   UNL     1     -11.354   7.112  54.614  1.00  0.00     0.008 C 
ENDBRANCH  12  17
ENDBRANCH  11  12
ENDBRANCH   1  11
TORSDOF 1
ENDMDL
MODEL 5
REMARK VINA RESULT:    -3.236      2.298      5.537
REMARK INTER + INTRA:          -5.109
REMARK INTER:                  -5.090
REMARK INTRA:                  -0.019
REMARK UNBOUND:                -0.171
REMARK SMILES CC1=CCC[C@@H](C)C(=O)C[C@H](C(C)C)C(=O)C1
REMARK SMILES IDX 8 1 9 2 6 3 7 4 5 5 4 6 3 7 2 8 1 9 10 11 11 12 15 13 16 14
REMARK SMILES IDX 17 15 12 17 13 18 14 19
REMARK H PARENT
REMARK Flexibility Score: 70.00
ROOT
ATOM      1  C   UNL     1      -9.093   5.741  55.560  1.00  0.00     0.136 C 
ATOM      2  O   UNL     1      -9.471   6.901  55.664  1.00  0.00    -0.299 OA
ENDROOT
BRANCH   1   3
ATOM      3  C   UNL     1      -8.401   5.071  56.729  1.00  0.00     0.053 C 
ATOM      4  C   UNL     1      -9.307   5.082  57.969  1.00  0.00     0.016 C 
BRANCH   3   5
ATOM      5  C   UNL     1      -7.053   5.767  57.023  1.00  0.00     0.015 C 
BRANCH   5   6
ATOM      6  C   UNL     1      -5.881   5.103  56.272  1.00  0.00     0.028 C 
BRANCH   6   7
ATOM      7  C   UNL     1      -5.951   3.601  56.361  1.00  0.00    -0.028 C 
ATOM      8  C   UNL     1      -6.019   2.760  55.303  1.00  0.00    -0.070 CG0
ATOM      9  C   UNL     1      -6.021   1.277  55.578  1.00  0.00     0.039 C 
ATOM     10  G   UNL     1      -6.080   3.236  53.860  1.00  0.00     0.000 G0
ENDBRANCH   6   7
ENDBRANCH   5   6
ENDBRANCH   3   5
ENDBRANCH   1   3
BRANCH   1  11
ATOM     11  C   UNL     1      -9.329   5.005  54.262  1.00  0.00     0.087 C 
BRANCH  11  12
ATOM     12  C   UNL     1      -8.053   4.927  53.382  1.00  0.00     0.066 C 
BRANCH  12  13
ATOM     13  C   UNL     1      -7.477   3.516  53.385  1.00  0.00     0.140 C 
ATOM     14  O   UNL     1      -8.197   2.586  53.053  1.00  0.00    -0.299 OA
BRANCH  13  15
ATOM     15  C   UNL     1      -6.068   3.226  53.853  1.00  0.00     0.106 CG0
ATOM     16  G   UNL     1      -6.028   2.739  55.292  1.00  0.00     0.000 G0
ENDBRANCH  13  15
ENDBRANCH  12  13
BRANCH  12  17
ATOM     17  C   UNL     1      -8.280   5.451  51.928  1.00  0.00    -0.006 C 
ATOM     18  C   UNL     1      -9.645   4.992  51.382  1.00  0.00     0.008 C 
ATOM     19  C   UNL     1      -7.179   4.987  50.957  1.00  0.00     0.008 C 
ENDBRANCH  12  17
ENDBRANCH  11  12
ENDBRANCH   1  11
TORSDOF 1
ENDMDL
MODEL 6
REMARK VINA RESULT:    -3.183      3.154      5.399
REMARK INTER + INTRA:          -5.028
REMARK INTER:                  -4.716
REMARK INTRA:                  -0.312
REMARK UNBOUND:                -0.171
REMARK SMILES CC1=CCC[C@@H](C)C(=O)C[C@H](C(C)C)C(=O)C1
REMARK SMILES IDX 8 1 9 2 6 3 7 4 5 5 4 6 3 7 2 8 1 9 10 11 11 12 15 13 16 14
REMARK SMILES IDX 17 15 12 17 13 18 14 19
REMARK H PARENT
REMARK Flexibility Score: 70.00
ROOT
ATOM      1  C   UNL     1      -6.860   3.280  59.612  1.00  0.00     0.136 C 
ATOM      2  O   UNL     1      -6.792   3.093  60.819  1.00  0.00    -0.299 OA
ENDROOT
BRANCH   1   3
ATOM      3  C   UNL     1      -5.722   2.828  58.718  1.00  0.00     0.053 C 
ATOM      4  C   UNL     1      -4.563   3.833  58.773  1.00  0.00     0.016 C 
BRANCH   3   5
ATOM      5  C   UNL     1      -6.224   2.642  57.269  1.00  0.00     0.015 C 
BRANCH   5   6
ATOM      6  C   UNL     1      -5.725   3.761  56.332  1.00  0.00     0.028 C 
BRANCH   6   7
ATOM      7  C   UNL     1      -6.763   4.115  55.299  1.00  0.00    -0.028 C 
ATOM      8  C   UNL     1      -7.525   5.233  55.312  1.00  0.00    -0.070 CG0
ATOM      9  C   UNL     1      -8.472   5.456  54.160  1.00  0.00     0.039 C 
ATOM     10  G   UNL     1      -7.461   6.275  56.418  1.00  0.00     0.000 G0
ENDBRANCH   6   7
ENDBRANCH   5   6
ENDBRANCH   3   5
ENDBRANCH   1   3
BRANCH   1  11
ATOM     11  C   UNL     1      -8.082   3.960  59.040  1.00  0.00     0.087 C 
BRANCH  11  12
ATOM     12  C   UNL     1      -7.907   5.496  58.920  1.00  0.00     0.066 C 
BRANCH  12  13
ATOM     13  C   UNL     1      -8.406   5.996  57.569  1.00  0.00     0.140 C 
ATOM     14  O   UNL     1      -9.611   6.104  57.391  1.00  0.00    -0.299 OA
BRANCH  13  15
ATOM     15  C   UNL     1      -7.462   6.292  56.425  1.00  0.00     0.106 CG0
ATOM     16  G   UNL     1      -7.530   5.235  55.334  1.00  0.00     0.000 G0
ENDBRANCH  13  15
ENDBRANCH  12  13
BRANCH  12  17
ATOM     17  C   UNL     1      -8.565   6.281  60.101  1.00  0.00    -0.006 C 
ATOM     18  C   UNL     1      -7.504   6.739  61.118  1.00  0.00     0.008 C 
ATOM     19  C   UNL     1      -9.629   5.449  60.839  1.00  0.00     0.008 C 
ENDBRANCH  12  17
ENDBRANCH  11  12
ENDBRANCH   1  11
TORSDOF 1
ENDMDL
MODEL 7
REMARK VINA RESULT:    -3.089      3.635      5.163
REMARK INTER + INTRA:          -4.885
REMARK INTER:                  -4.839
REMARK INTRA:                  -0.046
REMARK UNBOUND:                -0.171
REMARK SMILES CC1=CCC[C@@H](C)C(=O)C[C@H](C(C)C)C(=O)C1
REMARK SMILES IDX 8 1 9 2 6 3 7 4 5 5 4 6 3 7 2 8 1 9 10 11 11 12 15 13 16 14
REMARK SMILES IDX 17 15 12 17 13 18 14 19
REMARK H PARENT
REMARK Flexibility Score: 70.00
ROOT
ATOM      1  C   UNL     1      -6.002   3.066  56.124  1.00  0.00     0.136 C 
ATOM      2  O   UNL     1      -4.782   3.089  56.222  1.00  0.00    -0.299 OA
ENDROOT
BRANCH   1   3
ATOM      3  C   UNL     1      -6.679   3.850  55.018  1.00  0.00     0.053 C 
ATOM      4  C   UNL     1      -5.903   3.704  53.701  1.00  0.00     0.016 C 
BRANCH   3   5
ATOM      5  C   UNL     1      -6.810   5.336  55.421  1.00  0.00     0.015 C 
BRANCH   5   6
ATOM      6  C   UNL     1      -8.124   5.620  56.177  1.00  0.00     0.028 C 
BRANCH   6   7
ATOM      7  C   UNL     1      -7.860   6.226  57.530  1.00  0.00    -0.028 C 
ATOM      8  C   UNL     1      -7.898   5.555  58.705  1.00  0.00    -0.070 CG0
ATOM      9  C   UNL     1      -7.544   6.311  59.961  1.00  0.00     0.039 C 
ATOM     10  G   UNL     1      -8.265   4.084  58.815  1.00  0.00     0.000 G0
ENDBRANCH   6   7
ENDBRANCH   5   6
ENDBRANCH   3   5
ENDBRANCH   1   3
BRANCH   1  11
ATOM     11  C   UNL     1      -6.804   2.251  57.111  1.00  0.00     0.087 C 
BRANCH  11  12
ATOM     12  C   UNL     1      -6.248   2.352  58.556  1.00  0.00     0.066 C 
BRANCH  12  13
ATOM     13  C   UNL     1      -7.131   3.250  59.416  1.00  0.00     0.140 C 
ATOM     14  O   UNL     1      -6.959   3.258  60.626  1.00  0.00    -0.299 OA
BRANCH  13  15
ATOM     15  C   UNL     1      -8.255   4.072  58.826  1.00  0.00     0.106 CG0
ATOM     16  G   UNL     1      -7.891   5.543  58.705  1.00  0.00     0.000 G0
ENDBRANCH  13  15
ENDBRANCH  12  13
BRANCH  12  17
ATOM     17  C   UNL     1      -6.024   0.958  59.224  1.00  0.00    -0.006 C 
ATOM     18  C   UNL     1      -4.937   0.158  58.483  1.00  0.00     0.008 C 
ATOM     19  C   UNL     1      -7.312   0.115  59.270  1.00  0.00     0.008 C 
ENDBRANCH  12  17
ENDBRANCH  11  12
ENDBRANCH   1  11
TORSDOF 1
ENDMDL
MODEL 8
REMARK VINA RESULT:    -3.048      2.022      4.648
REMARK INTER + INTRA:          -4.822
REMARK INTER:                  -4.766
REMARK INTRA:                  -0.056
REMARK UNBOUND:                -0.171
REMARK SMILES CC1=CCC[C@@H](C)C(=O)C[C@H](C(C)C)C(=O)C1
REMARK SMILES IDX 8 1 9 2 6 3 7 4 5 5 4 6 3 7 2 8 1 9 10 11 11 12 15 13 16 14
REMARK SMILES IDX 17 15 12 17 13 18 14 19
REMARK H PARENT
REMARK Flexibility Score: 70.00
ROOT
ATOM      1  C   UNL     1     -10.640   4.861  53.310  1.00  0.00     0.136 C 
ATOM      2  O   UNL     1     -10.868   5.129  52.138  1.00  0.00    -0.299 OA
ENDROOT
BRANCH   1   3
ATOM      3  C   UNL     1     -11.588   5.345  54.388  1.00  0.00     0.053 C 
ATOM      4  C   UNL     1     -11.742   6.872  54.324  1.00  0.00     0.016 C 
BRANCH   3   5
ATOM      5  C   UNL     1     -11.088   4.898  55.780  1.00  0.00     0.015 C 
BRANCH   5   6
ATOM      6  C   UNL     1     -10.456   6.060  56.572  1.00  0.00     0.028 C 
BRANCH   6   7
ATOM      7  C   UNL     1      -9.256   5.600  57.358  1.00  0.00    -0.028 C 
ATOM      8  C   UNL     1      -7.975   5.648  56.924  1.00  0.00    -0.070 CG0
ATOM      9  C   UNL     1      -6.891   5.201  57.872  1.00  0.00     0.039 C 
ATOM     10  G   UNL     1      -7.580   6.141  55.541  1.00  0.00     0.000 G0
ENDBRANCH   6   7
ENDBRANCH   5   6
ENDBRANCH   3   5
ENDBRANCH   1   3
BRANCH   1  11
ATOM     11  C   UNL     1      -9.413   4.049  53.654  1.00  0.00     0.087 C 
BRANCH  11  12
ATOM     12  C   UNL     1      -8.094   4.794  53.320  1.00  0.00     0.066 C 
BRANCH  12  13
ATOM     13  C   UNL     1      -7.268   5.028  54.581  1.00  0.00     0.140 C 
ATOM     14  O   UNL     1      -6.368   4.246  54.847  1.00  0.00    -0.299 OA
BRANCH  13  15
ATOM     15  C   UNL     1      -7.577   6.152  55.543  1.00  0.00     0.106 CG0
ATOM     16  G   UNL     1      -7.957   5.641  56.924  1.00  0.00     0.000 G0
ENDBRANCH  13  15
ENDBRANCH  12  13
BRANCH  12  17
ATOM     17  C   UNL     1      -7.255   4.085  52.209  1.00  0.00    -0.006 C 
ATOM     18  C   UNL     1      -7.105   4.987  50.970  1.00  0.00     0.008 C 
ATOM     19  C   UNL     1      -7.874   2.745  51.771  1.00  0.00     0.008 C 
ENDBRANCH  12  17
ENDBRANCH  11  12
ENDBRANCH   1  11
TORSDOF 1
ENDMDL
MODEL 9
REMARK VINA RESULT:    -2.993      2.513      5.118
REMARK INTER + INTRA:          -4.738
REMARK INTER:                  -4.664
REMARK INTRA:                  -0.075
REMARK UNBOUND:                -0.171
REMARK SMILES CC1=CCC[C@@H](C)C(=O)C[C@H](C(C)C)C(=O)C1
REMARK SMILES IDX 8 1 9 2 6 3 7 4 5 5 4 6 3 7 2 8 1 9 10 11 11 12 15 13 16 14
REMARK SMILES IDX 17 15 12 17 13 18 14 19
REMARK H PARENT
REMARK Flexibility Score: 70.00
ROOT
ATOM      1  C   UNL     1      -5.696   4.211  57.091  1.00  0.00     0.136 C 
ATOM      2  O   UNL     1      -5.053   3.180  56.938  1.00  0.00    -0.299 OA
ENDROOT
BRANCH   1   3
ATOM      3  C   UNL     1      -6.046   4.676  58.490  1.00  0.00     0.053 C 
ATOM      4  C   UNL     1      -4.781   5.106  59.246  1.00  0.00     0.016 C 
BRANCH   3   5
ATOM      5  C   UNL     1      -6.793   3.560  59.253  1.00  0.00     0.015 C 
BRANCH   5   6
ATOM      6  C   UNL     1      -8.202   3.306  58.679  1.00  0.00     0.028 C 
BRANCH   6   7
ATOM      7  C   UNL     1      -9.137   4.444  58.994  1.00  0.00    -0.028 C 
ATOM      8  C   UNL     1      -9.883   5.114  58.086  1.00  0.00    -0.070 CG0
ATOM      9  C   UNL     1     -10.813   6.189  58.590  1.00  0.00     0.039 C 
ATOM     10  G   UNL     1      -9.839   4.827  56.593  1.00  0.00     0.000 G0
ENDBRANCH   6   7
ENDBRANCH   5   6
ENDBRANCH   3   5
ENDBRANCH   1   3
BRANCH   1  11
ATOM     11  C   UNL     1      -6.125   4.996  55.874  1.00  0.00     0.087 C 
BRANCH  11  12
ATOM     12  C   UNL     1      -7.509   4.550  55.335  1.00  0.00     0.066 C 
BRANCH  12  13
ATOM     13  C   UNL     1      -8.623   5.417  55.911  1.00  0.00     0.140 C 
ATOM     14  O   UNL     1      -8.497   6.633  55.880  1.00  0.00    -0.299 OA
BRANCH  13  15
ATOM     15  C   UNL     1      -9.839   4.819  56.582  1.00  0.00     0.106 CG0
ATOM     16  G   UNL     1      -9.882   5.120  58.072  1.00  0.00     0.000 G0
ENDBRANCH  13  15
ENDBRANCH  12  13
BRANCH  12  17
ATOM     17  C   UNL     1      -7.571   4.500  53.774  1.00  0.00    -0.006 C 
ATOM     18  C   UNL     1      -8.831   3.754  53.295  1.00  0.00     0.008 C 
ATOM     19  C   UNL     1      -6.334   3.822  53.159  1.00  0.00     0.008 C 
ENDBRANCH  12  17
ENDBRANCH  11  12
ENDBRANCH   1  11
TORSDOF 1
ENDMDL
