MODEL 1
REMARK VINA RESULT:    -3.791      0.000      0.000
REMARK INTER + INTRA:          -5.765
REMARK INTER:                  -5.342
REMARK INTRA:                  -0.422
REMARK UNBOUND:                -0.422
REMARK SMILES C=CCCCCCCC(=O)[O-]
REMARK SMILES IDX 6 1 7 2 8 3 9 4 10 5 11 6 5 7 4 8 3 9 2 10 1 11
REMARK H PARENT
REMARK Flexibility Score: inf
ROOT
ATOM      1  C   UNL     1      -4.137   6.064  -4.550  1.00  0.00     0.000 C 
ENDROOT
BRANCH   1   2
ATOM      2  C   UNL     1      -3.974   6.894  -5.834  1.00  0.00     0.006 C 
BRANCH   2   3
ATOM      3  C   UNL     1      -2.606   6.693  -6.498  1.00  0.00     0.053 C 
BRANCH   3   4
ATOM      4  C   UNL     1      -2.747   5.882  -7.748  1.00  0.00     0.041 C 
ATOM      5  O   UNL     1      -1.738   5.630  -8.458  1.00  0.00    -0.550 OA
ATOM      6  O   UNL     1      -3.985   5.363  -8.104  1.00  0.00    -0.550 OA
ENDBRANCH   3   4
ENDBRANCH   2   3
ENDBRANCH   1   2
BRANCH   1   7
ATOM      7  C   UNL     1      -4.600   4.624  -4.832  1.00  0.00     0.000 C 
BRANCH   7   8
ATOM      8  C   UNL     1      -5.930   4.287  -4.139  1.00  0.00     0.004 C 
BRANCH   8   9
ATOM      9  C   UNL     1      -6.448   5.435  -3.258  1.00  0.00     0.027 C 
BRANCH   9  10
ATOM     10  C   UNL     1      -6.554   5.009  -1.820  1.00  0.00    -0.035 C 
ATOM     11  C   UNL     1      -5.669   5.407  -0.901  1.00  0.00     0.004 C 
ENDBRANCH   9  10
ENDBRANCH   8   9
ENDBRANCH   7   8
ENDBRANCH   1   7
TORSDOF 7
ENDMDL
MODEL 2
REMARK VINA RESULT:    -3.784     15.493     18.026
REMARK INTER + INTRA:          -5.755
REMARK INTER:                  -5.135
REMARK INTRA:                  -0.620
REMARK UNBOUND:                -0.422
REMARK SMILES C=CCCCCCCC(=O)[O-]
REMARK SMILES IDX 6 1 7 2 8 3 9 4 10 5 11 6 5 7 4 8 3 9 2 10 1 11
REMARK H PARENT
REMARK Flexibility Score: inf
ROOT
ATOM      1  C   UNL     1       9.635  -2.416 -12.324  1.00  0.00     0.000 C 
ENDROOT
BRANCH   1   2
ATOM      2  C   UNL     1       8.763  -2.211 -11.073  1.00  0.00     0.006 C 
BRANCH   2   3
ATOM      3  C   UNL     1       8.137  -3.517 -10.569  1.00  0.00     0.053 C 
BRANCH   3   4
ATOM      4  C   UNL     1       6.644  -3.418 -10.582  1.00  0.00     0.041 C 
ATOM      5  O   UNL     1       6.074  -2.515 -11.250  1.00  0.00    -0.550 OA
ATOM      6  O   UNL     1       5.879  -4.352  -9.896  1.00  0.00    -0.550 OA
ENDBRANCH   3   4
ENDBRANCH   2   3
ENDBRANCH   1   2
BRANCH   1   7
ATOM      7  C   UNL     1       8.798  -2.641 -13.595  1.00  0.00     0.000 C 
BRANCH   7   8
ATOM      8  C   UNL     1       8.894  -4.085 -14.115  1.00  0.00     0.004 C 
BRANCH   8   9
ATOM      9  C   UNL     1      10.095  -4.846 -13.533  1.00  0.00     0.027 C 
BRANCH   9  10
ATOM     10  C   UNL     1       9.689  -6.209 -13.045  1.00  0.00    -0.035 C 
ATOM     11  C   UNL     1       8.897  -7.008 -13.766  1.00  0.00     0.004 C 
ENDBRANCH   9  10
ENDBRANCH   8   9
ENDBRANCH   7   8
ENDBRANCH   1   7
TORSDOF 7
ENDMDL
MODEL 3
REMARK VINA RESULT:    -3.763      3.028      5.619
REMARK INTER + INTRA:          -5.726
REMARK INTER:                  -5.297
REMARK INTRA:                  -0.429
REMARK UNBOUND:                -0.422
REMARK SMILES C=CCCCCCCC(=O)[O-]
REMARK SMILES IDX 6 1 7 2 8 3 9 4 10 5 11 6 5 7 4 8 3 9 2 10 1 11
REMARK H PARENT
REMARK Flexibility Score: inf
ROOT
ATOM      1  C   UNL     1      -5.233   4.240  -4.291  1.00  0.00     0.000 C 
ENDROOT
BRANCH   1   2
ATOM      2  C   UNL     1      -6.281   5.114  -3.583  1.00  0.00     0.006 C 
BRANCH   2   3
ATOM      3  C   UNL     1      -6.027   5.239  -2.075  1.00  0.00     0.053 C 
BRANCH   3   4
ATOM      4  C   UNL     1      -5.387   6.555  -1.762  1.00  0.00     0.041 C 
ATOM      5  O   UNL     1      -4.503   6.633  -0.869  1.00  0.00    -0.550 OA
ATOM      6  O   UNL     1      -5.730   7.686  -2.491  1.00  0.00    -0.550 OA
ENDBRANCH   3   4
ENDBRANCH   2   3
ENDBRANCH   1   2
BRANCH   1   7
ATOM      7  C   UNL     1      -4.593   4.947  -5.498  1.00  0.00     0.000 C 
BRANCH   7   8
ATOM      8  C   UNL     1      -3.762   6.175  -5.089  1.00  0.00     0.004 C 
BRANCH   8   9
ATOM      9  C   UNL     1      -2.768   6.607  -6.178  1.00  0.00     0.027 C 
BRANCH   9  10
ATOM     10  C   UNL     1      -3.105   5.976  -7.501  1.00  0.00    -0.035 C 
ATOM     11  C   UNL     1      -2.155   5.600  -8.363  1.00  0.00     0.004 C 
ENDBRANCH   9  10
ENDBRANCH   8   9
ENDBRANCH   7   8
ENDBRANCH   1   7
TORSDOF 7
ENDMDL
MODEL 4
REMARK VINA RESULT:    -3.735      2.174      3.782
REMARK INTER + INTRA:          -5.686
REMARK INTER:                  -5.254
REMARK INTRA:                  -0.432
REMARK UNBOUND:                -0.422
REMARK SMILES C=CCCCCCCC(=O)[O-]
REMARK SMILES IDX 6 1 7 2 8 3 9 4 10 5 11 6 5 7 4 8 3 9 2 10 1 11
REMARK H PARENT
REMARK Flexibility Score: inf
ROOT
ATOM      1  C   UNL     1      -6.213   5.737  -1.883  1.00  0.00     0.000 C 
ENDROOT
BRANCH   1   2
ATOM      2  C   UNL     1      -5.626   5.207  -3.202  1.00  0.00     0.006 C 
BRANCH   2   3
ATOM      3  C   UNL     1      -4.655   6.196  -3.857  1.00  0.00     0.053 C 
BRANCH   3   4
ATOM      4  C   UNL     1      -3.886   5.524  -4.952  1.00  0.00     0.041 C 
ATOM      5  O   UNL     1      -2.937   6.125  -5.520  1.00  0.00    -0.550 OA
ATOM      6  O   UNL     1      -4.185   4.217  -5.309  1.00  0.00    -0.550 OA
ENDBRANCH   3   4
ENDBRANCH   2   3
ENDBRANCH   1   2
BRANCH   1   7
ATOM      7  C   UNL     1      -6.053   4.740  -0.722  1.00  0.00     0.000 C 
BRANCH   7   8
ATOM      8  C   UNL     1      -5.222   5.313   0.437  1.00  0.00     0.004 C 
BRANCH   8   9
ATOM      9  C   UNL     1      -4.461   6.589   0.046  1.00  0.00     0.027 C 
BRANCH   9  10
ATOM     10  C   UNL     1      -3.045   6.553   0.551  1.00  0.00    -0.035 C 
ATOM     11  C   UNL     1      -2.678   5.758   1.560  1.00  0.00     0.004 C 
ENDBRANCH   9  10
ENDBRANCH   8   9
ENDBRANCH   7   8
ENDBRANCH   1   7
TORSDOF 7
ENDMDL
MODEL 5
REMARK VINA RESULT:    -3.719     14.776     15.807
REMARK INTER + INTRA:          -5.664
REMARK INTER:                  -4.976
REMARK INTRA:                  -0.688
REMARK UNBOUND:                -0.422
REMARK SMILES C=CCCCCCCC(=O)[O-]
REMARK SMILES IDX 6 1 7 2 8 3 9 4 10 5 11 6 5 7 4 8 3 9 2 10 1 11
REMARK H PARENT
REMARK Flexibility Score: inf
ROOT
ATOM      1  C   UNL     1       5.714  -2.220 -13.941  1.00  0.00     0.000 C 
ENDROOT
BRANCH   1   2
ATOM      2  C   UNL     1       6.309  -3.175 -12.893  1.00  0.00     0.006 C 
BRANCH   2   3
ATOM      3  C   UNL     1       6.455  -2.521 -11.513  1.00  0.00     0.053 C 
BRANCH   3   4
ATOM      4  C   UNL     1       6.781  -3.553 -10.479  1.00  0.00     0.041 C 
ATOM      5  O   UNL     1       7.966  -3.695 -10.077  1.00  0.00    -0.550 OA
ATOM      6  O   UNL     1       5.769  -4.325  -9.924  1.00  0.00    -0.550 OA
ENDBRANCH   3   4
ENDBRANCH   2   3
ENDBRANCH   1   2
BRANCH   1   7
ATOM      7  C   UNL     1       5.223  -0.899 -13.325  1.00  0.00     0.000 C 
BRANCH   7   8
ATOM      8  C   UNL     1       5.466   0.307 -14.246  1.00  0.00     0.004 C 
BRANCH   8   9
ATOM      9  C   UNL     1       6.951   0.692 -14.339  1.00  0.00     0.027 C 
BRANCH   9  10
ATOM     10  C   UNL     1       7.549   0.882 -12.973  1.00  0.00    -0.035 C 
ATOM     11  C   UNL     1       8.709   0.316 -12.627  1.00  0.00     0.004 C 
ENDBRANCH   9  10
ENDBRANCH   8   9
ENDBRANCH   7   8
ENDBRANCH   1   7
TORSDOF 7
ENDMDL
MODEL 6
REMARK VINA RESULT:    -3.709      1.520      2.678
REMARK INTER + INTRA:          -5.649
REMARK INTER:                  -5.292
REMARK INTRA:                  -0.356
REMARK UNBOUND:                -0.422
REMARK SMILES C=CCCCCCCC(=O)[O-]
REMARK SMILES IDX 6 1 7 2 8 3 9 4 10 5 11 6 5 7 4 8 3 9 2 10 1 11
REMARK H PARENT
REMARK Flexibility Score: inf
ROOT
ATOM      1  C   UNL     1      -6.027   4.645  -3.729  1.00  0.00     0.000 C 
ENDROOT
BRANCH   1   2
ATOM      2  C   UNL     1      -4.827   4.648  -4.691  1.00  0.00     0.006 C 
BRANCH   2   3
ATOM      3  C   UNL     1      -4.056   5.974  -4.672  1.00  0.00     0.053 C 
BRANCH   3   4
ATOM      4  C   UNL     1      -3.295   6.153  -5.948  1.00  0.00     0.041 C 
ATOM      5  O   UNL     1      -2.737   7.252  -6.204  1.00  0.00    -0.550 OA
ATOM      6  O   UNL     1      -3.159   5.090  -6.831  1.00  0.00    -0.550 OA
ENDBRANCH   3   4
ENDBRANCH   2   3
ENDBRANCH   1   2
BRANCH   1   7
ATOM      7  C   UNL     1      -5.795   5.534  -2.494  1.00  0.00     0.000 C 
BRANCH   7   8
ATOM      8  C   UNL     1      -6.390   4.928  -1.213  1.00  0.00     0.004 C 
BRANCH   8   9
ATOM      9  C   UNL     1      -5.506   5.167   0.021  1.00  0.00     0.027 C 
BRANCH   9  10
ATOM     10  C   UNL     1      -4.645   6.387  -0.156  1.00  0.00    -0.035 C 
ATOM     11  C   UNL     1      -3.484   6.530   0.490  1.00  0.00     0.004 C 
ENDBRANCH   9  10
ENDBRANCH   8   9
ENDBRANCH   7   8
ENDBRANCH   1   7
TORSDOF 7
ENDMDL
MODEL 7
REMARK VINA RESULT:    -3.661      1.000      2.195
REMARK INTER + INTRA:          -5.581
REMARK INTER:                  -5.033
REMARK INTRA:                  -0.548
REMARK UNBOUND:                -0.422
REMARK SMILES C=CCCCCCCC(=O)[O-]
REMARK SMILES IDX 6 1 7 2 8 3 9 4 10 5 11 6 5 7 4 8 3 9 2 10 1 11
REMARK H PARENT
REMARK Flexibility Score: inf
ROOT
ATOM      1  C   UNL     1      -4.483   7.686  -5.070  1.00  0.00     0.000 C 
ENDROOT
BRANCH   1   2
ATOM      2  C   UNL     1      -3.540   6.514  -5.392  1.00  0.00     0.006 C 
BRANCH   2   3
ATOM      3  C   UNL     1      -2.581   6.826  -6.548  1.00  0.00     0.053 C 
BRANCH   3   4
ATOM      4  C   UNL     1      -2.791   5.863  -7.674  1.00  0.00     0.041 C 
ATOM      5  O   UNL     1      -3.936   5.390  -7.897  1.00  0.00    -0.550 OA
ATOM      6  O   UNL     1      -1.733   5.526  -8.507  1.00  0.00    -0.550 OA
ENDBRANCH   3   4
ENDBRANCH   2   3
ENDBRANCH   1   2
BRANCH   1   7
ATOM      7  C   UNL     1      -5.504   7.337  -3.973  1.00  0.00     0.000 C 
BRANCH   7   8
ATOM      8  C   UNL     1      -4.961   6.307  -2.969  1.00  0.00     0.004 C 
BRANCH   8   9
ATOM      9  C   UNL     1      -5.936   5.144  -2.728  1.00  0.00     0.027 C 
BRANCH   9  10
ATOM     10  C   UNL     1      -6.625   4.741  -4.002  1.00  0.00    -0.035 C 
ATOM     11  C   UNL     1      -6.066   3.889  -4.866  1.00  0.00     0.004 C 
ENDBRANCH   9  10
ENDBRANCH   8   9
ENDBRANCH   7   8
ENDBRANCH   1   7
TORSDOF 7
ENDMDL
MODEL 8
REMARK VINA RESULT:    -3.639      1.569      2.590
REMARK INTER + INTRA:          -5.550
REMARK INTER:                  -4.780
REMARK INTRA:                  -0.771
REMARK UNBOUND:                -0.422
REMARK SMILES C=CCCCCCCC(=O)[O-]
REMARK SMILES IDX 6 1 7 2 8 3 9 4 10 5 11 6 5 7 4 8 3 9 2 10 1 11
REMARK H PARENT
REMARK Flexibility Score: inf
ROOT
ATOM      1  C   UNL     1      -5.978   6.922  -6.781  1.00  0.00     0.000 C 
ENDROOT
BRANCH   1   2
ATOM      2  C   UNL     1      -5.022   6.598  -7.942  1.00  0.00     0.006 C 
BRANCH   2   3
ATOM      3  C   UNL     1      -4.059   5.450  -7.611  1.00  0.00     0.053 C 
BRANCH   3   4
ATOM      4  C   UNL     1      -2.645   5.940  -7.618  1.00  0.00     0.041 C 
ATOM      5  O   UNL     1      -1.853   5.577  -8.528  1.00  0.00    -0.550 OA
ATOM      6  O   UNL     1      -2.214   6.835  -6.648  1.00  0.00    -0.550 OA
ENDBRANCH   3   4
ENDBRANCH   2   3
ENDBRANCH   1   2
BRANCH   1   7
ATOM      7  C   UNL     1      -5.413   7.993  -5.833  1.00  0.00     0.000 C 
BRANCH   7   8
ATOM      8  C   UNL     1      -5.530   7.591  -4.353  1.00  0.00     0.004 C 
BRANCH   8   9
ATOM      9  C   UNL     1      -4.619   6.409  -3.987  1.00  0.00     0.027 C 
BRANCH   9  10
ATOM     10  C   UNL     1      -5.425   5.217  -3.553  1.00  0.00    -0.035 C 
ATOM     11  C   UNL     1      -5.583   4.149  -4.340  1.00  0.00     0.004 C 
ENDBRANCH   9  10
ENDBRANCH   8   9
ENDBRANCH   7   8
ENDBRANCH   1   7
TORSDOF 7
ENDMDL
MODEL 9
REMARK VINA RESULT:    -3.613     16.108     17.111
REMARK INTER + INTRA:          -5.514
REMARK INTER:                  -5.066
REMARK INTRA:                  -0.448
REMARK UNBOUND:                -0.422
REMARK SMILES C=CCCCCCCC(=O)[O-]
REMARK SMILES IDX 6 1 7 2 8 3 9 4 10 5 11 6 5 7 4 8 3 9 2 10 1 11
REMARK H PARENT
REMARK Flexibility Score: inf
ROOT
ATOM      1  C   UNL     1       5.952  -3.230   4.931  1.00  0.00     0.000 C 
ENDROOT
BRANCH   1   2
ATOM      2  C   UNL     1       6.988  -4.295   4.536  1.00  0.00     0.006 C 
BRANCH   2   3
ATOM      3  C   UNL     1       6.380  -5.433   3.706  1.00  0.00     0.053 C 
BRANCH   3   4
ATOM      4  C   UNL     1       6.584  -5.179   2.245  1.00  0.00     0.041 C 
ATOM      5  O   UNL     1       5.941  -5.843   1.391  1.00  0.00    -0.550 OA
ATOM      6  O   UNL     1       7.448  -4.174   1.828  1.00  0.00    -0.550 OA
ENDBRANCH   3   4
ENDBRANCH   2   3
ENDBRANCH   1   2
BRANCH   1   7
ATOM      7  C   UNL     1       6.513  -1.800   4.844  1.00  0.00     0.000 C 
BRANCH   7   8
ATOM      8  C   UNL     1       8.018  -1.776   4.531  1.00  0.00     0.004 C 
BRANCH   8   9
ATOM      9  C   UNL     1       8.417  -0.597   3.630  1.00  0.00     0.027 C 
BRANCH   9  10
ATOM     10  C   UNL     1       7.544   0.600   3.885  1.00  0.00    -0.035 C 
ATOM     11  C   UNL     1       7.981   1.847   3.682  1.00  0.00     0.004 C 
ENDBRANCH   9  10
ENDBRANCH   8   9
ENDBRANCH   7   8
ENDBRANCH   1   7
TORSDOF 7
ENDMDL
