MODEL 1
REMARK VINA RESULT:    -8.229      0.000      0.000
REMARK INTER + INTRA:          -9.925
REMARK INTER:                  -9.672
REMARK INTRA:                  -0.254
REMARK UNBOUND:                -0.254
REMARK SMILES O=c1c(O)c(-c2ccc(O)cc2)oc2cc(O)cc(O)c12
REMARK SMILES IDX 5 1 3 2 2 3 1 4 21 5 19 6 18 7 16 8 15 9 14 10 13 11 6 12
REMARK SMILES IDX 7 13 8 14 9 15 12 16 11 17 10 18 4 20 20 22 17 24
REMARK H PARENT 10 19 4 21 20 23 17 25
REMARK Flexibility Score: inf
ROOT
ATOM      1  C   UNL     1     137.260 -18.121  79.430  1.00  0.00     0.180 A 
ATOM      2  C   UNL     1     138.428 -18.612  78.822  1.00  0.00     0.208 A 
ATOM      3  C   UNL     1     139.625 -17.891  78.967  1.00  0.00     0.238 A 
ATOM      4  O   UNL     1     140.679 -18.365  78.466  1.00  0.00    -0.285 OA
ATOM      5  C   UNL     1     139.635 -16.682  79.701  1.00  0.00     0.111 A 
ATOM      6  C   UNL     1     140.782 -15.850  79.877  1.00  0.00     0.134 A 
ATOM      7  C   UNL     1     140.707 -14.743  80.732  1.00  0.00     0.093 A 
ATOM      8  C   UNL     1     139.510 -14.401  81.366  1.00  0.00     0.123 A 
ATOM      9  C   UNL     1     138.371 -15.174  81.153  1.00  0.00     0.094 A 
ATOM     10  C   UNL     1     138.423 -16.304  80.334  1.00  0.00     0.146 A 
ATOM     11  O   UNL     1     137.316 -17.017  80.167  1.00  0.00    -0.452 OA
ENDROOT
BRANCH   1  12
ATOM     12  C   UNL     1     135.956 -18.810  79.302  1.00  0.00     0.021 A 
ATOM     13  C   UNL     1     135.433 -19.511  80.403  1.00  0.00     0.016 A 
ATOM     14  C   UNL     1     134.193 -20.150  80.311  1.00  0.00     0.047 A 
ATOM     15  C   UNL     1     133.454 -20.086  79.126  1.00  0.00     0.115 A 
ATOM     16  C   UNL     1     135.197 -18.732  78.119  1.00  0.00     0.016 A 
ATOM     17  C   UNL     1     133.958 -19.372  78.031  1.00  0.00     0.047 A 
BRANCH  15  18
ATOM     18  O   UNL     1     132.220 -20.728  79.048  1.00  0.00    -0.508 OA
ATOM     19  H   UNL     1     131.966 -21.466  79.695  1.00  0.00     0.293 HD
ENDBRANCH  15  18
ENDBRANCH   1  12
BRANCH   2  20
ATOM     20  O   UNL     1     138.401 -19.819  78.120  1.00  0.00    -0.502 OA
ATOM     21  H   UNL     1     139.200 -20.166  77.602  1.00  0.00     0.293 HD
ENDBRANCH   2  20
BRANCH   6  22
ATOM     22  O   UNL     1     141.999 -16.049  79.218  1.00  0.00    -0.507 OA
ATOM     23  H   UNL     1     142.097 -16.192  78.225  1.00  0.00     0.293 HD
ENDBRANCH   6  22
BRANCH   8  24
ATOM     24  O   UNL     1     139.441 -13.290  82.203  1.00  0.00    -0.508 OA
ATOM     25  H   UNL     1     139.744 -12.374  81.894  1.00  0.00     0.293 HD
ENDBRANCH   8  24
TORSDOF 5
ENDMDL
MODEL 2
REMARK VINA RESULT:    -7.759      2.666      5.582
REMARK INTER + INTRA:          -9.373
REMARK INTER:                  -9.199
REMARK INTRA:                  -0.174
REMARK UNBOUND:                -0.254
REMARK SMILES O=c1c(O)c(-c2ccc(O)cc2)oc2cc(O)cc(O)c12
REMARK SMILES IDX 5 1 3 2 2 3 1 4 21 5 19 6 18 7 16 8 15 9 14 10 13 11 6 12
REMARK SMILES IDX 7 13 8 14 9 15 12 16 11 17 10 18 4 20 20 22 17 24
REMARK H PARENT 10 19 4 21 20 23 17 25
REMARK Flexibility Score: inf
ROOT
ATOM      1  C   UNL     1     139.403 -19.167  78.612  1.00  0.00     0.180 A 
ATOM      2  C   UNL     1     138.082 -19.621  78.458  1.00  0.00     0.208 A 
ATOM      3  C   UNL     1     137.039 -18.896  79.058  1.00  0.00     0.238 A 
ATOM      4  O   UNL     1     135.854 -19.276  78.871  1.00  0.00    -0.285 OA
ATOM      5  C   UNL     1     137.331 -17.739  79.819  1.00  0.00     0.111 A 
ATOM      6  C   UNL     1     136.357 -16.952  80.504  1.00  0.00     0.134 A 
ATOM      7  C   UNL     1     136.745 -15.754  81.117  1.00  0.00     0.093 A 
ATOM      8  C   UNL     1     138.082 -15.348  81.126  1.00  0.00     0.123 A 
ATOM      9  C   UNL     1     139.048 -16.140  80.510  1.00  0.00     0.094 A 
ATOM     10  C   UNL     1     138.687 -17.322  79.859  1.00  0.00     0.146 A 
ATOM     11  O   UNL     1     139.639 -18.041  79.277  1.00  0.00    -0.452 OA
ENDROOT
BRANCH   1  12
ATOM     12  C   UNL     1     140.557 -19.889  78.031  1.00  0.00     0.021 A 
ATOM     13  C   UNL     1     141.345 -19.261  77.052  1.00  0.00     0.016 A 
ATOM     14  C   UNL     1     142.453 -19.916  76.506  1.00  0.00     0.047 A 
ATOM     15  C   UNL     1     142.796 -21.200  76.941  1.00  0.00     0.115 A 
ATOM     16  C   UNL     1     140.921 -21.173  78.480  1.00  0.00     0.016 A 
ATOM     17  C   UNL     1     142.029 -21.825  77.932  1.00  0.00     0.047 A 
BRANCH  15  18
ATOM     18  O   UNL     1     143.902 -21.841  76.388  1.00  0.00    -0.508 OA
ATOM     19  H   UNL     1     144.496 -22.446  76.944  1.00  0.00     0.293 HD
ENDBRANCH  15  18
ENDBRANCH   1  12
BRANCH   2  20
ATOM     20  O   UNL     1     137.813 -20.753  77.685  1.00  0.00    -0.502 OA
ATOM     21  H   UNL     1     137.347 -21.570  78.061  1.00  0.00     0.293 HD
ENDBRANCH   2  20
BRANCH   6  22
ATOM     22  O   UNL     1     135.013 -17.313  80.635  1.00  0.00    -0.507 OA
ATOM     23  H   UNL     1     134.234 -16.731  80.371  1.00  0.00     0.293 HD
ENDBRANCH   6  22
BRANCH   8  24
ATOM     24  O   UNL     1     138.461 -14.162  81.751  1.00  0.00    -0.508 OA
ATOM     25  H   UNL     1     137.840 -13.678  82.390  1.00  0.00     0.293 HD
ENDBRANCH   8  24
TORSDOF 5
ENDMDL
MODEL 3
REMARK VINA RESULT:    -6.992      2.560      6.325
REMARK INTER + INTRA:          -8.472
REMARK INTER:                  -8.533
REMARK INTRA:                   0.061
REMARK UNBOUND:                -0.254
REMARK SMILES O=c1c(O)c(-c2ccc(O)cc2)oc2cc(O)cc(O)c12
REMARK SMILES IDX 5 1 3 2 2 3 1 4 21 5 19 6 18 7 16 8 15 9 14 10 13 11 6 12
REMARK SMILES IDX 7 13 8 14 9 15 12 16 11 17 10 18 4 20 20 22 17 24
REMARK H PARENT 10 19 4 21 20 23 17 25
REMARK Flexibility Score: inf
ROOT
ATOM      1  C   UNL     1     139.402 -19.100  78.737  1.00  0.00     0.180 A 
ATOM      2  C   UNL     1     139.526 -17.796  79.247  1.00  0.00     0.208 A 
ATOM      3  C   UNL     1     138.403 -17.182  79.826  1.00  0.00     0.238 A 
ATOM      4  O   UNL     1     138.535 -16.036  80.330  1.00  0.00    -0.285 OA
ATOM      5  C   UNL     1     137.168 -17.870  79.870  1.00  0.00     0.111 A 
ATOM      6  C   UNL     1     135.956 -17.329  80.396  1.00  0.00     0.134 A 
ATOM      7  C   UNL     1     134.826 -18.148  80.508  1.00  0.00     0.093 A 
ATOM      8  C   UNL     1     134.844 -19.469  80.053  1.00  0.00     0.123 A 
ATOM      9  C   UNL     1     136.005 -19.988  79.484  1.00  0.00     0.094 A 
ATOM     10  C   UNL     1     137.160 -19.207  79.392  1.00  0.00     0.146 A 
ATOM     11  O   UNL     1     138.246 -19.744  78.852  1.00  0.00    -0.452 OA
ENDROOT
BRANCH   1  12
ATOM     12  C   UNL     1     140.533 -19.804  78.091  1.00  0.00     0.021 A 
ATOM     13  C   UNL     1     141.279 -19.147  77.097  1.00  0.00     0.016 A 
ATOM     14  C   UNL     1     142.365 -19.786  76.489  1.00  0.00     0.047 A 
ATOM     15  C   UNL     1     142.727 -21.080  76.876  1.00  0.00     0.115 A 
ATOM     16  C   UNL     1     140.916 -21.098  78.489  1.00  0.00     0.016 A 
ATOM     17  C   UNL     1     142.001 -21.733  77.880  1.00  0.00     0.047 A 
BRANCH  15  18
ATOM     18  O   UNL     1     143.811 -21.703  76.262  1.00  0.00    -0.508 OA
ATOM     19  H   UNL     1     143.765 -22.016  75.298  1.00  0.00     0.293 HD
ENDBRANCH  15  18
ENDBRANCH   1  12
BRANCH   2  20
ATOM     20  O   UNL     1     140.760 -17.142  79.213  1.00  0.00    -0.502 OA
ATOM     21  H   UNL     1     141.513 -17.366  79.853  1.00  0.00     0.293 HD
ENDBRANCH   2  20
BRANCH   6  22
ATOM     22  O   UNL     1     135.804 -15.997  80.792  1.00  0.00    -0.507 OA
ATOM     23  H   UNL     1     134.917 -15.529  80.904  1.00  0.00     0.293 HD
ENDBRANCH   6  22
BRANCH   8  24
ATOM     24  O   UNL     1     133.710 -20.271  80.154  1.00  0.00    -0.508 OA
ATOM     25  H   UNL     1     132.794 -19.875  80.330  1.00  0.00     0.293 HD
ENDBRANCH   8  24
TORSDOF 5
ENDMDL
MODEL 4
REMARK VINA RESULT:    -6.766      1.693      6.897
REMARK INTER + INTRA:          -8.207
REMARK INTER:                  -7.995
REMARK INTRA:                  -0.212
REMARK UNBOUND:                -0.254
REMARK SMILES O=c1c(O)c(-c2ccc(O)cc2)oc2cc(O)cc(O)c12
REMARK SMILES IDX 5 1 3 2 2 3 1 4 21 5 19 6 18 7 16 8 15 9 14 10 13 11 6 12
REMARK SMILES IDX 7 13 8 14 9 15 12 16 11 17 10 18 4 20 20 22 17 24
REMARK H PARENT 10 19 4 21 20 23 17 25
REMARK Flexibility Score: inf
ROOT
ATOM      1  C   UNL     1     137.444 -17.952  79.677  1.00  0.00     0.180 A 
ATOM      2  C   UNL     1     136.970 -18.863  80.636  1.00  0.00     0.208 A 
ATOM      3  C   UNL     1     135.730 -19.488  80.427  1.00  0.00     0.238 A 
ATOM      4  O   UNL     1     135.337 -20.344  81.262  1.00  0.00    -0.285 OA
ATOM      5  C   UNL     1     134.972 -19.181  79.272  1.00  0.00     0.111 A 
ATOM      6  C   UNL     1     133.684 -19.724  78.980  1.00  0.00     0.134 A 
ATOM      7  C   UNL     1     133.084 -19.449  77.744  1.00  0.00     0.093 A 
ATOM      8  C   UNL     1     133.695 -18.599  76.819  1.00  0.00     0.123 A 
ATOM      9  C   UNL     1     134.924 -18.018  77.121  1.00  0.00     0.094 A 
ATOM     10  C   UNL     1     135.565 -18.301  78.330  1.00  0.00     0.146 A 
ATOM     11  O   UNL     1     136.740 -17.734  78.572  1.00  0.00    -0.452 OA
ENDROOT
BRANCH   1  12
ATOM     12  C   UNL     1     138.729 -17.235  79.839  1.00  0.00     0.021 A 
ATOM     13  C   UNL     1     139.794 -17.519  78.967  1.00  0.00     0.016 A 
ATOM     14  C   UNL     1     141.009 -16.838  79.088  1.00  0.00     0.047 A 
ATOM     15  C   UNL     1     141.171 -15.856  80.070  1.00  0.00     0.115 A 
ATOM     16  C   UNL     1     138.892 -16.231  80.811  1.00  0.00     0.016 A 
ATOM     17  C   UNL     1     140.108 -15.552  80.929  1.00  0.00     0.047 A 
BRANCH  15  18
ATOM     18  O   UNL     1     142.388 -15.186  80.179  1.00  0.00    -0.508 OA
ATOM     19  H   UNL     1     142.486 -14.219  79.891  1.00  0.00     0.293 HD
ENDBRANCH  15  18
ENDBRANCH   1  12
BRANCH   2  20
ATOM     20  O   UNL     1     137.744 -19.169  81.758  1.00  0.00    -0.502 OA
ATOM     21  H   UNL     1     138.701 -18.853  81.863  1.00  0.00     0.293 HD
ENDBRANCH   2  20
BRANCH   6  22
ATOM     22  O   UNL     1     132.947 -20.508  79.871  1.00  0.00    -0.507 OA
ATOM     23  H   UNL     1     133.150 -21.471  80.093  1.00  0.00     0.293 HD
ENDBRANCH   6  22
BRANCH   8  24
ATOM     24  O   UNL     1     133.083 -18.320  75.599  1.00  0.00    -0.508 OA
ATOM     25  H   UNL     1     133.503 -17.686  74.929  1.00  0.00     0.293 HD
ENDBRANCH   8  24
TORSDOF 5
ENDMDL
MODEL 5
REMARK VINA RESULT:    -6.737      3.026      5.598
REMARK INTER + INTRA:          -8.173
REMARK INTER:                  -8.236
REMARK INTRA:                   0.063
REMARK UNBOUND:                -0.254
REMARK SMILES O=c1c(O)c(-c2ccc(O)cc2)oc2cc(O)cc(O)c12
REMARK SMILES IDX 5 1 3 2 2 3 1 4 21 5 19 6 18 7 16 8 15 9 14 10 13 11 6 12
REMARK SMILES IDX 7 13 8 14 9 15 12 16 11 17 10 18 4 20 20 22 17 24
REMARK H PARENT 10 19 4 21 20 23 17 25
REMARK Flexibility Score: inf
ROOT
ATOM      1  C   UNL     1     133.950 -18.792  77.205  1.00  0.00     0.180 A 
ATOM      2  C   UNL     1     133.459 -19.533  78.293  1.00  0.00     0.208 A 
ATOM      3  C   UNL     1     134.350 -19.929  79.304  1.00  0.00     0.238 A 
ATOM      4  O   UNL     1     133.894 -20.545  80.303  1.00  0.00    -0.285 OA
ATOM      5  C   UNL     1     135.721 -19.595  79.206  1.00  0.00     0.111 A 
ATOM      6  C   UNL     1     136.719 -19.979  80.152  1.00  0.00     0.134 A 
ATOM      7  C   UNL     1     138.022 -19.481  80.021  1.00  0.00     0.093 A 
ATOM      8  C   UNL     1     138.378 -18.666  78.944  1.00  0.00     0.123 A 
ATOM      9  C   UNL     1     137.425 -18.334  77.984  1.00  0.00     0.094 A 
ATOM     10  C   UNL     1     136.108 -18.786  78.106  1.00  0.00     0.146 A 
ATOM     11  O   UNL     1     135.230 -18.438  77.174  1.00  0.00    -0.452 OA
ENDROOT
BRANCH   1  12
ATOM     12  C   UNL     1     133.079 -18.360  76.089  1.00  0.00     0.021 A 
ATOM     13  C   UNL     1     133.458 -18.643  74.765  1.00  0.00     0.016 A 
ATOM     14  C   UNL     1     132.639 -18.264  73.697  1.00  0.00     0.047 A 
ATOM     15  C   UNL     1     131.427 -17.611  73.938  1.00  0.00     0.115 A 
ATOM     16  C   UNL     1     131.847 -17.722  76.324  1.00  0.00     0.016 A 
ATOM     17  C   UNL     1     131.031 -17.344  75.254  1.00  0.00     0.047 A 
BRANCH  15  18
ATOM     18  O   UNL     1     130.621 -17.239  72.864  1.00  0.00    -0.508 OA
ATOM     19  H   UNL     1     130.812 -17.561  71.922  1.00  0.00     0.293 HD
ENDBRANCH  15  18
ENDBRANCH   1  12
BRANCH   2  20
ATOM     20  O   UNL     1     132.098 -19.834  78.382  1.00  0.00    -0.502 OA
ATOM     21  H   UNL     1     131.696 -20.311  79.181  1.00  0.00     0.293 HD
ENDBRANCH   2  20
BRANCH   6  22
ATOM     22  O   UNL     1     136.492 -20.862  81.211  1.00  0.00    -0.507 OA
ATOM     23  H   UNL     1     135.805 -21.601  81.206  1.00  0.00     0.293 HD
ENDBRANCH   6  22
BRANCH   8  24
ATOM     24  O   UNL     1     139.680 -18.188  78.814  1.00  0.00    -0.508 OA
ATOM     25  H   UNL     1     139.907 -17.435  78.175  1.00  0.00     0.293 HD
ENDBRANCH   8  24
TORSDOF 5
ENDMDL
MODEL 6
REMARK VINA RESULT:    -6.042      7.836     10.037
REMARK INTER + INTRA:          -7.355
REMARK INTER:                  -7.781
REMARK INTRA:                   0.425
REMARK UNBOUND:                -0.254
REMARK SMILES O=c1c(O)c(-c2ccc(O)cc2)oc2cc(O)cc(O)c12
REMARK SMILES IDX 5 1 3 2 2 3 1 4 21 5 19 6 18 7 16 8 15 9 14 10 13 11 6 12
REMARK SMILES IDX 7 13 8 14 9 15 12 16 11 17 10 18 4 20 20 22 17 24
REMARK H PARENT 10 19 4 21 20 23 17 25
REMARK Flexibility Score: inf
ROOT
ATOM      1  C   UNL     1     144.552 -22.083  77.071  1.00  0.00     0.180 A 
ATOM      2  C   UNL     1     145.191 -22.804  78.094  1.00  0.00     0.208 A 
ATOM      3  C   UNL     1     146.478 -23.316  77.863  1.00  0.00     0.238 A 
ATOM      4  O   UNL     1     147.068 -23.914  78.801  1.00  0.00    -0.285 OA
ATOM      5  C   UNL     1     147.102 -23.117  76.608  1.00  0.00     0.111 A 
ATOM      6  C   UNL     1     148.386 -23.627  76.251  1.00  0.00     0.134 A 
ATOM      7  C   UNL     1     148.960 -23.257  75.028  1.00  0.00     0.093 A 
ATOM      8  C   UNL     1     148.268 -22.449  74.122  1.00  0.00     0.123 A 
ATOM      9  C   UNL     1     146.989 -21.996  74.437  1.00  0.00     0.094 A 
ATOM     10  C   UNL     1     146.405 -22.318  75.665  1.00  0.00     0.146 A 
ATOM     11  O   UNL     1     145.188 -21.857  75.928  1.00  0.00    -0.452 OA
ENDROOT
BRANCH   1  12
ATOM     12  C   UNL     1     143.186 -21.534  77.230  1.00  0.00     0.021 A 
ATOM     13  C   UNL     1     142.319 -22.100  78.180  1.00  0.00     0.016 A 
ATOM     14  C   UNL     1     141.032 -21.582  78.362  1.00  0.00     0.047 A 
ATOM     15  C   UNL     1     140.602 -20.486  77.609  1.00  0.00     0.115 A 
ATOM     16  C   UNL     1     142.753 -20.417  76.490  1.00  0.00     0.016 A 
ATOM     17  C   UNL     1     141.467 -19.902  76.675  1.00  0.00     0.047 A 
BRANCH  15  18
ATOM     18  O   UNL     1     139.318 -19.981  77.800  1.00  0.00    -0.508 OA
ATOM     19  H   UNL     1     138.499 -20.572  77.718  1.00  0.00     0.293 HD
ENDBRANCH  15  18
ENDBRANCH   1  12
BRANCH   2  20
ATOM     20  O   UNL     1     144.567 -22.971  79.333  1.00  0.00    -0.502 OA
ATOM     21  H   UNL     1     144.949 -23.565  80.059  1.00  0.00     0.293 HD
ENDBRANCH   2  20
BRANCH   6  22
ATOM     22  O   UNL     1     149.121 -24.514  77.042  1.00  0.00    -0.507 OA
ATOM     23  H   UNL     1     150.099 -24.408  77.266  1.00  0.00     0.293 HD
ENDBRANCH   6  22
BRANCH   8  24
ATOM     24  O   UNL     1     148.840 -22.099  72.901  1.00  0.00    -0.508 OA
ATOM     25  H   UNL     1     148.391 -22.326  72.021  1.00  0.00     0.293 HD
ENDBRANCH   8  24
TORSDOF 5
ENDMDL
MODEL 7
REMARK VINA RESULT:    -5.916      1.442      3.065
REMARK INTER + INTRA:          -7.207
REMARK INTER:                  -7.013
REMARK INTRA:                  -0.194
REMARK UNBOUND:                -0.254
REMARK SMILES O=c1c(O)c(-c2ccc(O)cc2)oc2cc(O)cc(O)c12
REMARK SMILES IDX 5 1 3 2 2 3 1 4 21 5 19 6 18 7 16 8 15 9 14 10 13 11 6 12
REMARK SMILES IDX 7 13 8 14 9 15 12 16 11 17 10 18 4 20 20 22 17 24
REMARK H PARENT 10 19 4 21 20 23 17 25
REMARK Flexibility Score: inf
ROOT
ATOM      1  C   UNL     1     137.172 -17.035  80.200  1.00  0.00     0.180 A 
ATOM      2  C   UNL     1     136.678 -15.889  80.846  1.00  0.00     0.208 A 
ATOM      3  C   UNL     1     137.577 -14.877  81.217  1.00  0.00     0.238 A 
ATOM      4  O   UNL     1     137.122 -13.829  81.746  1.00  0.00    -0.285 OA
ATOM      5  C   UNL     1     138.959 -15.030  80.955  1.00  0.00     0.111 A 
ATOM      6  C   UNL     1     139.964 -14.086  81.324  1.00  0.00     0.134 A 
ATOM      7  C   UNL     1     141.284 -14.280  80.897  1.00  0.00     0.093 A 
ATOM      8  C   UNL     1     141.647 -15.417  80.171  1.00  0.00     0.123 A 
ATOM      9  C   UNL     1     140.684 -16.373  79.857  1.00  0.00     0.094 A 
ATOM     10  C   UNL     1     139.352 -16.190  80.237  1.00  0.00     0.146 A 
ATOM     11  O   UNL     1     138.465 -17.121  79.908  1.00  0.00    -0.452 OA
ENDROOT
BRANCH   1  12
ATOM     12  C   UNL     1     136.291 -18.156  79.800  1.00  0.00     0.021 A 
ATOM     13  C   UNL     1     135.719 -18.974  80.790  1.00  0.00     0.016 A 
ATOM     14  C   UNL     1     134.867 -20.024  80.435  1.00  0.00     0.047 A 
ATOM     15  C   UNL     1     134.563 -20.261  79.091  1.00  0.00     0.115 A 
ATOM     16  C   UNL     1     135.964 -18.387  78.451  1.00  0.00     0.016 A 
ATOM     17  C   UNL     1     135.112 -19.437  78.100  1.00  0.00     0.047 A 
BRANCH  15  18
ATOM     18  O   UNL     1     133.712 -21.311  78.753  1.00  0.00    -0.508 OA
ATOM     19  H   UNL     1     133.632 -22.136  79.336  1.00  0.00     0.293 HD
ENDBRANCH  15  18
ENDBRANCH   1  12
BRANCH   2  20
ATOM     20  O   UNL     1     135.308 -15.748  81.076  1.00  0.00    -0.502 OA
ATOM     21  H   UNL     1     134.608 -16.170  80.478  1.00  0.00     0.293 HD
ENDBRANCH   2  20
BRANCH   6  22
ATOM     22  O   UNL     1     139.726 -12.966  82.125  1.00  0.00    -0.507 OA
ATOM     23  H   UNL     1     140.044 -12.032  81.915  1.00  0.00     0.293 HD
ENDBRANCH   6  22
BRANCH   8  24
ATOM     24  O   UNL     1     142.965 -15.610  79.763  1.00  0.00    -0.508 OA
ATOM     25  H   UNL     1     143.736 -15.554  80.419  1.00  0.00     0.293 HD
ENDBRANCH   8  24
TORSDOF 5
ENDMDL
MODEL 8
REMARK VINA RESULT:    -5.758      1.671      2.068
REMARK INTER + INTRA:          -7.022
REMARK INTER:                  -6.815
REMARK INTRA:                  -0.207
REMARK UNBOUND:                -0.254
REMARK SMILES O=c1c(O)c(-c2ccc(O)cc2)oc2cc(O)cc(O)c12
REMARK SMILES IDX 5 1 3 2 2 3 1 4 21 5 19 6 18 7 16 8 15 9 14 10 13 11 6 12
REMARK SMILES IDX 7 13 8 14 9 15 12 16 11 17 10 18 4 20 20 22 17 24
REMARK H PARENT 10 19 4 21 20 23 17 25
REMARK Flexibility Score: inf
ROOT
ATOM      1  C   UNL     1     136.750 -17.275  80.049  1.00  0.00     0.180 A 
ATOM      2  C   UNL     1     138.055 -17.590  80.465  1.00  0.00     0.208 A 
ATOM      3  C   UNL     1     138.946 -16.545  80.759  1.00  0.00     0.238 A 
ATOM      4  O   UNL     1     140.096 -16.833  81.183  1.00  0.00    -0.285 OA
ATOM      5  C   UNL     1     138.529 -15.200  80.616  1.00  0.00     0.111 A 
ATOM      6  C   UNL     1     139.360 -14.064  80.847  1.00  0.00     0.134 A 
ATOM      7  C   UNL     1     138.803 -12.780  80.802  1.00  0.00     0.093 A 
ATOM      8  C   UNL     1     137.459 -12.588  80.471  1.00  0.00     0.123 A 
ATOM      9  C   UNL     1     136.654 -13.688  80.186  1.00  0.00     0.094 A 
ATOM     10  C   UNL     1     137.172 -14.984  80.258  1.00  0.00     0.146 A 
ATOM     11  O   UNL     1     136.367 -16.004  79.988  1.00  0.00    -0.452 OA
ENDROOT
BRANCH   1  12
ATOM     12  C   UNL     1     135.762 -18.319  79.698  1.00  0.00     0.021 A 
ATOM     13  C   UNL     1     135.155 -19.070  80.720  1.00  0.00     0.016 A 
ATOM     14  C   UNL     1     134.203 -20.046  80.412  1.00  0.00     0.047 A 
ATOM     15  C   UNL     1     133.834 -20.275  79.083  1.00  0.00     0.115 A 
ATOM     16  C   UNL     1     135.370 -18.541  78.364  1.00  0.00     0.016 A 
ATOM     17  C   UNL     1     134.418 -19.517  78.060  1.00  0.00     0.047 A 
BRANCH  15  18
ATOM     18  O   UNL     1     132.884 -21.251  78.791  1.00  0.00    -0.508 OA
ATOM     19  H   UNL     1     133.043 -22.227  79.012  1.00  0.00     0.293 HD
ENDBRANCH  15  18
ENDBRANCH   1  12
BRANCH   2  20
ATOM     20  O   UNL     1     138.441 -18.923  80.620  1.00  0.00    -0.502 OA
ATOM     21  H   UNL     1     137.923 -19.577  81.194  1.00  0.00     0.293 HD
ENDBRANCH   2  20
BRANCH   6  22
ATOM     22  O   UNL     1     140.734 -14.139  81.094  1.00  0.00    -0.507 OA
ATOM     23  H   UNL     1     141.222 -13.600  81.793  1.00  0.00     0.293 HD
ENDBRANCH   6  22
BRANCH   8  24
ATOM     24  O   UNL     1     136.917 -11.306  80.413  1.00  0.00    -0.508 OA
ATOM     25  H   UNL     1     136.583 -10.834  81.246  1.00  0.00     0.293 HD
ENDBRANCH   8  24
TORSDOF 5
ENDMDL
MODEL 9
REMARK VINA RESULT:    -5.480      3.774      8.097
REMARK INTER + INTRA:          -6.694
REMARK INTER:                  -6.638
REMARK INTRA:                  -0.057
REMARK UNBOUND:                -0.254
REMARK SMILES O=c1c(O)c(-c2ccc(O)cc2)oc2cc(O)cc(O)c12
REMARK SMILES IDX 5 1 3 2 2 3 1 4 21 5 19 6 18 7 16 8 15 9 14 10 13 11 6 12
REMARK SMILES IDX 7 13 8 14 9 15 12 16 11 17 10 18 4 20 20 22 17 24
REMARK H PARENT 10 19 4 21 20 23 17 25
REMARK Flexibility Score: inf
ROOT
ATOM      1  C   UNL     1     134.398 -19.091  76.972  1.00  0.00     0.180 A 
ATOM      2  C   UNL     1     133.184 -18.686  77.552  1.00  0.00     0.208 A 
ATOM      3  C   UNL     1     132.131 -18.284  76.714  1.00  0.00     0.238 A 
ATOM      4  O   UNL     1     131.028 -17.975  77.237  1.00  0.00    -0.285 OA
ATOM      5  C   UNL     1     132.310 -18.275  75.310  1.00  0.00     0.111 A 
ATOM      6  C   UNL     1     131.325 -17.849  74.370  1.00  0.00     0.134 A 
ATOM      7  C   UNL     1     131.566 -18.006  72.999  1.00  0.00     0.093 A 
ATOM      8  C   UNL     1     132.781 -18.514  72.534  1.00  0.00     0.123 A 
ATOM      9  C   UNL     1     133.771 -18.878  73.443  1.00  0.00     0.094 A 
ATOM     10  C   UNL     1     133.547 -18.767  74.818  1.00  0.00     0.146 A 
ATOM     11  O   UNL     1     134.514 -19.134  75.649  1.00  0.00    -0.452 OA
ENDROOT
BRANCH   1  12
ATOM     12  C   UNL     1     135.562 -19.504  77.789  1.00  0.00     0.021 A 
ATOM     13  C   UNL     1     136.763 -18.780  77.698  1.00  0.00     0.016 A 
ATOM     14  C   UNL     1     137.867 -19.140  78.476  1.00  0.00     0.047 A 
ATOM     15  C   UNL     1     137.782 -20.216  79.365  1.00  0.00     0.115 A 
ATOM     16  C   UNL     1     135.476 -20.573  78.700  1.00  0.00     0.016 A 
ATOM     17  C   UNL     1     136.582 -20.930  79.477  1.00  0.00     0.047 A 
BRANCH  15  18
ATOM     18  O   UNL     1     138.890 -20.563  80.134  1.00  0.00    -0.508 OA
ATOM     19  H   UNL     1     139.333 -19.896  80.756  1.00  0.00     0.293 HD
ENDBRANCH  15  18
ENDBRANCH   1  12
BRANCH   2  20
ATOM     20  O   UNL     1     133.020 -18.723  78.938  1.00  0.00    -0.502 OA
ATOM     21  H   UNL     1     133.796 -18.625  79.582  1.00  0.00     0.293 HD
ENDBRANCH   2  20
BRANCH   6  22
ATOM     22  O   UNL     1     130.117 -17.243  74.726  1.00  0.00    -0.507 OA
ATOM     23  H   UNL     1     129.343 -17.091  74.096  1.00  0.00     0.293 HD
ENDBRANCH   6  22
BRANCH   8  24
ATOM     24  O   UNL     1     133.018 -18.653  71.168  1.00  0.00    -0.508 OA
ATOM     25  H   UNL     1     133.943 -18.857  70.808  1.00  0.00     0.293 HD
ENDBRANCH   8  24
TORSDOF 5
ENDMDL
