MODEL 1
REMARK VINA RESULT:    -7.011      0.000      0.000
REMARK INTER + INTRA:          -8.665
REMARK INTER:                  -8.445
REMARK INTRA:                  -0.219
REMARK UNBOUND:                -0.219
REMARK SMILES O=c1c(O)c(-c2ccc(O)c(O)c2)oc2cc(O)cc(O)c12
REMARK SMILES IDX 5 1 3 2 2 3 1 4 22 5 20 6 19 7 17 8 16 9 15 10 14 11 6 12
REMARK SMILES IDX 7 13 8 14 9 15 13 16 11 17 10 18 12 20 4 22 21 24 18 26
REMARK H PARENT 10 19 12 21 4 23 21 25 18 27
REMARK Flexibility Score: inf
ROOT
ATOM      1  C   UNL     1       8.481  84.925  79.573  1.00  0.00     0.180 A 
ATOM      2  C   UNL     1       7.983  84.930  80.887  1.00  0.00     0.208 A 
ATOM      3  C   UNL     1       6.711  84.388  81.134  1.00  0.00     0.238 A 
ATOM      4  O   UNL     1       6.303  84.327  82.323  1.00  0.00    -0.285 OA
ATOM      5  C   UNL     1       5.930  83.902  80.059  1.00  0.00     0.111 A 
ATOM      6  C   UNL     1       4.609  83.373  80.186  1.00  0.00     0.134 A 
ATOM      7  C   UNL     1       3.973  82.824  79.067  1.00  0.00     0.093 A 
ATOM      8  C   UNL     1       4.582  82.840  77.812  1.00  0.00     0.123 A 
ATOM      9  C   UNL     1       5.849  83.404  77.665  1.00  0.00     0.094 A 
ATOM     10  C   UNL     1       6.525  83.925  78.770  1.00  0.00     0.146 A 
ATOM     11  O   UNL     1       7.738  84.433  78.589  1.00  0.00    -0.452 OA
ENDROOT
BRANCH   1  12
ATOM     12  C   UNL     1       9.818  85.464  79.235  1.00  0.00     0.025 A 
ATOM     13  C   UNL     1      10.967  84.774  79.655  1.00  0.00     0.016 A 
ATOM     14  C   UNL     1      12.238  85.274  79.366  1.00  0.00     0.051 A 
ATOM     15  C   UNL     1      12.383  86.476  78.669  1.00  0.00     0.157 A 
ATOM     16  C   UNL     1       9.966  86.685  78.553  1.00  0.00     0.062 A 
ATOM     17  C   UNL     1      11.243  87.189  78.264  1.00  0.00     0.158 A 
BRANCH  15  18
ATOM     18  O   UNL     1      13.666  86.950  78.393  1.00  0.00    -0.504 OA
ATOM     19  H   UNL     1      14.444  86.796  79.024  1.00  0.00     0.293 HD
ENDBRANCH  15  18
BRANCH  17  20
ATOM     20  O   UNL     1      11.379  88.397  77.581  1.00  0.00    -0.504 OA
ATOM     21  H   UNL     1      11.780  88.438  76.651  1.00  0.00     0.293 HD
ENDBRANCH  17  20
ENDBRANCH   1  12
BRANCH   2  22
ATOM     22  O   UNL     1       8.738  85.484  81.924  1.00  0.00    -0.502 OA
ATOM     23  H   UNL     1       9.043  86.449  81.920  1.00  0.00     0.293 HD
ENDBRANCH   2  22
BRANCH   6  24
ATOM     24  O   UNL     1       3.873  83.387  81.375  1.00  0.00    -0.507 OA
ATOM     25  H   UNL     1       4.270  83.419  82.302  1.00  0.00     0.293 HD
ENDBRANCH   6  24
BRANCH   8  26
ATOM     26  O   UNL     1       3.912  82.300  76.717  1.00  0.00    -0.508 OA
ATOM     27  H   UNL     1       3.085  81.725  76.831  1.00  0.00     0.293 HD
ENDBRANCH   8  26
TORSDOF 6
ENDMDL
MODEL 2
REMARK VINA RESULT:    -6.794      9.165     11.048
REMARK INTER + INTRA:          -8.404
REMARK INTER:                  -8.080
REMARK INTRA:                  -0.324
REMARK UNBOUND:                -0.219
REMARK SMILES O=c1c(O)c(-c2ccc(O)c(O)c2)oc2cc(O)cc(O)c12
REMARK SMILES IDX 5 1 3 2 2 3 1 4 22 5 20 6 19 7 17 8 16 9 15 10 14 11 6 12
REMARK SMILES IDX 7 13 8 14 9 15 13 16 11 17 10 18 12 20 4 22 21 24 18 26
REMARK H PARENT 10 19 12 21 4 23 21 25 18 27
REMARK Flexibility Score: inf
ROOT
ATOM      1  C   UNL     1       0.349  82.088  73.575  1.00  0.00     0.180 A 
ATOM      2  C   UNL     1       1.558  81.840  74.245  1.00  0.00     0.208 A 
ATOM      3  C   UNL     1       1.818  80.545  74.724  1.00  0.00     0.238 A 
ATOM      4  O   UNL     1       2.934  80.312  75.257  1.00  0.00    -0.285 OA
ATOM      5  C   UNL     1       0.842  79.530  74.577  1.00  0.00     0.111 A 
ATOM      6  C   UNL     1       0.978  78.194  75.064  1.00  0.00     0.134 A 
ATOM      7  C   UNL     1      -0.008  77.246  74.767  1.00  0.00     0.093 A 
ATOM      8  C   UNL     1      -1.156  77.598  74.057  1.00  0.00     0.123 A 
ATOM      9  C   UNL     1      -1.326  78.913  73.625  1.00  0.00     0.094 A 
ATOM     10  C   UNL     1      -0.341  79.873  73.872  1.00  0.00     0.146 A 
ATOM     11  O   UNL     1      -0.534  81.107  73.424  1.00  0.00    -0.452 OA
ENDROOT
BRANCH   1  12
ATOM     12  C   UNL     1       0.010  83.421  73.029  1.00  0.00     0.025 A 
ATOM     13  C   UNL     1      -0.833  84.274  73.761  1.00  0.00     0.016 A 
ATOM     14  C   UNL     1      -1.182  85.528  73.255  1.00  0.00     0.051 A 
ATOM     15  C   UNL     1      -0.711  85.945  72.008  1.00  0.00     0.157 A 
ATOM     16  C   UNL     1       0.466  83.834  71.764  1.00  0.00     0.062 A 
ATOM     17  C   UNL     1       0.114  85.093  71.255  1.00  0.00     0.158 A 
BRANCH  15  18
ATOM     18  O   UNL     1      -1.076  87.203  71.530  1.00  0.00    -0.504 OA
ATOM     19  H   UNL     1      -0.541  88.037  71.745  1.00  0.00     0.293 HD
ENDBRANCH  15  18
BRANCH  17  20
ATOM     20  O   UNL     1       0.577  85.495  70.003  1.00  0.00    -0.504 OA
ATOM     21  H   UNL     1       1.175  84.901  69.442  1.00  0.00     0.293 HD
ENDBRANCH  17  20
ENDBRANCH   1  12
BRANCH   2  22
ATOM     22  O   UNL     1       2.476  82.873  74.448  1.00  0.00    -0.502 OA
ATOM     23  H   UNL     1       3.120  82.884  75.229  1.00  0.00     0.293 HD
ENDBRANCH   2  22
BRANCH   6  24
ATOM     24  O   UNL     1       2.042  77.756  75.858  1.00  0.00    -0.507 OA
ATOM     25  H   UNL     1       2.422  78.259  76.646  1.00  0.00     0.293 HD
ENDBRANCH   6  24
BRANCH   8  26
ATOM     26  O   UNL     1      -2.125  76.632  73.795  1.00  0.00    -0.508 OA
ATOM     27  H   UNL     1      -3.107  76.804  73.977  1.00  0.00     0.293 HD
ENDBRANCH   8  26
TORSDOF 6
ENDMDL
MODEL 3
REMARK VINA RESULT:    -6.784      9.939     11.643
REMARK INTER + INTRA:          -8.392
REMARK INTER:                  -8.078
REMARK INTRA:                  -0.314
REMARK UNBOUND:                -0.219
REMARK SMILES O=c1c(O)c(-c2ccc(O)c(O)c2)oc2cc(O)cc(O)c12
REMARK SMILES IDX 5 1 3 2 2 3 1 4 22 5 20 6 19 7 17 8 16 9 15 10 14 11 6 12
REMARK SMILES IDX 7 13 8 14 9 15 13 16 11 17 10 18 12 20 4 22 21 24 18 26
REMARK H PARENT 10 19 12 21 4 23 21 25 18 27
REMARK Flexibility Score: inf
ROOT
ATOM      1  C   UNL     1      -0.180  82.333  73.715  1.00  0.00     0.180 A 
ATOM      2  C   UNL     1      -0.816  83.204  74.616  1.00  0.00     0.208 A 
ATOM      3  C   UNL     1      -1.022  84.541  74.240  1.00  0.00     0.238 A 
ATOM      4  O   UNL     1      -1.659  85.295  75.021  1.00  0.00    -0.285 OA
ATOM      5  C   UNL     1      -0.540  85.006  72.993  1.00  0.00     0.111 A 
ATOM      6  C   UNL     1      -0.652  86.351  72.528  1.00  0.00     0.134 A 
ATOM      7  C   UNL     1      -0.232  86.672  71.231  1.00  0.00     0.093 A 
ATOM      8  C   UNL     1       0.354  85.713  70.406  1.00  0.00     0.123 A 
ATOM      9  C   UNL     1       0.520  84.408  70.870  1.00  0.00     0.094 A 
ATOM     10  C   UNL     1       0.075  84.048  72.145  1.00  0.00     0.146 A 
ATOM     11  O   UNL     1       0.233  82.790  72.538  1.00  0.00    -0.452 OA
ENDROOT
BRANCH   1  12
ATOM     12  C   UNL     1       0.059  80.908  74.032  1.00  0.00     0.025 A 
ATOM     13  C   UNL     1      -0.965  79.971  73.819  1.00  0.00     0.016 A 
ATOM     14  C   UNL     1      -0.769  78.624  74.131  1.00  0.00     0.051 A 
ATOM     15  C   UNL     1       0.445  78.193  74.674  1.00  0.00     0.157 A 
ATOM     16  C   UNL     1       1.272  80.476  74.599  1.00  0.00     0.062 A 
ATOM     17  C   UNL     1       1.470  79.123  74.915  1.00  0.00     0.158 A 
BRANCH  15  18
ATOM     18  O   UNL     1       0.612  76.841  74.974  1.00  0.00    -0.504 OA
ATOM     19  H   UNL     1       1.475  76.348  74.774  1.00  0.00     0.293 HD
ENDBRANCH  15  18
BRANCH  17  20
ATOM     20  O   UNL     1       2.678  78.704  75.469  1.00  0.00    -0.504 OA
ATOM     21  H   UNL     1       2.741  78.392  76.431  1.00  0.00     0.293 HD
ENDBRANCH  17  20
ENDBRANCH   1  12
BRANCH   2  22
ATOM     22  O   UNL     1      -1.217  82.745  75.874  1.00  0.00    -0.502 OA
ATOM     23  H   UNL     1      -0.586  82.271  76.507  1.00  0.00     0.293 HD
ENDBRANCH   2  22
BRANCH   6  24
ATOM     24  O   UNL     1      -1.142  87.408  73.301  1.00  0.00    -0.507 OA
ATOM     25  H   UNL     1      -1.215  88.366  72.993  1.00  0.00     0.293 HD
ENDBRANCH   6  24
BRANCH   8  26
ATOM     26  O   UNL     1       0.776  86.072  69.128  1.00  0.00    -0.508 OA
ATOM     27  H   UNL     1       0.909  85.380  68.400  1.00  0.00     0.293 HD
ENDBRANCH   8  26
TORSDOF 6
ENDMDL
MODEL 4
REMARK VINA RESULT:    -6.701      8.735     11.361
REMARK INTER + INTRA:          -8.291
REMARK INTER:                  -8.100
REMARK INTRA:                  -0.192
REMARK UNBOUND:                -0.219
REMARK SMILES O=c1c(O)c(-c2ccc(O)c(O)c2)oc2cc(O)cc(O)c12
REMARK SMILES IDX 5 1 3 2 2 3 1 4 22 5 20 6 19 7 17 8 16 9 15 10 14 11 6 12
REMARK SMILES IDX 7 13 8 14 9 15 13 16 11 17 10 18 12 20 4 22 21 24 18 26
REMARK H PARENT 10 19 12 21 4 23 21 25 18 27
REMARK Flexibility Score: inf
ROOT
ATOM      1  C   UNL     1       0.003  84.105  72.408  1.00  0.00     0.180 A 
ATOM      2  C   UNL     1      -1.080  83.266  72.095  1.00  0.00     0.208 A 
ATOM      3  C   UNL     1      -1.097  81.958  72.604  1.00  0.00     0.238 A 
ATOM      4  O   UNL     1      -2.104  81.237  72.382  1.00  0.00    -0.285 OA
ATOM      5  C   UNL     1      -0.005  81.485  73.371  1.00  0.00     0.111 A 
ATOM      6  C   UNL     1       0.106  80.163  73.900  1.00  0.00     0.134 A 
ATOM      7  C   UNL     1       1.184  79.840  74.734  1.00  0.00     0.093 A 
ATOM      8  C   UNL     1       2.187  80.769  75.008  1.00  0.00     0.123 A 
ATOM      9  C   UNL     1       2.117  82.047  74.453  1.00  0.00     0.094 A 
ATOM     10  C   UNL     1       1.035  82.411  73.648  1.00  0.00     0.146 A 
ATOM     11  O   UNL     1       0.998  83.644  73.157  1.00  0.00    -0.452 OA
ENDROOT
BRANCH   1  12
ATOM     12  C   UNL     1       0.085  85.500  71.921  1.00  0.00     0.025 A 
ATOM     13  C   UNL     1      -0.053  86.559  72.833  1.00  0.00     0.016 A 
ATOM     14  C   UNL     1      -0.000  87.883  72.394  1.00  0.00     0.051 A 
ATOM     15  C   UNL     1       0.175  88.172  71.038  1.00  0.00     0.157 A 
ATOM     16  C   UNL     1       0.240  85.792  70.554  1.00  0.00     0.062 A 
ATOM     17  C   UNL     1       0.291  87.123  70.111  1.00  0.00     0.158 A 
BRANCH  15  18
ATOM     18  O   UNL     1       0.226  89.505  70.629  1.00  0.00    -0.504 OA
ATOM     19  H   UNL     1       0.999  90.113  70.870  1.00  0.00     0.293 HD
ENDBRANCH  15  18
BRANCH  17  20
ATOM     20  O   UNL     1       0.452  87.403  68.755  1.00  0.00    -0.504 OA
ATOM     21  H   UNL     1       1.085  86.867  68.174  1.00  0.00     0.293 HD
ENDBRANCH  17  20
ENDBRANCH   1  12
BRANCH   2  22
ATOM     22  O   UNL     1      -2.112  83.726  71.273  1.00  0.00    -0.502 OA
ATOM     23  H   UNL     1      -1.946  84.087  70.342  1.00  0.00     0.293 HD
ENDBRANCH   2  22
BRANCH   6  24
ATOM     24  O   UNL     1      -0.793  79.130  73.619  1.00  0.00    -0.507 OA
ATOM     25  H   UNL     1      -1.173  78.926  72.707  1.00  0.00     0.293 HD
ENDBRANCH   6  24
BRANCH   8  26
ATOM     26  O   UNL     1       3.253  80.408  75.829  1.00  0.00    -0.508 OA
ATOM     27  H   UNL     1       4.165  80.838  75.733  1.00  0.00     0.293 HD
ENDBRANCH   8  26
TORSDOF 6
ENDMDL
MODEL 5
REMARK VINA RESULT:    -6.407      9.851     11.440
REMARK INTER + INTRA:          -7.937
REMARK INTER:                  -7.621
REMARK INTRA:                  -0.316
REMARK UNBOUND:                -0.219
REMARK SMILES O=c1c(O)c(-c2ccc(O)c(O)c2)oc2cc(O)cc(O)c12
REMARK SMILES IDX 5 1 3 2 2 3 1 4 22 5 20 6 19 7 17 8 16 9 15 10 14 11 6 12
REMARK SMILES IDX 7 13 8 14 9 15 13 16 11 17 10 18 12 20 4 22 21 24 18 26
REMARK H PARENT 10 19 12 21 4 23 21 25 18 27
REMARK Flexibility Score: inf
ROOT
ATOM      1  C   UNL     1       0.121  80.299  74.024  1.00  0.00     0.180 A 
ATOM      2  C   UNL     1      -0.931  79.381  73.861  1.00  0.00     0.208 A 
ATOM      3  C   UNL     1      -0.754  78.058  74.298  1.00  0.00     0.238 A 
ATOM      4  O   UNL     1      -1.725  77.261  74.218  1.00  0.00    -0.285 OA
ATOM      5  C   UNL     1       0.491  77.655  74.840  1.00  0.00     0.111 A 
ATOM      6  C   UNL     1       0.798  76.329  75.274  1.00  0.00     0.134 A 
ATOM      7  C   UNL     1       2.027  76.071  75.891  1.00  0.00     0.093 A 
ATOM      8  C   UNL     1       2.986  77.074  76.034  1.00  0.00     0.123 A 
ATOM      9  C   UNL     1       2.719  78.359  75.565  1.00  0.00     0.094 A 
ATOM     10  C   UNL     1       1.486  78.657  74.979  1.00  0.00     0.146 A 
ATOM     11  O   UNL     1       1.266  79.899  74.565  1.00  0.00    -0.452 OA
ENDROOT
BRANCH   1  12
ATOM     12  C   UNL     1       0.005  81.712  73.602  1.00  0.00     0.025 A 
ATOM     13  C   UNL     1       0.589  82.123  72.392  1.00  0.00     0.016 A 
ATOM     14  C   UNL     1       0.509  83.456  71.984  1.00  0.00     0.051 A 
ATOM     15  C   UNL     1      -0.138  84.403  72.783  1.00  0.00     0.157 A 
ATOM     16  C   UNL     1      -0.627  82.671  74.414  1.00  0.00     0.062 A 
ATOM     17  C   UNL     1      -0.706  84.011  74.007  1.00  0.00     0.158 A 
BRANCH  15  18
ATOM     18  O   UNL     1      -0.202  85.727  72.348  1.00  0.00    -0.504 OA
ATOM     19  H   UNL     1       0.196  86.489  72.884  1.00  0.00     0.293 HD
ENDBRANCH  15  18
BRANCH  17  20
ATOM     20  O   UNL     1      -1.340  84.952  74.815  1.00  0.00    -0.504 OA
ATOM     21  H   UNL     1      -1.391  84.841  75.821  1.00  0.00     0.293 HD
ENDBRANCH  17  20
ENDBRANCH   1  12
BRANCH   2  22
ATOM     22  O   UNL     1      -2.125  79.779  73.254  1.00  0.00    -0.502 OA
ATOM     23  H   UNL     1      -2.281  80.724  72.928  1.00  0.00     0.293 HD
ENDBRANCH   2  22
BRANCH   6  24
ATOM     24  O   UNL     1      -0.053  75.233  75.100  1.00  0.00    -0.507 OA
ATOM     25  H   UNL     1       0.161  74.416  74.547  1.00  0.00     0.293 HD
ENDBRANCH   6  24
BRANCH   8  26
ATOM     26  O   UNL     1       4.206  76.777  76.638  1.00  0.00    -0.508 OA
ATOM     27  H   UNL     1       4.652  77.424  77.278  1.00  0.00     0.293 HD
ENDBRANCH   8  26
TORSDOF 6
ENDMDL
MODEL 6
REMARK VINA RESULT:    -6.350      1.896      7.261
REMARK INTER + INTRA:          -7.868
REMARK INTER:                  -7.549
REMARK INTRA:                  -0.319
REMARK UNBOUND:                -0.219
REMARK SMILES O=c1c(O)c(-c2ccc(O)c(O)c2)oc2cc(O)cc(O)c12
REMARK SMILES IDX 5 1 3 2 2 3 1 4 22 5 20 6 19 7 17 8 16 9 15 10 14 11 6 12
REMARK SMILES IDX 7 13 8 14 9 15 13 16 11 17 10 18 12 20 4 22 21 24 18 26
REMARK H PARENT 10 19 12 21 4 23 21 25 18 27
REMARK Flexibility Score: inf
ROOT
ATOM      1  C   UNL     1       7.709  86.254  78.378  1.00  0.00     0.180 A 
ATOM      2  C   UNL     1       7.326  87.482  77.810  1.00  0.00     0.208 A 
ATOM      3  C   UNL     1       8.320  88.410  77.461  1.00  0.00     0.238 A 
ATOM      4  O   UNL     1       7.975  89.475  76.885  1.00  0.00    -0.285 OA
ATOM      5  C   UNL     1       9.679  88.126  77.736  1.00  0.00     0.111 A 
ATOM      6  C   UNL     1      10.766  89.012  77.467  1.00  0.00     0.134 A 
ATOM      7  C   UNL     1      12.080  88.580  77.684  1.00  0.00     0.093 A 
ATOM      8  C   UNL     1      12.345  87.320  78.219  1.00  0.00     0.123 A 
ATOM      9  C   UNL     1      11.289  86.466  78.537  1.00  0.00     0.094 A 
ATOM     10  C   UNL     1       9.969  86.854  78.297  1.00  0.00     0.146 A 
ATOM     11  O   UNL     1       8.995  86.002  78.595  1.00  0.00    -0.452 OA
ENDROOT
BRANCH   1  12
ATOM     12  C   UNL     1       6.722  85.220  78.758  1.00  0.00     0.025 A 
ATOM     13  C   UNL     1       6.276  84.303  77.792  1.00  0.00     0.016 A 
ATOM     14  C   UNL     1       5.329  83.331  78.124  1.00  0.00     0.051 A 
ATOM     15  C   UNL     1       4.801  83.269  79.416  1.00  0.00     0.157 A 
ATOM     16  C   UNL     1       6.174  85.169  80.052  1.00  0.00     0.062 A 
ATOM     17  C   UNL     1       5.221  84.195  80.385  1.00  0.00     0.158 A 
BRANCH  15  18
ATOM     18  O   UNL     1       3.858  82.286  79.717  1.00  0.00    -0.504 OA
ATOM     19  H   UNL     1       4.125  81.334  79.941  1.00  0.00     0.293 HD
ENDBRANCH  15  18
BRANCH  17  20
ATOM     20  O   UNL     1       4.688  84.148  81.672  1.00  0.00    -0.504 OA
ATOM     21  H   UNL     1       4.709  83.299  82.225  1.00  0.00     0.293 HD
ENDBRANCH  17  20
ENDBRANCH   1  12
BRANCH   2  22
ATOM     22  O   UNL     1       5.974  87.776  77.617  1.00  0.00    -0.502 OA
ATOM     23  H   UNL     1       5.559  88.650  77.914  1.00  0.00     0.293 HD
ENDBRANCH   2  22
BRANCH   6  24
ATOM     24  O   UNL     1      10.611  90.325  77.014  1.00  0.00    -0.507 OA
ATOM     25  H   UNL     1      11.333  91.030  77.021  1.00  0.00     0.293 HD
ENDBRANCH   6  24
BRANCH   8  26
ATOM     26  O   UNL     1      13.665  86.930  78.438  1.00  0.00    -0.508 OA
ATOM     27  H   UNL     1      14.215  87.322  79.193  1.00  0.00     0.293 HD
ENDBRANCH   8  26
TORSDOF 6
ENDMDL
MODEL 7
REMARK VINA RESULT:    -6.321      1.711      7.031
REMARK INTER + INTRA:          -7.834
REMARK INTER:                  -7.523
REMARK INTRA:                  -0.311
REMARK UNBOUND:                -0.219
REMARK SMILES O=c1c(O)c(-c2ccc(O)c(O)c2)oc2cc(O)cc(O)c12
REMARK SMILES IDX 5 1 3 2 2 3 1 4 22 5 20 6 19 7 17 8 16 9 15 10 14 11 6 12
REMARK SMILES IDX 7 13 8 14 9 15 13 16 11 17 10 18 12 20 4 22 21 24 18 26
REMARK H PARENT 10 19 12 21 4 23 21 25 18 27
REMARK Flexibility Score: inf
ROOT
ATOM      1  C   UNL     1       8.176  85.506  78.573  1.00  0.00     0.180 A 
ATOM      2  C   UNL     1       9.441  84.944  78.814  1.00  0.00     0.208 A 
ATOM      3  C   UNL     1      10.587  85.721  78.578  1.00  0.00     0.238 A 
ATOM      4  O   UNL     1      11.713  85.239  78.867  1.00  0.00    -0.285 OA
ATOM      5  C   UNL     1      10.456  87.028  78.050  1.00  0.00     0.111 A 
ATOM      6  C   UNL     1      11.550  87.889  77.729  1.00  0.00     0.134 A 
ATOM      7  C   UNL     1      11.298  89.201  77.311  1.00  0.00     0.093 A 
ATOM      8  C   UNL     1       9.994  89.665  77.141  1.00  0.00     0.123 A 
ATOM      9  C   UNL     1       8.918  88.816  77.399  1.00  0.00     0.094 A 
ATOM     10  C   UNL     1       9.137  87.514  77.854  1.00  0.00     0.146 A 
ATOM     11  O   UNL     1       8.084  86.746  78.107  1.00  0.00    -0.452 OA
ENDROOT
BRANCH   1  12
ATOM     12  C   UNL     1       6.923  84.756  78.811  1.00  0.00     0.025 A 
ATOM     13  C   UNL     1       6.384  84.705  80.107  1.00  0.00     0.016 A 
ATOM     14  C   UNL     1       5.214  83.986  80.360  1.00  0.00     0.051 A 
ATOM     15  C   UNL     1       4.572  83.294  79.329  1.00  0.00     0.157 A 
ATOM     16  C   UNL     1       6.288  84.041  77.780  1.00  0.00     0.062 A 
ATOM     17  C   UNL     1       5.113  83.316  78.033  1.00  0.00     0.158 A 
BRANCH  15  18
ATOM     18  O   UNL     1       3.404  82.586  79.611  1.00  0.00    -0.504 OA
ATOM     19  H   UNL     1       2.624  83.008  80.100  1.00  0.00     0.293 HD
ENDBRANCH  15  18
BRANCH  17  20
ATOM     20  O   UNL     1       4.487  82.617  77.003  1.00  0.00    -0.504 OA
ATOM     21  H   UNL     1       3.491  82.697  76.835  1.00  0.00     0.293 HD
ENDBRANCH  17  20
ENDBRANCH   1  12
BRANCH   2  22
ATOM     22  O   UNL     1       9.553  83.626  79.263  1.00  0.00    -0.502 OA
ATOM     23  H   UNL     1       8.764  83.107  79.628  1.00  0.00     0.293 HD
ENDBRANCH   2  22
BRANCH   6  24
ATOM     24  O   UNL     1      12.892  87.500  77.778  1.00  0.00    -0.507 OA
ATOM     25  H   UNL     1      13.676  88.132  77.839  1.00  0.00     0.293 HD
ENDBRANCH   6  24
BRANCH   8  26
ATOM     26  O   UNL     1       9.780  90.972  76.708  1.00  0.00    -0.508 OA
ATOM     27  H   UNL     1       9.825  91.756  77.348  1.00  0.00     0.293 HD
ENDBRANCH   8  26
TORSDOF 6
ENDMDL
MODEL 8
REMARK VINA RESULT:    -6.317      9.472     11.234
REMARK INTER + INTRA:          -7.829
REMARK INTER:                  -7.515
REMARK INTRA:                  -0.314
REMARK UNBOUND:                -0.219
REMARK SMILES O=c1c(O)c(-c2ccc(O)c(O)c2)oc2cc(O)cc(O)c12
REMARK SMILES IDX 5 1 3 2 2 3 1 4 22 5 20 6 19 7 17 8 16 9 15 10 14 11 6 12
REMARK SMILES IDX 7 13 8 14 9 15 13 16 11 17 10 18 12 20 4 22 21 24 18 26
REMARK H PARENT 10 19 12 21 4 23 21 25 18 27
REMARK Flexibility Score: inf
ROOT
ATOM      1  C   UNL     1       0.607  79.984  74.464  1.00  0.00     0.180 A 
ATOM      2  C   UNL     1       1.833  79.647  75.064  1.00  0.00     0.208 A 
ATOM      3  C   UNL     1       2.073  78.310  75.418  1.00  0.00     0.238 A 
ATOM      4  O   UNL     1       3.200  78.003  75.886  1.00  0.00    -0.285 OA
ATOM      5  C   UNL     1       1.064  77.336  75.222  1.00  0.00     0.111 A 
ATOM      6  C   UNL     1       1.181  75.959  75.585  1.00  0.00     0.134 A 
ATOM      7  C   UNL     1       0.158  75.066  75.245  1.00  0.00     0.093 A 
ATOM      8  C   UNL     1      -1.004  75.508  74.612  1.00  0.00     0.123 A 
ATOM      9  C   UNL     1      -1.153  76.859  74.302  1.00  0.00     0.094 A 
ATOM     10  C   UNL     1      -0.133  77.769  74.594  1.00  0.00     0.146 A 
ATOM     11  O   UNL     1      -0.307  79.042  74.262  1.00  0.00    -0.452 OA
ENDROOT
BRANCH   1  12
ATOM     12  C   UNL     1       0.287  81.368  74.049  1.00  0.00     0.025 A 
ATOM     13  C   UNL     1       0.733  81.836  72.803  1.00  0.00     0.016 A 
ATOM     14  C   UNL     1       0.460  83.145  72.400  1.00  0.00     0.051 A 
ATOM     15  C   UNL     1      -0.247  84.011  73.239  1.00  0.00     0.157 A 
ATOM     16  C   UNL     1      -0.405  82.247  74.901  1.00  0.00     0.062 A 
ATOM     17  C   UNL     1      -0.678  83.563  74.498  1.00  0.00     0.158 A 
BRANCH  15  18
ATOM     18  O   UNL     1      -0.505  85.312  72.808  1.00  0.00    -0.504 OA
ATOM     19  H   UNL     1      -0.932  85.507  71.910  1.00  0.00     0.293 HD
ENDBRANCH  15  18
BRANCH  17  20
ATOM     20  O   UNL     1      -1.371  84.425  75.346  1.00  0.00    -0.504 OA
ATOM     21  H   UNL     1      -1.519  85.398  75.109  1.00  0.00     0.293 HD
ENDBRANCH  17  20
ENDBRANCH   1  12
BRANCH   2  22
ATOM     22  O   UNL     1       2.786  80.636  75.321  1.00  0.00    -0.502 OA
ATOM     23  H   UNL     1       3.150  81.242  74.596  1.00  0.00     0.293 HD
ENDBRANCH   2  22
BRANCH   6  24
ATOM     24  O   UNL     1       2.260  75.427  76.297  1.00  0.00    -0.507 OA
ATOM     25  H   UNL     1       2.968  74.822  75.908  1.00  0.00     0.293 HD
ENDBRANCH   6  24
BRANCH   8  26
ATOM     26  O   UNL     1      -2.009  74.593  74.304  1.00  0.00    -0.508 OA
ATOM     27  H   UNL     1      -2.988  74.847  74.347  1.00  0.00     0.293 HD
ENDBRANCH   8  26
TORSDOF 6
ENDMDL
