MODEL 1
REMARK VINA RESULT:    -7.262      0.000      0.000
REMARK INTER + INTRA:          -9.157
REMARK INTER:                  -8.536
REMARK INTRA:                  -0.621
REMARK UNBOUND:                -0.621
REMARK SMILES C=C(C)[C@H]1CC[C@]2(CO)CC[C@]3(C)[C@@H](CC[C@@H]4[C@]5(C)CC[C@H](O)C(C)(C)[C@@H]5CC[C@]43C)[C@H]12
REMARK SMILES IDX 4 1 5 2 6 3 7 4 32 5 14 6 15 7 16 8 17 9 18 10 20 11 21 12
REMARK SMILES IDX 22 13 24 14 27 15 28 16 29 17 30 18 12 19 11 20 10 21 13 22
REMARK SMILES IDX 31 23 25 24 26 25 19 26 2 27 3 28 1 29 8 30 9 31 23 33
REMARK H PARENT 9 32 23 34
REMARK Flexibility Score: inf
ROOT
ATOM      1  C   UNL     1     -15.001  29.337  -8.387  1.00  0.00     0.018 C 
ATOM      2  C   UNL     1     -13.612  29.543  -8.971  1.00  0.00     0.009 C 
ATOM      3  C   UNL     1     -13.123  30.838  -8.346  1.00  0.00     0.010 C 
ATOM      4  C   UNL     1     -14.370  31.751  -8.151  1.00  0.00    -0.003 C 
ATOM      5  C   UNL     1     -15.589  30.756  -8.230  1.00  0.00     0.008 C 
ATOM      6  C   UNL     1     -16.707  30.849  -7.125  1.00  0.00    -0.000 C 
ATOM      7  C   UNL     1     -17.875  31.729  -7.686  1.00  0.00     0.005 C 
ATOM      8  C   UNL     1     -18.840  32.283  -6.630  1.00  0.00     0.005 C 
ATOM      9  C   UNL     1     -18.896  31.332  -5.421  1.00  0.00     0.002 C 
ATOM     10  C   UNL     1     -20.249  31.347  -4.580  1.00  0.00    -0.026 C 
ATOM     11  C   UNL     1     -20.647  32.803  -4.144  1.00  0.00     0.010 C 
ATOM     12  C   UNL     1     -21.107  32.918  -2.687  1.00  0.00     0.033 C 
ATOM     13  C   UNL     1     -22.101  31.801  -2.352  1.00  0.00     0.120 C 
ATOM     14  C   UNL     1     -21.387  30.398  -2.315  1.00  0.00    -0.006 C 
ATOM     15  C   UNL     1     -20.158  30.322  -3.355  1.00  0.00     0.003 C 
ATOM     16  C   UNL     1     -18.766  30.311  -2.661  1.00  0.00     0.005 C 
ATOM     17  C   UNL     1     -17.576  30.248  -3.625  1.00  0.00     0.008 C 
ATOM     18  C   UNL     1     -17.518  31.426  -4.646  1.00  0.00    -0.024 C 
ATOM     19  C   UNL     1     -16.236  31.309  -5.694  1.00  0.00    -0.024 C 
ATOM     20  C   UNL     1     -15.494  32.670  -5.943  1.00  0.00     0.008 C 
ATOM     21  C   UNL     1     -14.233  32.570  -6.818  1.00  0.00     0.010 C 
ATOM     22  C   UNL     1     -15.179  30.307  -5.125  1.00  0.00     0.012 C 
ATOM     23  C   UNL     1     -17.388  32.739  -3.807  1.00  0.00     0.012 C 
ATOM     24  C   UNL     1     -20.952  30.081  -0.848  1.00  0.00     0.014 C 
ATOM     25  C   UNL     1     -22.431  29.302  -2.666  1.00  0.00     0.014 C 
ATOM     26  C   UNL     1     -21.386  30.809  -5.524  1.00  0.00     0.012 C 
ENDROOT
BRANCH   1  27
ATOM     27  C   UNL     1     -15.869  28.395  -9.224  1.00  0.00    -0.077 C 
ATOM     28  C   UNL     1     -16.285  27.061  -8.660  1.00  0.00     0.039 C 
ATOM     29  C   UNL     1     -16.287  28.722 -10.460  1.00  0.00     0.008 C 
ENDBRANCH   1  27
BRANCH   4  30
ATOM     30  C   UNL     1     -14.405  32.750  -9.352  1.00  0.00     0.163 C 
BRANCH  30  31
ATOM     31  O   UNL     1     -15.594  32.623 -10.083  1.00  0.00    -0.396 OA
ATOM     32  H   UNL     1     -16.169  31.945  -9.626  1.00  0.00     0.210 HD
ENDBRANCH  30  31
ENDBRANCH   4  30
BRANCH  13  33
ATOM     33  O   UNL     1     -22.745  32.085  -1.133  1.00  0.00    -0.393 OA
ATOM     34  H   UNL     1     -23.638  32.460  -1.349  1.00  0.00     0.210 HD
ENDBRANCH  13  33
TORSDOF 4
ENDMDL
MODEL 2
REMARK VINA RESULT:    -7.258      2.009      7.792
REMARK INTER + INTRA:          -9.152
REMARK INTER:                  -8.575
REMARK INTRA:                  -0.577
REMARK UNBOUND:                -0.621
REMARK SMILES C=C(C)[C@H]1CC[C@]2(CO)CC[C@]3(C)[C@@H](CC[C@@H]4[C@]5(C)CC[C@H](O)C(C)(C)[C@@H]5CC[C@]43C)[C@H]12
REMARK SMILES IDX 4 1 5 2 6 3 7 4 32 5 14 6 15 7 16 8 17 9 18 10 20 11 21 12
REMARK SMILES IDX 22 13 24 14 27 15 28 16 29 17 30 18 12 19 11 20 10 21 13 22
REMARK SMILES IDX 31 23 25 24 26 25 19 26 2 27 3 28 1 29 8 30 9 31 23 33
REMARK H PARENT 9 32 23 34
REMARK Flexibility Score: inf
ROOT
ATOM      1  C   UNL     1     -22.635  30.556  -4.483  1.00  0.00     0.018 C 
ATOM      2  C   UNL     1     -23.803  30.633  -3.512  1.00  0.00     0.009 C 
ATOM      3  C   UNL     1     -23.159  30.623  -2.136  1.00  0.00     0.010 C 
ATOM      4  C   UNL     1     -21.882  29.736  -2.237  1.00  0.00    -0.003 C 
ATOM      5  C   UNL     1     -21.585  29.666  -3.783  1.00  0.00     0.008 C 
ATOM      6  C   UNL     1     -20.115  29.930  -4.278  1.00  0.00    -0.000 C 
ATOM      7  C   UNL     1     -19.405  28.545  -4.463  1.00  0.00     0.005 C 
ATOM      8  C   UNL     1     -17.874  28.599  -4.522  1.00  0.00     0.005 C 
ATOM      9  C   UNL     1     -17.419  29.955  -5.091  1.00  0.00     0.002 C 
ATOM     10  C   UNL     1     -16.010  29.964  -5.837  1.00  0.00    -0.026 C 
ATOM     11  C   UNL     1     -14.876  29.341  -4.945  1.00  0.00     0.010 C 
ATOM     12  C   UNL     1     -13.568  30.139  -4.945  1.00  0.00     0.033 C 
ATOM     13  C   UNL     1     -13.184  30.533  -6.375  1.00  0.00     0.120 C 
ATOM     14  C   UNL     1     -14.175  31.612  -6.952  1.00  0.00    -0.006 C 
ATOM     15  C   UNL     1     -15.665  31.434  -6.363  1.00  0.00     0.003 C 
ATOM     16  C   UNL     1     -16.068  32.558  -5.365  1.00  0.00     0.005 C 
ATOM     17  C   UNL     1     -17.477  32.412  -4.779  1.00  0.00     0.008 C 
ATOM     18  C   UNL     1     -17.716  31.075  -4.013  1.00  0.00    -0.024 C 
ATOM     19  C   UNL     1     -19.260  30.937  -3.420  1.00  0.00    -0.024 C 
ATOM     20  C   UNL     1     -19.331  30.367  -1.959  1.00  0.00     0.008 C 
ATOM     21  C   UNL     1     -20.740  30.337  -1.343  1.00  0.00     0.010 C 
ATOM     22  C   UNL     1     -19.944  32.343  -3.398  1.00  0.00     0.012 C 
ATOM     23  C   UNL     1     -16.697  31.053  -2.826  1.00  0.00     0.012 C 
ATOM     24  C   UNL     1     -13.593  33.038  -6.692  1.00  0.00     0.014 C 
ATOM     25  C   UNL     1     -14.212  31.473  -8.499  1.00  0.00     0.014 C 
ATOM     26  C   UNL     1     -16.157  29.059  -7.115  1.00  0.00     0.012 C 
ENDROOT
BRANCH   1  27
ATOM     27  C   UNL     1     -23.043  30.061  -5.872  1.00  0.00    -0.077 C 
ATOM     28  C   UNL     1     -22.229  30.456  -7.077  1.00  0.00     0.039 C 
ATOM     29  C   UNL     1     -24.112  29.266  -6.058  1.00  0.00     0.008 C 
ENDBRANCH   1  27
BRANCH   4  30
ATOM     30  C   UNL     1     -22.256  28.321  -1.690  1.00  0.00     0.163 C 
BRANCH  30  31
ATOM     31  O   UNL     1     -22.378  27.392  -2.731  1.00  0.00    -0.396 OA
ATOM     32  H   UNL     1     -23.347  27.310  -2.963  1.00  0.00     0.210 HD
ENDBRANCH  30  31
ENDBRANCH   4  30
BRANCH  13  33
ATOM     33  O   UNL     1     -11.852  30.988  -6.404  1.00  0.00    -0.393 OA
ATOM     34  H   UNL     1     -11.291  30.244  -6.744  1.00  0.00     0.210 HD
ENDBRANCH  13  33
TORSDOF 4
ENDMDL
MODEL 3
REMARK VINA RESULT:    -7.145      1.764      2.768
REMARK INTER + INTRA:          -9.019
REMARK INTER:                  -8.491
REMARK INTRA:                  -0.528
REMARK UNBOUND:                -0.621
REMARK SMILES C=C(C)[C@H]1CC[C@]2(CO)CC[C@]3(C)[C@@H](CC[C@@H]4[C@]5(C)CC[C@H](O)C(C)(C)[C@@H]5CC[C@]43C)[C@H]12
REMARK SMILES IDX 4 1 5 2 6 3 7 4 32 5 14 6 15 7 16 8 17 9 18 10 20 11 21 12
REMARK SMILES IDX 22 13 24 14 27 15 28 16 29 17 30 18 12 19 11 20 10 21 13 22
REMARK SMILES IDX 31 23 25 24 26 25 19 26 2 27 3 28 1 29 8 30 9 31 23 33
REMARK H PARENT 9 32 23 34
REMARK Flexibility Score: inf
ROOT
ATOM      1  C   UNL     1     -14.401  30.993  -9.151  1.00  0.00     0.018 C 
ATOM      2  C   UNL     1     -13.037  30.564  -9.671  1.00  0.00     0.009 C 
ATOM      3  C   UNL     1     -12.345  29.949  -8.467  1.00  0.00     0.010 C 
ATOM      4  C   UNL     1     -12.836  30.727  -7.210  1.00  0.00    -0.003 C 
ATOM      5  C   UNL     1     -14.155  31.441  -7.694  1.00  0.00     0.008 C 
ATOM      6  C   UNL     1     -15.438  31.343  -6.787  1.00  0.00    -0.000 C 
ATOM      7  C   UNL     1     -15.511  32.635  -5.903  1.00  0.00     0.005 C 
ATOM      8  C   UNL     1     -16.426  32.535  -4.677  1.00  0.00     0.005 C 
ATOM      9  C   UNL     1     -17.564  31.536  -4.951  1.00  0.00     0.002 C 
ATOM     10  C   UNL     1     -18.918  31.778  -4.146  1.00  0.00    -0.026 C 
ATOM     11  C   UNL     1     -18.662  31.898  -2.600  1.00  0.00     0.010 C 
ATOM     12  C   UNL     1     -19.655  31.113  -1.737  1.00  0.00     0.033 C 
ATOM     13  C   UNL     1     -21.089  31.355  -2.220  1.00  0.00     0.120 C 
ATOM     14  C   UNL     1     -21.337  30.682  -3.622  1.00  0.00    -0.006 C 
ATOM     15  C   UNL     1     -20.000  30.662  -4.523  1.00  0.00     0.003 C 
ATOM     16  C   UNL     1     -19.391  29.240  -4.686  1.00  0.00     0.005 C 
ATOM     17  C   UNL     1     -18.113  29.190  -5.531  1.00  0.00     0.008 C 
ATOM     18  C   UNL     1     -16.951  30.076  -4.986  1.00  0.00    -0.024 C 
ATOM     19  C   UNL     1     -15.595  30.022  -5.942  1.00  0.00    -0.024 C 
ATOM     20  C   UNL     1     -14.253  29.911  -5.135  1.00  0.00     0.008 C 
ATOM     21  C   UNL     1     -12.990  29.743  -5.997  1.00  0.00     0.010 C 
ATOM     22  C   UNL     1     -15.666  28.781  -6.889  1.00  0.00     0.012 C 
ATOM     23  C   UNL     1     -16.606  29.534  -3.560  1.00  0.00     0.012 C 
ATOM     24  C   UNL     1     -21.937  29.255  -3.409  1.00  0.00     0.014 C 
ATOM     25  C   UNL     1     -22.448  31.475  -4.363  1.00  0.00     0.014 C 
ATOM     26  C   UNL     1     -19.508  33.151  -4.635  1.00  0.00     0.012 C 
ENDROOT
BRANCH   1  27
ATOM     27  C   UNL     1     -15.066  32.059 -10.024  1.00  0.00    -0.077 C 
ATOM     28  C   UNL     1     -14.348  33.354 -10.303  1.00  0.00     0.039 C 
ATOM     29  C   UNL     1     -16.284  31.876 -10.566  1.00  0.00     0.008 C 
ENDBRANCH   1  27
BRANCH   4  30
ATOM     30  C   UNL     1     -11.740  31.785  -6.863  1.00  0.00     0.163 C 
BRANCH  30  31
ATOM     31  O   UNL     1     -12.314  33.024  -6.549  1.00  0.00    -0.396 OA
ATOM     32  H   UNL     1     -11.753  33.741  -6.961  1.00  0.00     0.210 HD
ENDBRANCH  30  31
ENDBRANCH   4  30
BRANCH  13  33
ATOM     33  O   UNL     1     -22.003  30.891  -1.256  1.00  0.00    -0.393 OA
ATOM     34  H   UNL     1     -21.695  31.219  -0.372  1.00  0.00     0.210 HD
ENDBRANCH  13  33
TORSDOF 4
ENDMDL
MODEL 4
REMARK VINA RESULT:    -7.122      4.252      6.918
REMARK INTER + INTRA:          -8.993
REMARK INTER:                  -8.475
REMARK INTRA:                  -0.517
REMARK UNBOUND:                -0.621
REMARK SMILES C=C(C)[C@H]1CC[C@]2(CO)CC[C@]3(C)[C@@H](CC[C@@H]4[C@]5(C)CC[C@H](O)C(C)(C)[C@@H]5CC[C@]43C)[C@H]12
REMARK SMILES IDX 4 1 5 2 6 3 7 4 32 5 14 6 15 7 16 8 17 9 18 10 20 11 21 12
REMARK SMILES IDX 22 13 24 14 27 15 28 16 29 17 30 18 12 19 11 20 10 21 13 22
REMARK SMILES IDX 31 23 25 24 26 25 19 26 2 27 3 28 1 29 8 30 9 31 23 33
REMARK H PARENT 9 32 23 34
REMARK Flexibility Score: inf
ROOT
ATOM      1  C   UNL     1     -18.483  31.138  -3.550  1.00  0.00     0.018 C 
ATOM      2  C   UNL     1     -18.455  32.613  -3.920  1.00  0.00     0.009 C 
ATOM      3  C   UNL     1     -19.599  32.784  -4.902  1.00  0.00     0.010 C 
ATOM      4  C   UNL     1     -19.706  31.460  -5.715  1.00  0.00    -0.003 C 
ATOM      5  C   UNL     1     -18.928  30.408  -4.836  1.00  0.00     0.008 C 
ATOM      6  C   UNL     1     -19.604  29.014  -4.559  1.00  0.00    -0.000 C 
ATOM      7  C   UNL     1     -19.051  27.986  -5.604  1.00  0.00     0.005 C 
ATOM      8  C   UNL     1     -19.887  26.712  -5.772  1.00  0.00     0.005 C 
ATOM      9  C   UNL     1     -20.623  26.391  -4.458  1.00  0.00     0.002 C 
ATOM     10  C   UNL     1     -20.966  24.855  -4.206  1.00  0.00    -0.026 C 
ATOM     11  C   UNL     1     -21.730  24.222  -5.424  1.00  0.00     0.010 C 
ATOM     12  C   UNL     1     -22.927  23.349  -5.030  1.00  0.00     0.033 C 
ATOM     13  C   UNL     1     -22.543  22.403  -3.888  1.00  0.00     0.120 C 
ATOM     14  C   UNL     1     -22.316  23.196  -2.547  1.00  0.00    -0.006 C 
ATOM     15  C   UNL     1     -21.735  24.676  -2.815  1.00  0.00     0.003 C 
ATOM     16  C   UNL     1     -22.771  25.801  -2.532  1.00  0.00     0.005 C 
ATOM     17  C   UNL     1     -22.253  27.221  -2.787  1.00  0.00     0.008 C 
ATOM     18  C   UNL     1     -21.761  27.470  -4.246  1.00  0.00    -0.024 C 
ATOM     19  C   UNL     1     -21.178  29.006  -4.478  1.00  0.00    -0.024 C 
ATOM     20  C   UNL     1     -21.644  29.666  -5.823  1.00  0.00     0.008 C 
ATOM     21  C   UNL     1     -21.212  31.131  -6.010  1.00  0.00     0.010 C 
ATOM     22  C   UNL     1     -21.663  29.936  -3.318  1.00  0.00     0.012 C 
ATOM     23  C   UNL     1     -22.995  27.234  -5.179  1.00  0.00     0.012 C 
ATOM     24  C   UNL     1     -23.645  23.212  -1.726  1.00  0.00     0.014 C 
ATOM     25  C   UNL     1     -21.313  22.400  -1.665  1.00  0.00     0.014 C 
ATOM     26  C   UNL     1     -19.599  24.093  -4.057  1.00  0.00     0.012 C 
ENDROOT
BRANCH   1  27
ATOM     27  C   UNL     1     -17.154  30.637  -2.980  1.00  0.00    -0.077 C 
ATOM     28  C   UNL     1     -16.105  30.079  -3.906  1.00  0.00     0.039 C 
ATOM     29  C   UNL     1     -16.881  30.686  -1.663  1.00  0.00     0.008 C 
ENDBRANCH   1  27
BRANCH   4  30
ATOM     30  C   UNL     1     -18.966  31.687  -7.072  1.00  0.00     0.163 C 
BRANCH  30  31
ATOM     31  O   UNL     1     -19.032  33.029  -7.467  1.00  0.00    -0.396 OA
ATOM     32  H   UNL     1     -18.116  33.421  -7.393  1.00  0.00     0.210 HD
ENDBRANCH  30  31
ENDBRANCH   4  30
BRANCH  13  33
ATOM     33  O   UNL     1     -23.530  21.410  -3.740  1.00  0.00    -0.393 OA
ATOM     34  H   UNL     1     -23.631  20.958  -4.617  1.00  0.00     0.210 HD
ENDBRANCH  13  33
TORSDOF 4
ENDMDL
MODEL 5
REMARK VINA RESULT:    -6.837      2.685      4.708
REMARK INTER + INTRA:          -8.657
REMARK INTER:                  -8.145
REMARK INTRA:                  -0.513
REMARK UNBOUND:                -0.621
REMARK SMILES C=C(C)[C@H]1CC[C@]2(CO)CC[C@]3(C)[C@@H](CC[C@@H]4[C@]5(C)CC[C@H](O)C(C)(C)[C@@H]5CC[C@]43C)[C@H]12
REMARK SMILES IDX 4 1 5 2 6 3 7 4 32 5 14 6 15 7 16 8 17 9 18 10 20 11 21 12
REMARK SMILES IDX 22 13 24 14 27 15 28 16 29 17 30 18 12 19 11 20 10 21 13 22
REMARK SMILES IDX 31 23 25 24 26 25 19 26 2 27 3 28 1 29 8 30 9 31 23 33
REMARK H PARENT 9 32 23 34
REMARK Flexibility Score: inf
ROOT
ATOM      1  C   UNL     1     -17.340  29.259  -4.979  1.00  0.00     0.018 C 
ATOM      2  C   UNL     1     -16.040  30.038  -5.102  1.00  0.00     0.009 C 
ATOM      3  C   UNL     1     -16.443  31.489  -4.909  1.00  0.00     0.010 C 
ATOM      4  C   UNL     1     -17.871  31.650  -5.511  1.00  0.00    -0.003 C 
ATOM      5  C   UNL     1     -18.420  30.176  -5.593  1.00  0.00     0.008 C 
ATOM      6  C   UNL     1     -19.868  29.882  -5.050  1.00  0.00    -0.000 C 
ATOM      7  C   UNL     1     -20.860  29.917  -6.262  1.00  0.00     0.005 C 
ATOM      8  C   UNL     1     -22.339  30.080  -5.891  1.00  0.00     0.005 C 
ATOM      9  C   UNL     1     -22.599  29.476  -4.499  1.00  0.00     0.002 C 
ATOM     10  C   UNL     1     -24.079  28.948  -4.230  1.00  0.00    -0.026 C 
ATOM     11  C   UNL     1     -25.156  30.044  -4.556  1.00  0.00     0.010 C 
ATOM     12  C   UNL     1     -26.261  30.172  -3.502  1.00  0.00     0.033 C 
ATOM     13  C   UNL     1     -26.783  28.786  -3.107  1.00  0.00     0.120 C 
ATOM     14  C   UNL     1     -25.702  27.984  -2.290  1.00  0.00    -0.006 C 
ATOM     15  C   UNL     1     -24.203  28.360  -2.748  1.00  0.00     0.003 C 
ATOM     16  C   UNL     1     -23.428  29.193  -1.686  1.00  0.00     0.005 C 
ATOM     17  C   UNL     1     -22.001  29.575  -2.096  1.00  0.00     0.008 C 
ATOM     18  C   UNL     1     -21.915  30.404  -3.414  1.00  0.00    -0.024 C 
ATOM     19  C   UNL     1     -20.355  30.773  -3.845  1.00  0.00    -0.024 C 
ATOM     20  C   UNL     1     -20.165  32.248  -4.345  1.00  0.00     0.008 C 
ATOM     21  C   UNL     1     -18.711  32.651  -4.641  1.00  0.00     0.010 C 
ATOM     22  C   UNL     1     -19.408  30.580  -2.615  1.00  0.00     0.012 C 
ATOM     23  C   UNL     1     -22.713  31.726  -3.164  1.00  0.00     0.012 C 
ATOM     24  C   UNL     1     -25.937  28.211  -0.762  1.00  0.00     0.014 C 
ATOM     25  C   UNL     1     -25.943  26.465  -2.509  1.00  0.00     0.014 C 
ATOM     26  C   UNL     1     -24.323  27.740  -5.207  1.00  0.00     0.012 C 
ENDROOT
BRANCH   1  27
ATOM     27  C   UNL     1     -17.268  27.870  -5.617  1.00  0.00    -0.077 C 
ATOM     28  C   UNL     1     -17.610  27.697  -7.074  1.00  0.00     0.039 C 
ATOM     29  C   UNL     1     -16.898  26.783  -4.916  1.00  0.00     0.008 C 
ENDBRANCH   1  27
BRANCH   4  30
ATOM     30  C   UNL     1     -17.705  32.249  -6.945  1.00  0.00     0.163 C 
BRANCH  30  31
ATOM     31  O   UNL     1     -18.831  32.995  -7.316  1.00  0.00    -0.396 OA
ATOM     32  H   UNL     1     -18.540  33.937  -7.478  1.00  0.00     0.210 HD
ENDBRANCH  30  31
ENDBRANCH   4  30
BRANCH  13  33
ATOM     33  O   UNL     1     -27.983  28.918  -2.384  1.00  0.00    -0.393 OA
ATOM     34  H   UNL     1     -28.621  29.421  -2.954  1.00  0.00     0.210 HD
ENDBRANCH  13  33
TORSDOF 4
ENDMDL
MODEL 6
REMARK VINA RESULT:    -6.759      4.829      8.275
REMARK INTER + INTRA:          -8.566
REMARK INTER:                  -7.950
REMARK INTRA:                  -0.616
REMARK UNBOUND:                -0.621
REMARK SMILES C=C(C)[C@H]1CC[C@]2(CO)CC[C@]3(C)[C@@H](CC[C@@H]4[C@]5(C)CC[C@H](O)C(C)(C)[C@@H]5CC[C@]43C)[C@H]12
REMARK SMILES IDX 4 1 5 2 6 3 7 4 32 5 14 6 15 7 16 8 17 9 18 10 20 11 21 12
REMARK SMILES IDX 22 13 24 14 27 15 28 16 29 17 30 18 12 19 11 20 10 21 13 22
REMARK SMILES IDX 31 23 25 24 26 25 19 26 2 27 3 28 1 29 8 30 9 31 23 33
REMARK H PARENT 9 32 23 34
REMARK Flexibility Score: inf
ROOT
ATOM      1  C   UNL     1     -20.321  23.041  -4.177  1.00  0.00     0.018 C 
ATOM      2  C   UNL     1     -20.650  21.714  -4.844  1.00  0.00     0.009 C 
ATOM      3  C   UNL     1     -21.907  21.991  -5.649  1.00  0.00     0.010 C 
ATOM      4  C   UNL     1     -22.735  23.045  -4.855  1.00  0.00    -0.003 C 
ATOM      5  C   UNL     1     -21.690  23.686  -3.865  1.00  0.00     0.008 C 
ATOM      6  C   UNL     1     -21.626  25.255  -3.751  1.00  0.00    -0.000 C 
ATOM      7  C   UNL     1     -22.492  25.689  -2.519  1.00  0.00     0.005 C 
ATOM      8  C   UNL     1     -22.900  27.167  -2.497  1.00  0.00     0.005 C 
ATOM      9  C   UNL     1     -21.844  28.013  -3.230  1.00  0.00     0.002 C 
ATOM     10  C   UNL     1     -21.715  29.531  -2.763  1.00  0.00    -0.026 C 
ATOM     11  C   UNL     1     -23.104  30.265  -2.778  1.00  0.00     0.010 C 
ATOM     12  C   UNL     1     -23.066  31.669  -3.391  1.00  0.00     0.033 C 
ATOM     13  C   UNL     1     -21.874  32.459  -2.840  1.00  0.00     0.120 C 
ATOM     14  C   UNL     1     -20.513  31.878  -3.375  1.00  0.00    -0.006 C 
ATOM     15  C   UNL     1     -20.592  30.286  -3.616  1.00  0.00     0.003 C 
ATOM     16  C   UNL     1     -20.590  29.893  -5.121  1.00  0.00     0.005 C 
ATOM     17  C   UNL     1     -20.675  28.384  -5.383  1.00  0.00     0.008 C 
ATOM     18  C   UNL     1     -21.939  27.700  -4.779  1.00  0.00    -0.024 C 
ATOM     19  C   UNL     1     -21.982  26.064  -5.055  1.00  0.00    -0.024 C 
ATOM     20  C   UNL     1     -23.395  25.527  -5.477  1.00  0.00     0.008 C 
ATOM     21  C   UNL     1     -23.438  24.036  -5.850  1.00  0.00     0.010 C 
ATOM     22  C   UNL     1     -20.989  25.696  -6.205  1.00  0.00     0.012 C 
ATOM     23  C   UNL     1     -23.178  28.376  -5.454  1.00  0.00     0.012 C 
ATOM     24  C   UNL     1     -20.089  32.659  -4.660  1.00  0.00     0.014 C 
ATOM     25  C   UNL     1     -19.400  32.189  -2.336  1.00  0.00     0.014 C 
ATOM     26  C   UNL     1     -21.205  29.516  -1.275  1.00  0.00     0.012 C 
ENDROOT
BRANCH   1  27
ATOM     27  C   UNL     1     -19.414  22.888  -2.954  1.00  0.00    -0.077 C 
ATOM     28  C   UNL     1     -20.022  22.773  -1.580  1.00  0.00     0.039 C 
ATOM     29  C   UNL     1     -18.074  22.844  -3.064  1.00  0.00     0.008 C 
ENDBRANCH   1  27
BRANCH   4  30
ATOM     30  C   UNL     1     -23.833  22.270  -4.059  1.00  0.00     0.163 C 
BRANCH  30  31
ATOM     31  O   UNL     1     -23.398  21.962  -2.764  1.00  0.00    -0.396 OA
ATOM     32  H   UNL     1     -22.564  22.481  -2.584  1.00  0.00     0.210 HD
ENDBRANCH  30  31
ENDBRANCH   4  30
BRANCH  13  33
ATOM     33  O   UNL     1     -22.016  33.822  -3.161  1.00  0.00    -0.393 OA
ATOM     34  H   UNL     1     -22.941  33.955  -3.493  1.00  0.00     0.210 HD
ENDBRANCH  13  33
TORSDOF 4
ENDMDL
MODEL 7
REMARK VINA RESULT:    -6.725      3.277      9.171
REMARK INTER + INTRA:          -8.526
REMARK INTER:                  -7.857
REMARK INTRA:                  -0.669
REMARK UNBOUND:                -0.621
REMARK SMILES C=C(C)[C@H]1CC[C@]2(CO)CC[C@]3(C)[C@@H](CC[C@@H]4[C@]5(C)CC[C@H](O)C(C)(C)[C@@H]5CC[C@]43C)[C@H]12
REMARK SMILES IDX 4 1 5 2 6 3 7 4 32 5 14 6 15 7 16 8 17 9 18 10 20 11 21 12
REMARK SMILES IDX 22 13 24 14 27 15 28 16 29 17 30 18 12 19 11 20 10 21 13 22
REMARK SMILES IDX 31 23 25 24 26 25 19 26 2 27 3 28 1 29 8 30 9 31 23 33
REMARK H PARENT 9 32 23 34
REMARK Flexibility Score: inf
ROOT
ATOM      1  C   UNL     1     -24.951  25.945  -2.656  1.00  0.00     0.018 C 
ATOM      2  C   UNL     1     -26.362  25.461  -2.949  1.00  0.00     0.009 C 
ATOM      3  C   UNL     1     -27.006  26.599  -3.720  1.00  0.00     0.010 C 
ATOM      4  C   UNL     1     -26.403  27.925  -3.166  1.00  0.00    -0.003 C 
ATOM      5  C   UNL     1     -25.085  27.468  -2.433  1.00  0.00     0.008 C 
ATOM      6  C   UNL     1     -23.754  28.258  -2.717  1.00  0.00    -0.000 C 
ATOM      7  C   UNL     1     -23.567  29.323  -1.583  1.00  0.00     0.005 C 
ATOM      8  C   UNL     1     -22.583  30.454  -1.906  1.00  0.00     0.005 C 
ATOM      9  C   UNL     1     -21.511  29.952  -2.890  1.00  0.00     0.002 C 
ATOM     10  C   UNL     1     -20.100  30.690  -2.825  1.00  0.00    -0.026 C 
ATOM     11  C   UNL     1     -20.254  32.250  -2.939  1.00  0.00     0.010 C 
ATOM     12  C   UNL     1     -19.245  32.912  -3.884  1.00  0.00     0.033 C 
ATOM     13  C   UNL     1     -17.835  32.374  -3.621  1.00  0.00     0.120 C 
ATOM     14  C   UNL     1     -17.706  30.873  -4.075  1.00  0.00    -0.006 C 
ATOM     15  C   UNL     1     -19.096  30.073  -3.906  1.00  0.00     0.003 C 
ATOM     16  C   UNL     1     -19.778  29.735  -5.262  1.00  0.00     0.005 C 
ATOM     17  C   UNL     1     -21.108  28.982  -5.134  1.00  0.00     0.008 C 
ATOM     18  C   UNL     1     -22.192  29.735  -4.303  1.00  0.00    -0.024 C 
ATOM     19  C   UNL     1     -23.605  28.878  -4.158  1.00  0.00    -0.024 C 
ATOM     20  C   UNL     1     -24.898  29.748  -4.347  1.00  0.00     0.008 C 
ATOM     21  C   UNL     1     -26.218  28.959  -4.333  1.00  0.00     0.010 C 
ATOM     22  C   UNL     1     -23.650  27.748  -5.238  1.00  0.00     0.012 C 
ATOM     23  C   UNL     1     -22.471  31.081  -5.049  1.00  0.00     0.012 C 
ATOM     24  C   UNL     1     -17.160  30.822  -5.538  1.00  0.00     0.014 C 
ATOM     25  C   UNL     1     -16.608  30.188  -3.216  1.00  0.00     0.014 C 
ATOM     26  C   UNL     1     -19.479  30.378  -1.414  1.00  0.00     0.012 C 
ENDROOT
BRANCH   1  27
ATOM     27  C   UNL     1     -24.293  25.203  -1.491  1.00  0.00    -0.077 C 
ATOM     28  C   UNL     1     -24.865  25.331  -0.102  1.00  0.00     0.039 C 
ATOM     29  C   UNL     1     -23.211  24.422  -1.665  1.00  0.00     0.008 C 
ENDBRANCH   1  27
BRANCH   4  30
ATOM     30  C   UNL     1     -27.425  28.505  -2.137  1.00  0.00     0.163 C 
BRANCH  30  31
ATOM     31  O   UNL     1     -26.928  28.425  -0.829  1.00  0.00    -0.396 OA
ATOM     32  H   UNL     1     -26.905  27.462  -0.564  1.00  0.00     0.210 HD
ENDBRANCH  30  31
ENDBRANCH   4  30
BRANCH  13  33
ATOM     33  O   UNL     1     -16.886  33.191  -4.262  1.00  0.00    -0.393 OA
ATOM     34  H   UNL     1     -15.991  32.936  -3.917  1.00  0.00     0.210 HD
ENDBRANCH  13  33
TORSDOF 4
ENDMDL
MODEL 8
REMARK VINA RESULT:    -6.594      1.656      7.857
REMARK INTER + INTRA:          -8.371
REMARK INTER:                  -7.907
REMARK INTRA:                  -0.465
REMARK UNBOUND:                -0.621
REMARK SMILES C=C(C)[C@H]1CC[C@]2(CO)CC[C@]3(C)[C@@H](CC[C@@H]4[C@]5(C)CC[C@H](O)C(C)(C)[C@@H]5CC[C@]43C)[C@H]12
REMARK SMILES IDX 4 1 5 2 6 3 7 4 32 5 14 6 15 7 16 8 17 9 18 10 20 11 21 12
REMARK SMILES IDX 22 13 24 14 27 15 28 16 29 17 30 18 12 19 11 20 10 21 13 22
REMARK SMILES IDX 31 23 25 24 26 25 19 26 2 27 3 28 1 29 8 30 9 31 23 33
REMARK H PARENT 9 32 23 34
REMARK Flexibility Score: inf
ROOT
ATOM      1  C   UNL     1     -22.114  31.306  -4.341  1.00  0.00     0.018 C 
ATOM      2  C   UNL     1     -22.826  31.875  -3.123  1.00  0.00     0.009 C 
ATOM      3  C   UNL     1     -21.707  32.285  -2.182  1.00  0.00     0.010 C 
ATOM      4  C   UNL     1     -20.542  31.271  -2.388  1.00  0.00    -0.003 C 
ATOM      5  C   UNL     1     -20.855  30.608  -3.782  1.00  0.00     0.008 C 
ATOM      6  C   UNL     1     -19.690  30.489  -4.836  1.00  0.00    -0.000 C 
ATOM      7  C   UNL     1     -19.070  29.055  -4.717  1.00  0.00     0.005 C 
ATOM      8  C   UNL     1     -17.679  28.892  -5.340  1.00  0.00     0.005 C 
ATOM      9  C   UNL     1     -17.508  29.881  -6.508  1.00  0.00     0.002 C 
ATOM     10  C   UNL     1     -16.490  29.443  -7.653  1.00  0.00    -0.026 C 
ATOM     11  C   UNL     1     -15.087  29.051  -7.065  1.00  0.00     0.010 C 
ATOM     12  C   UNL     1     -13.898  29.625  -7.843  1.00  0.00     0.033 C 
ATOM     13  C   UNL     1     -14.097  29.421  -9.349  1.00  0.00     0.120 C 
ATOM     14  C   UNL     1     -15.260  30.330  -9.895  1.00  0.00    -0.006 C 
ATOM     15  C   UNL     1     -16.409  30.566  -8.789  1.00  0.00     0.003 C 
ATOM     16  C   UNL     1     -16.430  32.016  -8.226  1.00  0.00     0.005 C 
ATOM     17  C   UNL     1     -17.506  32.270  -7.164  1.00  0.00     0.008 C 
ATOM     18  C   UNL     1     -17.401  31.344  -5.914  1.00  0.00    -0.024 C 
ATOM     19  C   UNL     1     -18.599  31.624  -4.800  1.00  0.00    -0.024 C 
ATOM     20  C   UNL     1     -18.094  31.638  -3.314  1.00  0.00     0.008 C 
ATOM     21  C   UNL     1     -19.161  32.009  -2.270  1.00  0.00     0.010 C 
ATOM     22  C   UNL     1     -19.259  33.015  -5.073  1.00  0.00     0.012 C 
ATOM     23  C   UNL     1     -16.007  31.628  -5.263  1.00  0.00     0.012 C 
ATOM     24  C   UNL     1     -14.659  31.669 -10.431  1.00  0.00     0.014 C 
ATOM     25  C   UNL     1     -15.879  29.644 -11.145  1.00  0.00     0.014 C 
ATOM     26  C   UNL     1     -17.089  28.161  -8.340  1.00  0.00     0.012 C 
ENDROOT
BRANCH   1  27
ATOM     27  C   UNL     1     -23.007  30.393  -5.184  1.00  0.00    -0.077 C 
ATOM     28  C   UNL     1     -22.629  30.086  -6.610  1.00  0.00     0.039 C 
ATOM     29  C   UNL     1     -24.129  29.841  -4.690  1.00  0.00     0.008 C 
ENDBRANCH   1  27
BRANCH   4  30
ATOM     30  C   UNL     1     -20.644  30.210  -1.246  1.00  0.00     0.163 C 
BRANCH  30  31
ATOM     31  O   UNL     1     -21.492  29.155  -1.608  1.00  0.00    -0.396 OA
ATOM     32  H   UNL     1     -21.871  29.356  -2.510  1.00  0.00     0.210 HD
ENDBRANCH  30  31
ENDBRANCH   4  30
BRANCH  13  33
ATOM     33  O   UNL     1     -12.889  29.665 -10.027  1.00  0.00    -0.393 OA
ATOM     34  H   UNL     1     -12.816  30.645 -10.163  1.00  0.00     0.210 HD
ENDBRANCH  13  33
TORSDOF 4
ENDMDL
MODEL 9
REMARK VINA RESULT:    -6.415      5.231      8.255
REMARK INTER + INTRA:          -8.162
REMARK INTER:                  -7.665
REMARK INTRA:                  -0.497
REMARK UNBOUND:                -0.621
REMARK SMILES C=C(C)[C@H]1CC[C@]2(CO)CC[C@]3(C)[C@@H](CC[C@@H]4[C@]5(C)CC[C@H](O)C(C)(C)[C@@H]5CC[C@]43C)[C@H]12
REMARK SMILES IDX 4 1 5 2 6 3 7 4 32 5 14 6 15 7 16 8 17 9 18 10 20 11 21 12
REMARK SMILES IDX 22 13 24 14 27 15 28 16 29 17 30 18 12 19 11 20 10 21 13 22
REMARK SMILES IDX 31 23 25 24 26 25 19 26 2 27 3 28 1 29 8 30 9 31 23 33
REMARK H PARENT 9 32 23 34
REMARK Flexibility Score: inf
ROOT
ATOM      1  C   UNL     1     -21.869  22.837  -5.774  1.00  0.00     0.018 C 
ATOM      2  C   UNL     1     -22.291  21.801  -6.804  1.00  0.00     0.009 C 
ATOM      3  C   UNL     1     -23.069  22.588  -7.844  1.00  0.00     0.010 C 
ATOM      4  C   UNL     1     -23.802  23.738  -7.092  1.00  0.00    -0.003 C 
ATOM      5  C   UNL     1     -23.032  23.851  -5.721  1.00  0.00     0.008 C 
ATOM      6  C   UNL     1     -22.591  25.278  -5.223  1.00  0.00    -0.000 C 
ATOM      7  C   UNL     1     -23.678  25.802  -4.223  1.00  0.00     0.005 C 
ATOM      8  C   UNL     1     -23.653  27.314  -3.965  1.00  0.00     0.005 C 
ATOM      9  C   UNL     1     -22.222  27.852  -4.143  1.00  0.00     0.002 C 
ATOM     10  C   UNL     1     -21.858  29.161  -3.310  1.00  0.00    -0.026 C 
ATOM     11  C   UNL     1     -22.903  30.311  -3.546  1.00  0.00     0.010 C 
ATOM     12  C   UNL     1     -22.278  31.692  -3.769  1.00  0.00     0.033 C 
ATOM     13  C   UNL     1     -21.184  31.956  -2.729  1.00  0.00     0.120 C 
ATOM     14  C   UNL     1     -19.932  31.034  -2.976  1.00  0.00    -0.006 C 
ATOM     15  C   UNL     1     -20.350  29.609  -3.602  1.00  0.00     0.003 C 
ATOM     16  C   UNL     1     -19.935  29.448  -5.092  1.00  0.00     0.005 C 
ATOM     17  C   UNL     1     -20.327  28.105  -5.720  1.00  0.00     0.008 C 
ATOM     18  C   UNL     1     -21.857  27.805  -5.683  1.00  0.00    -0.024 C 
ATOM     19  C   UNL     1     -22.242  26.331  -6.342  1.00  0.00    -0.024 C 
ATOM     20  C   UNL     1     -23.510  26.359  -7.265  1.00  0.00     0.008 C 
ATOM     21  C   UNL     1     -23.822  25.033  -7.979  1.00  0.00     0.010 C 
ATOM     22  C   UNL     1     -21.051  25.815  -7.214  1.00  0.00     0.012 C 
ATOM     23  C   UNL     1     -22.555  28.940  -6.502  1.00  0.00     0.012 C 
ATOM     24  C   UNL     1     -18.897  31.798  -3.861  1.00  0.00     0.014 C 
ATOM     25  C   UNL     1     -19.207  30.810  -1.619  1.00  0.00     0.014 C 
ATOM     26  C   UNL     1     -21.918  28.773  -1.788  1.00  0.00     0.012 C 
ENDROOT
BRANCH   1  27
ATOM     27  C   UNL     1     -21.517  22.224  -4.417  1.00  0.00    -0.077 C 
ATOM     28  C   UNL     1     -22.554  22.180  -3.325  1.00  0.00     0.039 C 
ATOM     29  C   UNL     1     -20.301  21.708  -4.163  1.00  0.00     0.008 C 
ENDBRANCH   1  27
BRANCH   4  30
ATOM     30  C   UNL     1     -25.274  23.271  -6.851  1.00  0.00     0.163 C 
BRANCH  30  31
ATOM     31  O   UNL     1     -25.679  22.351  -7.825  1.00  0.00    -0.396 OA
ATOM     32  H   UNL     1     -26.490  21.875  -7.486  1.00  0.00     0.210 HD
ENDBRANCH  30  31
ENDBRANCH   4  30
BRANCH  13  33
ATOM     33  O   UNL     1     -20.833  33.319  -2.742  1.00  0.00    -0.393 OA
ATOM     34  H   UNL     1     -19.983  33.412  -2.239  1.00  0.00     0.210 HD
ENDBRANCH  13  33
TORSDOF 4
ENDMDL
