MODEL 1
REMARK VINA RESULT:    -4.157      0.000      0.000
REMARK INTER + INTRA:          -4.556
REMARK INTER:                  -4.521
REMARK INTRA:                  -0.035
REMARK UNBOUND:                -0.035
REMARK SMILES O=C([O-])c1ccc(O)cc1
REMARK SMILES IDX 4 1 5 2 10 3 6 4 9 5 7 6 2 7 1 8 3 9 8 10
REMARK H PARENT 8 11
REMARK Flexibility Score: inf
ROOT
ATOM      1  C   UNL     1      -1.408  -0.059   0.272  1.00  0.00    -0.003 A 
ATOM      2  C   UNL     1      -1.238  -1.419   0.584  1.00  0.00     0.014 A 
ATOM      3  C   UNL     1      -0.301   0.680  -0.186  1.00  0.00     0.014 A 
ATOM      4  C   UNL     1       0.012  -2.028   0.441  1.00  0.00     0.047 A 
ATOM      5  C   UNL     1       0.948   0.067  -0.327  1.00  0.00     0.047 A 
ATOM      6  C   UNL     1       1.108  -1.286  -0.015  1.00  0.00     0.115 A 
ENDROOT
BRANCH   1   7
ATOM      7  C   UNL     1      -2.732   0.584   0.424  1.00  0.00     0.071 C 
ATOM      8  O   UNL     1      -2.827   1.833   0.553  1.00  0.00    -0.545 OA
ATOM      9  O   UNL     1      -3.892  -0.183   0.426  1.00  0.00    -0.545 OA
ENDBRANCH   1   7
BRANCH   6  10
ATOM     10  O   UNL     1       2.359  -1.883  -0.161  1.00  0.00    -0.508 OA
ATOM     11  H   UNL     1       2.950  -2.077   0.638  1.00  0.00     0.293 HD
ENDBRANCH   6  10
TORSDOF 2
ENDMDL
MODEL 2
REMARK VINA RESULT:    -4.154      0.039      1.532
REMARK INTER + INTRA:          -4.553
REMARK INTER:                  -4.518
REMARK INTRA:                  -0.035
REMARK UNBOUND:                -0.035
REMARK SMILES O=C([O-])c1ccc(O)cc1
REMARK SMILES IDX 4 1 5 2 10 3 6 4 9 5 7 6 2 7 1 8 3 9 8 10
REMARK H PARENT 8 11
REMARK Flexibility Score: inf
ROOT
ATOM      1  C   UNL     1      -1.438  -0.046   0.284  1.00  0.00    -0.003 A 
ATOM      2  C   UNL     1      -0.328   0.693  -0.160  1.00  0.00     0.014 A 
ATOM      3  C   UNL     1      -1.273  -1.412   0.585  1.00  0.00     0.014 A 
ATOM      4  C   UNL     1       0.921   0.080  -0.300  1.00  0.00     0.047 A 
ATOM      5  C   UNL     1      -0.022  -2.021   0.443  1.00  0.00     0.047 A 
ATOM      6  C   UNL     1       1.076  -1.279   0.001  1.00  0.00     0.115 A 
ENDROOT
BRANCH   1   7
ATOM      7  C   UNL     1      -2.759   0.604   0.432  1.00  0.00     0.071 C 
ATOM      8  O   UNL     1      -2.846   1.854   0.567  1.00  0.00    -0.545 OA
ATOM      9  O   UNL     1      -3.923  -0.155   0.423  1.00  0.00    -0.545 OA
ENDBRANCH   1   7
BRANCH   6  10
ATOM     10  O   UNL     1       2.316  -1.899  -0.136  1.00  0.00    -0.508 OA
ATOM     11  H   UNL     1       2.704  -2.114  -1.047  1.00  0.00     0.293 HD
ENDBRANCH   6  10
TORSDOF 2
ENDMDL
MODEL 3
REMARK VINA RESULT:    -4.101     10.211     11.539
REMARK INTER + INTRA:          -4.495
REMARK INTER:                  -4.459
REMARK INTRA:                  -0.036
REMARK UNBOUND:                -0.035
REMARK SMILES O=C([O-])c1ccc(O)cc1
REMARK SMILES IDX 4 1 5 2 10 3 6 4 9 5 7 6 2 7 1 8 3 9 8 10
REMARK H PARENT 8 11
REMARK Flexibility Score: inf
ROOT
ATOM      1  C   UNL     1      -5.263   1.045  -8.923  1.00  0.00    -0.003 A 
ATOM      2  C   UNL     1      -5.515   2.146  -9.760  1.00  0.00     0.014 A 
ATOM      3  C   UNL     1      -6.352   0.363  -8.347  1.00  0.00     0.014 A 
ATOM      4  C   UNL     1      -6.827   2.556 -10.016  1.00  0.00     0.047 A 
ATOM      5  C   UNL     1      -7.662   0.776  -8.607  1.00  0.00     0.047 A 
ATOM      6  C   UNL     1      -7.903   1.872  -9.440  1.00  0.00     0.115 A 
ENDROOT
BRANCH   1   7
ATOM      7  C   UNL     1      -3.874   0.613  -8.653  1.00  0.00     0.071 C 
ATOM      8  O   UNL     1      -2.915   1.089  -9.316  1.00  0.00    -0.545 OA
ATOM      9  O   UNL     1      -3.608  -0.325  -7.661  1.00  0.00    -0.545 OA
ENDBRANCH   1   7
BRANCH   6  10
ATOM     10  O   UNL     1      -9.215   2.272  -9.689  1.00  0.00    -0.508 OA
ATOM     11  H   UNL     1      -9.982   1.610  -9.681  1.00  0.00     0.293 HD
ENDBRANCH   6  10
TORSDOF 2
ENDMDL
MODEL 4
REMARK VINA RESULT:    -3.895     10.475     11.402
REMARK INTER + INTRA:          -4.271
REMARK INTER:                  -4.235
REMARK INTRA:                  -0.036
REMARK UNBOUND:                -0.035
REMARK SMILES O=C([O-])c1ccc(O)cc1
REMARK SMILES IDX 4 1 5 2 10 3 6 4 9 5 7 6 2 7 1 8 3 9 8 10
REMARK H PARENT 8 11
REMARK Flexibility Score: inf
ROOT
ATOM      1  C   UNL     1      -7.909   1.223  -8.829  1.00  0.00    -0.003 A 
ATOM      2  C   UNL     1      -7.326   2.283  -9.546  1.00  0.00     0.014 A 
ATOM      3  C   UNL     1      -7.073   0.248  -8.252  1.00  0.00     0.014 A 
ATOM      4  C   UNL     1      -5.937   2.366  -9.683  1.00  0.00     0.047 A 
ATOM      5  C   UNL     1      -5.684   0.336  -8.391  1.00  0.00     0.047 A 
ATOM      6  C   UNL     1      -5.113   1.393  -9.106  1.00  0.00     0.115 A 
ENDROOT
BRANCH   1   7
ATOM      7  C   UNL     1      -9.379   1.136  -8.686  1.00  0.00     0.071 C 
ATOM      8  O   UNL     1     -10.125   2.015  -9.193  1.00  0.00    -0.545 OA
ATOM      9  O   UNL     1      -9.958   0.081  -7.991  1.00  0.00    -0.545 OA
ENDBRANCH   1   7
BRANCH   6  10
ATOM     10  O   UNL     1      -3.728   1.467  -9.236  1.00  0.00    -0.508 OA
ATOM     11  H   UNL     1      -3.200   2.239  -8.846  1.00  0.00     0.293 HD
ENDBRANCH   6  10
TORSDOF 2
ENDMDL
MODEL 5
REMARK VINA RESULT:    -3.863      9.647      9.961
REMARK INTER + INTRA:          -4.237
REMARK INTER:                  -4.205
REMARK INTRA:                  -0.031
REMARK UNBOUND:                -0.035
REMARK SMILES O=C([O-])c1ccc(O)cc1
REMARK SMILES IDX 4 1 5 2 10 3 6 4 9 5 7 6 2 7 1 8 3 9 8 10
REMARK H PARENT 8 11
REMARK Flexibility Score: inf
ROOT
ATOM      1  C   UNL     1      -5.118   0.480  -8.776  1.00  0.00    -0.003 A 
ATOM      2  C   UNL     1      -5.586  -0.698  -9.383  1.00  0.00     0.014 A 
ATOM      3  C   UNL     1      -3.814   0.502  -8.245  1.00  0.00     0.014 A 
ATOM      4  C   UNL     1      -4.768  -1.830  -9.458  1.00  0.00     0.047 A 
ATOM      5  C   UNL     1      -3.000  -0.632  -8.322  1.00  0.00     0.047 A 
ATOM      6  C   UNL     1      -3.473  -1.799  -8.927  1.00  0.00     0.115 A 
ENDROOT
BRANCH   1   7
ATOM      7  C   UNL     1      -5.984   1.677  -8.698  1.00  0.00     0.071 C 
ATOM      8  O   UNL     1      -7.196   1.569  -8.370  1.00  0.00    -0.545 OA
ATOM      9  O   UNL     1      -5.473   2.937  -8.983  1.00  0.00    -0.545 OA
ENDBRANCH   1   7
BRANCH   6  10
ATOM     10  O   UNL     1      -2.651  -2.921  -8.996  1.00  0.00    -0.508 OA
ATOM     11  H   UNL     1      -2.137  -3.253  -8.188  1.00  0.00     0.293 HD
ENDBRANCH   6  10
TORSDOF 2
ENDMDL
MODEL 6
REMARK VINA RESULT:    -3.840      1.130      1.970
REMARK INTER + INTRA:          -4.211
REMARK INTER:                  -4.179
REMARK INTRA:                  -0.033
REMARK UNBOUND:                -0.035
REMARK SMILES O=C([O-])c1ccc(O)cc1
REMARK SMILES IDX 4 1 5 2 10 3 6 4 9 5 7 6 2 7 1 8 3 9 8 10
REMARK H PARENT 8 11
REMARK Flexibility Score: inf
ROOT
ATOM      1  C   UNL     1      -0.814   0.044   0.394  1.00  0.00    -0.003 A 
ATOM      2  C   UNL     1       0.504   0.087  -0.094  1.00  0.00     0.014 A 
ATOM      3  C   UNL     1      -1.428  -1.208   0.591  1.00  0.00     0.014 A 
ATOM      4  C   UNL     1       1.194  -1.096  -0.378  1.00  0.00     0.047 A 
ATOM      5  C   UNL     1      -0.734  -2.388   0.305  1.00  0.00     0.047 A 
ATOM      6  C   UNL     1       0.575  -2.336  -0.180  1.00  0.00     0.115 A 
ENDROOT
BRANCH   1   7
ATOM      7  C   UNL     1      -1.541   1.297   0.694  1.00  0.00     0.071 C 
ATOM      8  O   UNL     1      -0.934   2.290   1.176  1.00  0.00    -0.545 OA
ATOM      9  O   UNL     1      -2.906   1.396   0.447  1.00  0.00    -0.545 OA
ENDBRANCH   1   7
BRANCH   6  10
ATOM     10  O   UNL     1       1.253  -3.521  -0.460  1.00  0.00    -0.508 OA
ATOM     11  H   UNL     1       1.003  -4.394  -0.010  1.00  0.00     0.293 HD
ENDBRANCH   6  10
TORSDOF 2
ENDMDL
MODEL 7
REMARK VINA RESULT:    -3.771      1.207      4.195
REMARK INTER + INTRA:          -4.136
REMARK INTER:                  -4.109
REMARK INTRA:                  -0.027
REMARK UNBOUND:                -0.035
REMARK SMILES O=C([O-])c1ccc(O)cc1
REMARK SMILES IDX 4 1 5 2 10 3 6 4 9 5 7 6 2 7 1 8 3 9 8 10
REMARK H PARENT 8 11
REMARK Flexibility Score: inf
ROOT
ATOM      1  C   UNL     1      -0.215  -0.415   0.690  1.00  0.00    -0.003 A 
ATOM      2  C   UNL     1      -1.436  -1.082   0.491  1.00  0.00     0.014 A 
ATOM      3  C   UNL     1      -0.209   0.991   0.758  1.00  0.00     0.014 A 
ATOM      4  C   UNL     1      -2.626  -0.359   0.365  1.00  0.00     0.047 A 
ATOM      5  C   UNL     1      -1.401   1.711   0.631  1.00  0.00     0.047 A 
ATOM      6  C   UNL     1      -2.611   1.040   0.434  1.00  0.00     0.115 A 
ENDROOT
BRANCH   1   7
ATOM      7  C   UNL     1       1.043  -1.182   0.824  1.00  0.00     0.071 C 
ATOM      8  O   UNL     1       1.497  -1.474   1.962  1.00  0.00    -0.545 OA
ATOM      9  O   UNL     1       1.742  -1.593  -0.306  1.00  0.00    -0.545 OA
ENDBRANCH   1   7
BRANCH   6  10
ATOM     10  O   UNL     1      -3.791   1.770   0.309  1.00  0.00    -0.508 OA
ATOM     11  H   UNL     1      -4.205   1.956  -0.597  1.00  0.00     0.293 HD
ENDBRANCH   6  10
TORSDOF 2
ENDMDL
MODEL 8
REMARK VINA RESULT:    -3.717      1.850      3.833
REMARK INTER + INTRA:          -4.078
REMARK INTER:                  -4.049
REMARK INTRA:                  -0.029
REMARK UNBOUND:                -0.035
REMARK SMILES O=C([O-])c1ccc(O)cc1
REMARK SMILES IDX 4 1 5 2 10 3 6 4 9 5 7 6 2 7 1 8 3 9 8 10
REMARK H PARENT 8 11
REMARK Flexibility Score: inf
ROOT
ATOM      1  C   UNL     1      -0.664  -1.519   0.492  1.00  0.00    -0.003 A 
ATOM      2  C   UNL     1      -1.952  -0.958   0.443  1.00  0.00     0.014 A 
ATOM      3  C   UNL     1       0.446  -0.666   0.636  1.00  0.00     0.014 A 
ATOM      4  C   UNL     1      -2.126   0.427   0.536  1.00  0.00     0.047 A 
ATOM      5  C   UNL     1       0.268   0.718   0.729  1.00  0.00     0.047 A 
ATOM      6  C   UNL     1      -1.016   1.268   0.678  1.00  0.00     0.115 A 
ENDROOT
BRANCH   1   7
ATOM      7  C   UNL     1      -0.483  -2.984   0.394  1.00  0.00     0.071 C 
ATOM      8  O   UNL     1      -0.993  -3.751   1.252  1.00  0.00    -0.545 OA
ATOM      9  O   UNL     1       0.253  -3.534  -0.649  1.00  0.00    -0.545 OA
ENDBRANCH   1   7
BRANCH   6  10
ATOM     10  O   UNL     1      -1.178   2.648   0.772  1.00  0.00    -0.508 OA
ATOM     11  H   UNL     1      -1.981   3.116   0.369  1.00  0.00     0.293 HD
ENDBRANCH   6  10
TORSDOF 2
ENDMDL
MODEL 9
REMARK VINA RESULT:    -3.631     10.366     11.514
REMARK INTER + INTRA:          -3.984
REMARK INTER:                  -3.957
REMARK INTRA:                  -0.027
REMARK UNBOUND:                -0.035
REMARK SMILES O=C([O-])c1ccc(O)cc1
REMARK SMILES IDX 4 1 5 2 10 3 6 4 9 5 7 6 2 7 1 8 3 9 8 10
REMARK H PARENT 8 11
REMARK Flexibility Score: inf
ROOT
ATOM      1  C   UNL     1       0.828  -6.824   8.894  1.00  0.00    -0.003 A 
ATOM      2  C   UNL     1       0.160  -7.673   9.794  1.00  0.00     0.014 A 
ATOM      3  C   UNL     1       0.751  -7.096   7.515  1.00  0.00     0.014 A 
ATOM      4  C   UNL     1      -0.569  -8.770   9.325  1.00  0.00     0.047 A 
ATOM      5  C   UNL     1       0.021  -8.195   7.050  1.00  0.00     0.047 A 
ATOM      6  C   UNL     1      -0.640  -9.033   7.952  1.00  0.00     0.115 A 
ENDROOT
BRANCH   1   7
ATOM      7  C   UNL     1       1.599  -5.664   9.392  1.00  0.00     0.071 C 
ATOM      8  O   UNL     1       1.065  -4.526   9.469  1.00  0.00    -0.545 OA
ATOM      9  O   UNL     1       2.925  -5.814   9.783  1.00  0.00    -0.545 OA
ENDBRANCH   1   7
BRANCH   6  10
ATOM     10  O   UNL     1      -1.364 -10.124   7.474  1.00  0.00    -0.508 OA
ATOM     11  H   UNL     1      -1.358 -10.375   6.492  1.00  0.00     0.293 HD
ENDBRANCH   6  10
TORSDOF 2
ENDMDL
