MODEL 1
REMARK VINA RESULT:    -3.179      0.000      0.000
REMARK INTER + INTRA:          -4.324
REMARK INTER:                  -4.481
REMARK INTRA:                   0.156
REMARK UNBOUND:                 0.156
REMARK SMILES CC1=CCC(=C(C)C)C(=O)CC(C)=CCC1
REMARK SMILES IDX 12 1 14 2 13 3 15 4 16 5 2 6 1 7 3 8 11 10 9 11 10 12 5 13
REMARK SMILES IDX 6 14 7 15 8 16 4 17
REMARK H PARENT
REMARK Flexibility Score: 60.00
ROOT
ATOM      1  C   UNL     1       6.205  -0.733  -6.132  1.00  0.00    -0.070 C 
ATOM      2  C   UNL     1       5.888  -1.739  -6.979  1.00  0.00    -0.027 C 
ATOM      3  C   UNL     1       7.116  -1.039  -4.970  1.00  0.00     0.039 C 
ENDROOT
BRANCH   2   4
ATOM      4  C   UNL     1       4.897  -1.650  -8.115  1.00  0.00     0.032 C 
BRANCH   4   5
ATOM      5  C   UNL     1       5.470  -1.950  -9.508  1.00  0.00     0.034 C 
BRANCH   5   6
ATOM      6  C   UNL     1       6.802  -1.279  -9.786  1.00  0.00    -0.077 C 
ATOM      7  C   UNL     1       8.012  -2.164  -9.957  1.00  0.00     0.039 C 
ATOM      8  C   UNL     1       6.972   0.056  -9.963  1.00  0.00    -0.023 CG0
ATOM      9  G   UNL     1       5.978   1.175  -9.718  1.00  0.00     0.000 G0
ENDBRANCH   5   6
ENDBRANCH   4   5
ENDBRANCH   2   4
BRANCH   1  10
ATOM     10  C   UNL     1       5.763   0.700  -6.336  1.00  0.00     0.111 C 
BRANCH  10  11
ATOM     11  C   UNL     1       6.696   1.428  -7.268  1.00  0.00     0.163 C 
ATOM     12  O   UNL     1       7.924   1.478  -6.985  1.00  0.00    -0.294 OA
BRANCH  11  13
ATOM     13  C   UNL     1       6.220   2.082  -8.516  1.00  0.00    -0.002 C 
ATOM     14  C   UNL     1       6.163   3.440  -8.602  1.00  0.00    -0.069 C 
ATOM     15  C   UNL     1       5.809   4.136  -9.896  1.00  0.00     0.039 C 
ATOM     16  C   UNL     1       6.427   4.300  -7.388  1.00  0.00     0.039 C 
BRANCH  13  17
ATOM     17  C   UNL     1       5.983   1.183  -9.714  1.00  0.00     0.066 CG0
ATOM     18  G   UNL     1       6.971   0.054  -9.939  1.00  0.00     0.000 G0
ENDBRANCH  13  17
ENDBRANCH  11  13
ENDBRANCH  10  11
ENDBRANCH   1  10
TORSDOF 0
ENDMDL
MODEL 2
REMARK VINA RESULT:    -2.968      2.135      4.612
REMARK INTER + INTRA:          -4.027
REMARK INTER:                  -4.222
REMARK INTRA:                   0.194
REMARK UNBOUND:                 0.156
REMARK SMILES CC1=CCC(=C(C)C)C(=O)CC(C)=CCC1
REMARK SMILES IDX 12 1 14 2 13 3 15 4 16 5 2 6 1 7 3 8 11 10 9 11 10 12 5 13
REMARK SMILES IDX 6 14 7 15 8 16 4 17
REMARK H PARENT
REMARK Flexibility Score: 60.00
ROOT
ATOM      1  C   UNL     1       5.178   3.283  -6.702  1.00  0.00    -0.070 C 
ATOM      2  C   UNL     1       5.911   4.401  -6.905  1.00  0.00    -0.027 C 
ATOM      3  C   UNL     1       4.116   3.311  -5.631  1.00  0.00     0.039 C 
ENDROOT
BRANCH   2   4
ATOM      4  C   UNL     1       7.092   4.519  -7.839  1.00  0.00     0.032 C 
BRANCH   4   5
ATOM      5  C   UNL     1       8.345   3.740  -7.411  1.00  0.00     0.034 C 
BRANCH   5   6
ATOM      6  C   UNL     1       8.901   2.826  -8.487  1.00  0.00    -0.077 C 
ATOM      7  C   UNL     1       9.412   3.464  -9.756  1.00  0.00     0.039 C 
ATOM      8  C   UNL     1       9.037   1.482  -8.363  1.00  0.00    -0.023 CG0
ATOM      9  G   UNL     1       8.493   0.573  -7.277  1.00  0.00     0.000 G0
ENDBRANCH   5   6
ENDBRANCH   4   5
ENDBRANCH   2   4
BRANCH   1  10
ATOM     10  C   UNL     1       5.307   2.035  -7.549  1.00  0.00     0.111 C 
BRANCH  10  11
ATOM     11  C   UNL     1       6.005   0.935  -6.791  1.00  0.00     0.163 C 
ATOM     12  O   UNL     1       5.680   0.720  -5.592  1.00  0.00    -0.294 OA
BRANCH  11  13
ATOM     13  C   UNL     1       7.058   0.089  -7.413  1.00  0.00    -0.002 C 
ATOM     14  C   UNL     1       6.714  -0.966  -8.203  1.00  0.00    -0.069 C 
ATOM     15  C   UNL     1       7.755  -1.764  -8.952  1.00  0.00     0.039 C 
ATOM     16  C   UNL     1       5.270  -1.390  -8.334  1.00  0.00     0.039 C 
BRANCH  13  17
ATOM     17  C   UNL     1       8.492   0.561  -7.270  1.00  0.00     0.066 CG0
ATOM     18  G   UNL     1       9.035   1.465  -8.360  1.00  0.00     0.000 G0
ENDBRANCH  13  17
ENDBRANCH  11  13
ENDBRANCH  10  11
ENDBRANCH   1  10
TORSDOF 0
ENDMDL
MODEL 3
REMARK VINA RESULT:    -2.946      2.108      2.894
REMARK INTER + INTRA:          -3.995
REMARK INTER:                  -4.304
REMARK INTRA:                   0.309
REMARK UNBOUND:                 0.156
REMARK SMILES CC1=CCC(=C(C)C)C(=O)CC(C)=CCC1
REMARK SMILES IDX 12 1 14 2 13 3 15 4 16 5 2 6 1 7 3 8 11 10 9 11 10 12 5 13
REMARK SMILES IDX 6 14 7 15 8 16 4 17
REMARK H PARENT
REMARK Flexibility Score: 60.00
ROOT
ATOM      1  C   UNL     1       6.541  -0.585  -6.391  1.00  0.00    -0.070 C 
ATOM      2  C   UNL     1       7.838  -0.866  -6.131  1.00  0.00    -0.027 C 
ATOM      3  C   UNL     1       5.636  -1.716  -6.811  1.00  0.00     0.039 C 
ENDROOT
BRANCH   2   4
ATOM      4  C   UNL     1       8.911   0.150  -5.822  1.00  0.00     0.032 C 
BRANCH   4   5
ATOM      5  C   UNL     1      10.024   0.268  -6.875  1.00  0.00     0.034 C 
BRANCH   5   6
ATOM      6  C   UNL     1       9.515   0.457  -8.292  1.00  0.00    -0.077 C 
ATOM      7  C   UNL     1       9.875  -0.594  -9.313  1.00  0.00     0.039 C 
ATOM      8  C   UNL     1       8.700   1.465  -8.692  1.00  0.00    -0.023 CG0
ATOM      9  G   UNL     1       8.298   2.713  -7.929  1.00  0.00     0.000 G0
ENDBRANCH   5   6
ENDBRANCH   4   5
ENDBRANCH   2   4
BRANCH   1  10
ATOM     10  C   UNL     1       5.930   0.787  -6.200  1.00  0.00     0.111 C 
BRANCH  10  11
ATOM     11  C   UNL     1       6.035   1.607  -7.460  1.00  0.00     0.163 C 
ATOM     12  O   UNL     1       5.416   1.225  -8.489  1.00  0.00    -0.294 OA
BRANCH  11  13
ATOM     13  C   UNL     1       6.835   2.859  -7.527  1.00  0.00    -0.002 C 
ATOM     14  C   UNL     1       6.308   4.036  -7.092  1.00  0.00    -0.069 C 
ATOM     15  C   UNL     1       7.138   5.298  -7.025  1.00  0.00     0.039 C 
ATOM     16  C   UNL     1       4.856   4.125  -6.683  1.00  0.00     0.039 C 
BRANCH  13  17
ATOM     17  C   UNL     1       8.292   2.721  -7.926  1.00  0.00     0.066 CG0
ATOM     18  G   UNL     1       8.685   1.471  -8.691  1.00  0.00     0.000 G0
ENDBRANCH  13  17
ENDBRANCH  11  13
ENDBRANCH  10  11
ENDBRANCH   1  10
TORSDOF 0
ENDMDL
MODEL 4
REMARK VINA RESULT:    -2.889      2.185      3.032
REMARK INTER + INTRA:          -3.915
REMARK INTER:                  -4.588
REMARK INTRA:                   0.672
REMARK UNBOUND:                 0.156
REMARK SMILES CC1=CCC(=C(C)C)C(=O)CC(C)=CCC1
REMARK SMILES IDX 12 1 14 2 13 3 15 4 16 5 2 6 1 7 3 8 11 10 9 11 10 12 5 13
REMARK SMILES IDX 6 14 7 15 8 16 4 17
REMARK H PARENT
REMARK Flexibility Score: 60.00
ROOT
ATOM      1  C   UNL     1       7.131  -0.504  -5.746  1.00  0.00    -0.070 C 
ATOM      2  C   UNL     1       8.448  -0.289  -5.970  1.00  0.00    -0.027 C 
ATOM      3  C   UNL     1       6.704  -1.862  -5.249  1.00  0.00     0.039 C 
ENDROOT
BRANCH   2   4
ATOM      4  C   UNL     1       9.042   0.956  -6.582  1.00  0.00     0.032 C 
BRANCH   4   5
ATOM      5  C   UNL     1       9.013   1.010  -8.117  1.00  0.00     0.034 C 
BRANCH   5   6
ATOM      6  C   UNL     1       8.842   2.407  -8.683  1.00  0.00    -0.077 C 
ATOM      7  C   UNL     1      10.038   3.326  -8.657  1.00  0.00     0.039 C 
ATOM      8  C   UNL     1       7.711   2.867  -9.275  1.00  0.00    -0.023 CG0
ATOM      9  G   UNL     1       6.339   2.224  -9.318  1.00  0.00     0.000 G0
ENDBRANCH   5   6
ENDBRANCH   4   5
ENDBRANCH   2   4
BRANCH   1  10
ATOM     10  C   UNL     1       6.075   0.572  -5.884  1.00  0.00     0.111 C 
BRANCH  10  11
ATOM     11  C   UNL     1       5.662   0.744  -7.323  1.00  0.00     0.163 C 
ATOM     12  O   UNL     1       5.346  -0.277  -7.993  1.00  0.00    -0.294 OA
BRANCH  11  13
ATOM     13  C   UNL     1       5.605   2.078  -7.978  1.00  0.00    -0.002 C 
ATOM     14  C   UNL     1       5.066   3.143  -7.321  1.00  0.00    -0.069 C 
ATOM     15  C   UNL     1       5.111   4.536  -7.905  1.00  0.00     0.039 C 
ATOM     16  C   UNL     1       4.378   2.958  -5.989  1.00  0.00     0.039 C 
BRANCH  13  17
ATOM     17  C   UNL     1       6.322   2.223  -9.306  1.00  0.00     0.066 CG0
ATOM     18  G   UNL     1       7.693   2.871  -9.285  1.00  0.00     0.000 G0
ENDBRANCH  13  17
ENDBRANCH  11  13
ENDBRANCH  10  11
ENDBRANCH   1  10
TORSDOF 0
ENDMDL
MODEL 5
REMARK VINA RESULT:    -2.851      1.619      4.086
REMARK INTER + INTRA:          -3.861
REMARK INTER:                  -4.200
REMARK INTRA:                   0.338
REMARK UNBOUND:                 0.156
REMARK SMILES CC1=CCC(=C(C)C)C(=O)CC(C)=CCC1
REMARK SMILES IDX 12 1 14 2 13 3 15 4 16 5 2 6 1 7 3 8 11 10 9 11 10 12 5 13
REMARK SMILES IDX 6 14 7 15 8 16 4 17
REMARK H PARENT
REMARK Flexibility Score: 60.00
ROOT
ATOM      1  C   UNL     1       6.220  -0.486  -6.329  1.00  0.00    -0.070 C 
ATOM      2  C   UNL     1       6.002   0.720  -5.755  1.00  0.00    -0.027 C 
ATOM      3  C   UNL     1       7.144  -1.452  -5.630  1.00  0.00     0.039 C 
ENDROOT
BRANCH   2   4
ATOM      4  C   UNL     1       5.215   1.853  -6.366  1.00  0.00     0.032 C 
BRANCH   4   5
ATOM      5  C   UNL     1       6.051   3.053  -6.837  1.00  0.00     0.034 C 
BRANCH   5   6
ATOM      6  C   UNL     1       6.137   3.191  -8.345  1.00  0.00    -0.077 C 
ATOM      7  C   UNL     1       5.201   4.167  -9.015  1.00  0.00     0.039 C 
ATOM      8  C   UNL     1       7.042   2.553  -9.129  1.00  0.00    -0.023 CG0
ATOM      9  G   UNL     1       7.994   1.434  -8.754  1.00  0.00     0.000 G0
ENDBRANCH   5   6
ENDBRANCH   4   5
ENDBRANCH   2   4
BRANCH   1  10
ATOM     10  C   UNL     1       5.520  -0.948  -7.589  1.00  0.00     0.111 C 
BRANCH  10  11
ATOM     11  C   UNL     1       6.094  -0.272  -8.807  1.00  0.00     0.163 C 
ATOM     12  O   UNL     1       5.313   0.085  -9.731  1.00  0.00    -0.294 OA
BRANCH  11  13
ATOM     13  C   UNL     1       7.549  -0.002  -8.953  1.00  0.00    -0.002 C 
ATOM     14  C   UNL     1       8.387  -0.975  -9.406  1.00  0.00    -0.069 C 
ATOM     15  C   UNL     1       9.844  -0.695  -9.689  1.00  0.00     0.039 C 
ATOM     16  C   UNL     1       7.885  -2.385  -9.617  1.00  0.00     0.039 C 
BRANCH  13  17
ATOM     17  C   UNL     1       8.005   1.430  -8.749  1.00  0.00     0.066 CG0
ATOM     18  G   UNL     1       7.034   2.528  -9.139  1.00  0.00     0.000 G0
ENDBRANCH  13  17
ENDBRANCH  11  13
ENDBRANCH  10  11
ENDBRANCH   1  10
TORSDOF 0
ENDMDL
MODEL 6
REMARK VINA RESULT:    -2.849      7.367     10.532
REMARK INTER + INTRA:          -3.858
REMARK INTER:                  -3.723
REMARK INTRA:                  -0.136
REMARK UNBOUND:                 0.156
REMARK SMILES CC1=CCC(=C(C)C)C(=O)CC(C)=CCC1
REMARK SMILES IDX 12 1 14 2 13 3 15 4 16 5 2 6 1 7 3 8 11 10 9 11 10 12 5 13
REMARK SMILES IDX 6 14 7 15 8 16 4 17
REMARK H PARENT
REMARK Flexibility Score: 60.00
ROOT
ATOM      1  C   UNL     1       5.254   9.430  -2.619  1.00  0.00    -0.070 C 
ATOM      2  C   UNL     1       5.726  10.011  -1.493  1.00  0.00    -0.027 C 
ATOM      3  C   UNL     1       4.145  10.124  -3.369  1.00  0.00     0.039 C 
ENDROOT
BRANCH   2   4
ATOM      4  C   UNL     1       6.738   9.405  -0.551  1.00  0.00     0.032 C 
BRANCH   4   5
ATOM      5  C   UNL     1       8.208   9.688  -0.897  1.00  0.00     0.034 C 
BRANCH   5   6
ATOM      6  C   UNL     1       9.101   8.464  -0.846  1.00  0.00    -0.077 C 
ATOM      7  C   UNL     1       9.479   7.926   0.513  1.00  0.00     0.039 C 
ATOM      8  C   UNL     1       9.528   7.772  -1.933  1.00  0.00    -0.023 CG0
ATOM      9  G   UNL     1       9.419   8.154  -3.396  1.00  0.00     0.000 G0
ENDBRANCH   5   6
ENDBRANCH   4   5
ENDBRANCH   2   4
BRANCH   1  10
ATOM     10  C   UNL     1       5.838   8.166  -3.214  1.00  0.00     0.111 C 
BRANCH  10  11
ATOM     11  C   UNL     1       6.997   8.479  -4.124  1.00  0.00     0.163 C 
ATOM     12  O   UNL     1       6.932   9.496  -4.866  1.00  0.00    -0.294 OA
BRANCH  11  13
ATOM     13  C   UNL     1       8.220   7.634  -4.169  1.00  0.00    -0.002 C 
ATOM     14  C   UNL     1       8.278   6.552  -4.993  1.00  0.00    -0.069 C 
ATOM     15  C   UNL     1       9.549   5.751  -5.159  1.00  0.00     0.039 C 
ATOM     16  C   UNL     1       7.053   6.097  -5.753  1.00  0.00     0.039 C 
BRANCH  13  17
ATOM     17  C   UNL     1       9.430   8.137  -3.404  1.00  0.00     0.066 CG0
ATOM     18  G   UNL     1       9.519   7.776  -1.934  1.00  0.00     0.000 G0
ENDBRANCH  13  17
ENDBRANCH  11  13
ENDBRANCH  10  11
ENDBRANCH   1  10
TORSDOF 0
ENDMDL
MODEL 7
REMARK VINA RESULT:    -2.840      2.497      5.347
REMARK INTER + INTRA:          -3.847
REMARK INTER:                  -4.177
REMARK INTRA:                   0.330
REMARK UNBOUND:                 0.156
REMARK SMILES CC1=CCC(=C(C)C)C(=O)CC(C)=CCC1
REMARK SMILES IDX 12 1 14 2 13 3 15 4 16 5 2 6 1 7 3 8 11 10 9 11 10 12 5 13
REMARK SMILES IDX 6 14 7 15 8 16 4 17
REMARK H PARENT
REMARK Flexibility Score: 60.00
ROOT
ATOM      1  C   UNL     1       5.220   3.786  -6.552  1.00  0.00    -0.070 C 
ATOM      2  C   UNL     1       5.625   4.969  -6.035  1.00  0.00    -0.027 C 
ATOM      3  C   UNL     1       4.543   2.800  -5.634  1.00  0.00     0.039 C 
ENDROOT
BRANCH   2   4
ATOM      4  C   UNL     1       6.426   6.018  -6.768  1.00  0.00     0.032 C 
BRANCH   4   5
ATOM      5  C   UNL     1       7.585   5.482  -7.620  1.00  0.00     0.034 C 
BRANCH   5   6
ATOM      6  C   UNL     1       8.678   4.802  -6.818  1.00  0.00    -0.077 C 
ATOM      7  C   UNL     1       9.435   5.638  -5.815  1.00  0.00     0.039 C 
ATOM      8  C   UNL     1       8.978   3.480  -6.884  1.00  0.00    -0.023 CG0
ATOM      9  G   UNL     1       8.484   2.450  -7.881  1.00  0.00     0.000 G0
ENDBRANCH   5   6
ENDBRANCH   4   5
ENDBRANCH   2   4
BRANCH   1  10
ATOM     10  C   UNL     1       5.333   3.435  -8.021  1.00  0.00     0.111 C 
BRANCH  10  11
ATOM     11  C   UNL     1       5.951   2.074  -8.207  1.00  0.00     0.163 C 
ATOM     12  O   UNL     1       5.389   1.249  -8.977  1.00  0.00    -0.294 OA
BRANCH  11  13
ATOM     13  C   UNL     1       7.209   1.674  -7.522  1.00  0.00    -0.002 C 
ATOM     14  C   UNL     1       7.238   0.567  -6.729  1.00  0.00    -0.069 C 
ATOM     15  C   UNL     1       8.528   0.061  -6.125  1.00  0.00     0.039 C 
ATOM     16  C   UNL     1       5.966  -0.180  -6.405  1.00  0.00     0.039 C 
BRANCH  13  17
ATOM     17  C   UNL     1       8.465   2.441  -7.890  1.00  0.00     0.066 CG0
ATOM     18  G   UNL     1       8.967   3.467  -6.892  1.00  0.00     0.000 G0
ENDBRANCH  13  17
ENDBRANCH  11  13
ENDBRANCH  10  11
ENDBRANCH   1  10
TORSDOF 0
ENDMDL
MODEL 8
REMARK VINA RESULT:    -2.817      2.569      3.740
REMARK INTER + INTRA:          -3.814
REMARK INTER:                  -4.147
REMARK INTRA:                   0.333
REMARK UNBOUND:                 0.156
REMARK SMILES CC1=CCC(=C(C)C)C(=O)CC(C)=CCC1
REMARK SMILES IDX 12 1 14 2 13 3 15 4 16 5 2 6 1 7 3 8 11 10 9 11 10 12 5 13
REMARK SMILES IDX 6 14 7 15 8 16 4 17
REMARK H PARENT
REMARK Flexibility Score: 60.00
ROOT
ATOM      1  C   UNL     1       5.077   2.411  -6.682  1.00  0.00    -0.070 C 
ATOM      2  C   UNL     1       5.562   1.251  -6.183  1.00  0.00    -0.027 C 
ATOM      3  C   UNL     1       4.405   3.371  -5.733  1.00  0.00     0.039 C 
ENDROOT
BRANCH   2   4
ATOM      4  C   UNL     1       6.148   0.123  -6.997  1.00  0.00     0.032 C 
BRANCH   4   5
ATOM      5  C   UNL     1       7.355   0.502  -7.868  1.00  0.00     0.034 C 
BRANCH   5   6
ATOM      6  C   UNL     1       8.480   1.175  -7.105  1.00  0.00    -0.077 C 
ATOM      7  C   UNL     1       9.164   0.383  -6.017  1.00  0.00     0.039 C 
ATOM      8  C   UNL     1       8.965   2.413  -7.376  1.00  0.00    -0.023 CG0
ATOM      9  G   UNL     1       8.393   3.469  -8.303  1.00  0.00     0.000 G0
ENDBRANCH   5   6
ENDBRANCH   4   5
ENDBRANCH   2   4
BRANCH   1  10
ATOM     10  C   UNL     1       5.250   2.835  -8.125  1.00  0.00     0.111 C 
BRANCH  10  11
ATOM     11  C   UNL     1       5.926   4.179  -8.218  1.00  0.00     0.163 C 
ATOM     12  O   UNL     1       5.288   5.149  -8.710  1.00  0.00    -0.294 OA
BRANCH  11  13
ATOM     13  C   UNL     1       7.317   4.402  -7.741  1.00  0.00    -0.002 C 
ATOM     14  C   UNL     1       7.564   5.280  -6.731  1.00  0.00    -0.069 C 
ATOM     15  C   UNL     1       8.945   5.433  -6.136  1.00  0.00     0.039 C 
ATOM     16  C   UNL     1       6.460   6.157  -6.186  1.00  0.00     0.039 C 
BRANCH  13  17
ATOM     17  C   UNL     1       8.390   3.488  -8.302  1.00  0.00     0.066 CG0
ATOM     18  G   UNL     1       8.951   2.428  -7.375  1.00  0.00     0.000 G0
ENDBRANCH  13  17
ENDBRANCH  11  13
ENDBRANCH  10  11
ENDBRANCH   1  10
TORSDOF 0
ENDMDL
MODEL 9
REMARK VINA RESULT:    -2.772      1.788      2.989
REMARK INTER + INTRA:          -3.750
REMARK INTER:                  -3.767
REMARK INTRA:                   0.017
REMARK UNBOUND:                 0.156
REMARK SMILES CC1=CCC(=C(C)C)C(=O)CC(C)=CCC1
REMARK SMILES IDX 12 1 14 2 13 3 15 4 16 5 2 6 1 7 3 8 11 10 9 11 10 12 5 13
REMARK SMILES IDX 6 14 7 15 8 16 4 17
REMARK H PARENT
REMARK Flexibility Score: 60.00
ROOT
ATOM      1  C   UNL     1       5.628   1.461  -9.241  1.00  0.00    -0.070 C 
ATOM      2  C   UNL     1       5.448   0.204  -9.708  1.00  0.00    -0.027 C 
ATOM      3  C   UNL     1       6.341   2.455 -10.123  1.00  0.00     0.039 C 
ENDROOT
BRANCH   2   4
ATOM      4  C   UNL     1       4.873  -0.950  -8.923  1.00  0.00     0.032 C 
BRANCH   4   5
ATOM      5  C   UNL     1       5.900  -1.975  -8.419  1.00  0.00     0.034 C 
BRANCH   5   6
ATOM      6  C   UNL     1       7.325  -1.685  -8.850  1.00  0.00    -0.077 C 
ATOM      7  C   UNL     1       7.840  -2.380 -10.087  1.00  0.00     0.039 C 
ATOM      8  C   UNL     1       8.148  -0.790  -8.246  1.00  0.00    -0.023 CG0
ATOM      9  G   UNL     1       7.949  -0.064  -6.930  1.00  0.00     0.000 G0
ENDBRANCH   5   6
ENDBRANCH   4   5
ENDBRANCH   2   4
BRANCH   1  10
ATOM     10  C   UNL     1       5.079   1.945  -7.916  1.00  0.00     0.111 C 
BRANCH  10  11
ATOM     11  C   UNL     1       5.996   1.573  -6.780  1.00  0.00     0.163 C 
ATOM     12  O   UNL     1       5.509   1.424  -5.626  1.00  0.00    -0.294 OA
BRANCH  11  13
ATOM     13  C   UNL     1       7.456   1.364  -6.974  1.00  0.00    -0.002 C 
ATOM     14  C   UNL     1       8.299   2.431  -7.040  1.00  0.00    -0.069 C 
ATOM     15  C   UNL     1       9.799   2.251  -7.106  1.00  0.00     0.039 C 
ATOM     16  C   UNL     1       7.756   3.841  -7.076  1.00  0.00     0.039 C 
BRANCH  13  17
ATOM     17  C   UNL     1       7.959  -0.065  -6.915  1.00  0.00     0.066 CG0
ATOM     18  G   UNL     1       8.153  -0.786  -8.235  1.00  0.00     0.000 G0
ENDBRANCH  13  17
ENDBRANCH  11  13
ENDBRANCH  10  11
ENDBRANCH   1  10
TORSDOF 0
ENDMDL
