MODEL 1
REMARK VINA RESULT:    -3.931      0.000      0.000
REMARK INTER + INTRA:          -5.049
REMARK INTER:                  -4.851
REMARK INTRA:                  -0.198
REMARK UNBOUND:                -0.198
REMARK SMILES CCCCC=CC(C)=O
REMARK SMILES IDX 4 1 3 2 2 3 1 4 5 5 6 6 7 7 9 8 8 9
REMARK H PARENT
REMARK Flexibility Score: inf
ROOT
ATOM      1  C   UNL     1      73.003  33.865  53.227  1.00  0.00     0.027 C 
ENDROOT
BRANCH   1   2
ATOM      2  C   UNL     1      73.130  35.308  52.725  1.00  0.00     0.004 C 
BRANCH   2   3
ATOM      3  C   UNL     1      74.404  35.968  53.263  1.00  0.00    -0.003 C 
ATOM      4  C   UNL     1      75.580  35.751  52.317  1.00  0.00     0.004 C 
ENDBRANCH   2   3
ENDBRANCH   1   2
BRANCH   1   5
ATOM      5  C   UNL     1      72.079  33.779  54.407  1.00  0.00    -0.023 C 
ATOM      6  C   UNL     1      72.540  33.542  55.640  1.00  0.00     0.042 C 
BRANCH   6   7
ATOM      7  C   UNL     1      71.651  33.466  56.815  1.00  0.00     0.152 C 
ATOM      8  O   UNL     1      71.960  32.761  57.813  1.00  0.00    -0.295 OA
ATOM      9  C   UNL     1      70.369  34.234  56.823  1.00  0.00     0.093 C 
ENDBRANCH   6   7
ENDBRANCH   1   5
TORSDOF 4
ENDMDL
MODEL 2
REMARK VINA RESULT:    -3.755      2.553      5.044
REMARK INTER + INTRA:          -4.832
REMARK INTER:                  -4.652
REMARK INTRA:                  -0.179
REMARK UNBOUND:                -0.198
REMARK SMILES CCCCC=CC(C)=O
REMARK SMILES IDX 4 1 3 2 2 3 1 4 5 5 6 6 7 7 9 8 8 9
REMARK H PARENT
REMARK Flexibility Score: inf
ROOT
ATOM      1  C   UNL     1      72.599  33.319  55.358  1.00  0.00     0.027 C 
ENDROOT
BRANCH   1   2
ATOM      2  C   UNL     1      71.627  34.224  56.124  1.00  0.00     0.004 C 
BRANCH   2   3
ATOM      3  C   UNL     1      71.048  33.500  57.345  1.00  0.00    -0.003 C 
ATOM      4  C   UNL     1      72.137  32.760  58.115  1.00  0.00     0.004 C 
ENDBRANCH   2   3
ENDBRANCH   1   2
BRANCH   1   5
ATOM      5  C   UNL     1      72.975  33.921  54.034  1.00  0.00    -0.023 C 
ATOM      6  C   UNL     1      73.498  35.149  53.948  1.00  0.00     0.042 C 
BRANCH   6   7
ATOM      7  C   UNL     1      73.886  35.753  52.660  1.00  0.00     0.152 C 
ATOM      8  O   UNL     1      75.098  35.960  52.383  1.00  0.00    -0.295 OA
ATOM      9  C   UNL     1      72.830  36.125  51.670  1.00  0.00     0.093 C 
ENDBRANCH   6   7
ENDBRANCH   1   5
TORSDOF 4
ENDMDL
MODEL 3
REMARK VINA RESULT:    -3.332     16.456     17.388
REMARK INTER + INTRA:          -4.310
REMARK INTER:                  -4.019
REMARK INTRA:                  -0.291
REMARK UNBOUND:                -0.198
REMARK SMILES CCCCC=CC(C)=O
REMARK SMILES IDX 4 1 3 2 2 3 1 4 5 5 6 6 7 7 9 8 8 9
REMARK H PARENT
REMARK Flexibility Score: inf
ROOT
ATOM      1  C   UNL     1      83.379  31.769  66.335  1.00  0.00     0.027 C 
ENDROOT
BRANCH   1   2
ATOM      2  C   UNL     1      83.295  31.465  64.834  1.00  0.00     0.004 C 
BRANCH   2   3
ATOM      3  C   UNL     1      82.470  30.200  64.575  1.00  0.00    -0.003 C 
ATOM      4  C   UNL     1      83.370  28.979  64.408  1.00  0.00     0.004 C 
ENDBRANCH   2   3
ENDBRANCH   1   2
BRANCH   1   5
ATOM      5  C   UNL     1      84.806  31.879  66.788  1.00  0.00    -0.023 C 
ATOM      6  C   UNL     1      85.805  31.317  66.098  1.00  0.00     0.042 C 
BRANCH   6   7
ATOM      7  C   UNL     1      87.214  31.424  66.519  1.00  0.00     0.152 C 
ATOM      8  O   UNL     1      87.896  30.391  66.758  1.00  0.00    -0.295 OA
ATOM      9  C   UNL     1      87.843  32.772  66.664  1.00  0.00     0.093 C 
ENDBRANCH   6   7
ENDBRANCH   1   5
TORSDOF 4
ENDMDL
MODEL 4
REMARK VINA RESULT:    -3.266      3.819      6.656
REMARK INTER + INTRA:          -4.228
REMARK INTER:                  -4.082
REMARK INTRA:                  -0.146
REMARK UNBOUND:                -0.198
REMARK SMILES CCCCC=CC(C)=O
REMARK SMILES IDX 4 1 3 2 2 3 1 4 5 5 6 6 7 7 9 8 8 9
REMARK H PARENT
REMARK Flexibility Score: inf
ROOT
ATOM      1  C   UNL     1      75.148  35.696  52.402  1.00  0.00     0.027 C 
ENDROOT
BRANCH   1   2
ATOM      2  C   UNL     1      74.675  34.278  52.743  1.00  0.00     0.004 C 
BRANCH   2   3
ATOM      3  C   UNL     1      73.147  34.217  52.843  1.00  0.00    -0.003 C 
ATOM      4  C   UNL     1      72.705  33.611  54.172  1.00  0.00     0.004 C 
ENDBRANCH   2   3
ENDBRANCH   1   2
BRANCH   1   5
ATOM      5  C   UNL     1      76.621  35.723  52.110  1.00  0.00    -0.023 C 
ATOM      6  C   UNL     1      77.264  34.641  51.659  1.00  0.00     0.042 C 
BRANCH   6   7
ATOM      7  C   UNL     1      78.707  34.650  51.354  1.00  0.00     0.152 C 
ATOM      8  O   UNL     1      79.527  34.048  52.098  1.00  0.00    -0.295 OA
ATOM      9  C   UNL     1      79.203  35.379  50.148  1.00  0.00     0.093 C 
ENDBRANCH   6   7
ENDBRANCH   1   5
TORSDOF 4
ENDMDL
MODEL 5
REMARK VINA RESULT:    -3.178     16.450     17.439
REMARK INTER + INTRA:          -4.119
REMARK INTER:                  -4.032
REMARK INTRA:                  -0.087
REMARK UNBOUND:                -0.198
REMARK SMILES CCCCC=CC(C)=O
REMARK SMILES IDX 4 1 3 2 2 3 1 4 5 5 6 6 7 7 9 8 8 9
REMARK H PARENT
REMARK Flexibility Score: inf
ROOT
ATOM      1  C   UNL     1      84.760  31.994  66.955  1.00  0.00     0.027 C 
ENDROOT
BRANCH   1   2
ATOM      2  C   UNL     1      83.342  31.625  66.502  1.00  0.00     0.004 C 
BRANCH   2   3
ATOM      3  C   UNL     1      83.260  31.534  64.974  1.00  0.00    -0.003 C 
ATOM      4  C   UNL     1      82.688  30.191  64.531  1.00  0.00     0.004 C 
ENDBRANCH   2   3
ENDBRANCH   1   2
BRANCH   1   5
ATOM      5  C   UNL     1      85.765  31.722  65.873  1.00  0.00    -0.023 C 
ATOM      6  C   UNL     1      86.383  30.541  65.774  1.00  0.00     0.042 C 
BRANCH   6   7
ATOM      7  C   UNL     1      87.364  30.249  64.711  1.00  0.00     0.152 C 
ATOM      8  O   UNL     1      87.604  31.093  63.806  1.00  0.00    -0.295 OA
ATOM      9  C   UNL     1      88.083  28.939  64.707  1.00  0.00     0.093 C 
ENDBRANCH   6   7
ENDBRANCH   1   5
TORSDOF 4
ENDMDL
MODEL 6
REMARK VINA RESULT:    -3.131     16.629     17.363
REMARK INTER + INTRA:          -4.061
REMARK INTER:                  -3.837
REMARK INTRA:                  -0.224
REMARK UNBOUND:                -0.198
REMARK SMILES CCCCC=CC(C)=O
REMARK SMILES IDX 4 1 3 2 2 3 1 4 5 5 6 6 7 7 9 8 8 9
REMARK H PARENT
REMARK Flexibility Score: inf
ROOT
ATOM      1  C   UNL     1      86.617  32.061  67.026  1.00  0.00     0.027 C 
ENDROOT
BRANCH   1   2
ATOM      2  C   UNL     1      87.637  31.643  65.960  1.00  0.00     0.004 C 
BRANCH   2   3
ATOM      3  C   UNL     1      88.125  30.210  66.198  1.00  0.00    -0.003 C 
ATOM      4  C   UNL     1      87.989  29.364  64.936  1.00  0.00     0.004 C 
ENDBRANCH   2   3
ENDBRANCH   1   2
BRANCH   1   5
ATOM      5  C   UNL     1      85.211  31.811  66.562  1.00  0.00    -0.023 C 
ATOM      6  C   UNL     1      84.943  31.472  65.296  1.00  0.00     0.042 C 
BRANCH   6   7
ATOM      7  C   UNL     1      83.571  31.210  64.823  1.00  0.00     0.152 C 
ATOM      8  O   UNL     1      82.729  32.144  64.736  1.00  0.00    -0.295 OA
ATOM      9  C   UNL     1      83.173  29.821  64.440  1.00  0.00     0.093 C 
ENDBRANCH   6   7
ENDBRANCH   1   5
TORSDOF 4
ENDMDL
MODEL 7
REMARK VINA RESULT:    -3.117      3.549      5.363
REMARK INTER + INTRA:          -4.044
REMARK INTER:                  -3.895
REMARK INTRA:                  -0.149
REMARK UNBOUND:                -0.198
REMARK SMILES CCCCC=CC(C)=O
REMARK SMILES IDX 4 1 3 2 2 3 1 4 5 5 6 6 7 7 9 8 8 9
REMARK H PARENT
REMARK Flexibility Score: inf
ROOT
ATOM      1  C   UNL     1      77.554  34.615  51.626  1.00  0.00     0.027 C 
ENDROOT
BRANCH   1   2
ATOM      2  C   UNL     1      78.514  35.394  50.719  1.00  0.00     0.004 C 
BRANCH   2   3
ATOM      3  C   UNL     1      79.875  34.695  50.630  1.00  0.00    -0.003 C 
ATOM      4  C   UNL     1      80.086  33.746  51.806  1.00  0.00     0.004 C 
ENDBRANCH   2   3
ENDBRANCH   1   2
BRANCH   1   5
ATOM      5  C   UNL     1      76.362  35.448  52.000  1.00  0.00    -0.023 C 
ATOM      6  C   UNL     1      75.280  34.905  52.568  1.00  0.00     0.042 C 
BRANCH   6   7
ATOM      7  C   UNL     1      74.104  35.707  52.955  1.00  0.00     0.152 C 
ATOM      8  O   UNL     1      73.294  36.125  52.084  1.00  0.00    -0.295 OA
ATOM      9  C   UNL     1      73.869  36.028  54.395  1.00  0.00     0.093 C 
ENDBRANCH   6   7
ENDBRANCH   1   5
TORSDOF 4
ENDMDL
MODEL 8
REMARK VINA RESULT:    -3.018     16.534     17.165
REMARK INTER + INTRA:          -3.922
REMARK INTER:                  -3.678
REMARK INTRA:                  -0.244
REMARK UNBOUND:                -0.198
REMARK SMILES CCCCC=CC(C)=O
REMARK SMILES IDX 4 1 3 2 2 3 1 4 5 5 6 6 7 7 9 8 8 9
REMARK H PARENT
REMARK Flexibility Score: inf
ROOT
ATOM      1  C   UNL     1      87.210  30.588  64.743  1.00  0.00     0.027 C 
ENDROOT
BRANCH   1   2
ATOM      2  C   UNL     1      88.125  30.885  65.938  1.00  0.00     0.004 C 
BRANCH   2   3
ATOM      3  C   UNL     1      87.845  32.278  66.511  1.00  0.00    -0.003 C 
ATOM      4  C   UNL     1      88.120  33.366  65.477  1.00  0.00     0.004 C 
ENDBRANCH   2   3
ENDBRANCH   1   2
BRANCH   1   5
ATOM      5  C   UNL     1      85.786  30.406  65.181  1.00  0.00    -0.023 C 
ATOM      6  C   UNL     1      84.816  31.225  64.761  1.00  0.00     0.042 C 
BRANCH   6   7
ATOM      7  C   UNL     1      83.408  31.057  65.168  1.00  0.00     0.152 C 
ATOM      8  O   UNL     1      82.944  31.681  66.160  1.00  0.00    -0.295 OA
ATOM      9  C   UNL     1      82.520  30.136  64.395  1.00  0.00     0.093 C 
ENDBRANCH   6   7
ENDBRANCH   1   5
TORSDOF 4
ENDMDL
MODEL 9
REMARK VINA RESULT:    -2.992     17.465     18.206
REMARK INTER + INTRA:          -3.889
REMARK INTER:                  -3.735
REMARK INTRA:                  -0.154
REMARK UNBOUND:                -0.198
REMARK SMILES CCCCC=CC(C)=O
REMARK SMILES IDX 4 1 3 2 2 3 1 4 5 5 6 6 7 7 9 8 8 9
REMARK H PARENT
REMARK Flexibility Score: inf
ROOT
ATOM      1  C   UNL     1      88.125  28.853  64.602  1.00  0.00     0.027 C 
ENDROOT
BRANCH   1   2
ATOM      2  C   UNL     1      87.212  27.622  64.581  1.00  0.00     0.004 C 
BRANCH   2   3
ATOM      3  C   UNL     1      88.032  26.331  64.479  1.00  0.00    -0.003 C 
ATOM      4  C   UNL     1      87.787  25.625  63.149  1.00  0.00     0.004 C 
ENDBRANCH   2   3
ENDBRANCH   1   2
BRANCH   1   5
ATOM      5  C   UNL     1      87.333  30.115  64.790  1.00  0.00    -0.023 C 
ATOM      6  C   UNL     1      86.045  30.084  65.151  1.00  0.00     0.042 C 
BRANCH   6   7
ATOM      7  C   UNL     1      85.253  31.311  65.354  1.00  0.00     0.152 C 
ATOM      8  O   UNL     1      84.603  31.824  64.403  1.00  0.00    -0.295 OA
ATOM      9  C   UNL     1      85.217  31.954  66.703  1.00  0.00     0.093 C 
ENDBRANCH   6   7
ENDBRANCH   1   5
TORSDOF 4
ENDMDL
