MODEL 1
REMARK VINA RESULT:    -5.676      0.000      0.000
REMARK INTER + INTRA:          -6.797
REMARK INTER:                  -6.671
REMARK INTRA:                  -0.127
REMARK UNBOUND:                -0.127
REMARK SMILES O=C([O-])C=Cc1ccc(O)c(O)c1
REMARK SMILES IDX 6 1 13 2 7 3 11 4 8 5 9 6 5 7 4 8 2 9 1 10 3 11 12 12 10 14
REMARK H PARENT 12 13 10 15
REMARK Flexibility Score: inf
ROOT
ATOM      1  C   UNL     1       8.402  15.630 -21.659  1.00  0.00    -0.022 A 
ATOM      2  C   UNL     1       8.146  16.909 -21.138  1.00  0.00     0.058 A 
ATOM      3  C   UNL     1       8.508  14.542 -20.770  1.00  0.00     0.012 A 
ATOM      4  C   UNL     1       8.021  17.111 -19.759  1.00  0.00     0.157 A 
ATOM      5  C   UNL     1       8.384  14.741 -19.392  1.00  0.00     0.051 A 
ATOM      6  C   UNL     1       8.143  16.022 -18.880  1.00  0.00     0.157 A 
ENDROOT
BRANCH   1   7
ATOM      7  C   UNL     1       8.514  15.471 -23.131  1.00  0.00     0.010 C 
ATOM      8  C   UNL     1       9.596  15.827 -23.838  1.00  0.00     0.025 C 
BRANCH   8   9
ATOM      9  C   UNL     1       9.665  15.665 -25.300  1.00  0.00     0.064 C 
ATOM     10  O   UNL     1      10.762  15.455 -25.883  1.00  0.00    -0.545 OA
ATOM     11  O   UNL     1       8.500  15.749 -26.052  1.00  0.00    -0.545 OA
ENDBRANCH   8   9
ENDBRANCH   1   7
BRANCH   4  12
ATOM     12  O   UNL     1       7.777  18.398 -19.281  1.00  0.00    -0.504 OA
ATOM     13  H   UNL     1       8.170  19.220 -19.724  1.00  0.00     0.293 HD
ENDBRANCH   4  12
BRANCH   6  14
ATOM     14  O   UNL     1       8.022  16.216 -17.504  1.00  0.00    -0.504 OA
ATOM     15  H   UNL     1       8.829  16.195 -16.893  1.00  0.00     0.293 HD
ENDBRANCH   6  14
TORSDOF 4
ENDMDL
MODEL 2
REMARK VINA RESULT:    -5.606      0.873      1.951
REMARK INTER + INTRA:          -6.715
REMARK INTER:                  -6.584
REMARK INTRA:                  -0.131
REMARK UNBOUND:                -0.127
REMARK SMILES O=C([O-])C=Cc1ccc(O)c(O)c1
REMARK SMILES IDX 6 1 13 2 7 3 11 4 8 5 9 6 5 7 4 8 2 9 1 10 3 11 12 12 10 14
REMARK H PARENT 12 13 10 15
REMARK Flexibility Score: inf
ROOT
ATOM      1  C   UNL     1       8.396  15.629 -21.676  1.00  0.00    -0.022 A 
ATOM      2  C   UNL     1       8.522  14.486 -20.870  1.00  0.00     0.058 A 
ATOM      3  C   UNL     1       8.228  16.884 -21.056  1.00  0.00     0.012 A 
ATOM      4  C   UNL     1       8.458  14.580 -19.474  1.00  0.00     0.157 A 
ATOM      5  C   UNL     1       8.164  16.980 -19.663  1.00  0.00     0.051 A 
ATOM      6  C   UNL     1       8.275  15.834 -18.867  1.00  0.00     0.157 A 
ENDROOT
BRANCH   1   7
ATOM      7  C   UNL     1       8.482  15.473 -23.149  1.00  0.00     0.010 C 
ATOM      8  C   UNL     1       9.536  15.865 -23.880  1.00  0.00     0.025 C 
BRANCH   8   9
ATOM      9  C   UNL     1       9.579  15.705 -25.343  1.00  0.00     0.064 C 
ATOM     10  O   UNL     1      10.664  15.477 -25.943  1.00  0.00    -0.545 OA
ATOM     11  O   UNL     1       8.405  15.810 -26.076  1.00  0.00    -0.545 OA
ENDBRANCH   8   9
ENDBRANCH   1   7
BRANCH   4  12
ATOM     12  O   UNL     1       8.578  13.421 -18.710  1.00  0.00    -0.504 OA
ATOM     13  H   UNL     1       9.412  13.211 -18.176  1.00  0.00     0.293 HD
ENDBRANCH   4  12
BRANCH   6  14
ATOM     14  O   UNL     1       8.209  15.935 -17.478  1.00  0.00    -0.504 OA
ATOM     15  H   UNL     1       7.386  15.646 -16.964  1.00  0.00     0.293 HD
ENDBRANCH   6  14
TORSDOF 4
ENDMDL
MODEL 3
REMARK VINA RESULT:    -5.147      2.848      5.736
REMARK INTER + INTRA:          -6.176
REMARK INTER:                  -6.048
REMARK INTRA:                  -0.128
REMARK UNBOUND:                -0.127
REMARK SMILES O=C([O-])C=Cc1ccc(O)c(O)c1
REMARK SMILES IDX 6 1 13 2 7 3 11 4 8 5 9 6 5 7 4 8 2 9 1 10 3 11 12 12 10 14
REMARK H PARENT 12 13 10 15
REMARK Flexibility Score: inf
ROOT
ATOM      1  C   UNL     1       8.824  16.613 -19.029  1.00  0.00    -0.022 A 
ATOM      2  C   UNL     1       8.395  16.511 -20.362  1.00  0.00     0.058 A 
ATOM      3  C   UNL     1       9.199  15.441 -18.343  1.00  0.00     0.012 A 
ATOM      4  C   UNL     1       8.316  15.266 -20.997  1.00  0.00     0.157 A 
ATOM      5  C   UNL     1       9.121  14.197 -18.975  1.00  0.00     0.051 A 
ATOM      6  C   UNL     1       8.678  14.101 -20.300  1.00  0.00     0.157 A 
ENDROOT
BRANCH   1   7
ATOM      7  C   UNL     1       8.900  17.959 -18.408  1.00  0.00     0.010 C 
ATOM      8  C   UNL     1       7.860  18.803 -18.328  1.00  0.00     0.025 C 
BRANCH   8   9
ATOM      9  C   UNL     1       7.977  20.136 -17.716  1.00  0.00     0.064 C 
ATOM     10  O   UNL     1       8.977  20.871 -17.937  1.00  0.00    -0.545 OA
ATOM     11  O   UNL     1       6.969  20.593 -16.877  1.00  0.00    -0.545 OA
ENDBRANCH   8   9
ENDBRANCH   1   7
BRANCH   4  12
ATOM     12  O   UNL     1       7.875  15.206 -22.318  1.00  0.00    -0.504 OA
ATOM     13  H   UNL     1       7.762  16.036 -22.887  1.00  0.00     0.293 HD
ENDBRANCH   4  12
BRANCH   6  14
ATOM     14  O   UNL     1       8.599  12.858 -20.926  1.00  0.00    -0.504 OA
ATOM     15  H   UNL     1       7.801  12.249 -20.797  1.00  0.00     0.293 HD
ENDBRANCH   6  14
TORSDOF 4
ENDMDL
MODEL 4
REMARK VINA RESULT:    -4.982      2.965      4.112
REMARK INTER + INTRA:          -5.982
REMARK INTER:                  -5.855
REMARK INTRA:                  -0.127
REMARK UNBOUND:                -0.127
REMARK SMILES O=C([O-])C=Cc1ccc(O)c(O)c1
REMARK SMILES IDX 6 1 13 2 7 3 11 4 8 5 9 6 5 7 4 8 2 9 1 10 3 11 12 12 10 14
REMARK H PARENT 12 13 10 15
REMARK Flexibility Score: inf
ROOT
ATOM      1  C   UNL     1       7.827  17.842 -18.673  1.00  0.00    -0.022 A 
ATOM      2  C   UNL     1       8.520  19.063 -18.650  1.00  0.00     0.058 A 
ATOM      3  C   UNL     1       6.684  17.693 -17.862  1.00  0.00     0.012 A 
ATOM      4  C   UNL     1       8.103  20.111 -17.820  1.00  0.00     0.157 A 
ATOM      5  C   UNL     1       6.266  18.737 -17.033  1.00  0.00     0.051 A 
ATOM      6  C   UNL     1       6.971  19.946 -17.005  1.00  0.00     0.157 A 
ENDROOT
BRANCH   1   7
ATOM      7  C   UNL     1       8.307  16.770 -19.580  1.00  0.00     0.010 C 
ATOM      8  C   UNL     1       8.133  16.785 -20.910  1.00  0.00     0.025 C 
BRANCH   8   9
ATOM      9  C   UNL     1       8.612  15.696 -21.777  1.00  0.00     0.064 C 
ATOM     10  O   UNL     1       8.448  14.488 -21.458  1.00  0.00    -0.545 OA
ATOM     11  O   UNL     1       9.259  16.005 -22.966  1.00  0.00    -0.545 OA
ENDBRANCH   8   9
ENDBRANCH   1   7
BRANCH   4  12
ATOM     12  O   UNL     1       8.824  21.303 -17.819  1.00  0.00    -0.504 OA
ATOM     13  H   UNL     1       8.369  22.208 -17.826  1.00  0.00     0.293 HD
ENDBRANCH   4  12
BRANCH   6  14
ATOM     14  O   UNL     1       6.551  20.985 -16.174  1.00  0.00    -0.504 OA
ATOM     15  H   UNL     1       5.575  21.248 -16.108  1.00  0.00     0.293 HD
ENDBRANCH   6  14
TORSDOF 4
ENDMDL
MODEL 5
REMARK VINA RESULT:    -4.865      3.184      6.366
REMARK INTER + INTRA:          -5.845
REMARK INTER:                  -5.713
REMARK INTRA:                  -0.132
REMARK UNBOUND:                -0.127
REMARK SMILES O=C([O-])C=Cc1ccc(O)c(O)c1
REMARK SMILES IDX 6 1 13 2 7 3 11 4 8 5 9 6 5 7 4 8 2 9 1 10 3 11 12 12 10 14
REMARK H PARENT 12 13 10 15
REMARK Flexibility Score: inf
ROOT
ATOM      1  C   UNL     1       9.276  14.991 -18.374  1.00  0.00    -0.022 A 
ATOM      2  C   UNL     1       8.694  14.381 -19.497  1.00  0.00     0.058 A 
ATOM      3  C   UNL     1       9.337  16.398 -18.319  1.00  0.00     0.012 A 
ATOM      4  C   UNL     1       8.203  15.151 -20.559  1.00  0.00     0.157 A 
ATOM      5  C   UNL     1       8.847  17.168 -19.377  1.00  0.00     0.051 A 
ATOM      6  C   UNL     1       8.282  16.552 -20.500  1.00  0.00     0.157 A 
ENDROOT
BRANCH   1   7
ATOM      7  C   UNL     1       9.771  14.128 -17.273  1.00  0.00     0.010 C 
ATOM      8  C   UNL     1       9.454  12.831 -17.143  1.00  0.00     0.025 C 
BRANCH   8   9
ATOM      9  C   UNL     1       9.955  12.009 -16.029  1.00  0.00     0.064 C 
ATOM     10  O   UNL     1      11.072  11.431 -16.094  1.00  0.00    -0.545 OA
ATOM     11  O   UNL     1       9.180  11.866 -14.885  1.00  0.00    -0.545 OA
ENDBRANCH   8   9
ENDBRANCH   1   7
BRANCH   4  12
ATOM     12  O   UNL     1       7.641  14.506 -21.660  1.00  0.00    -0.504 OA
ATOM     13  H   UNL     1       6.975  14.964 -22.269  1.00  0.00     0.293 HD
ENDBRANCH   4  12
BRANCH   6  14
ATOM     14  O   UNL     1       7.796  17.325 -21.555  1.00  0.00    -0.504 OA
ATOM     15  H   UNL     1       8.042  18.302 -21.653  1.00  0.00     0.293 HD
ENDBRANCH   6  14
TORSDOF 4
ENDMDL
MODEL 6
REMARK VINA RESULT:    -4.853      3.205      5.625
REMARK INTER + INTRA:          -5.830
REMARK INTER:                  -5.699
REMARK INTRA:                  -0.131
REMARK UNBOUND:                -0.127
REMARK SMILES O=C([O-])C=Cc1ccc(O)c(O)c1
REMARK SMILES IDX 6 1 13 2 7 3 11 4 8 5 9 6 5 7 4 8 2 9 1 10 3 11 12 12 10 14
REMARK H PARENT 12 13 10 15
REMARK Flexibility Score: inf
ROOT
ATOM      1  C   UNL     1       8.291  16.041 -19.862  1.00  0.00    -0.022 A 
ATOM      2  C   UNL     1       8.590  15.091 -18.872  1.00  0.00     0.058 A 
ATOM      3  C   UNL     1       8.221  15.624 -21.206  1.00  0.00     0.012 A 
ATOM      4  C   UNL     1       8.839  13.755 -19.210  1.00  0.00     0.157 A 
ATOM      5  C   UNL     1       8.470  14.291 -21.546  1.00  0.00     0.051 A 
ATOM      6  C   UNL     1       8.782  13.353 -20.555  1.00  0.00     0.157 A 
ENDROOT
BRANCH   1   7
ATOM      7  C   UNL     1       8.025  17.441 -19.446  1.00  0.00     0.010 C 
ATOM      8  C   UNL     1       8.454  17.970 -18.292  1.00  0.00     0.025 C 
BRANCH   8   9
ATOM      9  C   UNL     1       8.159  19.360 -17.908  1.00  0.00     0.064 C 
ATOM     10  O   UNL     1       8.930  20.304 -18.228  1.00  0.00    -0.545 OA
ATOM     11  O   UNL     1       7.011  19.637 -17.177  1.00  0.00    -0.545 OA
ENDBRANCH   8   9
ENDBRANCH   1   7
BRANCH   4  12
ATOM     12  O   UNL     1       9.142  12.845 -18.198  1.00  0.00    -0.504 OA
ATOM     13  H   UNL     1       8.668  11.955 -18.115  1.00  0.00     0.293 HD
ENDBRANCH   4  12
BRANCH   6  14
ATOM     14  O   UNL     1       9.031  12.025 -20.899  1.00  0.00    -0.504 OA
ATOM     15  H   UNL     1       8.372  11.488 -21.449  1.00  0.00     0.293 HD
ENDBRANCH   6  14
TORSDOF 4
ENDMDL
MODEL 7
REMARK VINA RESULT:    -4.852      9.261     10.935
REMARK INTER + INTRA:          -5.829
REMARK INTER:                  -5.705
REMARK INTRA:                  -0.124
REMARK UNBOUND:                -0.127
REMARK SMILES O=C([O-])C=Cc1ccc(O)c(O)c1
REMARK SMILES IDX 6 1 13 2 7 3 11 4 8 5 9 6 5 7 4 8 2 9 1 10 3 11 12 12 10 14
REMARK H PARENT 12 13 10 15
REMARK Flexibility Score: inf
ROOT
ATOM      1  C   UNL     1       7.188   8.971 -14.144  1.00  0.00    -0.022 A 
ATOM      2  C   UNL     1       8.065   9.892 -14.740  1.00  0.00     0.058 A 
ATOM      3  C   UNL     1       6.614   9.287 -12.896  1.00  0.00     0.012 A 
ATOM      4  C   UNL     1       8.388  11.094 -14.099  1.00  0.00     0.157 A 
ATOM      5  C   UNL     1       6.935  10.487 -12.255  1.00  0.00     0.051 A 
ATOM      6  C   UNL     1       7.822  11.393 -12.849  1.00  0.00     0.157 A 
ENDROOT
BRANCH   1   7
ATOM      7  C   UNL     1       6.872   7.717 -14.872  1.00  0.00     0.010 C 
ATOM      8  C   UNL     1       7.554   6.573 -14.718  1.00  0.00     0.025 C 
BRANCH   8   9
ATOM      9  C   UNL     1       7.219   5.352 -15.468  1.00  0.00     0.064 C 
ATOM     10  O   UNL     1       7.312   4.213 -14.937  1.00  0.00    -0.545 OA
ATOM     11  O   UNL     1       6.794   5.456 -16.786  1.00  0.00    -0.545 OA
ENDBRANCH   8   9
ENDBRANCH   1   7
BRANCH   4  12
ATOM     12  O   UNL     1       9.271  11.976 -14.719  1.00  0.00    -0.504 OA
ATOM     13  H   UNL     1       9.655  12.781 -14.239  1.00  0.00     0.293 HD
ENDBRANCH   4  12
BRANCH   6  14
ATOM     14  O   UNL     1       8.141  12.588 -12.204  1.00  0.00    -0.504 OA
ATOM     15  H   UNL     1       9.078  12.971 -12.232  1.00  0.00     0.293 HD
ENDBRANCH   6  14
TORSDOF 4
ENDMDL
MODEL 8
REMARK VINA RESULT:    -4.821      2.346      3.514
REMARK INTER + INTRA:          -5.793
REMARK INTER:                  -5.665
REMARK INTRA:                  -0.128
REMARK UNBOUND:                -0.127
REMARK SMILES O=C([O-])C=Cc1ccc(O)c(O)c1
REMARK SMILES IDX 6 1 13 2 7 3 11 4 8 5 9 6 5 7 4 8 2 9 1 10 3 11 12 12 10 14
REMARK H PARENT 12 13 10 15
REMARK Flexibility Score: inf
ROOT
ATOM      1  C   UNL     1       8.782  16.061 -18.823  1.00  0.00    -0.022 A 
ATOM      2  C   UNL     1       9.980  15.670 -18.203  1.00  0.00     0.058 A 
ATOM      3  C   UNL     1       7.585  16.013 -18.082  1.00  0.00     0.012 A 
ATOM      4  C   UNL     1       9.987  15.214 -16.880  1.00  0.00     0.157 A 
ATOM      5  C   UNL     1       7.590  15.559 -16.760  1.00  0.00     0.051 A 
ATOM      6  C   UNL     1       8.786  15.156 -16.154  1.00  0.00     0.157 A 
ENDROOT
BRANCH   1   7
ATOM      7  C   UNL     1       8.833  16.546 -20.225  1.00  0.00     0.010 C 
ATOM      8  C   UNL     1       8.517  15.791 -21.287  1.00  0.00     0.025 C 
BRANCH   8   9
ATOM      9  C   UNL     1       8.592  16.303 -22.665  1.00  0.00     0.064 C 
ATOM     10  O   UNL     1       7.906  17.295 -23.031  1.00  0.00    -0.545 OA
ATOM     11  O   UNL     1       9.431  15.681 -23.580  1.00  0.00    -0.545 OA
ENDBRANCH   8   9
ENDBRANCH   1   7
BRANCH   4  12
ATOM     12  O   UNL     1      11.196  14.825 -16.304  1.00  0.00    -0.504 OA
ATOM     13  H   UNL     1      11.736  14.047 -16.661  1.00  0.00     0.293 HD
ENDBRANCH   4  12
BRANCH   6  14
ATOM     14  O   UNL     1       8.786  14.702 -14.836  1.00  0.00    -0.504 OA
ATOM     15  H   UNL     1       9.448  14.006 -14.515  1.00  0.00     0.293 HD
ENDBRANCH   6  14
TORSDOF 4
ENDMDL
MODEL 9
REMARK VINA RESULT:    -4.762      2.502      3.647
REMARK INTER + INTRA:          -5.723
REMARK INTER:                  -5.591
REMARK INTRA:                  -0.132
REMARK UNBOUND:                -0.127
REMARK SMILES O=C([O-])C=Cc1ccc(O)c(O)c1
REMARK SMILES IDX 6 1 13 2 7 3 11 4 8 5 9 6 5 7 4 8 2 9 1 10 3 11 12 12 10 14
REMARK H PARENT 12 13 10 15
REMARK Flexibility Score: inf
ROOT
ATOM      1  C   UNL     1       9.250  15.490 -19.287  1.00  0.00    -0.022 A 
ATOM      2  C   UNL     1       8.875  14.144 -19.145  1.00  0.00     0.058 A 
ATOM      3  C   UNL     1      10.010  16.096 -18.267  1.00  0.00     0.012 A 
ATOM      4  C   UNL     1       9.227  13.417 -18.001  1.00  0.00     0.157 A 
ATOM      5  C   UNL     1      10.362  15.373 -17.124  1.00  0.00     0.051 A 
ATOM      6  C   UNL     1       9.972  14.036 -16.983  1.00  0.00     0.157 A 
ENDROOT
BRANCH   1   7
ATOM      7  C   UNL     1       8.860  16.209 -20.526  1.00  0.00     0.010 C 
ATOM      8  C   UNL     1       8.843  15.643 -21.742  1.00  0.00     0.025 C 
BRANCH   8   9
ATOM      9  C   UNL     1       8.462  16.393 -22.950  1.00  0.00     0.064 C 
ATOM     10  O   UNL     1       7.750  17.430 -22.879  1.00  0.00    -0.545 OA
ATOM     11  O   UNL     1       8.894  15.948 -24.193  1.00  0.00    -0.545 OA
ENDBRANCH   8   9
ENDBRANCH   1   7
BRANCH   4  12
ATOM     12  O   UNL     1       8.827  12.087 -17.893  1.00  0.00    -0.504 OA
ATOM     13  H   UNL     1       9.414  11.321 -18.200  1.00  0.00     0.293 HD
ENDBRANCH   4  12
BRANCH   6  14
ATOM     14  O   UNL     1      10.324  13.319 -15.840  1.00  0.00    -0.504 OA
ATOM     15  H   UNL     1      11.065  12.630 -15.854  1.00  0.00     0.293 HD
ENDBRANCH   6  14
TORSDOF 4
ENDMDL
