MODEL 1
REMARK VINA RESULT:    -4.594      0.000      0.000
REMARK INTER + INTRA:          -5.459
REMARK INTER:                  -5.400
REMARK INTRA:                  -0.059
REMARK UNBOUND:                -0.059
REMARK SMILES O=C([O-])CCC(=O)[O-]
REMARK SMILES IDX 4 1 2 2 1 3 3 4 5 5 6 6 7 7 8 8
REMARK H PARENT
REMARK Flexibility Score: inf
ROOT
ATOM      1  C   UNL     1     -15.059  25.065  -1.361  1.00  0.00     0.059 C 
ENDROOT
BRANCH   1   2
ATOM      2  C   UNL     1     -15.797  25.683  -2.509  1.00  0.00     0.042 C 
ATOM      3  O   UNL     1     -15.765  26.930  -2.685  1.00  0.00    -0.550 OA
ATOM      4  O   UNL     1     -16.554  24.888  -3.360  1.00  0.00    -0.550 OA
ENDBRANCH   1   2
BRANCH   1   5
ATOM      5  C   UNL     1     -15.428  25.728  -0.030  1.00  0.00     0.059 C 
BRANCH   5   6
ATOM      6  C   UNL     1     -16.904  25.672   0.224  1.00  0.00     0.042 C 
ATOM      7  O   UNL     1     -17.437  24.606   0.625  1.00  0.00    -0.550 OA
ATOM      8  O   UNL     1     -17.695  26.788  -0.019  1.00  0.00    -0.550 OA
ENDBRANCH   5   6
ENDBRANCH   1   5
TORSDOF 3
ENDMDL
MODEL 2
REMARK VINA RESULT:    -4.590      0.051      3.401
REMARK INTER + INTRA:          -5.454
REMARK INTER:                  -5.410
REMARK INTRA:                  -0.044
REMARK UNBOUND:                -0.059
REMARK SMILES O=C([O-])CCC(=O)[O-]
REMARK SMILES IDX 4 1 2 2 1 3 3 4 5 5 6 6 7 7 8 8
REMARK H PARENT
REMARK Flexibility Score: inf
ROOT
ATOM      1  C   UNL     1     -15.427  25.719  -0.031  1.00  0.00     0.059 C 
ENDROOT
BRANCH   1   2
ATOM      2  C   UNL     1     -16.904  25.720   0.221  1.00  0.00     0.042 C 
ATOM      3  O   UNL     1     -17.484  24.666   0.597  1.00  0.00    -0.550 OA
ATOM      4  O   UNL     1     -17.647  26.872  -0.001  1.00  0.00    -0.550 OA
ENDBRANCH   1   2
BRANCH   1   5
ATOM      5  C   UNL     1     -15.080  25.034  -1.358  1.00  0.00     0.059 C 
BRANCH   5   6
ATOM      6  C   UNL     1     -15.805  25.663  -2.509  1.00  0.00     0.042 C 
ATOM      7  O   UNL     1     -15.764  26.909  -2.677  1.00  0.00    -0.550 OA
ATOM      8  O   UNL     1     -16.556  24.876  -3.373  1.00  0.00    -0.550 OA
ENDBRANCH   5   6
ENDBRANCH   1   5
TORSDOF 3
ENDMDL
MODEL 3
REMARK VINA RESULT:    -4.490     11.239     11.775
REMARK INTER + INTRA:          -5.336
REMARK INTER:                  -5.214
REMARK INTRA:                  -0.121
REMARK UNBOUND:                -0.059
REMARK SMILES O=C([O-])CCC(=O)[O-]
REMARK SMILES IDX 4 1 2 2 1 3 3 4 5 5 6 6 7 7 8 8
REMARK H PARENT
REMARK Flexibility Score: inf
ROOT
ATOM      1  C   UNL     1      -7.051  29.033  -5.174  1.00  0.00     0.059 C 
ENDROOT
BRANCH   1   2
ATOM      2  C   UNL     1      -6.395  30.311  -5.601  1.00  0.00     0.042 C 
ATOM      3  O   UNL     1      -6.991  31.099  -6.382  1.00  0.00    -0.550 OA
ATOM      4  O   UNL     1      -5.109  30.611  -5.170  1.00  0.00    -0.550 OA
ENDBRANCH   1   2
BRANCH   1   5
ATOM      5  C   UNL     1      -6.418  27.816  -5.859  1.00  0.00     0.059 C 
BRANCH   5   6
ATOM      6  C   UNL     1      -5.673  26.959  -4.881  1.00  0.00     0.042 C 
ATOM      7  O   UNL     1      -5.621  25.712  -5.044  1.00  0.00    -0.550 OA
ATOM      8  O   UNL     1      -5.069  27.533  -3.770  1.00  0.00    -0.550 OA
ENDBRANCH   5   6
ENDBRANCH   1   5
TORSDOF 3
ENDMDL
MODEL 4
REMARK VINA RESULT:    -3.901      9.437     10.191
REMARK INTER + INTRA:          -4.644
REMARK INTER:                  -4.577
REMARK INTRA:                  -0.067
REMARK UNBOUND:                -0.059
REMARK SMILES O=C([O-])CCC(=O)[O-]
REMARK SMILES IDX 4 1 2 2 1 3 3 4 5 5 6 6 7 7 8 8
REMARK H PARENT
REMARK Flexibility Score: inf
ROOT
ATOM      1  C   UNL     1     -22.428  18.621  -1.670  1.00  0.00     0.059 C 
ENDROOT
BRANCH   1   2
ATOM      2  C   UNL     1     -21.044  19.185  -1.572  1.00  0.00     0.042 C 
ATOM      3  O   UNL     1     -20.213  18.993  -2.499  1.00  0.00    -0.550 OA
ATOM      4  O   UNL     1     -20.657  19.887  -0.437  1.00  0.00    -0.550 OA
ENDBRANCH   1   2
BRANCH   1   5
ATOM      5  C   UNL     1     -22.407  17.097  -1.835  1.00  0.00     0.059 C 
BRANCH   5   6
ATOM      6  C   UNL     1     -23.289  16.652  -2.961  1.00  0.00     0.042 C 
ATOM      7  O   UNL     1     -23.365  15.432  -3.262  1.00  0.00    -0.550 OA
ATOM      8  O   UNL     1     -23.999  17.589  -3.702  1.00  0.00    -0.550 OA
ENDBRANCH   5   6
ENDBRANCH   1   5
TORSDOF 3
ENDMDL
MODEL 5
REMARK VINA RESULT:    -3.849      7.384      8.364
REMARK INTER + INTRA:          -4.583
REMARK INTER:                  -4.472
REMARK INTRA:                  -0.112
REMARK UNBOUND:                -0.059
REMARK SMILES O=C([O-])CCC(=O)[O-]
REMARK SMILES IDX 4 1 2 2 1 3 3 4 5 5 6 6 7 7 8 8
REMARK H PARENT
REMARK Flexibility Score: inf
ROOT
ATOM      1  C   UNL     1     -22.090  21.362  -0.397  1.00  0.00     0.059 C 
ENDROOT
BRANCH   1   2
ATOM      2  C   UNL     1     -20.635  21.017  -0.502  1.00  0.00     0.042 C 
ATOM      3  O   UNL     1     -19.767  21.758   0.031  1.00  0.00    -0.550 OA
ATOM      4  O   UNL     1     -20.236  19.900  -1.225  1.00  0.00    -0.550 OA
ENDBRANCH   1   2
BRANCH   1   5
ATOM      5  C   UNL     1     -22.843  20.368   0.494  1.00  0.00     0.059 C 
BRANCH   5   6
ATOM      6  C   UNL     1     -23.898  19.630  -0.272  1.00  0.00     0.042 C 
ATOM      7  O   UNL     1     -25.116  19.874  -0.069  1.00  0.00    -0.550 OA
ATOM      8  O   UNL     1     -23.536  18.646  -1.184  1.00  0.00    -0.550 OA
ENDBRANCH   5   6
ENDBRANCH   1   5
TORSDOF 3
ENDMDL
MODEL 6
REMARK VINA RESULT:    -3.834     10.492     11.118
REMARK INTER + INTRA:          -4.565
REMARK INTER:                  -4.536
REMARK INTRA:                  -0.028
REMARK UNBOUND:                -0.059
REMARK SMILES O=C([O-])CCC(=O)[O-]
REMARK SMILES IDX 4 1 2 2 1 3 3 4 5 5 6 6 7 7 8 8
REMARK H PARENT
REMARK Flexibility Score: inf
ROOT
ATOM      1  C   UNL     1      -5.625  27.657  -4.099  1.00  0.00     0.059 C 
ENDROOT
BRANCH   1   2
ATOM      2  C   UNL     1      -6.065  28.871  -4.860  1.00  0.00     0.042 C 
ATOM      3  O   UNL     1      -7.160  28.865  -5.484  1.00  0.00    -0.550 OA
ATOM      4  O   UNL     1      -5.248  29.992  -4.915  1.00  0.00    -0.550 OA
ENDBRANCH   1   2
BRANCH   1   5
ATOM      5  C   UNL     1      -5.141  28.018  -2.691  1.00  0.00     0.059 C 
BRANCH   5   6
ATOM      6  C   UNL     1      -5.610  27.022  -1.674  1.00  0.00     0.042 C 
ATOM      7  O   UNL     1      -5.180  25.839  -1.701  1.00  0.00    -0.550 OA
ATOM      8  O   UNL     1      -6.550  27.390  -0.720  1.00  0.00    -0.550 OA
ENDBRANCH   5   6
ENDBRANCH   1   5
TORSDOF 3
ENDMDL
MODEL 7
REMARK VINA RESULT:    -3.832      9.391     10.079
REMARK INTER + INTRA:          -4.563
REMARK INTER:                  -4.477
REMARK INTRA:                  -0.086
REMARK UNBOUND:                -0.059
REMARK SMILES O=C([O-])CCC(=O)[O-]
REMARK SMILES IDX 4 1 2 2 1 3 3 4 5 5 6 6 7 7 8 8
REMARK H PARENT
REMARK Flexibility Score: inf
ROOT
ATOM      1  C   UNL     1     -22.424  17.141  -1.787  1.00  0.00     0.059 C 
ENDROOT
BRANCH   1   2
ATOM      2  C   UNL     1     -23.269  16.724  -2.953  1.00  0.00     0.042 C 
ATOM      3  O   UNL     1     -23.310  15.515  -3.306  1.00  0.00    -0.550 OA
ATOM      4  O   UNL     1     -23.978  17.675  -3.674  1.00  0.00    -0.550 OA
ENDBRANCH   1   2
BRANCH   1   5
ATOM      5  C   UNL     1     -21.329  18.127  -2.208  1.00  0.00     0.059 C 
BRANCH   5   6
ATOM      6  C   UNL     1     -21.330  19.353  -1.345  1.00  0.00     0.042 C 
ATOM      7  O   UNL     1     -20.251  19.944  -1.084  1.00  0.00    -0.550 OA
ATOM      8  O   UNL     1     -22.520  19.818  -0.799  1.00  0.00    -0.550 OA
ENDBRANCH   5   6
ENDBRANCH   1   5
TORSDOF 3
ENDMDL
MODEL 8
REMARK VINA RESULT:    -3.796      9.964     10.637
REMARK INTER + INTRA:          -4.521
REMARK INTER:                  -4.406
REMARK INTRA:                  -0.115
REMARK UNBOUND:                -0.059
REMARK SMILES O=C([O-])CCC(=O)[O-]
REMARK SMILES IDX 4 1 2 2 1 3 3 4 5 5 6 6 7 7 8 8
REMARK H PARENT
REMARK Flexibility Score: inf
ROOT
ATOM      1  C   UNL     1     -22.250  17.161  -2.062  1.00  0.00     0.059 C 
ENDROOT
BRANCH   1   2
ATOM      2  C   UNL     1     -23.290  16.646  -3.010  1.00  0.00     0.042 C 
ATOM      3  O   UNL     1     -23.425  15.407  -3.190  1.00  0.00    -0.550 OA
ATOM      4  O   UNL     1     -24.080  17.535  -3.726  1.00  0.00    -0.550 OA
ENDBRANCH   1   2
BRANCH   1   5
ATOM      5  C   UNL     1     -22.403  18.666  -1.818  1.00  0.00     0.059 C 
BRANCH   5   6
ATOM      6  C   UNL     1     -23.193  18.946  -0.575  1.00  0.00     0.042 C 
ATOM      7  O   UNL     1     -22.734  18.626   0.552  1.00  0.00    -0.550 OA
ATOM      8  O   UNL     1     -24.452  19.525  -0.666  1.00  0.00    -0.550 OA
ENDBRANCH   5   6
ENDBRANCH   1   5
TORSDOF 3
ENDMDL
MODEL 9
REMARK VINA RESULT:    -3.754      9.977     10.960
REMARK INTER + INTRA:          -4.471
REMARK INTER:                  -4.334
REMARK INTRA:                  -0.137
REMARK UNBOUND:                -0.059
REMARK SMILES O=C([O-])CCC(=O)[O-]
REMARK SMILES IDX 4 1 2 2 1 3 3 4 5 5 6 6 7 7 8 8
REMARK H PARENT
REMARK Flexibility Score: inf
ROOT
ATOM      1  C   UNL     1     -22.312  18.659  -1.755  1.00  0.00     0.059 C 
ENDROOT
BRANCH   1   2
ATOM      2  C   UNL     1     -23.214  18.796  -0.567  1.00  0.00     0.042 C 
ATOM      3  O   UNL     1     -22.903  18.262   0.531  1.00  0.00    -0.550 OA
ATOM      4  O   UNL     1     -24.419  19.478  -0.683  1.00  0.00    -0.550 OA
ENDBRANCH   1   2
BRANCH   1   5
ATOM      5  C   UNL     1     -22.141  17.193  -2.168  1.00  0.00     0.059 C 
BRANCH   5   6
ATOM      6  C   UNL     1     -23.294  16.715  -2.997  1.00  0.00     0.042 C 
ATOM      7  O   UNL     1     -23.600  15.495  -3.013  1.00  0.00    -0.550 OA
ATOM      8  O   UNL     1     -24.006  17.614  -3.782  1.00  0.00    -0.550 OA
ENDBRANCH   5   6
ENDBRANCH   1   5
TORSDOF 3
ENDMDL
