MODEL 1
REMARK VINA RESULT:    -9.146      0.000      0.000
REMARK INTER + INTRA:         -12.786
REMARK INTER:                 -12.621
REMARK INTRA:                  -0.164
REMARK UNBOUND:                -0.164
REMARK SMILES C[C@@H]1OC(=O)[C@H](C)[C@@H]1C[C@@H](O)[C@@](C)(O)[C@@H]1CC[C@@]2(O)C3=CC(=O)[C@H]4C[C@H](O)[C@@H](O)C[C@]4(C)[C@H]3CC[C@@]12C
REMARK SMILES IDX 12 1 13 2 10 3 9 4 8 5 7 6 6 7 4 8 2 9 3 10 5 11 1 12 11 13
REMARK SMILES IDX 15 15 16 16 36 17 17 18 18 19 35 20 37 21 20 22 34 23 33 24
REMARK SMILES IDX 21 25 31 26 22 27 24 28 30 29 32 30 23 31 25 32 28 33 26 34
REMARK SMILES IDX 19 35 29 37 27 39 14 41
REMARK H PARENT 11 14 19 36 29 38 27 40 14 42
REMARK Flexibility Score: inf
ROOT
ATOM      1  C   UNL     1      19.781 -11.332  67.252  1.00  0.00     0.091 C 
ATOM      2  C   UNL     1      19.985 -12.867  67.185  1.00  0.00     0.045 C 
ENDROOT
BRANCH   1   3
ATOM      3  C   UNL     1      21.017 -10.610  66.573  1.00  0.00     0.146 C 
BRANCH   3   4
ATOM      4  C   UNL     1      21.684 -11.436  65.423  1.00  0.00     0.043 C 
BRANCH   4   5
ATOM      5  C   UNL     1      23.074 -10.965  64.874  1.00  0.00     0.046 C 
ATOM      6  C   UNL     1      24.226 -13.118  65.934  1.00  0.00     0.020 C 
ATOM      7  C   UNL     1      24.217 -12.018  64.863  1.00  0.00     0.103 C 
ATOM      8  C   UNL     1      24.148 -12.501  63.459  1.00  0.00     0.309 C 
ATOM      9  C   UNL     1      23.087 -10.471  63.396  1.00  0.00     0.177 C 
ATOM     10  O   UNL     1      23.475 -11.612  62.643  1.00  0.00    -0.462 OA
ATOM     11  O   UNL     1      24.686 -13.556  63.030  1.00  0.00    -0.252 OA
ATOM     12  C   UNL     1      21.827  -9.805  62.837  1.00  0.00     0.053 C 
ENDBRANCH   4   5
ENDBRANCH   3   4
BRANCH   3  13
ATOM     13  O   UNL     1      20.654  -9.324  66.141  1.00  0.00    -0.390 OA
ATOM     14  H   UNL     1      21.088  -8.664  66.740  1.00  0.00     0.211 HD
ENDBRANCH   3  13
ENDBRANCH   1   3
BRANCH   1  15
ATOM     15  C   UNL     1      18.421 -10.933  66.515  1.00  0.00     0.032 C 
ATOM     16  C   UNL     1      17.178 -11.095  67.393  1.00  0.00     0.010 C 
ATOM     17  C   UNL     1      18.009 -11.572  65.122  1.00  0.00     0.006 C 
ATOM     18  C   UNL     1      16.018 -10.889  66.455  1.00  0.00     0.041 C 
ATOM     19  C   UNL     1      16.405 -11.594  65.134  1.00  0.00     0.092 C 
ATOM     20  C   UNL     1      18.603 -10.739  63.944  1.00  0.00     0.011 C 
ATOM     21  C   UNL     1      18.558 -13.020  64.960  1.00  0.00     0.015 C 
ATOM     22  C   UNL     1      15.683 -10.866  63.982  1.00  0.00    -0.031 C 
ATOM     23  C   UNL     1      17.764  -9.525  63.577  1.00  0.00     0.009 C 
ATOM     24  C   UNL     1      16.433  -9.993  62.974  1.00  0.00     0.025 C 
ATOM     25  C   UNL     1      14.335 -10.980  63.887  1.00  0.00     0.050 C 
ATOM     26  C   UNL     1      15.548  -8.813  62.409  1.00  0.00    -0.013 C 
ATOM     27  C   UNL     1      13.553 -10.272  62.862  1.00  0.00     0.159 C 
ATOM     28  C   UNL     1      14.271  -9.478  61.806  1.00  0.00     0.070 C 
ATOM     29  C   UNL     1      16.293  -8.062  61.260  1.00  0.00     0.042 C 
ATOM     30  C   UNL     1      15.202  -7.814  63.557  1.00  0.00     0.013 C 
ATOM     31  O   UNL     1      12.298 -10.392  62.845  1.00  0.00    -0.295 OA
ATOM     32  C   UNL     1      13.358  -8.480  61.062  1.00  0.00     0.047 C 
ATOM     33  C   UNL     1      15.407  -7.096  60.442  1.00  0.00     0.143 C 
ATOM     34  C   UNL     1      14.119  -7.778  59.928  1.00  0.00     0.143 C 
BRANCH  19  35
ATOM     35  O   UNL     1      15.961 -12.942  65.148  1.00  0.00    -0.385 OA
ATOM     36  H   UNL     1      16.441 -13.468  65.838  1.00  0.00     0.211 HD
ENDBRANCH  19  35
BRANCH  33  37
ATOM     37  O   UNL     1      15.092  -5.962  61.209  1.00  0.00    -0.390 OA
ATOM     38  H   UNL     1      14.110  -5.976  61.357  1.00  0.00     0.211 HD
ENDBRANCH  33  37
BRANCH  34  39
ATOM     39  O   UNL     1      14.435  -8.714  58.929  1.00  0.00    -0.390 OA
ATOM     40  H   UNL     1      14.103  -9.595  59.243  1.00  0.00     0.211 HD
ENDBRANCH  34  39
ENDBRANCH   1  15
BRANCH   1  41
ATOM     41  O   UNL     1      19.748 -10.985  68.615  1.00  0.00    -0.387 OA
ATOM     42  H   UNL     1      19.834 -10.003  68.692  1.00  0.00     0.211 HD
ENDBRANCH   1  41
TORSDOF 9
ENDMDL
MODEL 2
REMARK VINA RESULT:    -9.056      4.490     11.602
REMARK INTER + INTRA:         -12.662
REMARK INTER:                 -12.713
REMARK INTRA:                   0.051
REMARK UNBOUND:                -0.164
REMARK SMILES C[C@@H]1OC(=O)[C@H](C)[C@@H]1C[C@@H](O)[C@@](C)(O)[C@@H]1CC[C@@]2(O)C3=CC(=O)[C@H]4C[C@H](O)[C@@H](O)C[C@]4(C)[C@H]3CC[C@@]12C
REMARK SMILES IDX 12 1 13 2 10 3 9 4 8 5 7 6 6 7 4 8 2 9 3 10 5 11 1 12 11 13
REMARK SMILES IDX 15 15 16 16 36 17 17 18 18 19 35 20 37 21 20 22 34 23 33 24
REMARK SMILES IDX 21 25 31 26 22 27 24 28 30 29 32 30 23 31 25 32 28 33 26 34
REMARK SMILES IDX 19 35 29 37 27 39 14 41
REMARK H PARENT 11 14 19 36 29 38 27 40 14 42
REMARK Flexibility Score: inf
ROOT
ATOM      1  C   UNL     1      10.624  -5.930  59.623  1.00  0.00     0.091 C 
ATOM      2  C   UNL     1      10.999  -6.296  58.165  1.00  0.00     0.045 C 
ENDROOT
BRANCH   1   3
ATOM      3  C   UNL     1       9.127  -6.365  59.902  1.00  0.00     0.146 C 
BRANCH   3   4
ATOM      4  C   UNL     1       8.337  -6.792  58.620  1.00  0.00     0.043 C 
BRANCH   4   5
ATOM      5  C   UNL     1       7.003  -7.594  58.797  1.00  0.00     0.046 C 
ATOM      6  C   UNL     1       5.642  -5.574  57.720  1.00  0.00     0.020 C 
ATOM      7  C   UNL     1       5.765  -7.077  58.011  1.00  0.00     0.103 C 
ATOM      8  C   UNL     1       5.799  -7.955  56.812  1.00  0.00     0.309 C 
ATOM      9  C   UNL     1       7.049  -9.090  58.362  1.00  0.00     0.177 C 
ATOM     10  O   UNL     1       6.560  -9.088  57.027  1.00  0.00    -0.462 OA
ATOM     11  O   UNL     1       5.167  -7.744  55.743  1.00  0.00    -0.252 OA
ATOM     12  C   UNL     1       8.370  -9.850  58.497  1.00  0.00     0.053 C 
ENDBRANCH   4   5
ENDBRANCH   3   4
BRANCH   3  13
ATOM     13  O   UNL     1       9.083  -7.362  60.890  1.00  0.00    -0.390 OA
ATOM     14  H   UNL     1       8.764  -6.948  61.732  1.00  0.00     0.211 HD
ENDBRANCH   3  13
ENDBRANCH   1   3
BRANCH   1  15
ATOM     15  C   UNL     1      11.620  -6.658  60.638  1.00  0.00     0.032 C 
ATOM     16  C   UNL     1      11.863  -5.871  61.928  1.00  0.00     0.010 C 
ATOM     17  C   UNL     1      13.064  -7.138  60.189  1.00  0.00     0.006 C 
ATOM     18  C   UNL     1      12.978  -6.607  62.622  1.00  0.00     0.041 C 
ATOM     19  C   UNL     1      13.966  -7.031  61.512  1.00  0.00     0.092 C 
ATOM     20  C   UNL     1      13.000  -8.583  59.605  1.00  0.00     0.011 C 
ATOM     21  C   UNL     1      13.656  -6.234  59.068  1.00  0.00     0.015 C 
ATOM     22  C   UNL     1      14.681  -8.316  61.981  1.00  0.00    -0.031 C 
ATOM     23  C   UNL     1      13.027  -9.669  60.668  1.00  0.00     0.009 C 
ATOM     24  C   UNL     1      14.402  -9.680  61.347  1.00  0.00     0.025 C 
ATOM     25  C   UNL     1      15.556  -8.229  63.012  1.00  0.00     0.050 C 
ATOM     26  C   UNL     1      14.595 -10.875  62.361  1.00  0.00    -0.013 C 
ATOM     27  C   UNL     1      16.237  -9.408  63.570  1.00  0.00     0.159 C 
ATOM     28  C   UNL     1      16.049 -10.747  62.912  1.00  0.00     0.070 C 
ATOM     29  C   UNL     1      14.474 -12.249  61.627  1.00  0.00     0.042 C 
ATOM     30  C   UNL     1      13.527 -10.786  63.495  1.00  0.00     0.013 C 
ATOM     31  O   UNL     1      17.016  -9.268  64.552  1.00  0.00    -0.295 OA
ATOM     32  C   UNL     1      16.470 -11.934  63.805  1.00  0.00     0.047 C 
ATOM     33  C   UNL     1      14.942 -13.466  62.458  1.00  0.00     0.143 C 
ATOM     34  C   UNL     1      16.357 -13.263  63.044  1.00  0.00     0.143 C 
BRANCH  19  35
ATOM     35  O   UNL     1      14.951  -6.027  61.320  1.00  0.00    -0.385 OA
ATOM     36  H   UNL     1      15.369  -5.770  62.181  1.00  0.00     0.211 HD
ENDBRANCH  19  35
BRANCH  33  37
ATOM     37  O   UNL     1      14.018 -13.738  63.479  1.00  0.00    -0.390 OA
ATOM     38  H   UNL     1      14.151 -13.047  64.181  1.00  0.00     0.211 HD
ENDBRANCH  33  37
BRANCH  34  39
ATOM     39  O   UNL     1      17.314 -13.294  62.016  1.00  0.00    -0.390 OA
ATOM     40  H   UNL     1      16.949 -13.877  61.299  1.00  0.00     0.211 HD
ENDBRANCH  34  39
ENDBRANCH   1  15
BRANCH   1  41
ATOM     41  O   UNL     1      10.715  -4.530  59.728  1.00  0.00    -0.387 OA
ATOM     42  H   UNL     1      11.670  -4.274  59.701  1.00  0.00     0.211 HD
ENDBRANCH   1  41
TORSDOF 9
ENDMDL
MODEL 3
REMARK VINA RESULT:    -8.981      4.955     11.818
REMARK INTER + INTRA:         -12.558
REMARK INTER:                 -12.371
REMARK INTRA:                  -0.187
REMARK UNBOUND:                -0.164
REMARK SMILES C[C@@H]1OC(=O)[C@H](C)[C@@H]1C[C@@H](O)[C@@](C)(O)[C@@H]1CC[C@@]2(O)C3=CC(=O)[C@H]4C[C@H](O)[C@@H](O)C[C@]4(C)[C@H]3CC[C@@]12C
REMARK SMILES IDX 12 1 13 2 10 3 9 4 8 5 7 6 6 7 4 8 2 9 3 10 5 11 1 12 11 13
REMARK SMILES IDX 15 15 16 16 36 17 17 18 18 19 35 20 37 21 20 22 34 23 33 24
REMARK SMILES IDX 21 25 31 26 22 27 24 28 30 29 32 30 23 31 25 32 28 33 26 34
REMARK SMILES IDX 19 35 29 37 27 39 14 41
REMARK H PARENT 11 14 19 36 29 38 27 40 14 42
REMARK Flexibility Score: inf
ROOT
ATOM      1  C   UNL     1      10.250 -11.489  57.546  1.00  0.00     0.091 C 
ATOM      2  C   UNL     1      10.596 -12.992  57.410  1.00  0.00     0.045 C 
ENDROOT
BRANCH   1   3
ATOM      3  C   UNL     1       8.692 -11.331  57.787  1.00  0.00     0.146 C 
BRANCH   3   4
ATOM      4  C   UNL     1       7.939 -10.598  56.627  1.00  0.00     0.043 C 
BRANCH   4   5
ATOM      5  C   UNL     1       8.054  -9.039  56.528  1.00  0.00     0.046 C 
ATOM      6  C   UNL     1       8.573  -9.239  53.925  1.00  0.00     0.020 C 
ATOM      7  C   UNL     1       8.020  -8.423  55.102  1.00  0.00     0.103 C 
ATOM      8  C   UNL     1       6.589  -8.037  54.990  1.00  0.00     0.309 C 
ATOM      9  C   UNL     1       6.933  -8.229  57.247  1.00  0.00     0.177 C 
ATOM     10  O   UNL     1       5.981  -7.957  56.228  1.00  0.00    -0.462 OA
ATOM     11  O   UNL     1       6.000  -7.750  53.914  1.00  0.00    -0.252 OA
ATOM     12  C   UNL     1       6.289  -8.827  58.501  1.00  0.00     0.053 C 
ENDBRANCH   4   5
ENDBRANCH   3   4
BRANCH   3  13
ATOM     13  O   UNL     1       8.113 -12.578  58.071  1.00  0.00    -0.390 OA
ATOM     14  H   UNL     1       7.439 -12.449  58.786  1.00  0.00     0.211 HD
ENDBRANCH   3  13
ENDBRANCH   1   3
BRANCH   1  15
ATOM     15  C   UNL     1      11.075 -10.849  58.756  1.00  0.00     0.032 C 
ATOM     16  C   UNL     1      10.405  -9.619  59.372  1.00  0.00     0.010 C 
ATOM     17  C   UNL     1      12.598 -10.435  58.599  1.00  0.00     0.006 C 
ATOM     18  C   UNL     1      11.433  -9.056  60.316  1.00  0.00     0.041 C 
ATOM     19  C   UNL     1      12.796  -9.195  59.598  1.00  0.00     0.092 C 
ATOM     20  C   UNL     1      13.528 -11.643  58.928  1.00  0.00     0.011 C 
ATOM     21  C   UNL     1      12.937 -10.002  57.142  1.00  0.00     0.015 C 
ATOM     22  C   UNL     1      13.888  -9.330  60.679  1.00  0.00    -0.031 C 
ATOM     23  C   UNL     1      13.785 -11.822  60.416  1.00  0.00     0.009 C 
ATOM     24  C   UNL     1      14.625 -10.647  60.931  1.00  0.00     0.025 C 
ATOM     25  C   UNL     1      14.173  -8.252  61.450  1.00  0.00     0.050 C 
ATOM     26  C   UNL     1      15.085 -10.812  62.432  1.00  0.00    -0.013 C 
ATOM     27  C   UNL     1      15.152  -8.303  62.547  1.00  0.00     0.159 C 
ATOM     28  C   UNL     1      15.953  -9.557  62.761  1.00  0.00     0.070 C 
ATOM     29  C   UNL     1      15.982 -12.080  62.601  1.00  0.00     0.042 C 
ATOM     30  C   UNL     1      13.836 -10.920  63.361  1.00  0.00     0.013 C 
ATOM     31  O   UNL     1      15.350  -7.276  63.250  1.00  0.00    -0.295 OA
ATOM     32  C   UNL     1      16.625  -9.626  64.149  1.00  0.00     0.047 C 
ATOM     33  C   UNL     1      16.727 -12.166  63.952  1.00  0.00     0.143 C 
ATOM     34  C   UNL     1      17.513 -10.873  64.269  1.00  0.00     0.143 C 
BRANCH  19  35
ATOM     35  O   UNL     1      13.073  -8.028  58.838  1.00  0.00    -0.385 OA
ATOM     36  H   UNL     1      12.805  -8.149  57.891  1.00  0.00     0.211 HD
ENDBRANCH  19  35
BRANCH  33  37
ATOM     37  O   UNL     1      15.823 -12.460  64.986  1.00  0.00    -0.390 OA
ATOM     38  H   UNL     1      14.910 -12.378  64.603  1.00  0.00     0.211 HD
ENDBRANCH  33  37
BRANCH  34  39
ATOM     39  O   UNL     1      18.610 -10.750  63.400  1.00  0.00    -0.390 OA
ATOM     40  H   UNL     1      19.291 -10.202  63.871  1.00  0.00     0.211 HD
ENDBRANCH  34  39
ENDBRANCH   1  15
BRANCH   1  41
ATOM     41  O   UNL     1      10.581 -10.882  56.320  1.00  0.00    -0.387 OA
ATOM     42  H   UNL     1      10.534 -11.566  55.608  1.00  0.00     0.211 HD
ENDBRANCH   1  41
TORSDOF 9
ENDMDL
MODEL 4
REMARK VINA RESULT:    -8.837      4.126     10.560
REMARK INTER + INTRA:         -12.360
REMARK INTER:                 -11.890
REMARK INTRA:                  -0.470
REMARK UNBOUND:                -0.164
REMARK SMILES C[C@@H]1OC(=O)[C@H](C)[C@@H]1C[C@@H](O)[C@@](C)(O)[C@@H]1CC[C@@]2(O)C3=CC(=O)[C@H]4C[C@H](O)[C@@H](O)C[C@]4(C)[C@H]3CC[C@@]12C
REMARK SMILES IDX 12 1 13 2 10 3 9 4 8 5 7 6 6 7 4 8 2 9 3 10 5 11 1 12 11 13
REMARK SMILES IDX 15 15 16 16 36 17 17 18 18 19 35 20 37 21 20 22 34 23 33 24
REMARK SMILES IDX 21 25 31 26 22 27 24 28 30 29 32 30 23 31 25 32 28 33 26 34
REMARK SMILES IDX 19 35 29 37 27 39 14 41
REMARK H PARENT 11 14 19 36 29 38 27 40 14 42
REMARK Flexibility Score: inf
ROOT
ATOM      1  C   UNL     1      10.564  -5.972  60.051  1.00  0.00     0.091 C 
ATOM      2  C   UNL     1      11.086  -4.574  59.634  1.00  0.00     0.045 C 
ENDROOT
BRANCH   1   3
ATOM      3  C   UNL     1      10.312  -6.844  58.753  1.00  0.00     0.146 C 
BRANCH   3   4
ATOM      4  C   UNL     1       9.682  -8.248  59.041  1.00  0.00     0.043 C 
BRANCH   4   5
ATOM      5  C   UNL     1       8.919  -8.977  57.883  1.00  0.00     0.046 C 
ATOM      6  C   UNL     1      11.203 -10.073  57.065  1.00  0.00     0.020 C 
ATOM      7  C   UNL     1       9.672 -10.132  57.167  1.00  0.00     0.103 C 
ATOM      8  C   UNL     1       9.129 -11.316  57.883  1.00  0.00     0.309 C 
ATOM      9  C   UNL     1       7.583  -9.673  58.284  1.00  0.00     0.177 C 
ATOM     10  O   UNL     1       7.947 -11.023  58.536  1.00  0.00    -0.462 OA
ATOM     11  O   UNL     1       9.633 -12.470  57.858  1.00  0.00    -0.252 OA
ATOM     12  C   UNL     1       6.758  -9.070  59.424  1.00  0.00     0.053 C 
ENDBRANCH   4   5
ENDBRANCH   3   4
BRANCH   3  13
ATOM     13  O   UNL     1       9.554  -6.121  57.818  1.00  0.00    -0.390 OA
ATOM     14  H   UNL     1       8.958  -6.757  57.346  1.00  0.00     0.211 HD
ENDBRANCH   3  13
ENDBRANCH   1   3
BRANCH   1  15
ATOM     15  C   UNL     1      11.626  -6.683  61.010  1.00  0.00     0.032 C 
ATOM     16  C   UNL     1      11.979  -5.859  62.250  1.00  0.00     0.010 C 
ATOM     17  C   UNL     1      13.022  -7.204  60.467  1.00  0.00     0.006 C 
ATOM     18  C   UNL     1      13.134  -6.592  62.880  1.00  0.00     0.041 C 
ATOM     19  C   UNL     1      14.027  -7.069  61.711  1.00  0.00     0.092 C 
ATOM     20  C   UNL     1      12.891  -8.665  59.939  1.00  0.00     0.011 C 
ATOM     21  C   UNL     1      13.539  -6.347  59.274  1.00  0.00     0.015 C 
ATOM     22  C   UNL     1      14.756  -8.350  62.167  1.00  0.00    -0.031 C 
ATOM     23  C   UNL     1      12.984  -9.716  61.034  1.00  0.00     0.009 C 
ATOM     24  C   UNL     1      14.408  -9.729  61.604  1.00  0.00     0.025 C 
ATOM     25  C   UNL     1      15.710  -8.246  63.124  1.00  0.00     0.050 C 
ATOM     26  C   UNL     1      14.661 -10.894  62.640  1.00  0.00    -0.013 C 
ATOM     27  C   UNL     1      16.415  -9.417  63.668  1.00  0.00     0.159 C 
ATOM     28  C   UNL     1      16.156 -10.774  63.073  1.00  0.00     0.070 C 
ATOM     29  C   UNL     1      14.462 -12.289  61.965  1.00  0.00     0.042 C 
ATOM     30  C   UNL     1      13.687 -10.748  63.850  1.00  0.00     0.013 C 
ATOM     31  O   UNL     1      17.270  -9.259  64.581  1.00  0.00    -0.295 OA
ATOM     32  C   UNL     1      16.627 -11.938  63.970  1.00  0.00     0.047 C 
ATOM     33  C   UNL     1      14.975 -13.486  62.798  1.00  0.00     0.143 C 
ATOM     34  C   UNL     1      16.434 -13.289  63.266  1.00  0.00     0.143 C 
BRANCH  19  35
ATOM     35  O   UNL     1      15.009  -6.089  61.410  1.00  0.00    -0.385 OA
ATOM     36  H   UNL     1      14.800  -5.628  60.558  1.00  0.00     0.211 HD
ENDBRANCH  19  35
BRANCH  33  37
ATOM     37  O   UNL     1      14.130 -13.708  63.897  1.00  0.00    -0.390 OA
ATOM     38  H   UNL     1      13.271 -13.248  63.699  1.00  0.00     0.211 HD
ENDBRANCH  33  37
BRANCH  34  39
ATOM     39  O   UNL     1      17.308 -13.371  62.168  1.00  0.00    -0.390 OA
ATOM     40  H   UNL     1      16.745 -13.477  61.358  1.00  0.00     0.211 HD
ENDBRANCH  34  39
ENDBRANCH   1  15
BRANCH   1  41
ATOM     41  O   UNL     1       9.335  -5.769  60.705  1.00  0.00    -0.387 OA
ATOM     42  H   UNL     1       8.625  -6.224  60.188  1.00  0.00     0.211 HD
ENDBRANCH   1  41
TORSDOF 9
ENDMDL
MODEL 5
REMARK VINA RESULT:    -8.823      3.421     10.411
REMARK INTER + INTRA:         -12.340
REMARK INTER:                 -11.698
REMARK INTRA:                  -0.643
REMARK UNBOUND:                -0.164
REMARK SMILES C[C@@H]1OC(=O)[C@H](C)[C@@H]1C[C@@H](O)[C@@](C)(O)[C@@H]1CC[C@@]2(O)C3=CC(=O)[C@H]4C[C@H](O)[C@@H](O)C[C@]4(C)[C@H]3CC[C@@]12C
REMARK SMILES IDX 12 1 13 2 10 3 9 4 8 5 7 6 6 7 4 8 2 9 3 10 5 11 1 12 11 13
REMARK SMILES IDX 15 15 16 16 36 17 17 18 18 19 35 20 37 21 20 22 34 23 33 24
REMARK SMILES IDX 21 25 31 26 22 27 24 28 30 29 32 30 23 31 25 32 28 33 26 34
REMARK SMILES IDX 19 35 29 37 27 39 14 41
REMARK H PARENT 11 14 19 36 29 38 27 40 14 42
REMARK Flexibility Score: inf
ROOT
ATOM      1  C   UNL     1      13.613  -7.782  57.953  1.00  0.00     0.091 C 
ATOM      2  C   UNL     1      14.950  -7.158  57.484  1.00  0.00     0.045 C 
ENDROOT
BRANCH   1   3
ATOM      3  C   UNL     1      12.978  -8.615  56.764  1.00  0.00     0.146 C 
BRANCH   3   4
ATOM      4  C   UNL     1      11.478  -8.275  56.477  1.00  0.00     0.043 C 
BRANCH   4   5
ATOM      5  C   UNL     1      10.427  -9.436  56.516  1.00  0.00     0.046 C 
ATOM      6  C   UNL     1       9.720  -8.720  58.980  1.00  0.00     0.020 C 
ATOM      7  C   UNL     1       9.357  -9.376  57.641  1.00  0.00     0.103 C 
ATOM      8  C   UNL     1       8.216  -8.754  56.918  1.00  0.00     0.309 C 
ATOM      9  C   UNL     1       9.539  -9.590  55.244  1.00  0.00     0.177 C 
ATOM     10  O   UNL     1       8.355  -8.865  55.548  1.00  0.00    -0.462 OA
ATOM     11  O   UNL     1       7.206  -8.240  57.468  1.00  0.00    -0.252 OA
ATOM     12  C   UNL     1      10.130  -9.196  53.888  1.00  0.00     0.053 C 
ENDBRANCH   4   5
ENDBRANCH   3   4
BRANCH   3  13
ATOM     13  O   UNL     1      13.765  -8.492  55.608  1.00  0.00    -0.390 OA
ATOM     14  H   UNL     1      14.608  -8.992  55.754  1.00  0.00     0.211 HD
ENDBRANCH   3  13
ENDBRANCH   1   3
BRANCH   1  15
ATOM     15  C   UNL     1      13.867  -8.718  59.223  1.00  0.00     0.032 C 
ATOM     16  C   UNL     1      13.083 -10.031  59.184  1.00  0.00     0.010 C 
ATOM     17  C   UNL     1      13.673  -8.183  60.704  1.00  0.00     0.006 C 
ATOM     18  C   UNL     1      13.287 -10.640  60.546  1.00  0.00     0.041 C 
ATOM     19  C   UNL     1      13.222  -9.468  61.553  1.00  0.00     0.092 C 
ATOM     20  C   UNL     1      14.992  -7.535  61.227  1.00  0.00     0.011 C 
ATOM     21  C   UNL     1      12.577  -7.081  60.787  1.00  0.00     0.015 C 
ATOM     22  C   UNL     1      14.087  -9.845  62.773  1.00  0.00    -0.031 C 
ATOM     23  C   UNL     1      15.987  -8.545  61.777  1.00  0.00     0.009 C 
ATOM     24  C   UNL     1      15.425  -9.160  63.064  1.00  0.00     0.025 C 
ATOM     25  C   UNL     1      13.659 -10.839  63.588  1.00  0.00     0.050 C 
ATOM     26  C   UNL     1      16.446 -10.108  63.808  1.00  0.00    -0.013 C 
ATOM     27  C   UNL     1      14.446 -11.311  64.738  1.00  0.00     0.159 C 
ATOM     28  C   UNL     1      15.721 -10.600  65.100  1.00  0.00     0.070 C 
ATOM     29  C   UNL     1      17.722  -9.317  64.240  1.00  0.00     0.042 C 
ATOM     30  C   UNL     1      16.848 -11.291  62.874  1.00  0.00     0.013 C 
ATOM     31  O   UNL     1      14.009 -12.262  65.441  1.00  0.00    -0.295 OA
ATOM     32  C   UNL     1      16.634 -11.417  66.038  1.00  0.00     0.047 C 
ATOM     33  C   UNL     1      18.640 -10.068  65.230  1.00  0.00     0.143 C 
ATOM     34  C   UNL     1      17.866 -10.600  66.456  1.00  0.00     0.143 C 
BRANCH  19  35
ATOM     35  O   UNL     1      11.888  -9.280  62.003  1.00  0.00    -0.385 OA
ATOM     36  H   UNL     1      11.322 -10.060  61.771  1.00  0.00     0.211 HD
ENDBRANCH  19  35
BRANCH  33  37
ATOM     37  O   UNL     1      19.305 -11.116  64.573  1.00  0.00    -0.390 OA
ATOM     38  H   UNL     1      19.834 -10.707  63.838  1.00  0.00     0.211 HD
ENDBRANCH  33  37
BRANCH  34  39
ATOM     39  O   UNL     1      17.460  -9.531  67.273  1.00  0.00    -0.390 OA
ATOM     40  H   UNL     1      17.584  -8.700  66.743  1.00  0.00     0.211 HD
ENDBRANCH  34  39
ENDBRANCH   1  15
BRANCH   1  41
ATOM     41  O   UNL     1      12.752  -6.714  58.266  1.00  0.00    -0.387 OA
ATOM     42  H   UNL     1      13.258  -6.045  58.789  1.00  0.00     0.211 HD
ENDBRANCH   1  41
TORSDOF 9
ENDMDL
MODEL 6
REMARK VINA RESULT:    -8.730      8.898     11.389
REMARK INTER + INTRA:         -12.212
REMARK INTER:                 -11.279
REMARK INTRA:                  -0.932
REMARK UNBOUND:                -0.164
REMARK SMILES C[C@@H]1OC(=O)[C@H](C)[C@@H]1C[C@@H](O)[C@@](C)(O)[C@@H]1CC[C@@]2(O)C3=CC(=O)[C@H]4C[C@H](O)[C@@H](O)C[C@]4(C)[C@H]3CC[C@@]12C
REMARK SMILES IDX 12 1 13 2 10 3 9 4 8 5 7 6 6 7 4 8 2 9 3 10 5 11 1 12 11 13
REMARK SMILES IDX 15 15 16 16 36 17 17 18 18 19 35 20 37 21 20 22 34 23 33 24
REMARK SMILES IDX 21 25 31 26 22 27 24 28 30 29 32 30 23 31 25 32 28 33 26 34
REMARK SMILES IDX 19 35 29 37 27 39 14 41
REMARK H PARENT 11 14 19 36 29 38 27 40 14 42
REMARK Flexibility Score: inf
ROOT
ATOM      1  C   UNL     1      15.161  -4.376  57.330  1.00  0.00     0.091 C 
ATOM      2  C   UNL     1      14.429  -3.128  56.777  1.00  0.00     0.045 C 
ENDROOT
BRANCH   1   3
ATOM      3  C   UNL     1      15.554  -4.123  58.844  1.00  0.00     0.146 C 
BRANCH   3   4
ATOM      4  C   UNL     1      14.468  -4.590  59.871  1.00  0.00     0.043 C 
BRANCH   4   5
ATOM      5  C   UNL     1      13.027  -3.985  59.762  1.00  0.00     0.046 C 
ATOM      6  C   UNL     1      11.982  -6.419  60.028  1.00  0.00     0.020 C 
ATOM      7  C   UNL     1      11.849  -4.899  60.199  1.00  0.00     0.103 C 
ATOM      8  C   UNL     1      11.628  -4.435  61.594  1.00  0.00     0.309 C 
ATOM      9  C   UNL     1      12.764  -2.705  60.610  1.00  0.00     0.177 C 
ATOM     10  O   UNL     1      12.182  -3.189  61.813  1.00  0.00    -0.462 OA
ATOM     11  O   UNL     1      10.964  -5.056  62.466  1.00  0.00    -0.252 OA
ATOM     12  C   UNL     1      13.930  -1.748  60.871  1.00  0.00     0.053 C 
ENDBRANCH   4   5
ENDBRANCH   3   4
BRANCH   3  13
ATOM     13  O   UNL     1      16.807  -4.691  59.125  1.00  0.00    -0.390 OA
ATOM     14  H   UNL     1      17.457  -3.955  59.253  1.00  0.00     0.211 HD
ENDBRANCH   3  13
ENDBRANCH   1   3
BRANCH   1  15
ATOM     15  C   UNL     1      14.220  -5.660  57.199  1.00  0.00     0.032 C 
ATOM     16  C   UNL     1      14.905  -6.966  57.607  1.00  0.00     0.010 C 
ATOM     17  C   UNL     1      13.472  -6.010  55.845  1.00  0.00     0.006 C 
ATOM     18  C   UNL     1      13.940  -8.048  57.200  1.00  0.00     0.041 C 
ATOM     19  C   UNL     1      13.358  -7.611  55.836  1.00  0.00     0.092 C 
ATOM     20  C   UNL     1      12.087  -5.296  55.787  1.00  0.00     0.011 C 
ATOM     21  C   UNL     1      14.270  -5.529  54.597  1.00  0.00     0.015 C 
ATOM     22  C   UNL     1      11.943  -8.214  55.712  1.00  0.00    -0.031 C 
ATOM     23  C   UNL     1      10.988  -6.042  56.526  1.00  0.00     0.009 C 
ATOM     24  C   UNL     1      10.681  -7.352  55.789  1.00  0.00     0.025 C 
ATOM     25  C   UNL     1      11.822  -9.556  55.565  1.00  0.00     0.050 C 
ATOM     26  C   UNL     1       9.443  -8.133  56.381  1.00  0.00    -0.013 C 
ATOM     27  C   UNL     1      10.516 -10.229  55.503  1.00  0.00     0.159 C 
ATOM     28  C   UNL     1       9.260  -9.400  55.488  1.00  0.00     0.070 C 
ATOM     29  C   UNL     1       8.143  -7.273  56.276  1.00  0.00     0.042 C 
ATOM     30  C   UNL     1       9.714  -8.502  57.873  1.00  0.00     0.013 C 
ATOM     31  O   UNL     1      10.468 -11.484  55.398  1.00  0.00    -0.295 OA
ATOM     32  C   UNL     1       7.989 -10.207  55.826  1.00  0.00     0.047 C 
ATOM     33  C   UNL     1       6.834  -8.050  56.545  1.00  0.00     0.143 C 
ATOM     34  C   UNL     1       6.732  -9.335  55.692  1.00  0.00     0.143 C 
BRANCH  19  35
ATOM     35  O   UNL     1      14.149  -8.126  54.776  1.00  0.00    -0.385 OA
ATOM     36  H   UNL     1      13.849  -9.035  54.518  1.00  0.00     0.211 HD
ENDBRANCH  19  35
BRANCH  33  37
ATOM     37  O   UNL     1       6.725  -8.355  57.911  1.00  0.00    -0.390 OA
ATOM     38  H   UNL     1       6.349  -7.551  58.357  1.00  0.00     0.211 HD
ENDBRANCH  33  37
BRANCH  34  39
ATOM     39  O   UNL     1       6.538  -9.002  54.340  1.00  0.00    -0.390 OA
ATOM     40  H   UNL     1       7.352  -8.519  54.042  1.00  0.00     0.211 HD
ENDBRANCH  34  39
ENDBRANCH   1  15
BRANCH   1  41
ATOM     41  O   UNL     1      16.341  -4.523  56.576  1.00  0.00    -0.387 OA
ATOM     42  H   UNL     1      16.888  -5.237  56.986  1.00  0.00     0.211 HD
ENDBRANCH   1  41
TORSDOF 9
ENDMDL
MODEL 7
REMARK VINA RESULT:    -8.700      5.958     10.769
REMARK INTER + INTRA:         -12.170
REMARK INTER:                 -11.398
REMARK INTRA:                  -0.773
REMARK UNBOUND:                -0.164
REMARK SMILES C[C@@H]1OC(=O)[C@H](C)[C@@H]1C[C@@H](O)[C@@](C)(O)[C@@H]1CC[C@@]2(O)C3=CC(=O)[C@H]4C[C@H](O)[C@@H](O)C[C@]4(C)[C@H]3CC[C@@]12C
REMARK SMILES IDX 12 1 13 2 10 3 9 4 8 5 7 6 6 7 4 8 2 9 3 10 5 11 1 12 11 13
REMARK SMILES IDX 15 15 16 16 36 17 17 18 18 19 35 20 37 21 20 22 34 23 33 24
REMARK SMILES IDX 21 25 31 26 22 27 24 28 30 29 32 30 23 31 25 32 28 33 26 34
REMARK SMILES IDX 19 35 29 37 27 39 14 41
REMARK H PARENT 11 14 19 36 29 38 27 40 14 42
REMARK Flexibility Score: inf
ROOT
ATOM      1  C   UNL     1      14.749  -5.384  58.446  1.00  0.00     0.091 C 
ATOM      2  C   UNL     1      14.113  -4.014  58.789  1.00  0.00     0.045 C 
ENDROOT
BRANCH   1   3
ATOM      3  C   UNL     1      15.378  -6.012  59.757  1.00  0.00     0.146 C 
BRANCH   3   4
ATOM      4  C   UNL     1      14.469  -7.081  60.451  1.00  0.00     0.043 C 
BRANCH   4   5
ATOM      5  C   UNL     1      14.241  -6.977  61.998  1.00  0.00     0.046 C 
ATOM      6  C   UNL     1      12.187  -5.334  61.589  1.00  0.00     0.020 C 
ATOM      7  C   UNL     1      12.885  -6.381  62.468  1.00  0.00     0.103 C 
ATOM      8  C   UNL     1      12.101  -7.618  62.724  1.00  0.00     0.309 C 
ATOM      9  C   UNL     1      14.280  -8.324  62.780  1.00  0.00     0.177 C 
ATOM     10  O   UNL     1      12.919  -8.721  62.875  1.00  0.00    -0.462 OA
ATOM     11  O   UNL     1      10.850  -7.666  62.858  1.00  0.00    -0.252 OA
ATOM     12  C   UNL     1      15.179  -9.447  62.257  1.00  0.00     0.053 C 
ENDBRANCH   4   5
ENDBRANCH   3   4
BRANCH   3  13
ATOM     13  O   UNL     1      16.659  -6.522  59.489  1.00  0.00    -0.390 OA
ATOM     14  H   UNL     1      16.775  -7.355  60.014  1.00  0.00     0.211 HD
ENDBRANCH   3  13
ENDBRANCH   1   3
BRANCH   1  15
ATOM     15  C   UNL     1      13.642  -6.358  57.829  1.00  0.00     0.032 C 
ATOM     16  C   UNL     1      14.228  -7.524  57.030  1.00  0.00     0.010 C 
ATOM     17  C   UNL     1      12.461  -5.809  56.924  1.00  0.00     0.006 C 
ATOM     18  C   UNL     1      13.040  -8.167  56.366  1.00  0.00     0.041 C 
ATOM     19  C   UNL     1      12.123  -7.008  55.912  1.00  0.00     0.092 C 
ATOM     20  C   UNL     1      11.246  -5.391  57.808  1.00  0.00     0.011 C 
ATOM     21  C   UNL     1      12.881  -4.541  56.123  1.00  0.00     0.015 C 
ATOM     22  C   UNL     1      10.671  -7.531  55.901  1.00  0.00    -0.031 C 
ATOM     23  C   UNL     1      10.344  -6.554  58.188  1.00  0.00     0.009 C 
ATOM     24  C   UNL     1       9.636  -7.078  56.933  1.00  0.00     0.025 C 
ATOM     25  C   UNL     1      10.320  -8.446  54.966  1.00  0.00     0.050 C 
ATOM     26  C   UNL     1       8.552  -8.186  57.236  1.00  0.00    -0.013 C 
ATOM     27  C   UNL     1       8.980  -9.050  54.916  1.00  0.00     0.159 C 
ATOM     28  C   UNL     1       7.917  -8.561  55.861  1.00  0.00     0.070 C 
ATOM     29  C   UNL     1       7.422  -7.619  58.155  1.00  0.00     0.042 C 
ATOM     30  C   UNL     1       9.227  -9.413  57.925  1.00  0.00     0.013 C 
ATOM     31  O   UNL     1       8.723  -9.921  54.042  1.00  0.00    -0.295 OA
ATOM     32  C   UNL     1       6.717  -9.525  55.986  1.00  0.00     0.047 C 
ATOM     33  C   UNL     1       6.170  -8.519  58.264  1.00  0.00     0.143 C 
ATOM     34  C   UNL     1       5.620  -8.925  56.878  1.00  0.00     0.143 C 
BRANCH  19  35
ATOM     35  O   UNL     1      12.454  -6.606  54.591  1.00  0.00    -0.385 OA
ATOM     36  H   UNL     1      13.427  -6.438  54.505  1.00  0.00     0.211 HD
ENDBRANCH  19  35
BRANCH  33  37
ATOM     37  O   UNL     1       6.458  -9.657  59.034  1.00  0.00    -0.390 OA
ATOM     38  H   UNL     1       6.063  -9.506  59.933  1.00  0.00     0.211 HD
ENDBRANCH  33  37
BRANCH  34  39
ATOM     39  O   UNL     1       5.056  -7.809  56.237  1.00  0.00    -0.390 OA
ATOM     40  H   UNL     1       4.679  -8.130  55.377  1.00  0.00     0.211 HD
ENDBRANCH  34  39
ENDBRANCH   1  15
BRANCH   1  41
ATOM     41  O   UNL     1      15.783  -5.133  57.524  1.00  0.00    -0.387 OA
ATOM     42  H   UNL     1      16.396  -4.462  57.915  1.00  0.00     0.211 HD
ENDBRANCH   1  41
TORSDOF 9
ENDMDL
MODEL 8
REMARK VINA RESULT:    -8.689      1.767      2.851
REMARK INTER + INTRA:         -12.154
REMARK INTER:                 -12.221
REMARK INTRA:                   0.067
REMARK UNBOUND:                -0.164
REMARK SMILES C[C@@H]1OC(=O)[C@H](C)[C@@H]1C[C@@H](O)[C@@](C)(O)[C@@H]1CC[C@@]2(O)C3=CC(=O)[C@H]4C[C@H](O)[C@@H](O)C[C@]4(C)[C@H]3CC[C@@]12C
REMARK SMILES IDX 12 1 13 2 10 3 9 4 8 5 7 6 6 7 4 8 2 9 3 10 5 11 1 12 11 13
REMARK SMILES IDX 15 15 16 16 36 17 17 18 18 19 35 20 37 21 20 22 34 23 33 24
REMARK SMILES IDX 21 25 31 26 22 27 24 28 30 29 32 30 23 31 25 32 28 33 26 34
REMARK SMILES IDX 19 35 29 37 27 39 14 41
REMARK H PARENT 11 14 19 36 29 38 27 40 14 42
REMARK Flexibility Score: inf
ROOT
ATOM      1  C   UNL     1      16.937 -11.860  65.836  1.00  0.00     0.091 C 
ATOM      2  C   UNL     1      17.531 -13.132  65.180  1.00  0.00     0.045 C 
ENDROOT
BRANCH   1   3
ATOM      3  C   UNL     1      18.095 -10.807  66.078  1.00  0.00     0.146 C 
BRANCH   3   4
ATOM      4  C   UNL     1      19.331 -10.990  65.135  1.00  0.00     0.043 C 
BRANCH   4   5
ATOM      5  C   UNL     1      20.747 -10.593  65.673  1.00  0.00     0.046 C 
ATOM      6  C   UNL     1      20.656 -12.611  67.408  1.00  0.00     0.020 C 
ATOM      7  C   UNL     1      21.484 -11.646  66.547  1.00  0.00     0.103 C 
ATOM      8  C   UNL     1      22.364 -12.292  65.538  1.00  0.00     0.309 C 
ATOM      9  C   UNL     1      21.821 -10.279  64.588  1.00  0.00     0.177 C 
ATOM     10  O   UNL     1      22.522 -11.503  64.415  1.00  0.00    -0.462 OA
ATOM     11  O   UNL     1      22.956 -13.393  65.694  1.00  0.00    -0.252 OA
ATOM     12  C   UNL     1      21.361  -9.678  63.257  1.00  0.00     0.053 C 
ENDBRANCH   4   5
ENDBRANCH   3   4
BRANCH   3  13
ATOM     13  O   UNL     1      17.587  -9.500  66.015  1.00  0.00    -0.390 OA
ATOM     14  H   UNL     1      17.103  -9.316  66.860  1.00  0.00     0.211 HD
ENDBRANCH   3  13
ENDBRANCH   1   3
BRANCH   1  15
ATOM     15  C   UNL     1      15.803 -11.244  64.895  1.00  0.00     0.032 C 
ATOM     16  C   UNL     1      14.421 -11.865  65.112  1.00  0.00     0.010 C 
ATOM     17  C   UNL     1      15.969 -11.186  63.318  1.00  0.00     0.006 C 
ATOM     18  C   UNL     1      13.574 -11.315  63.995  1.00  0.00     0.041 C 
ATOM     19  C   UNL     1      14.476 -11.303  62.739  1.00  0.00     0.092 C 
ATOM     20  C   UNL     1      16.689  -9.869  62.894  1.00  0.00     0.011 C 
ATOM     21  C   UNL     1      16.840 -12.359  62.780  1.00  0.00     0.015 C 
ATOM     22  C   UNL     1      13.988 -10.166  61.818  1.00  0.00    -0.031 C 
ATOM     23  C   UNL     1      15.756  -8.674  62.787  1.00  0.00     0.009 C 
ATOM     24  C   UNL     1      14.796  -8.884  61.609  1.00  0.00     0.025 C 
ATOM     25  C   UNL     1      12.787 -10.301  61.205  1.00  0.00     0.050 C 
ATOM     26  C   UNL     1      13.885  -7.630  61.307  1.00  0.00    -0.013 C 
ATOM     27  C   UNL     1      12.209  -9.244  60.360  1.00  0.00     0.159 C 
ATOM     28  C   UNL     1      13.018  -8.011  60.067  1.00  0.00     0.070 C 
ATOM     29  C   UNL     1      14.757  -6.390  60.928  1.00  0.00     0.042 C 
ATOM     30  C   UNL     1      13.009  -7.299  62.556  1.00  0.00     0.013 C 
ATOM     31  O   UNL     1      11.072  -9.415  59.843  1.00  0.00    -0.295 OA
ATOM     32  C   UNL     1      12.173  -6.836  59.529  1.00  0.00     0.047 C 
ATOM     33  C   UNL     1      13.965  -5.207  60.326  1.00  0.00     0.143 C 
ATOM     34  C   UNL     1      13.065  -5.646  59.148  1.00  0.00     0.143 C 
BRANCH  19  35
ATOM     35  O   UNL     1      14.350 -12.527  62.031  1.00  0.00    -0.385 OA
ATOM     36  H   UNL     1      13.437 -12.628  61.657  1.00  0.00     0.211 HD
ENDBRANCH  19  35
BRANCH  33  37
ATOM     37  O   UNL     1      13.201  -4.579  61.323  1.00  0.00    -0.390 OA
ATOM     38  H   UNL     1      12.722  -3.824  60.888  1.00  0.00     0.211 HD
ENDBRANCH  33  37
BRANCH  34  39
ATOM     39  O   UNL     1      13.856  -5.991  58.040  1.00  0.00    -0.390 OA
ATOM     40  H   UNL     1      14.384  -5.185  57.798  1.00  0.00     0.211 HD
ENDBRANCH  34  39
ENDBRANCH   1  15
BRANCH   1  41
ATOM     41  O   UNL     1      16.414 -12.252  67.082  1.00  0.00    -0.387 OA
ATOM     42  H   UNL     1      16.787 -11.659  67.780  1.00  0.00     0.211 HD
ENDBRANCH   1  41
TORSDOF 9
ENDMDL
MODEL 9
REMARK VINA RESULT:    -8.547      8.811     11.686
REMARK INTER + INTRA:         -11.958
REMARK INTER:                 -11.285
REMARK INTRA:                  -0.673
REMARK UNBOUND:                -0.164
REMARK SMILES C[C@@H]1OC(=O)[C@H](C)[C@@H]1C[C@@H](O)[C@@](C)(O)[C@@H]1CC[C@@]2(O)C3=CC(=O)[C@H]4C[C@H](O)[C@@H](O)C[C@]4(C)[C@H]3CC[C@@]12C
REMARK SMILES IDX 12 1 13 2 10 3 9 4 8 5 7 6 6 7 4 8 2 9 3 10 5 11 1 12 11 13
REMARK SMILES IDX 15 15 16 16 36 17 17 18 18 19 35 20 37 21 20 22 34 23 33 24
REMARK SMILES IDX 21 25 31 26 22 27 24 28 30 29 32 30 23 31 25 32 28 33 26 34
REMARK SMILES IDX 19 35 29 37 27 39 14 41
REMARK H PARENT 11 14 19 36 29 38 27 40 14 42
REMARK Flexibility Score: inf
ROOT
ATOM      1  C   UNL     1      14.925  -4.455  58.160  1.00  0.00     0.091 C 
ATOM      2  C   UNL     1      14.819  -3.443  56.992  1.00  0.00     0.045 C 
ENDROOT
BRANCH   1   3
ATOM      3  C   UNL     1      14.485  -3.746  59.507  1.00  0.00     0.146 C 
BRANCH   3   4
ATOM      4  C   UNL     1      12.935  -3.651  59.700  1.00  0.00     0.043 C 
BRANCH   4   5
ATOM      5  C   UNL     1      12.356  -3.750  61.152  1.00  0.00     0.046 C 
ATOM      6  C   UNL     1      12.448  -1.098  61.373  1.00  0.00     0.020 C 
ATOM      7  C   UNL     1      11.814  -2.436  61.781  1.00  0.00     0.103 C 
ATOM      8  C   UNL     1      10.360  -2.561  61.500  1.00  0.00     0.309 C 
ATOM      9  C   UNL     1      11.140  -4.709  61.333  1.00  0.00     0.177 C 
ATOM     10  O   UNL     1      10.002  -3.866  61.222  1.00  0.00    -0.462 OA
ATOM     11  O   UNL     1       9.527  -1.618  61.566  1.00  0.00    -0.252 OA
ATOM     12  C   UNL     1      11.042  -5.942  60.432  1.00  0.00     0.053 C 
ENDBRANCH   4   5
ENDBRANCH   3   4
BRANCH   3  13
ATOM     13  O   UNL     1      15.105  -4.360  60.607  1.00  0.00    -0.390 OA
ATOM     14  H   UNL     1      14.942  -5.336  60.548  1.00  0.00     0.211 HD
ENDBRANCH   3  13
ENDBRANCH   1   3
BRANCH   1  15
ATOM     15  C   UNL     1      14.002  -5.725  57.864  1.00  0.00     0.032 C 
ATOM     16  C   UNL     1      14.614  -7.048  58.327  1.00  0.00     0.010 C 
ATOM     17  C   UNL     1      13.447  -6.030  56.410  1.00  0.00     0.006 C 
ATOM     18  C   UNL     1      13.707  -8.108  57.760  1.00  0.00     0.041 C 
ATOM     19  C   UNL     1      13.323  -7.629  56.341  1.00  0.00     0.092 C 
ATOM     20  C   UNL     1      12.089  -5.299  56.180  1.00  0.00     0.011 C 
ATOM     21  C   UNL     1      14.414  -5.525  55.299  1.00  0.00     0.015 C 
ATOM     22  C   UNL     1      11.935  -8.212  56.005  1.00  0.00    -0.031 C 
ATOM     23  C   UNL     1      10.892  -6.053  56.738  1.00  0.00     0.009 C 
ATOM     24  C   UNL     1      10.681  -7.339  55.930  1.00  0.00     0.025 C 
ATOM     25  C   UNL     1      11.826  -9.549  55.805  1.00  0.00     0.050 C 
ATOM     26  C   UNL     1       9.368  -8.122  56.323  1.00  0.00    -0.013 C 
ATOM     27  C   UNL     1      10.536 -10.205  55.543  1.00  0.00     0.159 C 
ATOM     28  C   UNL     1       9.301  -9.362  55.378  1.00  0.00     0.070 C 
ATOM     29  C   UNL     1       8.101  -7.245  56.062  1.00  0.00     0.042 C 
ATOM     30  C   UNL     1       9.425  -8.533  57.827  1.00  0.00     0.013 C 
ATOM     31  O   UNL     1      10.494 -11.456  55.399  1.00  0.00    -0.295 OA
ATOM     32  C   UNL     1       7.989 -10.163  55.514  1.00  0.00     0.047 C 
ATOM     33  C   UNL     1       6.762  -8.014  56.125  1.00  0.00     0.143 C 
ATOM     34  C   UNL     1       6.769  -9.274  55.230  1.00  0.00     0.143 C 
BRANCH  19  35
ATOM     35  O   UNL     1      14.250  -8.124  55.386  1.00  0.00    -0.385 OA
ATOM     36  H   UNL     1      14.120  -7.688  54.506  1.00  0.00     0.211 HD
ENDBRANCH  19  35
BRANCH  33  37
ATOM     37  O   UNL     1       6.461  -8.354  57.454  1.00  0.00    -0.390 OA
ATOM     38  H   UNL     1       5.576  -7.953  57.662  1.00  0.00     0.211 HD
ENDBRANCH  33  37
BRANCH  34  39
ATOM     39  O   UNL     1       6.767  -8.903  53.875  1.00  0.00    -0.390 OA
ATOM     40  H   UNL     1       7.509  -8.255  53.752  1.00  0.00     0.211 HD
ENDBRANCH  34  39
ENDBRANCH   1  15
BRANCH   1  41
ATOM     41  O   UNL     1      16.281  -4.818  58.263  1.00  0.00    -0.387 OA
ATOM     42  H   UNL     1      16.830  -4.100  57.860  1.00  0.00     0.211 HD
ENDBRANCH   1  41
TORSDOF 9
ENDMDL
