MODEL 1
REMARK VINA RESULT:    -5.936      0.000      0.000
REMARK INTER + INTRA:          -8.792
REMARK INTER:                  -8.364
REMARK INTRA:                  -0.428
REMARK UNBOUND:                -0.428
REMARK SMILES C[C@H](CO)CCC(=O)[C@@H](C)[C@H]1C(=O)C[C@@H]2[C@H]3CC=C4C[C@@H](O)CC[C@@]4(C)[C@H]3CC[C@@]21C
REMARK SMILES IDX 6 1 5 2 2 3 1 4 3 5 4 6 7 8 8 9 9 10 10 11 11 12 12 13 30 14
REMARK SMILES IDX 13 15 14 16 15 17 29 18 31 19 16 20 28 21 27 22 17 23 25 24
REMARK SMILES IDX 18 25 19 26 24 27 26 28 20 29 23 30 21 31 22 32
REMARK H PARENT 4 7 22 33
REMARK Flexibility Score: inf
ROOT
ATOM      1  C   UNL     1      23.438 -14.860  44.252  1.00  0.00     0.076 C 
ENDROOT
BRANCH   1   2
ATOM      2  C   UNL     1      23.018 -15.986  45.209  1.00  0.00     0.013 C 
BRANCH   2   3
ATOM      3  C   UNL     1      24.220 -16.816  45.718  1.00  0.00     0.012 C 
ATOM      4  C   UNL     1      24.023 -18.316  45.441  1.00  0.00     0.010 C 
BRANCH   3   5
ATOM      5  C   UNL     1      24.427 -16.570  47.228  1.00  0.00     0.159 C 
BRANCH   5   6
ATOM      6  O   UNL     1      24.798 -17.752  47.884  1.00  0.00    -0.396 OA
ATOM      7  H   UNL     1      24.181 -18.460  47.564  1.00  0.00     0.210 HD
ENDBRANCH   5   6
ENDBRANCH   3   5
ENDBRANCH   2   3
ENDBRANCH   1   2
BRANCH   1   8
ATOM      8  C   UNL     1      24.046 -13.708  45.011  1.00  0.00     0.136 C 
ATOM      9  O   UNL     1      25.125 -13.258  44.649  1.00  0.00    -0.299 OA
BRANCH   8  10
ATOM     10  C   UNL     1      23.329 -13.077  46.195  1.00  0.00     0.064 C 
ATOM     11  C   UNL     1      24.397 -12.708  47.248  1.00  0.00     0.017 C 
BRANCH  10  12
ATOM     12  C   UNL     1      22.445 -11.849  45.748  1.00  0.00     0.072 C 
ATOM     13  C   UNL     1      23.104 -11.140  44.603  1.00  0.00     0.137 C 
ATOM     14  C   UNL     1      21.028 -12.164  45.132  1.00  0.00    -0.019 C 
ATOM     15  O   UNL     1      24.031 -10.356  44.746  1.00  0.00    -0.299 OA
ATOM     16  C   UNL     1      22.497 -11.412  43.285  1.00  0.00     0.080 C 
ATOM     17  C   UNL     1      21.313 -12.341  43.600  1.00  0.00     0.007 C 
ATOM     18  C   UNL     1      20.101 -10.936  45.378  1.00  0.00     0.008 C 
ATOM     19  C   UNL     1      20.362 -13.408  45.770  1.00  0.00     0.012 C 
ATOM     20  C   UNL     1      20.124 -12.087  42.617  1.00  0.00     0.001 C 
ATOM     21  C   UNL     1      18.868 -10.884  44.464  1.00  0.00     0.005 C 
ATOM     22  C   UNL     1      19.283 -10.831  42.976  1.00  0.00     0.003 C 
ATOM     23  C   UNL     1      19.243 -13.337  42.452  1.00  0.00     0.031 C 
ATOM     24  C   UNL     1      18.115 -10.591  41.926  1.00  0.00    -0.008 C 
ATOM     25  C   UNL     1      18.026 -13.095  41.611  1.00  0.00    -0.027 C 
ATOM     26  C   UNL     1      17.433 -11.891  41.483  1.00  0.00    -0.065 C 
ATOM     27  C   UNL     1      17.021  -9.630  42.492  1.00  0.00     0.014 C 
ATOM     28  C   UNL     1      18.746  -9.932  40.665  1.00  0.00     0.016 C 
ATOM     29  C   UNL     1      16.166 -11.798  40.650  1.00  0.00     0.063 C 
ATOM     30  C   UNL     1      15.795  -9.470  41.575  1.00  0.00     0.033 C 
ATOM     31  C   UNL     1      15.149 -10.828  41.270  1.00  0.00     0.118 C 
BRANCH  31  32
ATOM     32  O   UNL     1      14.614 -11.372  42.450  1.00  0.00    -0.393 OA
ATOM     33  H   UNL     1      13.657 -11.112  42.480  1.00  0.00     0.210 HD
ENDBRANCH  31  32
ENDBRANCH  10  12
ENDBRANCH   8  10
ENDBRANCH   1   8
TORSDOF 8
ENDMDL
MODEL 2
REMARK VINA RESULT:    -5.904      2.335      3.954
REMARK INTER + INTRA:          -8.748
REMARK INTER:                  -8.227
REMARK INTRA:                  -0.521
REMARK UNBOUND:                -0.428
REMARK SMILES C[C@H](CO)CCC(=O)[C@@H](C)[C@H]1C(=O)C[C@@H]2[C@H]3CC=C4C[C@@H](O)CC[C@@]4(C)[C@H]3CC[C@@]21C
REMARK SMILES IDX 6 1 5 2 2 3 1 4 3 5 4 6 7 8 8 9 9 10 10 11 11 12 12 13 30 14
REMARK SMILES IDX 13 15 14 16 15 17 29 18 31 19 16 20 28 21 27 22 17 23 25 24
REMARK SMILES IDX 18 25 19 26 24 27 26 28 20 29 23 30 21 31 22 32
REMARK H PARENT 4 7 22 33
REMARK Flexibility Score: inf
ROOT
ATOM      1  C   UNL     1      24.066 -14.686  45.727  1.00  0.00     0.076 C 
ENDROOT
BRANCH   1   2
ATOM      2  C   UNL     1      25.026 -13.511  45.966  1.00  0.00     0.013 C 
BRANCH   2   3
ATOM      3  C   UNL     1      24.470 -12.169  45.434  1.00  0.00     0.012 C 
ATOM      4  C   UNL     1      25.125 -11.781  44.097  1.00  0.00     0.010 C 
BRANCH   3   5
ATOM      5  C   UNL     1      24.688 -11.057  46.483  1.00  0.00     0.159 C 
BRANCH   5   6
ATOM      6  O   UNL     1      23.836 -11.228  47.583  1.00  0.00    -0.396 OA
ATOM      7  H   UNL     1      22.973 -11.564  47.225  1.00  0.00     0.210 HD
ENDBRANCH   5   6
ENDBRANCH   3   5
ENDBRANCH   2   3
ENDBRANCH   1   2
BRANCH   1   8
ATOM      8  C   UNL     1      22.670 -14.340  46.178  1.00  0.00     0.136 C 
ATOM      9  O   UNL     1      22.510 -13.802  47.266  1.00  0.00    -0.299 OA
BRANCH   8  10
ATOM     10  C   UNL     1      21.463 -14.616  45.293  1.00  0.00     0.064 C 
ATOM     11  C   UNL     1      20.200 -14.200  46.080  1.00  0.00     0.017 C 
BRANCH  10  12
ATOM     12  C   UNL     1      21.592 -13.892  43.898  1.00  0.00     0.072 C 
ATOM     13  C   UNL     1      20.827 -14.656  42.858  1.00  0.00     0.137 C 
ATOM     14  C   UNL     1      20.941 -12.462  43.761  1.00  0.00    -0.019 C 
ATOM     15  O   UNL     1      21.256 -15.665  42.317  1.00  0.00    -0.299 OA
ATOM     16  C   UNL     1      19.533 -14.050  42.485  1.00  0.00     0.080 C 
ATOM     17  C   UNL     1      19.467 -12.759  43.317  1.00  0.00     0.007 C 
ATOM     18  C   UNL     1      21.702 -11.680  42.648  1.00  0.00     0.008 C 
ATOM     19  C   UNL     1      21.024 -11.641  45.071  1.00  0.00     0.012 C 
ATOM     20  C   UNL     1      18.713 -11.630  42.541  1.00  0.00     0.001 C 
ATOM     21  C   UNL     1      20.927 -10.482  42.079  1.00  0.00     0.005 C 
ATOM     22  C   UNL     1      19.585 -10.934  41.460  1.00  0.00     0.003 C 
ATOM     23  C   UNL     1      18.068 -10.613  43.498  1.00  0.00     0.031 C 
ATOM     24  C   UNL     1      18.762  -9.827  40.672  1.00  0.00    -0.008 C 
ATOM     25  C   UNL     1      17.439  -9.452  42.790  1.00  0.00    -0.027 C 
ATOM     26  C   UNL     1      17.839  -9.007  41.582  1.00  0.00    -0.065 C 
ATOM     27  C   UNL     1      19.707  -8.839  39.913  1.00  0.00     0.014 C 
ATOM     28  C   UNL     1      17.871 -10.558  39.627  1.00  0.00     0.016 C 
ATOM     29  C   UNL     1      17.156  -7.779  41.005  1.00  0.00     0.063 C 
ATOM     30  C   UNL     1      18.975  -7.661  39.247  1.00  0.00     0.033 C 
ATOM     31  C   UNL     1      18.152  -6.868  40.270  1.00  0.00     0.118 C 
BRANCH  31  32
ATOM     32  O   UNL     1      19.014  -6.247  41.190  1.00  0.00    -0.393 OA
ATOM     33  H   UNL     1      19.931  -6.568  40.986  1.00  0.00     0.210 HD
ENDBRANCH  31  32
ENDBRANCH  10  12
ENDBRANCH   8  10
ENDBRANCH   1   8
TORSDOF 8
ENDMDL
MODEL 3
REMARK VINA RESULT:    -5.884      1.748      3.925
REMARK INTER + INTRA:          -8.719
REMARK INTER:                  -8.007
REMARK INTRA:                  -0.712
REMARK UNBOUND:                -0.428
REMARK SMILES C[C@H](CO)CCC(=O)[C@@H](C)[C@H]1C(=O)C[C@@H]2[C@H]3CC=C4C[C@@H](O)CC[C@@]4(C)[C@H]3CC[C@@]21C
REMARK SMILES IDX 6 1 5 2 2 3 1 4 3 5 4 6 7 8 8 9 9 10 10 11 11 12 12 13 30 14
REMARK SMILES IDX 13 15 14 16 15 17 29 18 31 19 16 20 28 21 27 22 17 23 25 24
REMARK SMILES IDX 18 25 19 26 24 27 26 28 20 29 23 30 21 31 22 32
REMARK H PARENT 4 7 22 33
REMARK Flexibility Score: inf
ROOT
ATOM      1  C   UNL     1      24.467 -13.530  46.495  1.00  0.00     0.076 C 
ENDROOT
BRANCH   1   2
ATOM      2  C   UNL     1      24.823 -12.597  45.328  1.00  0.00     0.013 C 
BRANCH   2   3
ATOM      3  C   UNL     1      24.741 -11.101  45.713  1.00  0.00     0.012 C 
ATOM      4  C   UNL     1      23.993 -10.904  47.043  1.00  0.00     0.010 C 
BRANCH   3   5
ATOM      5  C   UNL     1      24.052 -10.304  44.585  1.00  0.00     0.159 C 
BRANCH   5   6
ATOM      6  O   UNL     1      23.190  -9.330  45.110  1.00  0.00    -0.396 OA
ATOM      7  H   UNL     1      22.753  -8.890  44.336  1.00  0.00     0.210 HD
ENDBRANCH   5   6
ENDBRANCH   3   5
ENDBRANCH   2   3
ENDBRANCH   1   2
BRANCH   1   8
ATOM      8  C   UNL     1      23.887 -14.826  45.990  1.00  0.00     0.136 C 
ATOM      9  O   UNL     1      23.824 -15.786  46.746  1.00  0.00    -0.299 OA
BRANCH   8  10
ATOM     10  C   UNL     1      23.352 -14.951  44.572  1.00  0.00     0.064 C 
ATOM     11  C   UNL     1      23.780 -16.333  44.029  1.00  0.00     0.017 C 
BRANCH  10  12
ATOM     12  C   UNL     1      21.792 -14.719  44.520  1.00  0.00     0.072 C 
ATOM     13  C   UNL     1      21.350 -13.967  45.740  1.00  0.00     0.137 C 
ATOM     14  C   UNL     1      21.237 -13.788  43.374  1.00  0.00    -0.019 C 
ATOM     15  O   UNL     1      21.184 -14.495  46.830  1.00  0.00    -0.299 OA
ATOM     16  C   UNL     1      21.063 -12.537  45.505  1.00  0.00     0.080 C 
ATOM     17  C   UNL     1      21.292 -12.349  43.996  1.00  0.00     0.007 C 
ATOM     18  C   UNL     1      19.763 -14.200  43.077  1.00  0.00     0.008 C 
ATOM     19  C   UNL     1      22.047 -13.911  42.060  1.00  0.00     0.012 C 
ATOM     20  C   UNL     1      20.315 -11.279  43.409  1.00  0.00     0.001 C 
ATOM     21  C   UNL     1      18.946 -13.128  42.341  1.00  0.00     0.005 C 
ATOM     22  C   UNL     1      18.880 -11.821  43.162  1.00  0.00     0.003 C 
ATOM     23  C   UNL     1      20.896 -10.604  42.155  1.00  0.00     0.031 C 
ATOM     24  C   UNL     1      17.916 -10.686  42.608  1.00  0.00    -0.008 C 
ATOM     25  C   UNL     1      19.937  -9.659  41.496  1.00  0.00    -0.027 C 
ATOM     26  C   UNL     1      18.597  -9.772  41.581  1.00  0.00    -0.065 C 
ATOM     27  C   UNL     1      16.633 -11.292  41.953  1.00  0.00     0.014 C 
ATOM     28  C   UNL     1      17.485  -9.805  43.816  1.00  0.00     0.016 C 
ATOM     29  C   UNL     1      17.739  -8.782  40.812  1.00  0.00     0.063 C 
ATOM     30  C   UNL     1      15.727 -10.249  41.272  1.00  0.00     0.033 C 
ATOM     31  C   UNL     1      16.496  -9.455  40.209  1.00  0.00     0.118 C 
BRANCH  31  32
ATOM     32  O   UNL     1      16.868 -10.312  39.158  1.00  0.00    -0.393 OA
ATOM     33  H   UNL     1      17.539  -9.824  38.612  1.00  0.00     0.210 HD
ENDBRANCH  31  32
ENDBRANCH  10  12
ENDBRANCH   8  10
ENDBRANCH   1   8
TORSDOF 8
ENDMDL
MODEL 4
REMARK VINA RESULT:    -5.804      1.152      1.492
REMARK INTER + INTRA:          -8.607
REMARK INTER:                  -7.954
REMARK INTRA:                  -0.653
REMARK UNBOUND:                -0.428
REMARK SMILES C[C@H](CO)CCC(=O)[C@@H](C)[C@H]1C(=O)C[C@@H]2[C@H]3CC=C4C[C@@H](O)CC[C@@]4(C)[C@H]3CC[C@@]21C
REMARK SMILES IDX 6 1 5 2 2 3 1 4 3 5 4 6 7 8 8 9 9 10 10 11 11 12 12 13 30 14
REMARK SMILES IDX 13 15 14 16 15 17 29 18 31 19 16 20 28 21 27 22 17 23 25 24
REMARK SMILES IDX 18 25 19 26 24 27 26 28 20 29 23 30 21 31 22 32
REMARK H PARENT 4 7 22 33
REMARK Flexibility Score: inf
ROOT
ATOM      1  C   UNL     1      23.254 -15.162  43.931  1.00  0.00     0.076 C 
ENDROOT
BRANCH   1   2
ATOM      2  C   UNL     1      22.493 -16.245  44.710  1.00  0.00     0.013 C 
BRANCH   2   3
ATOM      3  C   UNL     1      21.672 -17.177  43.788  1.00  0.00     0.012 C 
ATOM      4  C   UNL     1      20.184 -16.786  43.776  1.00  0.00     0.010 C 
BRANCH   3   5
ATOM      5  C   UNL     1      21.839 -18.644  44.239  1.00  0.00     0.159 C 
BRANCH   5   6
ATOM      6  O   UNL     1      23.160 -18.903  44.631  1.00  0.00    -0.396 OA
ATOM      7  H   UNL     1      23.114 -19.309  45.536  1.00  0.00     0.210 HD
ENDBRANCH   5   6
ENDBRANCH   3   5
ENDBRANCH   2   3
ENDBRANCH   1   2
BRANCH   1   8
ATOM      8  C   UNL     1      23.955 -14.216  44.873  1.00  0.00     0.136 C 
ATOM      9  O   UNL     1      25.124 -13.921  44.661  1.00  0.00    -0.299 OA
BRANCH   8  10
ATOM     10  C   UNL     1      23.227 -13.598  46.057  1.00  0.00     0.064 C 
ATOM     11  C   UNL     1      24.266 -13.368  47.178  1.00  0.00     0.017 C 
BRANCH  10  12
ATOM     12  C   UNL     1      22.458 -12.285  45.643  1.00  0.00     0.072 C 
ATOM     13  C   UNL     1      23.159 -11.628  44.491  1.00  0.00     0.137 C 
ATOM     14  C   UNL     1      21.004 -12.452  45.056  1.00  0.00    -0.019 C 
ATOM     15  O   UNL     1      24.161 -10.940  44.620  1.00  0.00    -0.299 OA
ATOM     16  C   UNL     1      22.500 -11.823  43.184  1.00  0.00     0.080 C 
ATOM     17  C   UNL     1      21.237 -12.637  43.516  1.00  0.00     0.007 C 
ATOM     18  C   UNL     1      20.207 -11.143  45.336  1.00  0.00     0.008 C 
ATOM     19  C   UNL     1      20.234 -13.633  45.696  1.00  0.00     0.012 C 
ATOM     20  C   UNL     1      20.058 -12.256  42.563  1.00  0.00     0.001 C 
ATOM     21  C   UNL     1      18.966 -10.960  44.450  1.00  0.00     0.005 C 
ATOM     22  C   UNL     1      19.352 -10.929  42.954  1.00  0.00     0.003 C 
ATOM     23  C   UNL     1      19.057 -13.412  42.405  1.00  0.00     0.031 C 
ATOM     24  C   UNL     1      18.191 -10.563  41.933  1.00  0.00    -0.008 C 
ATOM     25  C   UNL     1      17.851 -13.043  41.594  1.00  0.00    -0.027 C 
ATOM     26  C   UNL     1      17.376 -11.786  41.492  1.00  0.00    -0.065 C 
ATOM     27  C   UNL     1      17.208  -9.507  42.533  1.00  0.00     0.014 C 
ATOM     28  C   UNL     1      18.856  -9.954  40.664  1.00  0.00     0.016 C 
ATOM     29  C   UNL     1      16.107 -11.558  40.688  1.00  0.00     0.063 C 
ATOM     30  C   UNL     1      15.984  -9.217  41.646  1.00  0.00     0.033 C 
ATOM     31  C   UNL     1      15.202 -10.502  41.341  1.00  0.00     0.118 C 
BRANCH  31  32
ATOM     32  O   UNL     1      14.643 -11.006  42.528  1.00  0.00    -0.393 OA
ATOM     33  H   UNL     1      15.024 -11.912  42.664  1.00  0.00     0.210 HD
ENDBRANCH  31  32
ENDBRANCH  10  12
ENDBRANCH   8  10
ENDBRANCH   1   8
TORSDOF 8
ENDMDL
MODEL 5
REMARK VINA RESULT:    -5.756      2.145      3.968
REMARK INTER + INTRA:          -8.540
REMARK INTER:                  -7.885
REMARK INTRA:                  -0.655
REMARK UNBOUND:                -0.428
REMARK SMILES C[C@H](CO)CCC(=O)[C@@H](C)[C@H]1C(=O)C[C@@H]2[C@H]3CC=C4C[C@@H](O)CC[C@@]4(C)[C@H]3CC[C@@]21C
REMARK SMILES IDX 6 1 5 2 2 3 1 4 3 5 4 6 7 8 8 9 9 10 10 11 11 12 12 13 30 14
REMARK SMILES IDX 13 15 14 16 15 17 29 18 31 19 16 20 28 21 27 22 17 23 25 24
REMARK SMILES IDX 18 25 19 26 24 27 26 28 20 29 23 30 21 31 22 32
REMARK H PARENT 4 7 22 33
REMARK Flexibility Score: inf
ROOT
ATOM      1  C   UNL     1      23.361 -13.427  44.444  1.00  0.00     0.076 C 
ENDROOT
BRANCH   1   2
ATOM      2  C   UNL     1      24.131 -12.824  45.629  1.00  0.00     0.013 C 
BRANCH   2   3
ATOM      3  C   UNL     1      23.613 -11.421  46.024  1.00  0.00     0.012 C 
ATOM      4  C   UNL     1      24.763 -10.504  46.474  1.00  0.00     0.010 C 
BRANCH   3   5
ATOM      5  C   UNL     1      22.556 -11.546  47.143  1.00  0.00     0.159 C 
BRANCH   5   6
ATOM      6  O   UNL     1      22.792 -12.680  47.933  1.00  0.00    -0.396 OA
ATOM      7  H   UNL     1      21.934 -13.176  47.981  1.00  0.00     0.210 HD
ENDBRANCH   5   6
ENDBRANCH   3   5
ENDBRANCH   2   3
ENDBRANCH   1   2
BRANCH   1   8
ATOM      8  C   UNL     1      22.587 -14.648  44.872  1.00  0.00     0.136 C 
ATOM      9  O   UNL     1      22.572 -14.960  46.055  1.00  0.00    -0.299 OA
BRANCH   8  10
ATOM     10  C   UNL     1      21.802 -15.476  43.867  1.00  0.00     0.064 C 
ATOM     11  C   UNL     1      21.888 -16.955  44.308  1.00  0.00     0.017 C 
BRANCH  10  12
ATOM     12  C   UNL     1      20.320 -14.956  43.721  1.00  0.00     0.072 C 
ATOM     13  C   UNL     1      19.883 -14.304  44.999  1.00  0.00     0.137 C 
ATOM     14  C   UNL     1      20.059 -13.796  42.686  1.00  0.00    -0.019 C 
ATOM     15  O   UNL     1      19.512 -14.932  45.980  1.00  0.00    -0.299 OA
ATOM     16  C   UNL     1      19.871 -12.827  44.958  1.00  0.00     0.080 C 
ATOM     17  C   UNL     1      20.290 -12.487  43.518  1.00  0.00     0.007 C 
ATOM     18  C   UNL     1      18.577 -13.886  42.209  1.00  0.00     0.008 C 
ATOM     19  C   UNL     1      20.973 -13.890  41.440  1.00  0.00     0.012 C 
ATOM     20  C   UNL     1      19.580 -11.187  43.020  1.00  0.00     0.001 C 
ATOM     21  C   UNL     1      18.039 -12.594  41.577  1.00  0.00     0.005 C 
ATOM     22  C   UNL     1      18.109 -11.417  42.576  1.00  0.00     0.003 C 
ATOM     23  C   UNL     1      20.399 -10.470  41.933  1.00  0.00     0.031 C 
ATOM     24  C   UNL     1      17.418 -10.061  42.120  1.00  0.00    -0.008 C 
ATOM     25  C   UNL     1      19.693  -9.285  41.346  1.00  0.00    -0.027 C 
ATOM     26  C   UNL     1      18.352  -9.160  41.302  1.00  0.00    -0.065 C 
ATOM     27  C   UNL     1      16.129 -10.327  41.278  1.00  0.00     0.014 C 
ATOM     28  C   UNL     1      17.016  -9.283  43.407  1.00  0.00     0.016 C 
ATOM     29  C   UNL     1      17.764  -7.936  40.621  1.00  0.00     0.063 C 
ATOM     30  C   UNL     1      15.494  -9.055  40.688  1.00  0.00     0.033 C 
ATOM     31  C   UNL     1      16.498  -8.283  39.823  1.00  0.00     0.118 C 
BRANCH  31  32
ATOM     32  O   UNL     1      16.829  -9.046  38.690  1.00  0.00    -0.393 OA
ATOM     33  H   UNL     1      16.030  -9.589  38.464  1.00  0.00     0.210 HD
ENDBRANCH  31  32
ENDBRANCH  10  12
ENDBRANCH   8  10
ENDBRANCH   1   8
TORSDOF 8
ENDMDL
MODEL 6
REMARK VINA RESULT:    -5.587      1.954      3.880
REMARK INTER + INTRA:          -8.301
REMARK INTER:                  -7.540
REMARK INTRA:                  -0.761
REMARK UNBOUND:                -0.428
REMARK SMILES C[C@H](CO)CCC(=O)[C@@H](C)[C@H]1C(=O)C[C@@H]2[C@H]3CC=C4C[C@@H](O)CC[C@@]4(C)[C@H]3CC[C@@]21C
REMARK SMILES IDX 6 1 5 2 2 3 1 4 3 5 4 6 7 8 8 9 9 10 10 11 11 12 12 13 30 14
REMARK SMILES IDX 13 15 14 16 15 17 29 18 31 19 16 20 28 21 27 22 17 23 25 24
REMARK SMILES IDX 18 25 19 26 24 27 26 28 20 29 23 30 21 31 22 32
REMARK H PARENT 4 7 22 33
REMARK Flexibility Score: inf
ROOT
ATOM      1  C   UNL     1      22.240 -13.896  46.418  1.00  0.00     0.076 C 
ENDROOT
BRANCH   1   2
ATOM      2  C   UNL     1      23.343 -13.149  47.183  1.00  0.00     0.013 C 
BRANCH   2   3
ATOM      3  C   UNL     1      23.094 -11.625  47.252  1.00  0.00     0.012 C 
ATOM      4  C   UNL     1      21.747 -11.246  46.613  1.00  0.00     0.010 C 
BRANCH   3   5
ATOM      5  C   UNL     1      24.249 -10.871  46.558  1.00  0.00     0.159 C 
BRANCH   5   6
ATOM      6  O   UNL     1      25.062 -11.753  45.832  1.00  0.00    -0.396 OA
ATOM      7  H   UNL     1      24.476 -12.195  45.164  1.00  0.00     0.210 HD
ENDBRANCH   5   6
ENDBRANCH   3   5
ENDBRANCH   2   3
ENDBRANCH   1   2
BRANCH   1   8
ATOM      8  C   UNL     1      22.832 -14.820  45.386  1.00  0.00     0.136 C 
ATOM      9  O   UNL     1      22.708 -16.030  45.527  1.00  0.00    -0.299 OA
BRANCH   8  10
ATOM     10  C   UNL     1      23.551 -14.277  44.160  1.00  0.00     0.064 C 
ATOM     11  C   UNL     1      24.764 -15.194  43.883  1.00  0.00     0.017 C 
BRANCH  10  12
ATOM     12  C   UNL     1      22.575 -14.148  42.927  1.00  0.00     0.072 C 
ATOM     13  C   UNL     1      21.486 -15.174  43.032  1.00  0.00     0.137 C 
ATOM     14  C   UNL     1      21.729 -12.822  42.811  1.00  0.00    -0.019 C 
ATOM     15  O   UNL     1      21.639 -16.347  42.723  1.00  0.00    -0.299 OA
ATOM     16  C   UNL     1      20.184 -14.639  43.478  1.00  0.00     0.080 C 
ATOM     17  C   UNL     1      20.429 -13.129  43.632  1.00  0.00     0.007 C 
ATOM     18  C   UNL     1      21.385 -12.589  41.309  1.00  0.00     0.008 C 
ATOM     19  C   UNL     1      22.492 -11.579  43.329  1.00  0.00     0.012 C 
ATOM     20  C   UNL     1      19.146 -12.313  43.273  1.00  0.00     0.001 C 
ATOM     21  C   UNL     1      20.209 -11.630  41.073  1.00  0.00     0.005 C 
ATOM     22  C   UNL     1      18.920 -12.157  41.744  1.00  0.00     0.003 C 
ATOM     23  C   UNL     1      19.111 -10.956  43.997  1.00  0.00     0.031 C 
ATOM     24  C   UNL     1      17.583 -11.359  41.429  1.00  0.00    -0.008 C 
ATOM     25  C   UNL     1      17.955 -10.096  43.584  1.00  0.00    -0.027 C 
ATOM     26  C   UNL     1      17.355 -10.177  42.380  1.00  0.00    -0.065 C 
ATOM     27  C   UNL     1      17.566 -10.821  39.962  1.00  0.00     0.014 C 
ATOM     28  C   UNL     1      16.393 -12.347  41.607  1.00  0.00     0.016 C 
ATOM     29  C   UNL     1      16.234  -9.200  42.066  1.00  0.00     0.063 C 
ATOM     30  C   UNL     1      16.360  -9.919  39.642  1.00  0.00     0.033 C 
ATOM     31  C   UNL     1      16.284  -8.728  40.605  1.00  0.00     0.118 C 
BRANCH  31  32
ATOM     32  O   UNL     1      17.393  -7.887  40.403  1.00  0.00    -0.393 OA
ATOM     33  H   UNL     1      17.241  -7.411  39.546  1.00  0.00     0.210 HD
ENDBRANCH  31  32
ENDBRANCH  10  12
ENDBRANCH   8  10
ENDBRANCH   1   8
TORSDOF 8
ENDMDL
MODEL 7
REMARK VINA RESULT:    -5.523      1.905      3.075
REMARK INTER + INTRA:          -8.212
REMARK INTER:                  -7.753
REMARK INTRA:                  -0.458
REMARK UNBOUND:                -0.428
REMARK SMILES C[C@H](CO)CCC(=O)[C@@H](C)[C@H]1C(=O)C[C@@H]2[C@H]3CC=C4C[C@@H](O)CC[C@@]4(C)[C@H]3CC[C@@]21C
REMARK SMILES IDX 6 1 5 2 2 3 1 4 3 5 4 6 7 8 8 9 9 10 10 11 11 12 12 13 30 14
REMARK SMILES IDX 13 15 14 16 15 17 29 18 31 19 16 20 28 21 27 22 17 23 25 24
REMARK SMILES IDX 18 25 19 26 24 27 26 28 20 29 23 30 21 31 22 32
REMARK H PARENT 4 7 22 33
REMARK Flexibility Score: inf
ROOT
ATOM      1  C   UNL     1      21.897 -14.320  46.265  1.00  0.00     0.076 C 
ENDROOT
BRANCH   1   2
ATOM      2  C   UNL     1      23.281 -14.096  46.891  1.00  0.00     0.013 C 
BRANCH   2   3
ATOM      3  C   UNL     1      23.496 -12.637  47.358  1.00  0.00     0.012 C 
ATOM      4  C   UNL     1      22.275 -11.759  47.034  1.00  0.00     0.010 C 
BRANCH   3   5
ATOM      5  C   UNL     1      24.766 -12.055  46.701  1.00  0.00     0.159 C 
BRANCH   5   6
ATOM      6  O   UNL     1      25.065 -12.723  45.505  1.00  0.00    -0.396 OA
ATOM      7  H   UNL     1      26.051 -12.831  45.478  1.00  0.00     0.210 HD
ENDBRANCH   5   6
ENDBRANCH   3   5
ENDBRANCH   2   3
ENDBRANCH   1   2
BRANCH   1   8
ATOM      8  C   UNL     1      22.022 -14.871  44.868  1.00  0.00     0.136 C 
ATOM      9  O   UNL     1      21.815 -16.062  44.675  1.00  0.00    -0.299 OA
BRANCH   8  10
ATOM     10  C   UNL     1      22.368 -13.970  43.692  1.00  0.00     0.064 C 
ATOM     11  C   UNL     1      21.940 -14.701  42.399  1.00  0.00     0.017 C 
BRANCH  10  12
ATOM     12  C   UNL     1      21.715 -12.543  43.845  1.00  0.00     0.072 C 
ATOM     13  C   UNL     1      22.538 -11.526  43.111  1.00  0.00     0.137 C 
ATOM     14  C   UNL     1      20.301 -12.320  43.182  1.00  0.00    -0.019 C 
ATOM     15  O   UNL     1      23.568 -11.047  43.562  1.00  0.00    -0.299 OA
ATOM     16  C   UNL     1      21.967 -11.095  41.819  1.00  0.00     0.080 C 
ATOM     17  C   UNL     1      20.636 -11.859  41.721  1.00  0.00     0.007 C 
ATOM     18  C   UNL     1      19.567 -11.186  43.959  1.00  0.00     0.008 C 
ATOM     19  C   UNL     1      19.414 -13.589  43.227  1.00  0.00     0.012 C 
ATOM     20  C   UNL     1      19.557 -11.011  40.973  1.00  0.00     0.001 C 
ATOM     21  C   UNL     1      18.408 -10.540  43.185  1.00  0.00     0.005 C 
ATOM     22  C   UNL     1      18.905  -9.916  41.862  1.00  0.00     0.003 C 
ATOM     23  C   UNL     1      18.501 -11.901  40.296  1.00  0.00     0.031 C 
ATOM     24  C   UNL     1      17.849  -9.055  41.046  1.00  0.00    -0.008 C 
ATOM     25  C   UNL     1      17.383 -11.122  39.671  1.00  0.00    -0.027 C 
ATOM     26  C   UNL     1      16.995  -9.902  40.094  1.00  0.00    -0.065 C 
ATOM     27  C   UNL     1      16.890  -8.269  41.998  1.00  0.00     0.014 C 
ATOM     28  C   UNL     1      18.642  -8.029  40.186  1.00  0.00     0.016 C 
ATOM     29  C   UNL     1      15.805  -9.248  39.412  1.00  0.00     0.063 C 
ATOM     30  C   UNL     1      15.755  -7.527  41.268  1.00  0.00     0.033 C 
ATOM     31  C   UNL     1      14.921  -8.490  40.414  1.00  0.00     0.118 C 
BRANCH  31  32
ATOM     32  O   UNL     1      14.245  -9.397  41.249  1.00  0.00    -0.393 OA
ATOM     33  H   UNL     1      14.899 -10.100  41.500  1.00  0.00     0.210 HD
ENDBRANCH  31  32
ENDBRANCH  10  12
ENDBRANCH   8  10
ENDBRANCH   1   8
TORSDOF 8
ENDMDL
MODEL 8
REMARK VINA RESULT:    -5.458      2.105      8.434
REMARK INTER + INTRA:          -8.119
REMARK INTER:                  -7.787
REMARK INTRA:                  -0.332
REMARK UNBOUND:                -0.428
REMARK SMILES C[C@H](CO)CCC(=O)[C@@H](C)[C@H]1C(=O)C[C@@H]2[C@H]3CC=C4C[C@@H](O)CC[C@@]4(C)[C@H]3CC[C@@]21C
REMARK SMILES IDX 6 1 5 2 2 3 1 4 3 5 4 6 7 8 8 9 9 10 10 11 11 12 12 13 30 14
REMARK SMILES IDX 13 15 14 16 15 17 29 18 31 19 16 20 28 21 27 22 17 23 25 24
REMARK SMILES IDX 18 25 19 26 24 27 26 28 20 29 23 30 21 31 22 32
REMARK H PARENT 4 7 22 33
REMARK Flexibility Score: inf
ROOT
ATOM      1  C   UNL     1      14.914 -10.442  40.981  1.00  0.00     0.076 C 
ENDROOT
BRANCH   1   2
ATOM      2  C   UNL     1      14.789 -11.680  41.882  1.00  0.00     0.013 C 
BRANCH   2   3
ATOM      3  C   UNL     1      13.873 -12.769  41.276  1.00  0.00     0.012 C 
ATOM      4  C   UNL     1      14.689 -13.972  40.772  1.00  0.00     0.010 C 
BRANCH   3   5
ATOM      5  C   UNL     1      13.032 -12.170  40.128  1.00  0.00     0.159 C 
BRANCH   5   6
ATOM      6  O   UNL     1      12.016 -13.053  39.734  1.00  0.00    -0.396 OA
ATOM      7  H   UNL     1      12.281 -13.414  38.849  1.00  0.00     0.210 HD
ENDBRANCH   5   6
ENDBRANCH   3   5
ENDBRANCH   2   3
ENDBRANCH   1   2
BRANCH   1   8
ATOM      8  C   UNL     1      16.233 -10.439  40.252  1.00  0.00     0.136 C 
ATOM      9  O   UNL     1      16.453  -9.568  39.420  1.00  0.00    -0.299 OA
BRANCH   8  10
ATOM     10  C   UNL     1      17.304 -11.475  40.554  1.00  0.00     0.064 C 
ATOM     11  C   UNL     1      17.649 -12.193  39.230  1.00  0.00     0.017 C 
BRANCH  10  12
ATOM     12  C   UNL     1      18.559 -10.823  41.252  1.00  0.00     0.072 C 
ATOM     13  C   UNL     1      18.112  -9.935  42.374  1.00  0.00     0.137 C 
ATOM     14  C   UNL     1      19.549 -11.790  42.010  1.00  0.00    -0.019 C 
ATOM     15  O   UNL     1      17.683  -8.803  42.203  1.00  0.00    -0.299 OA
ATOM     16  C   UNL     1      18.293 -10.513  43.721  1.00  0.00     0.080 C 
ATOM     17  C   UNL     1      18.959 -11.875  43.460  1.00  0.00     0.007 C 
ATOM     18  C   UNL     1      20.961 -11.130  42.031  1.00  0.00     0.008 C 
ATOM     19  C   UNL     1      19.674 -13.173  41.326  1.00  0.00     0.012 C 
ATOM     20  C   UNL     1      19.945 -12.248  44.614  1.00  0.00     0.001 C 
ATOM     21  C   UNL     1      21.906 -11.699  43.100  1.00  0.00     0.005 C 
ATOM     22  C   UNL     1      21.314 -11.518  44.516  1.00  0.00     0.003 C 
ATOM     23  C   UNL     1      20.117 -13.770  44.748  1.00  0.00     0.031 C 
ATOM     24  C   UNL     1      22.264 -11.896  45.732  1.00  0.00    -0.008 C 
ATOM     25  C   UNL     1      21.147 -14.161  45.764  1.00  0.00    -0.027 C 
ATOM     26  C   UNL     1      22.191 -13.382  46.108  1.00  0.00    -0.065 C 
ATOM     27  C   UNL     1      23.755 -11.537  45.431  1.00  0.00     0.014 C 
ATOM     28  C   UNL     1      21.797 -11.071  46.967  1.00  0.00     0.016 C 
ATOM     29  C   UNL     1      23.199 -13.926  47.107  1.00  0.00     0.063 C 
ATOM     30  C   UNL     1      24.742 -12.008  46.513  1.00  0.00     0.033 C 
ATOM     31  C   UNL     1      24.636 -13.521  46.742  1.00  0.00     0.118 C 
BRANCH  31  32
ATOM     32  O   UNL     1      25.056 -14.203  45.588  1.00  0.00    -0.393 OA
ATOM     33  H   UNL     1      25.681 -13.600  45.108  1.00  0.00     0.210 HD
ENDBRANCH  31  32
ENDBRANCH  10  12
ENDBRANCH   8  10
ENDBRANCH   1   8
TORSDOF 8
ENDMDL
MODEL 9
REMARK VINA RESULT:    -5.431      1.956      9.114
REMARK INTER + INTRA:          -8.082
REMARK INTER:                  -7.994
REMARK INTRA:                  -0.088
REMARK UNBOUND:                -0.428
REMARK SMILES C[C@H](CO)CCC(=O)[C@@H](C)[C@H]1C(=O)C[C@@H]2[C@H]3CC=C4C[C@@H](O)CC[C@@]4(C)[C@H]3CC[C@@]21C
REMARK SMILES IDX 6 1 5 2 2 3 1 4 3 5 4 6 7 8 8 9 9 10 10 11 11 12 12 13 30 14
REMARK SMILES IDX 13 15 14 16 15 17 29 18 31 19 16 20 28 21 27 22 17 23 25 24
REMARK SMILES IDX 18 25 19 26 24 27 26 28 20 29 23 30 21 31 22 32
REMARK H PARENT 4 7 22 33
REMARK Flexibility Score: inf
ROOT
ATOM      1  C   UNL     1      15.834 -10.311  39.416  1.00  0.00     0.076 C 
ENDROOT
BRANCH   1   2
ATOM      2  C   UNL     1      14.543 -10.407  38.591  1.00  0.00     0.013 C 
BRANCH   2   3
ATOM      3  C   UNL     1      14.016  -9.023  38.145  1.00  0.00     0.012 C 
ATOM      4  C   UNL     1      14.985  -7.897  38.547  1.00  0.00     0.010 C 
BRANCH   3   5
ATOM      5  C   UNL     1      12.619  -8.771  38.752  1.00  0.00     0.159 C 
BRANCH   5   6
ATOM      6  O   UNL     1      12.704  -8.539  40.133  1.00  0.00    -0.396 OA
ATOM      7  H   UNL     1      12.945  -9.405  40.552  1.00  0.00     0.210 HD
ENDBRANCH   5   6
ENDBRANCH   3   5
ENDBRANCH   2   3
ENDBRANCH   1   2
BRANCH   1   8
ATOM      8  C   UNL     1      15.586 -10.708  40.849  1.00  0.00     0.136 C 
ATOM      9  O   UNL     1      14.669 -10.180  41.464  1.00  0.00    -0.299 OA
BRANCH   8  10
ATOM     10  C   UNL     1      16.433 -11.772  41.532  1.00  0.00     0.064 C 
ATOM     11  C   UNL     1      16.365 -13.051  40.668  1.00  0.00     0.017 C 
BRANCH  10  12
ATOM     12  C   UNL     1      17.907 -11.267  41.779  1.00  0.00     0.072 C 
ATOM     13  C   UNL     1      17.897 -10.127  42.754  1.00  0.00     0.137 C 
ATOM     14  C   UNL     1      18.903 -12.262  42.490  1.00  0.00    -0.019 C 
ATOM     15  O   UNL     1      17.611  -8.981  42.441  1.00  0.00    -0.299 OA
ATOM     16  C   UNL     1      18.328 -10.487  44.120  1.00  0.00     0.080 C 
ATOM     17  C   UNL     1      18.696 -11.977  44.018  1.00  0.00     0.007 C 
ATOM     18  C   UNL     1      20.355 -11.897  42.057  1.00  0.00     0.008 C 
ATOM     19  C   UNL     1      18.643 -13.740  42.110  1.00  0.00     0.012 C 
ATOM     20  C   UNL     1      19.877 -12.330  44.978  1.00  0.00     0.001 C 
ATOM     21  C   UNL     1      21.446 -12.446  42.988  1.00  0.00     0.005 C 
ATOM     22  C   UNL     1      21.268 -11.911  44.427  1.00  0.00     0.003 C 
ATOM     23  C   UNL     1      19.850 -13.810  45.397  1.00  0.00     0.031 C 
ATOM     24  C   UNL     1      22.430 -12.250  45.456  1.00  0.00    -0.008 C 
ATOM     25  C   UNL     1      21.036 -14.213  46.220  1.00  0.00    -0.027 C 
ATOM     26  C   UNL     1      22.237 -13.605  46.150  1.00  0.00    -0.065 C 
ATOM     27  C   UNL     1      23.831 -12.248  44.763  1.00  0.00     0.014 C 
ATOM     28  C   UNL     1      22.421 -11.149  46.555  1.00  0.00     0.016 C 
ATOM     29  C   UNL     1      23.374 -14.155  46.994  1.00  0.00     0.063 C 
ATOM     30  C   UNL     1      24.981 -12.708  45.676  1.00  0.00     0.033 C 
ATOM     31  C   UNL     1      24.714 -14.108  46.244  1.00  0.00     0.118 C 
BRANCH  31  32
ATOM     32  O   UNL     1      24.720 -15.049  45.200  1.00  0.00    -0.393 OA
ATOM     33  H   UNL     1      23.879 -15.570  45.277  1.00  0.00     0.210 HD
ENDBRANCH  31  32
ENDBRANCH  10  12
ENDBRANCH   8  10
ENDBRANCH   1   8
TORSDOF 8
ENDMDL
