MODEL 1
REMARK VINA RESULT:    -0.483      0.000      0.000
REMARK INTER + INTRA:           7.090
REMARK INTER:                  -1.145
REMARK INTRA:                   8.236
REMARK UNBOUND:                 8.236
REMARK SMILES O=C(OC[C@@H]1O[C@@H](OC(=O)c2cc(O)c(O)c(O)c2)[C@@H](OC(=O)c2cc(O)c(O)c(O)c2)[C@H](OC(=O)c2cc(O)c(O)c(O)c2)[C@@H]1OC(=O)c1cc(O)c(O)c(O)c1)c1cc(O)c(O)c(O)c1
REMARK SMILES IDX 5 1 46 2 33 3 20 4 7 5 6 6 4 7 3 8 2 9 1 10 59 11 60 12
REMARK SMILES IDX 61 13 67 14 63 15 65 16 62 17 64 19 66 21 47 23 48 24 49 25
REMARK SMILES IDX 50 26 58 27 51 28 56 29 52 30 54 31 57 32 53 34 55 36 34 38
REMARK SMILES IDX 35 39 36 40 37 41 45 42 38 43 43 44 39 45 41 46 44 47 40 49
REMARK SMILES IDX 42 51 8 53 9 54 10 55 11 56 19 57 12 58 17 59 13 60 15 61
REMARK SMILES IDX 18 62 14 64 16 66 21 68 22 69 23 70 24 71 32 72 25 73 30 74
REMARK SMILES IDX 26 75 28 76 31 77 27 79 29 81
REMARK H PARENT 62 18 64 20 66 22 57 33 53 35 55 37 44 48 40 50 42 52 18 63
REMARK H PARENT 14 65 16 67 31 78 27 80 29 82
REMARK Flexibility Score: inf
ROOT
ATOM      1  C   UNL     1     -20.147  12.658 -29.422  1.00  0.00     0.205 C 
ATOM      2  C   UNL     1     -20.244  13.937 -30.282  1.00  0.00     0.254 C 
ATOM      3  C   UNL     1     -21.718  14.178 -30.666  1.00  0.00     0.267 C 
ATOM      4  C   UNL     1     -22.312  12.909 -31.305  1.00  0.00     0.290 C 
ATOM      5  C   UNL     1     -22.043  11.688 -30.408  1.00  0.00     0.357 C 
ATOM      6  O   UNL     1     -20.658  11.541 -30.134  1.00  0.00    -0.329 OA
ENDROOT
BRANCH   1   7
ATOM      7  C   UNL     1     -18.692  12.374 -29.014  1.00  0.00     0.269 C 
BRANCH   7   8
ATOM      8  O   UNL     1     -18.461  10.970 -28.915  1.00  0.00    -0.459 OA
BRANCH   8   9
ATOM      9  C   UNL     1     -17.255  10.346 -29.254  1.00  0.00     0.338 C 
ATOM     10  O   UNL     1     -17.068   9.921 -30.426  1.00  0.00    -0.246 OA
BRANCH   9  11
ATOM     11  C   UNL     1     -16.187  10.220 -28.239  1.00  0.00     0.067 A 
ATOM     12  C   UNL     1     -16.515  10.101 -26.881  1.00  0.00     0.066 A 
ATOM     13  C   UNL     1     -15.517   9.998 -25.911  1.00  0.00     0.162 A 
ATOM     14  C   UNL     1     -14.836  10.223 -28.615  1.00  0.00     0.066 A 
ATOM     15  C   UNL     1     -14.161  10.013 -26.287  1.00  0.00     0.200 A 
ATOM     16  C   UNL     1     -13.820  10.118 -27.659  1.00  0.00     0.162 A 
BRANCH  13  17
ATOM     17  O   UNL     1     -15.890   9.900 -24.569  1.00  0.00    -0.504 OA
ATOM     18  H   UNL     1     -16.859   9.874 -24.276  1.00  0.00     0.293 HD
ENDBRANCH  13  17
BRANCH  15  19
ATOM     19  O   UNL     1     -13.192   9.929 -25.284  1.00  0.00    -0.502 OA
ATOM     20  H   UNL     1     -12.199   9.989 -25.450  1.00  0.00     0.293 HD
ENDBRANCH  15  19
BRANCH  16  21
ATOM     21  O   UNL     1     -12.498  10.115 -28.112  1.00  0.00    -0.504 OA
ATOM     22  H   UNL     1     -11.786   9.484 -27.782  1.00  0.00     0.293 HD
ENDBRANCH  16  21
ENDBRANCH   9  11
ENDBRANCH   8   9
ENDBRANCH   7   8
ENDBRANCH   1   7
BRANCH   2  23
ATOM     23  O   UNL     1     -19.456  13.776 -31.462  1.00  0.00    -0.452 OA
BRANCH  23  24
ATOM     24  C   UNL     1     -18.476  12.786 -31.621  1.00  0.00     0.338 C 
ATOM     25  O   UNL     1     -18.809  11.584 -31.811  1.00  0.00    -0.246 OA
BRANCH  24  26
ATOM     26  C   UNL     1     -17.048  13.161 -31.569  1.00  0.00     0.067 A 
ATOM     27  C   UNL     1     -16.066  12.324 -32.128  1.00  0.00     0.066 A 
ATOM     28  C   UNL     1     -16.658  14.365 -30.965  1.00  0.00     0.066 A 
ATOM     29  C   UNL     1     -14.717  12.684 -32.087  1.00  0.00     0.162 A 
ATOM     30  C   UNL     1     -15.310  14.730 -30.912  1.00  0.00     0.162 A 
ATOM     31  C   UNL     1     -14.332  13.888 -31.472  1.00  0.00     0.200 A 
BRANCH  29  32
ATOM     32  O   UNL     1     -13.773  11.843 -32.678  1.00  0.00    -0.504 OA
ATOM     33  H   UNL     1     -12.826  12.151 -32.867  1.00  0.00     0.293 HD
ENDBRANCH  29  32
BRANCH  30  34
ATOM     34  O   UNL     1     -14.932  15.926 -30.298  1.00  0.00    -0.504 OA
ATOM     35  H   UNL     1     -15.467  16.312 -29.527  1.00  0.00     0.293 HD
ENDBRANCH  30  34
BRANCH  31  36
ATOM     36  O   UNL     1     -12.982  14.241 -31.433  1.00  0.00    -0.502 OA
ATOM     37  H   UNL     1     -12.436  14.389 -32.277  1.00  0.00     0.293 HD
ENDBRANCH  31  36
ENDBRANCH  24  26
ENDBRANCH  23  24
ENDBRANCH   2  23
BRANCH   3  38
ATOM     38  O   UNL     1     -21.830  15.260 -31.591  1.00  0.00    -0.450 OA
BRANCH  38  39
ATOM     39  C   UNL     1     -23.034  15.876 -31.947  1.00  0.00     0.338 C 
ATOM     40  O   UNL     1     -24.081  15.185 -32.088  1.00  0.00    -0.246 OA
BRANCH  39  41
ATOM     41  C   UNL     1     -23.070  17.341 -32.165  1.00  0.00     0.067 A 
ATOM     42  C   UNL     1     -23.588  17.888 -33.352  1.00  0.00     0.066 A 
ATOM     43  C   UNL     1     -22.572  18.207 -31.179  1.00  0.00     0.066 A 
ATOM     44  C   UNL     1     -23.579  19.274 -33.566  1.00  0.00     0.162 A 
ATOM     45  C   UNL     1     -22.556  19.589 -31.384  1.00  0.00     0.162 A 
ATOM     46  C   UNL     1     -23.055  20.128 -32.581  1.00  0.00     0.200 A 
BRANCH  44  47
ATOM     47  O   UNL     1     -24.087  19.807 -34.754  1.00  0.00    -0.504 OA
ATOM     48  H   UNL     1     -23.975  19.332 -35.644  1.00  0.00     0.293 HD
ENDBRANCH  44  47
BRANCH  45  49
ATOM     49  O   UNL     1     -22.045  20.417 -30.383  1.00  0.00    -0.504 OA
ATOM     50  H   UNL     1     -21.572  21.285 -30.595  1.00  0.00     0.293 HD
ENDBRANCH  45  49
BRANCH  46  51
ATOM     51  O   UNL     1     -23.028  21.509 -32.775  1.00  0.00    -0.502 OA
ATOM     52  H   UNL     1     -23.171  22.169 -32.019  1.00  0.00     0.293 HD
ENDBRANCH  46  51
ENDBRANCH  39  41
ENDBRANCH  38  39
ENDBRANCH   3  38
BRANCH   5  53
ATOM     53  O   UNL     1     -22.791  11.774 -29.193  1.00  0.00    -0.428 OA
BRANCH  53  54
ATOM     54  C   UNL     1     -23.454  10.683 -28.617  1.00  0.00     0.340 C 
ATOM     55  O   UNL     1     -22.823   9.875 -27.881  1.00  0.00    -0.246 OA
BRANCH  54  56
ATOM     56  C   UNL     1     -24.891  10.471 -28.901  1.00  0.00     0.067 A 
ATOM     57  C   UNL     1     -25.826  10.481 -27.853  1.00  0.00     0.066 A 
ATOM     58  C   UNL     1     -25.336  10.269 -30.218  1.00  0.00     0.066 A 
ATOM     59  C   UNL     1     -27.189  10.284 -28.114  1.00  0.00     0.162 A 
ATOM     60  C   UNL     1     -26.698  10.079 -30.486  1.00  0.00     0.162 A 
ATOM     61  C   UNL     1     -27.628  10.078 -29.434  1.00  0.00     0.200 A 
BRANCH  59  62
ATOM     62  O   UNL     1     -28.110  10.291 -27.070  1.00  0.00    -0.504 OA
ATOM     63  H   UNL     1     -29.082  10.539 -27.219  1.00  0.00     0.293 HD
ENDBRANCH  59  62
BRANCH  60  64
ATOM     64  O   UNL     1     -27.116   9.877 -31.801  1.00  0.00    -0.504 OA
ATOM     65  H   UNL     1     -27.549  10.615 -32.345  1.00  0.00     0.293 HD
ENDBRANCH  60  64
BRANCH  61  66
ATOM     66  O   UNL     1     -28.981   9.875 -29.715  1.00  0.00    -0.502 OA
ATOM     67  H   UNL     1     -29.704  10.016 -29.011  1.00  0.00     0.293 HD
ENDBRANCH  61  66
ENDBRANCH  54  56
ENDBRANCH  53  54
ENDBRANCH   5  53
BRANCH   4  68
ATOM     68  O   UNL     1     -23.723  13.061 -31.489  1.00  0.00    -0.448 OA
BRANCH  68  69
ATOM     69  C   UNL     1     -24.580  13.586 -30.510  1.00  0.00     0.339 C 
ATOM     70  O   UNL     1     -24.171  13.736 -29.328  1.00  0.00    -0.246 OA
BRANCH  69  71
ATOM     71  C   UNL     1     -25.951  14.002 -30.873  1.00  0.00     0.067 A 
ATOM     72  C   UNL     1     -26.207  15.311 -31.321  1.00  0.00     0.066 A 
ATOM     73  C   UNL     1     -27.017  13.093 -30.780  1.00  0.00     0.066 A 
ATOM     74  C   UNL     1     -27.501  15.694 -31.700  1.00  0.00     0.162 A 
ATOM     75  C   UNL     1     -28.318  13.467 -31.140  1.00  0.00     0.162 A 
ATOM     76  C   UNL     1     -28.560  14.777 -31.625  1.00  0.00     0.200 A 
BRANCH  74  77
ATOM     77  O   UNL     1     -27.745  16.985 -32.169  1.00  0.00    -0.504 OA
ATOM     78  H   UNL     1     -27.264  17.784 -31.785  1.00  0.00     0.293 HD
ENDBRANCH  74  77
BRANCH  75  79
ATOM     79  O   UNL     1     -29.330  12.513 -30.991  1.00  0.00    -0.504 OA
ATOM     80  H   UNL     1     -29.325  11.609 -31.436  1.00  0.00     0.293 HD
ENDBRANCH  75  79
BRANCH  76  81
ATOM     81  O   UNL     1     -29.824  15.194 -32.047  1.00  0.00    -0.502 OA
ATOM     82  H   UNL     1     -30.669  14.687 -31.850  1.00  0.00     0.293 HD
ENDBRANCH  76  81
ENDBRANCH  69  71
ENDBRANCH  68  69
ENDBRANCH   4  68
TORSDOF 31
ENDMDL
MODEL 2
REMARK VINA RESULT:    -0.190      1.180      6.584
REMARK INTER + INTRA:           7.784
REMARK INTER:                   4.385
REMARK INTRA:                   3.399
REMARK UNBOUND:                 8.236
REMARK SMILES O=C(OC[C@@H]1O[C@@H](OC(=O)c2cc(O)c(O)c(O)c2)[C@@H](OC(=O)c2cc(O)c(O)c(O)c2)[C@H](OC(=O)c2cc(O)c(O)c(O)c2)[C@@H]1OC(=O)c1cc(O)c(O)c(O)c1)c1cc(O)c(O)c(O)c1
REMARK SMILES IDX 5 1 46 2 33 3 20 4 7 5 6 6 4 7 3 8 2 9 1 10 59 11 60 12
REMARK SMILES IDX 61 13 67 14 63 15 65 16 62 17 64 19 66 21 47 23 48 24 49 25
REMARK SMILES IDX 50 26 58 27 51 28 56 29 52 30 54 31 57 32 53 34 55 36 34 38
REMARK SMILES IDX 35 39 36 40 37 41 45 42 38 43 43 44 39 45 41 46 44 47 40 49
REMARK SMILES IDX 42 51 8 53 9 54 10 55 11 56 19 57 12 58 17 59 13 60 15 61
REMARK SMILES IDX 18 62 14 64 16 66 21 68 22 69 23 70 24 71 32 72 25 73 30 74
REMARK SMILES IDX 26 75 28 76 31 77 27 79 29 81
REMARK H PARENT 62 18 64 20 66 22 57 33 53 35 55 37 44 48 40 50 42 52 18 63
REMARK H PARENT 14 65 16 67 31 78 27 80 29 82
REMARK Flexibility Score: inf
ROOT
ATOM      1  C   UNL     1     -19.782  13.713 -31.135  1.00  0.00     0.205 C 
ATOM      2  C   UNL     1     -20.115  12.225 -30.888  1.00  0.00     0.254 C 
ATOM      3  C   UNL     1     -21.624  12.000 -31.116  1.00  0.00     0.267 C 
ATOM      4  C   UNL     1     -22.440  13.004 -30.281  1.00  0.00     0.290 C 
ATOM      5  C   UNL     1     -21.930  14.436 -30.525  1.00  0.00     0.357 C 
ATOM      6  O   UNL     1     -20.539  14.542 -30.266  1.00  0.00    -0.329 OA
ENDROOT
BRANCH   1   7
ATOM      7  C   UNL     1     -18.285  13.988 -30.918  1.00  0.00     0.269 C 
BRANCH   7   8
ATOM      8  O   UNL     1     -17.559  13.811 -32.134  1.00  0.00    -0.459 OA
BRANCH   8   9
ATOM      9  C   UNL     1     -16.577  12.833 -32.327  1.00  0.00     0.338 C 
ATOM     10  O   UNL     1     -16.902  11.671 -32.692  1.00  0.00    -0.246 OA
BRANCH   9  11
ATOM     11  C   UNL     1     -15.152  13.181 -32.135  1.00  0.00     0.067 A 
ATOM     12  C   UNL     1     -14.739  13.843 -30.972  1.00  0.00     0.066 A 
ATOM     13  C   UNL     1     -13.399  14.192 -30.785  1.00  0.00     0.162 A 
ATOM     14  C   UNL     1     -14.198  12.860 -33.112  1.00  0.00     0.066 A 
ATOM     15  C   UNL     1     -12.445  13.881 -31.770  1.00  0.00     0.200 A 
ATOM     16  C   UNL     1     -12.851  13.199 -32.944  1.00  0.00     0.162 A 
BRANCH  13  17
ATOM     17  O   UNL     1     -13.036  14.867 -29.618  1.00  0.00    -0.504 OA
ATOM     18  H   UNL     1     -13.677  15.472 -29.119  1.00  0.00     0.293 HD
ENDBRANCH  13  17
BRANCH  15  19
ATOM     19  O   UNL     1     -11.118  14.266 -31.554  1.00  0.00    -0.502 OA
ATOM     20  H   UNL     1     -10.843  15.163 -31.186  1.00  0.00     0.293 HD
ENDBRANCH  15  19
BRANCH  16  21
ATOM     21  O   UNL     1     -11.957  12.834 -33.955  1.00  0.00    -0.504 OA
ATOM     22  H   UNL     1     -10.967  13.011 -33.928  1.00  0.00     0.293 HD
ENDBRANCH  16  21
ENDBRANCH   9  11
ENDBRANCH   8   9
ENDBRANCH   7   8
ENDBRANCH   1   7
BRANCH   2  23
ATOM     23  O   UNL     1     -19.771  11.877 -29.547  1.00  0.00    -0.452 OA
BRANCH  23  24
ATOM     24  C   UNL     1     -18.760  12.509 -28.808  1.00  0.00     0.338 C 
ATOM     25  O   UNL     1     -18.957  13.648 -28.303  1.00  0.00    -0.246 OA
BRANCH  24  26
ATOM     26  C   UNL     1     -17.462  11.829 -28.622  1.00  0.00     0.067 A 
ATOM     27  C   UNL     1     -16.882  11.730 -27.345  1.00  0.00     0.066 A 
ATOM     28  C   UNL     1     -16.798  11.266 -29.721  1.00  0.00     0.066 A 
ATOM     29  C   UNL     1     -15.659  11.078 -27.168  1.00  0.00     0.162 A 
ATOM     30  C   UNL     1     -15.571  10.619 -29.555  1.00  0.00     0.162 A 
ATOM     31  C   UNL     1     -14.994  10.524 -28.276  1.00  0.00     0.200 A 
BRANCH  29  32
ATOM     32  O   UNL     1     -15.127  10.973 -25.882  1.00  0.00    -0.504 OA
ATOM     33  H   UNL     1     -14.142  10.793 -25.724  1.00  0.00     0.293 HD
ENDBRANCH  29  32
BRANCH  30  34
ATOM     34  O   UNL     1     -14.913  10.073 -30.659  1.00  0.00    -0.504 OA
ATOM     35  H   UNL     1     -13.907  10.153 -30.764  1.00  0.00     0.293 HD
ENDBRANCH  30  34
BRANCH  31  36
ATOM     36  O   UNL     1     -13.772   9.875 -28.092  1.00  0.00    -0.502 OA
ATOM     37  H   UNL     1     -13.676   8.867 -28.174  1.00  0.00     0.293 HD
ENDBRANCH  31  36
ENDBRANCH  24  26
ENDBRANCH  23  24
ENDBRANCH   2  23
BRANCH   3  38
ATOM     38  O   UNL     1     -22.000  10.674 -30.746  1.00  0.00    -0.450 OA
BRANCH  38  39
ATOM     39  C   UNL     1     -22.552  10.323 -29.509  1.00  0.00     0.338 C 
ATOM     40  O   UNL     1     -21.801  10.127 -28.514  1.00  0.00    -0.246 OA
BRANCH  39  41
ATOM     41  C   UNL     1     -24.020  10.173 -29.380  1.00  0.00     0.067 A 
ATOM     42  C   UNL     1     -24.845  10.069 -30.513  1.00  0.00     0.066 A 
ATOM     43  C   UNL     1     -24.610  10.143 -28.106  1.00  0.00     0.066 A 
ATOM     44  C   UNL     1     -26.237   9.970 -30.381  1.00  0.00     0.162 A 
ATOM     45  C   UNL     1     -25.997  10.046 -27.963  1.00  0.00     0.162 A 
ATOM     46  C   UNL     1     -26.817   9.964 -29.100  1.00  0.00     0.200 A 
BRANCH  44  47
ATOM     47  O   UNL     1     -27.048   9.877 -31.515  1.00  0.00    -0.504 OA
ATOM     48  H   UNL     1     -28.046  10.059 -31.476  1.00  0.00     0.293 HD
ENDBRANCH  44  47
BRANCH  45  49
ATOM     49  O   UNL     1     -26.547  10.027 -26.681  1.00  0.00    -0.504 OA
ATOM     50  H   UNL     1     -26.428   9.238 -26.058  1.00  0.00     0.293 HD
ENDBRANCH  45  49
BRANCH  46  51
ATOM     51  O   UNL     1     -28.200   9.875 -28.944  1.00  0.00    -0.502 OA
ATOM     52  H   UNL     1     -28.638   9.712 -28.044  1.00  0.00     0.293 HD
ENDBRANCH  46  51
ENDBRANCH  39  41
ENDBRANCH  38  39
ENDBRANCH   3  38
BRANCH   5  53
ATOM     53  O   UNL     1     -22.228  14.862 -31.857  1.00  0.00    -0.428 OA
BRANCH  53  54
ATOM     54  C   UNL     1     -23.366  15.606 -32.192  1.00  0.00     0.340 C 
ATOM     55  O   UNL     1     -24.474  15.028 -32.363  1.00  0.00    -0.246 OA
BRANCH  54  56
ATOM     56  C   UNL     1     -23.251  17.071 -32.371  1.00  0.00     0.067 A 
ATOM     57  C   UNL     1     -22.749  17.871 -31.331  1.00  0.00     0.066 A 
ATOM     58  C   UNL     1     -23.629  17.675 -33.581  1.00  0.00     0.066 A 
ATOM     59  C   UNL     1     -22.634  19.259 -31.493  1.00  0.00     0.162 A 
ATOM     60  C   UNL     1     -23.509  19.060 -33.752  1.00  0.00     0.162 A 
ATOM     61  C   UNL     1     -23.018  19.857 -32.705  1.00  0.00     0.200 A 
BRANCH  59  62
ATOM     62  O   UNL     1     -22.140  20.046 -30.456  1.00  0.00    -0.504 OA
ATOM     63  H   UNL     1     -22.311  19.816 -29.484  1.00  0.00     0.293 HD
ENDBRANCH  59  62
BRANCH  60  64
ATOM     64  O   UNL     1     -23.894  19.638 -34.962  1.00  0.00    -0.504 OA
ATOM     65  H   UNL     1     -23.273  20.240 -35.489  1.00  0.00     0.293 HD
ENDBRANCH  60  64
BRANCH  61  66
ATOM     66  O   UNL     1     -22.916  21.239 -32.886  1.00  0.00    -0.502 OA
ATOM     67  H   UNL     1     -23.403  21.720 -33.641  1.00  0.00     0.293 HD
ENDBRANCH  61  66
ENDBRANCH  54  56
ENDBRANCH  53  54
ENDBRANCH   5  53
BRANCH   4  68
ATOM     68  O   UNL     1     -23.826  12.928 -30.630  1.00  0.00    -0.448 OA
BRANCH  68  69
ATOM     69  C   UNL     1     -24.863  13.334 -29.777  1.00  0.00     0.339 C 
ATOM     70  O   UNL     1     -24.668  13.402 -28.533  1.00  0.00    -0.246 OA
BRANCH  69  71
ATOM     71  C   UNL     1     -26.174  13.722 -30.338  1.00  0.00     0.067 A 
ATOM     72  C   UNL     1     -26.355  14.988 -30.924  1.00  0.00     0.066 A 
ATOM     73  C   UNL     1     -27.256  12.829 -30.298  1.00  0.00     0.066 A 
ATOM     74  C   UNL     1     -27.588  15.342 -31.490  1.00  0.00     0.162 A 
ATOM     75  C   UNL     1     -28.499  13.175 -30.845  1.00  0.00     0.162 A 
ATOM     76  C   UNL     1     -28.661  14.439 -31.466  1.00  0.00     0.200 A 
BRANCH  74  77
ATOM     77  O   UNL     1     -27.755  16.588 -32.093  1.00  0.00    -0.504 OA
ATOM     78  H   UNL     1     -27.709  16.699 -33.095  1.00  0.00     0.293 HD
ENDBRANCH  74  77
BRANCH  75  79
ATOM     79  O   UNL     1     -29.535  12.242 -30.739  1.00  0.00    -0.504 OA
ATOM     80  H   UNL     1     -29.984  11.804 -31.528  1.00  0.00     0.293 HD
ENDBRANCH  75  79
BRANCH  76  81
ATOM     81  O   UNL     1     -29.859  14.822 -32.073  1.00  0.00    -0.502 OA
ATOM     82  H   UNL     1     -30.376  14.232 -32.701  1.00  0.00     0.293 HD
ENDBRANCH  76  81
ENDBRANCH  69  71
ENDBRANCH  68  69
ENDBRANCH   4  68
TORSDOF 31
ENDMDL
MODEL 3
REMARK VINA RESULT:     0.537      1.476     11.101
REMARK INTER + INTRA:           9.512
REMARK INTER:                  10.334
REMARK INTRA:                  -0.823
REMARK UNBOUND:                 8.236
REMARK SMILES O=C(OC[C@@H]1O[C@@H](OC(=O)c2cc(O)c(O)c(O)c2)[C@@H](OC(=O)c2cc(O)c(O)c(O)c2)[C@H](OC(=O)c2cc(O)c(O)c(O)c2)[C@@H]1OC(=O)c1cc(O)c(O)c(O)c1)c1cc(O)c(O)c(O)c1
REMARK SMILES IDX 5 1 46 2 33 3 20 4 7 5 6 6 4 7 3 8 2 9 1 10 59 11 60 12
REMARK SMILES IDX 61 13 67 14 63 15 65 16 62 17 64 19 66 21 47 23 48 24 49 25
REMARK SMILES IDX 50 26 58 27 51 28 56 29 52 30 54 31 57 32 53 34 55 36 34 38
REMARK SMILES IDX 35 39 36 40 37 41 45 42 38 43 43 44 39 45 41 46 44 47 40 49
REMARK SMILES IDX 42 51 8 53 9 54 10 55 11 56 19 57 12 58 17 59 13 60 15 61
REMARK SMILES IDX 18 62 14 64 16 66 21 68 22 69 23 70 24 71 32 72 25 73 30 74
REMARK SMILES IDX 26 75 28 76 31 77 27 79 29 81
REMARK H PARENT 62 18 64 20 66 22 57 33 53 35 55 37 44 48 40 50 42 52 18 63
REMARK H PARENT 14 65 16 67 31 78 27 80 29 82
REMARK Flexibility Score: inf
ROOT
ATOM      1  C   UNL     1     -22.260  14.350 -30.467  1.00  0.00     0.205 C 
ATOM      2  C   UNL     1     -23.165  13.102 -30.374  1.00  0.00     0.254 C 
ATOM      3  C   UNL     1     -22.367  11.944 -29.741  1.00  0.00     0.267 C 
ATOM      4  C   UNL     1     -21.042  11.740 -30.499  1.00  0.00     0.290 C 
ATOM      5  C   UNL     1     -20.294  13.079 -30.630  1.00  0.00     0.357 C 
ATOM      6  O   UNL     1     -21.106  14.068 -31.244  1.00  0.00    -0.329 OA
ENDROOT
BRANCH   1   7
ATOM      7  C   UNL     1     -23.015  15.534 -31.094  1.00  0.00     0.269 C 
BRANCH   7   8
ATOM      8  O   UNL     1     -24.314  15.666 -30.520  1.00  0.00    -0.459 OA
BRANCH   8   9
ATOM      9  C   UNL     1     -25.136  16.786 -30.686  1.00  0.00     0.338 C 
ATOM     10  O   UNL     1     -26.046  17.035 -29.849  1.00  0.00    -0.246 OA
BRANCH   9  11
ATOM     11  C   UNL     1     -24.911  17.695 -31.831  1.00  0.00     0.067 A 
ATOM     12  C   UNL     1     -25.965  18.012 -32.697  1.00  0.00     0.066 A 
ATOM     13  C   UNL     1     -25.762  18.856 -33.791  1.00  0.00     0.162 A 
ATOM     14  C   UNL     1     -23.643  18.245 -32.069  1.00  0.00     0.066 A 
ATOM     15  C   UNL     1     -24.488  19.399 -34.037  1.00  0.00     0.200 A 
ATOM     16  C   UNL     1     -23.419  19.094 -33.158  1.00  0.00     0.162 A 
BRANCH  13  17
ATOM     17  O   UNL     1     -26.837  19.131 -34.639  1.00  0.00    -0.504 OA
ATOM     18  H   UNL     1     -27.032  18.578 -35.465  1.00  0.00     0.293 HD
ENDBRANCH  13  17
BRANCH  15  19
ATOM     19  O   UNL     1     -24.321  20.222 -35.155  1.00  0.00    -0.502 OA
ATOM     20  H   UNL     1     -24.650  21.173 -35.211  1.00  0.00     0.293 HD
ENDBRANCH  15  19
BRANCH  16  21
ATOM     21  O   UNL     1     -22.132  19.615 -33.323  1.00  0.00    -0.504 OA
ATOM     22  H   UNL     1     -21.529  19.890 -32.566  1.00  0.00     0.293 HD
ENDBRANCH  16  21
ENDBRANCH   9  11
ENDBRANCH   8   9
ENDBRANCH   7   8
ENDBRANCH   1   7
BRANCH   2  23
ATOM     23  O   UNL     1     -23.601  12.731 -31.682  1.00  0.00    -0.452 OA
BRANCH  23  24
ATOM     24  C   UNL     1     -24.507  13.479 -32.447  1.00  0.00     0.338 C 
ATOM     25  O   UNL     1     -24.160  13.952 -33.564  1.00  0.00    -0.246 OA
BRANCH  24  26
ATOM     26  C   UNL     1     -25.875  13.707 -31.938  1.00  0.00     0.067 A 
ATOM     27  C   UNL     1     -26.813  14.426 -32.699  1.00  0.00     0.066 A 
ATOM     28  C   UNL     1     -26.255  13.197 -30.688  1.00  0.00     0.066 A 
ATOM     29  C   UNL     1     -28.110  14.633 -32.221  1.00  0.00     0.162 A 
ATOM     30  C   UNL     1     -27.548  13.404 -30.198  1.00  0.00     0.162 A 
ATOM     31  C   UNL     1     -28.481  14.126 -30.964  1.00  0.00     0.200 A 
BRANCH  29  32
ATOM     32  O   UNL     1     -29.023  15.327 -33.017  1.00  0.00    -0.504 OA
ATOM     33  H   UNL     1     -28.759  15.727 -33.909  1.00  0.00     0.293 HD
ENDBRANCH  29  32
BRANCH  30  34
ATOM     34  O   UNL     1     -27.911  12.902 -28.948  1.00  0.00    -0.504 OA
ATOM     35  H   UNL     1     -27.238  12.840 -28.191  1.00  0.00     0.293 HD
ENDBRANCH  30  34
BRANCH  31  36
ATOM     36  O   UNL     1     -29.778  14.337 -30.492  1.00  0.00    -0.502 OA
ATOM     37  H   UNL     1     -29.985  15.014 -29.763  1.00  0.00     0.293 HD
ENDBRANCH  31  36
ENDBRANCH  24  26
ENDBRANCH  23  24
ENDBRANCH   2  23
BRANCH   3  38
ATOM     38  O   UNL     1     -23.116  10.730 -29.781  1.00  0.00    -0.450 OA
BRANCH  38  39
ATOM     39  C   UNL     1     -23.894  10.244 -28.724  1.00  0.00     0.338 C 
ATOM     40  O   UNL     1     -23.347   9.910 -27.638  1.00  0.00    -0.246 OA
BRANCH  39  41
ATOM     41  C   UNL     1     -25.360  10.117 -28.894  1.00  0.00     0.067 A 
ATOM     42  C   UNL     1     -25.941  10.029 -30.171  1.00  0.00     0.066 A 
ATOM     43  C   UNL     1     -26.195  10.091 -27.766  1.00  0.00     0.066 A 
ATOM     44  C   UNL     1     -27.333   9.951 -30.323  1.00  0.00     0.162 A 
ATOM     45  C   UNL     1     -27.583  10.014 -27.906  1.00  0.00     0.162 A 
ATOM     46  C   UNL     1     -28.159   9.950 -29.185  1.00  0.00     0.200 A 
BRANCH  44  47
ATOM     47  O   UNL     1     -27.900   9.875 -31.598  1.00  0.00    -0.504 OA
ATOM     48  H   UNL     1     -27.475   9.330 -32.341  1.00  0.00     0.293 HD
ENDBRANCH  44  47
BRANCH  45  49
ATOM     49  O   UNL     1     -28.380   9.999 -26.761  1.00  0.00    -0.504 OA
ATOM     50  H   UNL     1     -28.139  10.526 -25.932  1.00  0.00     0.293 HD
ENDBRANCH  45  49
BRANCH  46  51
ATOM     51  O   UNL     1     -29.546   9.881 -29.312  1.00  0.00    -0.502 OA
ATOM     52  H   UNL     1     -30.109  10.678 -29.588  1.00  0.00     0.293 HD
ENDBRANCH  46  51
ENDBRANCH  39  41
ENDBRANCH  38  39
ENDBRANCH   3  38
BRANCH   5  53
ATOM     53  O   UNL     1     -19.829  13.529 -29.355  1.00  0.00    -0.428 OA
BRANCH  53  54
ATOM     54  C   UNL     1     -18.478  13.530 -28.984  1.00  0.00     0.340 C 
ATOM     55  O   UNL     1     -18.156  13.566 -27.765  1.00  0.00    -0.246 OA
BRANCH  54  56
ATOM     56  C   UNL     1     -17.435  13.520 -30.033  1.00  0.00     0.067 A 
ATOM     57  C   UNL     1     -16.079  13.619 -29.680  1.00  0.00     0.066 A 
ATOM     58  C   UNL     1     -17.785  13.398 -31.388  1.00  0.00     0.066 A 
ATOM     59  C   UNL     1     -15.084  13.607 -30.668  1.00  0.00     0.162 A 
ATOM     60  C   UNL     1     -16.795  13.378 -32.379  1.00  0.00     0.162 A 
ATOM     61  C   UNL     1     -15.441  13.490 -32.022  1.00  0.00     0.200 A 
BRANCH  59  62
ATOM     62  O   UNL     1     -13.742  13.711 -30.311  1.00  0.00    -0.504 OA
ATOM     63  H   UNL     1     -13.271  14.607 -30.265  1.00  0.00     0.293 HD
ENDBRANCH  59  62
BRANCH  60  64
ATOM     64  O   UNL     1     -17.167  13.260 -33.718  1.00  0.00    -0.504 OA
ATOM     65  H   UNL     1     -16.571  12.808 -34.402  1.00  0.00     0.293 HD
ENDBRANCH  60  64
BRANCH  61  66
ATOM     66  O   UNL     1     -14.466  13.480 -33.022  1.00  0.00    -0.502 OA
ATOM     67  H   UNL     1     -14.082  14.342 -33.408  1.00  0.00     0.293 HD
ENDBRANCH  61  66
ENDBRANCH  54  56
ENDBRANCH  53  54
ENDBRANCH   5  53
BRANCH   4  68
ATOM     68  O   UNL     1     -20.215  10.800 -29.806  1.00  0.00    -0.448 OA
BRANCH  68  69
ATOM     69  C   UNL     1     -19.002  10.312 -30.316  1.00  0.00     0.339 C 
ATOM     70  O   UNL     1     -18.904  10.017 -31.537  1.00  0.00    -0.246 OA
BRANCH  69  71
ATOM     71  C   UNL     1     -17.826  10.181 -29.430  1.00  0.00     0.067 A 
ATOM     72  C   UNL     1     -16.526  10.146 -29.967  1.00  0.00     0.066 A 
ATOM     73  C   UNL     1     -17.991  10.093 -28.039  1.00  0.00     0.066 A 
ATOM     74  C   UNL     1     -15.409  10.059 -29.124  1.00  0.00     0.162 A 
ATOM     75  C   UNL     1     -16.885   9.990 -27.185  1.00  0.00     0.162 A 
ATOM     76  C   UNL     1     -15.578   9.992 -27.733  1.00  0.00     0.200 A 
BRANCH  74  77
ATOM     77  O   UNL     1     -14.122  10.051 -29.660  1.00  0.00    -0.504 OA
ATOM     78  H   UNL     1     -13.411  10.688 -29.332  1.00  0.00     0.293 HD
ENDBRANCH  74  77
BRANCH  75  79
ATOM     79  O   UNL     1     -17.133   9.877 -25.814  1.00  0.00    -0.504 OA
ATOM     80  H   UNL     1     -16.957   9.045 -25.274  1.00  0.00     0.293 HD
ENDBRANCH  75  79
BRANCH  76  81
ATOM     81  O   UNL     1     -14.434   9.941 -26.933  1.00  0.00    -0.502 OA
ATOM     82  H   UNL     1     -13.499   9.993 -27.298  1.00  0.00     0.293 HD
ENDBRANCH  76  81
ENDBRANCH  69  71
ENDBRANCH  68  69
ENDBRANCH   4  68
TORSDOF 31
ENDMDL
MODEL 4
REMARK VINA RESULT:     2.403      1.495      9.790
REMARK INTER + INTRA:          13.939
REMARK INTER:                  10.433
REMARK INTRA:                   3.506
REMARK UNBOUND:                 8.236
REMARK SMILES O=C(OC[C@@H]1O[C@@H](OC(=O)c2cc(O)c(O)c(O)c2)[C@@H](OC(=O)c2cc(O)c(O)c(O)c2)[C@H](OC(=O)c2cc(O)c(O)c(O)c2)[C@@H]1OC(=O)c1cc(O)c(O)c(O)c1)c1cc(O)c(O)c(O)c1
REMARK SMILES IDX 5 1 46 2 33 3 20 4 7 5 6 6 4 7 3 8 2 9 1 10 59 11 60 12
REMARK SMILES IDX 61 13 67 14 63 15 65 16 62 17 64 19 66 21 47 23 48 24 49 25
REMARK SMILES IDX 50 26 58 27 51 28 56 29 52 30 54 31 57 32 53 34 55 36 34 38
REMARK SMILES IDX 35 39 36 40 37 41 45 42 38 43 43 44 39 45 41 46 44 47 40 49
REMARK SMILES IDX 42 51 8 53 9 54 10 55 11 56 19 57 12 58 17 59 13 60 15 61
REMARK SMILES IDX 18 62 14 64 16 66 21 68 22 69 23 70 24 71 32 72 25 73 30 74
REMARK SMILES IDX 26 75 28 76 31 77 27 79 29 81
REMARK H PARENT 62 18 64 20 66 22 57 33 53 35 55 37 44 48 40 50 42 52 18 63
REMARK H PARENT 14 65 16 67 31 78 27 80 29 82
REMARK Flexibility Score: inf
ROOT
ATOM      1  C   UNL     1     -24.061  13.182 -31.096  1.00  0.00     0.205 C 
ATOM      2  C   UNL     1     -22.703  13.586 -31.710  1.00  0.00     0.254 C 
ATOM      3  C   UNL     1     -21.584  12.750 -31.056  1.00  0.00     0.267 C 
ATOM      4  C   UNL     1     -21.670  12.859 -29.523  1.00  0.00     0.290 C 
ATOM      5  C   UNL     1     -23.102  12.551 -29.050  1.00  0.00     0.357 C 
ATOM      6  O   UNL     1     -24.051  13.388 -29.691  1.00  0.00    -0.329 OA
ENDROOT
BRANCH   1   7
ATOM      7  C   UNL     1     -25.212  13.992 -31.717  1.00  0.00     0.269 C 
BRANCH   7   8
ATOM      8  O   UNL     1     -26.370  13.941 -30.885  1.00  0.00    -0.459 OA
BRANCH   8   9
ATOM      9  C   UNL     1     -27.661  14.270 -31.315  1.00  0.00     0.338 C 
ATOM     10  O   UNL     1     -28.646  13.567 -30.963  1.00  0.00    -0.246 OA
BRANCH   9  11
ATOM     11  C   UNL     1     -27.867  15.469 -32.156  1.00  0.00     0.067 A 
ATOM     12  C   UNL     1     -28.832  15.460 -33.172  1.00  0.00     0.066 A 
ATOM     13  C   UNL     1     -29.025  16.580 -33.984  1.00  0.00     0.162 A 
ATOM     14  C   UNL     1     -27.099  16.626 -31.955  1.00  0.00     0.066 A 
ATOM     15  C   UNL     1     -28.248  17.735 -33.790  1.00  0.00     0.200 A 
ATOM     16  C   UNL     1     -27.279  17.759 -32.756  1.00  0.00     0.162 A 
BRANCH  13  17
ATOM     17  O   UNL     1     -29.986  16.520 -34.995  1.00  0.00    -0.504 OA
ATOM     18  H   UNL     1     -30.459  17.345 -35.344  1.00  0.00     0.293 HD
ENDBRANCH  13  17
BRANCH  15  19
ATOM     19  O   UNL     1     -28.457  18.827 -34.638  1.00  0.00    -0.502 OA
ATOM     20  H   UNL     1     -29.288  19.398 -34.629  1.00  0.00     0.293 HD
ENDBRANCH  15  19
BRANCH  16  21
ATOM     21  O   UNL     1     -26.486  18.878 -32.488  1.00  0.00    -0.504 OA
ATOM     22  H   UNL     1     -25.609  19.075 -32.942  1.00  0.00     0.293 HD
ENDBRANCH  16  21
ENDBRANCH   9  11
ENDBRANCH   8   9
ENDBRANCH   7   8
ENDBRANCH   1   7
BRANCH   2  23
ATOM     23  O   UNL     1     -22.470  14.975 -31.476  1.00  0.00    -0.452 OA
BRANCH  23  24
ATOM     24  C   UNL     1     -23.481  15.946 -31.451  1.00  0.00     0.338 C 
ATOM     25  O   UNL     1     -24.548  15.738 -30.811  1.00  0.00    -0.246 OA
BRANCH  24  26
ATOM     26  C   UNL     1     -23.287  17.217 -32.177  1.00  0.00     0.067 A 
ATOM     27  C   UNL     1     -22.918  18.387 -31.490  1.00  0.00     0.066 A 
ATOM     28  C   UNL     1     -23.460  17.267 -33.568  1.00  0.00     0.066 A 
ATOM     29  C   UNL     1     -22.726  19.587 -32.179  1.00  0.00     0.162 A 
ATOM     30  C   UNL     1     -23.277  18.464 -34.265  1.00  0.00     0.162 A 
ATOM     31  C   UNL     1     -22.910  19.631 -33.572  1.00  0.00     0.200 A 
BRANCH  29  32
ATOM     32  O   UNL     1     -22.333  20.722 -31.468  1.00  0.00    -0.504 OA
ATOM     33  H   UNL     1     -21.840  20.656 -30.585  1.00  0.00     0.293 HD
ENDBRANCH  29  32
BRANCH  30  34
ATOM     34  O   UNL     1     -23.464  18.504 -35.648  1.00  0.00    -0.504 OA
ATOM     35  H   UNL     1     -24.228  19.030 -36.060  1.00  0.00     0.293 HD
ENDBRANCH  30  34
BRANCH  31  36
ATOM     36  O   UNL     1     -22.718  20.834 -34.254  1.00  0.00    -0.502 OA
ATOM     37  H   UNL     1     -23.422  21.224 -34.873  1.00  0.00     0.293 HD
ENDBRANCH  31  36
ENDBRANCH  24  26
ENDBRANCH  23  24
ENDBRANCH   2  23
BRANCH   3  38
ATOM     38  O   UNL     1     -20.299  13.203 -31.482  1.00  0.00    -0.450 OA
BRANCH  38  39
ATOM     39  C   UNL     1     -19.346  13.789 -30.642  1.00  0.00     0.338 C 
ATOM     40  O   UNL     1     -19.715  14.479 -29.652  1.00  0.00    -0.246 OA
BRANCH  39  41
ATOM     41  C   UNL     1     -17.905  13.602 -30.928  1.00  0.00     0.067 A 
ATOM     42  C   UNL     1     -16.945  13.662 -29.904  1.00  0.00     0.066 A 
ATOM     43  C   UNL     1     -17.478  13.368 -32.245  1.00  0.00     0.066 A 
ATOM     44  C   UNL     1     -15.579  13.525 -30.191  1.00  0.00     0.162 A 
ATOM     45  C   UNL     1     -16.120  13.232 -32.543  1.00  0.00     0.162 A 
ATOM     46  C   UNL     1     -15.164  13.315 -31.517  1.00  0.00     0.200 A 
BRANCH  44  47
ATOM     47  O   UNL     1     -14.632  13.597 -29.166  1.00  0.00    -0.504 OA
ATOM     48  H   UNL     1     -13.757  13.086 -29.208  1.00  0.00     0.293 HD
ENDBRANCH  44  47
BRANCH  45  49
ATOM     49  O   UNL     1     -15.734  13.008 -33.865  1.00  0.00    -0.504 OA
ATOM     50  H   UNL     1     -16.407  12.812 -34.594  1.00  0.00     0.293 HD
ENDBRANCH  45  49
BRANCH  46  51
ATOM     51  O   UNL     1     -13.810  13.184 -31.828  1.00  0.00    -0.502 OA
ATOM     52  H   UNL     1     -13.075  13.529 -31.220  1.00  0.00     0.293 HD
ENDBRANCH  46  51
ENDBRANCH  39  41
ENDBRANCH  38  39
ENDBRANCH   3  38
BRANCH   5  53
ATOM     53  O   UNL     1     -23.422  11.173 -29.258  1.00  0.00    -0.428 OA
BRANCH  53  54
ATOM     54  C   UNL     1     -24.297  10.452 -28.436  1.00  0.00     0.340 C 
ATOM     55  O   UNL     1     -23.865   9.878 -27.399  1.00  0.00    -0.246 OA
BRANCH  54  56
ATOM     56  C   UNL     1     -25.725  10.344 -28.810  1.00  0.00     0.067 A 
ATOM     57  C   UNL     1     -26.720  10.422 -27.822  1.00  0.00     0.066 A 
ATOM     58  C   UNL     1     -26.101  10.176 -30.153  1.00  0.00     0.066 A 
ATOM     59  C   UNL     1     -28.076  10.324 -28.169  1.00  0.00     0.162 A 
ATOM     60  C   UNL     1     -27.454  10.085 -30.506  1.00  0.00     0.162 A 
ATOM     61  C   UNL     1     -28.445  10.151 -29.514  1.00  0.00     0.200 A 
BRANCH  59  62
ATOM     62  O   UNL     1     -29.057  10.397 -27.184  1.00  0.00    -0.504 OA
ATOM     63  H   UNL     1     -30.007  10.089 -27.355  1.00  0.00     0.293 HD
ENDBRANCH  59  62
BRANCH  60  64
ATOM     64  O   UNL     1     -27.802   9.915 -31.846  1.00  0.00    -0.504 OA
ATOM     65  H   UNL     1     -28.068  10.697 -32.434  1.00  0.00     0.293 HD
ENDBRANCH  60  64
BRANCH  61  66
ATOM     66  O   UNL     1     -29.789  10.047 -29.880  1.00  0.00    -0.502 OA
ATOM     67  H   UNL     1     -30.071   9.823 -30.834  1.00  0.00     0.293 HD
ENDBRANCH  61  66
ENDBRANCH  54  56
ENDBRANCH  53  54
ENDBRANCH   5  53
BRANCH   4  68
ATOM     68  O   UNL     1     -20.760  11.941 -28.909  1.00  0.00    -0.448 OA
BRANCH  68  69
ATOM     69  C   UNL     1     -20.106  10.914 -29.607  1.00  0.00     0.339 C 
ATOM     70  O   UNL     1     -20.718  10.271 -30.503  1.00  0.00    -0.246 OA
BRANCH  69  71
ATOM     71  C   UNL     1     -18.688  10.611 -29.321  1.00  0.00     0.067 A 
ATOM     72  C   UNL     1     -17.778  10.393 -30.370  1.00  0.00     0.066 A 
ATOM     73  C   UNL     1     -18.231  10.541 -27.995  1.00  0.00     0.066 A 
ATOM     74  C   UNL     1     -16.425  10.142 -30.100  1.00  0.00     0.162 A 
ATOM     75  C   UNL     1     -16.885  10.275 -27.710  1.00  0.00     0.162 A 
ATOM     76  C   UNL     1     -15.967  10.093 -28.775  1.00  0.00     0.200 A 
BRANCH  74  77
ATOM     77  O   UNL     1     -15.521   9.953 -31.145  1.00  0.00    -0.504 OA
ATOM     78  H   UNL     1     -14.931  10.702 -31.473  1.00  0.00     0.293 HD
ENDBRANCH  74  77
BRANCH  75  79
ATOM     79  O   UNL     1     -16.513  10.193 -26.364  1.00  0.00    -0.504 OA
ATOM     80  H   UNL     1     -15.875  10.829 -25.914  1.00  0.00     0.293 HD
ENDBRANCH  75  79
BRANCH  76  81
ATOM     81  O   UNL     1     -14.605   9.875 -28.556  1.00  0.00    -0.502 OA
ATOM     82  H   UNL     1     -13.946  10.615 -28.387  1.00  0.00     0.293 HD
ENDBRANCH  76  81
ENDBRANCH  69  71
ENDBRANCH  68  69
ENDBRANCH   4  68
TORSDOF 31
ENDMDL
