MODEL 1
REMARK VINA RESULT:    -3.827      0.000      0.000
REMARK INTER + INTRA:         -12.260
REMARK INTER:                  -8.301
REMARK INTRA:                  -3.959
REMARK UNBOUND:                -3.959
REMARK SMILES CCCCCCCCCCCCCCCCCCCCCC(=O)[O-]
REMARK SMILES IDX 12 1 11 2 10 3 9 4 8 5 7 6 6 7 5 8 4 9 3 10 2 11 1 12 13 13
REMARK SMILES IDX 14 14 15 15 16 16 17 17 18 18 19 19 20 20 21 21 22 22 23 23
REMARK SMILES IDX 24 24
REMARK H PARENT
REMARK Flexibility Score: inf
ROOT
ATOM      1  C   UNL     1      15.259   2.006  62.137  1.00  0.00     0.000 C 
ENDROOT
BRANCH   1   2
ATOM      2  C   UNL     1      14.692   0.710  61.533  1.00  0.00     0.000 C 
BRANCH   2   3
ATOM      3  C   UNL     1      14.658   0.734  59.994  1.00  0.00     0.000 C 
BRANCH   3   4
ATOM      4  C   UNL     1      15.308  -0.483  59.302  1.00  0.00    -0.000 C 
BRANCH   4   5
ATOM      5  C   UNL     1      15.734  -0.254  57.841  1.00  0.00    -0.000 C 
BRANCH   5   6
ATOM      6  C   UNL     1      16.934  -1.119  57.427  1.00  0.00    -0.000 C 
BRANCH   6   7
ATOM      7  C   UNL     1      18.004  -0.277  56.722  1.00  0.00    -0.000 C 
BRANCH   7   8
ATOM      8  C   UNL     1      17.411   0.467  55.516  1.00  0.00    -0.000 C 
BRANCH   8   9
ATOM      9  C   UNL     1      17.940   1.904  55.384  1.00  0.00    -0.000 C 
BRANCH   9  10
ATOM     10  C   UNL     1      17.818   2.701  56.694  1.00  0.00    -0.000 C 
BRANCH  10  11
ATOM     11  C   UNL     1      16.393   3.221  56.936  1.00  0.00    -0.003 C 
ATOM     12  C   UNL     1      16.046   4.433  56.073  1.00  0.00     0.004 C 
ENDBRANCH  10  11
ENDBRANCH   9  10
ENDBRANCH   8   9
ENDBRANCH   7   8
ENDBRANCH   6   7
ENDBRANCH   5   6
ENDBRANCH   4   5
ENDBRANCH   3   4
ENDBRANCH   2   3
ENDBRANCH   1   2
BRANCH   1  13
ATOM     13  C   UNL     1      15.766   2.985  61.065  1.00  0.00     0.000 C 
BRANCH  13  14
ATOM     14  C   UNL     1      17.289   3.178  61.107  1.00  0.00     0.000 C 
BRANCH  14  15
ATOM     15  C   UNL     1      17.994   2.159  60.204  1.00  0.00     0.000 C 
BRANCH  15  16
ATOM     16  C   UNL     1      18.921   1.249  61.019  1.00  0.00     0.000 C 
BRANCH  16  17
ATOM     17  C   UNL     1      19.343   0.018  60.203  1.00  0.00     0.000 C 
BRANCH  17  18
ATOM     18  C   UNL     1      18.648  -1.275  60.665  1.00  0.00     0.000 C 
BRANCH  18  19
ATOM     19  C   UNL     1      17.848  -1.149  61.975  1.00  0.00     0.000 C 
BRANCH  19  20
ATOM     20  C   UNL     1      16.885  -2.325  62.203  1.00  0.00     0.006 C 
BRANCH  20  21
ATOM     21  C   UNL     1      16.953  -3.321  61.042  1.00  0.00     0.053 C 
BRANCH  21  22
ATOM     22  C   UNL     1      17.545  -4.619  61.494  1.00  0.00     0.041 C 
ATOM     23  O   UNL     1      18.584  -4.626  62.205  1.00  0.00    -0.550 OA
ATOM     24  O   UNL     1      16.980  -5.821  61.087  1.00  0.00    -0.550 OA
ENDBRANCH  21  22
ENDBRANCH  20  21
ENDBRANCH  19  20
ENDBRANCH  18  19
ENDBRANCH  17  18
ENDBRANCH  16  17
ENDBRANCH  15  16
ENDBRANCH  14  15
ENDBRANCH  13  14
ENDBRANCH   1  13
TORSDOF 20
ENDMDL
MODEL 2
REMARK VINA RESULT:    -3.824      3.383      4.795
REMARK INTER + INTRA:         -12.254
REMARK INTER:                  -8.239
REMARK INTRA:                  -4.015
REMARK UNBOUND:                -3.959
REMARK SMILES CCCCCCCCCCCCCCCCCCCCCC(=O)[O-]
REMARK SMILES IDX 12 1 11 2 10 3 9 4 8 5 7 6 6 7 5 8 4 9 3 10 2 11 1 12 13 13
REMARK SMILES IDX 14 14 15 15 16 16 17 17 18 18 19 19 20 20 21 21 22 22 23 23
REMARK SMILES IDX 24 24
REMARK H PARENT
REMARK Flexibility Score: inf
ROOT
ATOM      1  C   UNL     1      16.913  -1.130  61.240  1.00  0.00     0.000 C 
ENDROOT
BRANCH   1   2
ATOM      2  C   UNL     1      16.425  -1.329  59.795  1.00  0.00     0.000 C 
BRANCH   2   3
ATOM      3  C   UNL     1      15.452  -0.228  59.337  1.00  0.00     0.000 C 
BRANCH   3   4
ATOM      4  C   UNL     1      15.879   0.543  58.070  1.00  0.00    -0.000 C 
BRANCH   4   5
ATOM      5  C   UNL     1      15.699  -0.220  56.747  1.00  0.00    -0.000 C 
BRANCH   5   6
ATOM      6  C   UNL     1      17.031  -0.691  56.142  1.00  0.00    -0.000 C 
BRANCH   6   7
ATOM      7  C   UNL     1      18.107   0.394  56.266  1.00  0.00    -0.000 C 
BRANCH   7   8
ATOM      8  C   UNL     1      17.885   1.509  55.233  1.00  0.00    -0.000 C 
BRANCH   8   9
ATOM      9  C   UNL     1      18.021   2.916  55.837  1.00  0.00    -0.000 C 
BRANCH   9  10
ATOM     10  C   UNL     1      16.815   3.815  55.519  1.00  0.00    -0.000 C 
BRANCH  10  11
ATOM     11  C   UNL     1      16.454   4.750  56.684  1.00  0.00    -0.003 C 
ATOM     12  C   UNL     1      15.227   4.281  57.466  1.00  0.00     0.004 C 
ENDBRANCH  10  11
ENDBRANCH   9  10
ENDBRANCH   8   9
ENDBRANCH   7   8
ENDBRANCH   6   7
ENDBRANCH   5   6
ENDBRANCH   4   5
ENDBRANCH   3   4
ENDBRANCH   2   3
ENDBRANCH   1   2
BRANCH   1  13
ATOM     13  C   UNL     1      18.237  -0.350  61.314  1.00  0.00     0.000 C 
BRANCH  13  14
ATOM     14  C   UNL     1      19.135  -0.584  60.090  1.00  0.00     0.000 C 
BRANCH  14  15
ATOM     15  C   UNL     1      19.565   0.748  59.465  1.00  0.00     0.000 C 
BRANCH  15  16
ATOM     16  C   UNL     1      19.150   1.931  60.349  1.00  0.00     0.000 C 
BRANCH  16  17
ATOM     17  C   UNL     1      18.155   2.844  59.616  1.00  0.00     0.000 C 
BRANCH  17  18
ATOM     18  C   UNL     1      17.258   3.646  60.576  1.00  0.00     0.000 C 
BRANCH  18  19
ATOM     19  C   UNL     1      16.129   2.835  61.239  1.00  0.00     0.000 C 
BRANCH  19  20
ATOM     20  C   UNL     1      16.357   2.610  62.741  1.00  0.00     0.006 C 
BRANCH  20  21
ATOM     21  C   UNL     1      17.440   3.551  63.277  1.00  0.00     0.053 C 
BRANCH  21  22
ATOM     22  C   UNL     1      16.834   4.627  64.123  1.00  0.00     0.041 C 
ATOM     23  O   UNL     1      16.040   5.460  63.612  1.00  0.00    -0.550 OA
ATOM     24  O   UNL     1      17.186   4.740  65.463  1.00  0.00    -0.550 OA
ENDBRANCH  21  22
ENDBRANCH  20  21
ENDBRANCH  19  20
ENDBRANCH  18  19
ENDBRANCH  17  18
ENDBRANCH  16  17
ENDBRANCH  15  16
ENDBRANCH  14  15
ENDBRANCH  13  14
ENDBRANCH   1  13
TORSDOF 20
ENDMDL
MODEL 3
REMARK VINA RESULT:    -3.751      3.394      7.012
REMARK INTER + INTRA:         -12.095
REMARK INTER:                  -8.719
REMARK INTRA:                  -3.376
REMARK UNBOUND:                -3.959
REMARK SMILES CCCCCCCCCCCCCCCCCCCCCC(=O)[O-]
REMARK SMILES IDX 12 1 11 2 10 3 9 4 8 5 7 6 6 7 5 8 4 9 3 10 2 11 1 12 13 13
REMARK SMILES IDX 14 14 15 15 16 16 17 17 18 18 19 19 20 20 21 21 22 22 23 23
REMARK SMILES IDX 24 24
REMARK H PARENT
REMARK Flexibility Score: inf
ROOT
ATOM      1  C   UNL     1      19.401   0.543  57.089  1.00  0.00     0.000 C 
ENDROOT
BRANCH   1   2
ATOM      2  C   UNL     1      19.718   1.326  58.374  1.00  0.00     0.000 C 
BRANCH   2   3
ATOM      3  C   UNL     1      18.640   1.153  59.459  1.00  0.00     0.000 C 
BRANCH   3   4
ATOM      4  C   UNL     1      19.059   0.299  60.674  1.00  0.00    -0.000 C 
BRANCH   4   5
ATOM      5  C   UNL     1      18.214  -0.965  60.908  1.00  0.00    -0.000 C 
BRANCH   5   6
ATOM      6  C   UNL     1      18.775  -1.860  62.025  1.00  0.00    -0.000 C 
BRANCH   6   7
ATOM      7  C   UNL     1      17.833  -3.034  62.317  1.00  0.00    -0.000 C 
BRANCH   7   8
ATOM      8  C   UNL     1      16.413  -2.535  62.628  1.00  0.00    -0.000 C 
BRANCH   8   9
ATOM      9  C   UNL     1      15.366  -3.064  61.635  1.00  0.00    -0.000 C 
BRANCH   9  10
ATOM     10  C   UNL     1      14.636  -1.934  60.888  1.00  0.00    -0.000 C 
BRANCH  10  11
ATOM     11  C   UNL     1      13.965  -0.934  61.842  1.00  0.00    -0.003 C 
ATOM     12  C   UNL     1      14.541   0.477  61.727  1.00  0.00     0.004 C 
ENDBRANCH  10  11
ENDBRANCH   9  10
ENDBRANCH   8   9
ENDBRANCH   7   8
ENDBRANCH   6   7
ENDBRANCH   5   6
ENDBRANCH   4   5
ENDBRANCH   3   4
ENDBRANCH   2   3
ENDBRANCH   1   2
BRANCH   1  13
ATOM     13  C   UNL     1      18.419  -0.615  57.330  1.00  0.00     0.000 C 
BRANCH  13  14
ATOM     14  C   UNL     1      17.466  -0.845  56.147  1.00  0.00     0.000 C 
BRANCH  14  15
ATOM     15  C   UNL     1      16.170  -0.046  56.327  1.00  0.00     0.000 C 
BRANCH  15  16
ATOM     16  C   UNL     1      15.701  -0.078  57.786  1.00  0.00     0.000 C 
BRANCH  16  17
ATOM     17  C   UNL     1      14.697   1.052  58.067  1.00  0.00     0.000 C 
BRANCH  17  18
ATOM     18  C   UNL     1      15.376   2.362  58.507  1.00  0.00     0.000 C 
BRANCH  18  19
ATOM     19  C   UNL     1      15.592   3.389  57.381  1.00  0.00     0.000 C 
BRANCH  19  20
ATOM     20  C   UNL     1      17.050   3.453  56.900  1.00  0.00     0.006 C 
BRANCH  20  21
ATOM     21  C   UNL     1      17.122   3.851  55.423  1.00  0.00     0.053 C 
BRANCH  21  22
ATOM     22  C   UNL     1      18.241   3.132  54.737  1.00  0.00     0.041 C 
ATOM     23  O   UNL     1      19.419   3.568  54.823  1.00  0.00    -0.550 OA
ATOM     24  O   UNL     1      17.975   2.010  53.959  1.00  0.00    -0.550 OA
ENDBRANCH  21  22
ENDBRANCH  20  21
ENDBRANCH  19  20
ENDBRANCH  18  19
ENDBRANCH  17  18
ENDBRANCH  16  17
ENDBRANCH  15  16
ENDBRANCH  14  15
ENDBRANCH  13  14
ENDBRANCH   1  13
TORSDOF 20
ENDMDL
MODEL 4
REMARK VINA RESULT:    -3.728      1.399      3.054
REMARK INTER + INTRA:         -12.047
REMARK INTER:                  -8.277
REMARK INTRA:                  -3.770
REMARK UNBOUND:                -3.959
REMARK SMILES CCCCCCCCCCCCCCCCCCCCCC(=O)[O-]
REMARK SMILES IDX 12 1 11 2 10 3 9 4 8 5 7 6 6 7 5 8 4 9 3 10 2 11 1 12 13 13
REMARK SMILES IDX 14 14 15 15 16 16 17 17 18 18 19 19 20 20 21 21 22 22 23 23
REMARK SMILES IDX 24 24
REMARK H PARENT
REMARK Flexibility Score: inf
ROOT
ATOM      1  C   UNL     1      15.030   0.466  57.820  1.00  0.00     0.000 C 
ENDROOT
BRANCH   1   2
ATOM      2  C   UNL     1      16.026  -0.676  58.090  1.00  0.00     0.000 C 
BRANCH   2   3
ATOM      3  C   UNL     1      17.074  -0.830  56.973  1.00  0.00     0.000 C 
BRANCH   3   4
ATOM      4  C   UNL     1      18.447  -0.189  57.265  1.00  0.00    -0.000 C 
BRANCH   4   5
ATOM      5  C   UNL     1      18.718   1.138  56.535  1.00  0.00    -0.000 C 
BRANCH   5   6
ATOM      6  C   UNL     1      17.719   1.412  55.401  1.00  0.00    -0.000 C 
BRANCH   6   7
ATOM      7  C   UNL     1      18.087   2.689  54.637  1.00  0.00    -0.000 C 
BRANCH   7   8
ATOM      8  C   UNL     1      17.834   3.936  55.499  1.00  0.00    -0.000 C 
BRANCH   8   9
ATOM      9  C   UNL     1      16.339   4.204  55.732  1.00  0.00    -0.000 C 
BRANCH   9  10
ATOM     10  C   UNL     1      15.938   4.069  57.211  1.00  0.00    -0.000 C 
BRANCH  10  11
ATOM     11  C   UNL     1      17.153   4.036  58.150  1.00  0.00    -0.003 C 
ATOM     12  C   UNL     1      17.309   5.318  58.968  1.00  0.00     0.004 C 
ENDBRANCH  10  11
ENDBRANCH   9  10
ENDBRANCH   8   9
ENDBRANCH   7   8
ENDBRANCH   6   7
ENDBRANCH   5   6
ENDBRANCH   4   5
ENDBRANCH   3   4
ENDBRANCH   2   3
ENDBRANCH   1   2
BRANCH   1  13
ATOM     13  C   UNL     1      14.745   1.308  59.075  1.00  0.00     0.000 C 
BRANCH  13  14
ATOM     14  C   UNL     1      14.583   0.455  60.342  1.00  0.00     0.000 C 
BRANCH  14  15
ATOM     15  C   UNL     1      15.450   1.001  61.483  1.00  0.00     0.000 C 
BRANCH  15  16
ATOM     16  C   UNL     1      16.628   1.817  60.937  1.00  0.00     0.000 C 
BRANCH  16  17
ATOM     17  C   UNL     1      17.921   0.987  60.941  1.00  0.00     0.000 C 
BRANCH  17  18
ATOM     18  C   UNL     1      17.783  -0.335  61.717  1.00  0.00     0.000 C 
BRANCH  18  19
ATOM     19  C   UNL     1      18.148  -1.599  60.916  1.00  0.00     0.000 C 
BRANCH  19  20
ATOM     20  C   UNL     1      17.010  -2.630  60.875  1.00  0.00     0.006 C 
BRANCH  20  21
ATOM     21  C   UNL     1      16.123  -2.515  62.118  1.00  0.00     0.053 C 
BRANCH  21  22
ATOM     22  C   UNL     1      16.595  -3.445  63.191  1.00  0.00     0.041 C 
ATOM     23  O   UNL     1      16.526  -4.691  63.024  1.00  0.00    -0.550 OA
ATOM     24  O   UNL     1      17.062  -2.936  64.398  1.00  0.00    -0.550 OA
ENDBRANCH  21  22
ENDBRANCH  20  21
ENDBRANCH  19  20
ENDBRANCH  18  19
ENDBRANCH  17  18
ENDBRANCH  16  17
ENDBRANCH  15  16
ENDBRANCH  14  15
ENDBRANCH  13  14
ENDBRANCH   1  13
TORSDOF 20
ENDMDL
MODEL 5
REMARK VINA RESULT:    -3.723      3.409      6.315
REMARK INTER + INTRA:         -12.036
REMARK INTER:                  -8.095
REMARK INTRA:                  -3.940
REMARK UNBOUND:                -3.959
REMARK SMILES CCCCCCCCCCCCCCCCCCCCCC(=O)[O-]
REMARK SMILES IDX 12 1 11 2 10 3 9 4 8 5 7 6 6 7 5 8 4 9 3 10 2 11 1 12 13 13
REMARK SMILES IDX 14 14 15 15 16 16 17 17 18 18 19 19 20 20 21 21 22 22 23 23
REMARK SMILES IDX 24 24
REMARK H PARENT
REMARK Flexibility Score: inf
ROOT
ATOM      1  C   UNL     1      15.118  -2.038  60.424  1.00  0.00     0.000 C 
ENDROOT
BRANCH   1   2
ATOM      2  C   UNL     1      15.058  -2.257  61.946  1.00  0.00     0.000 C 
BRANCH   2   3
ATOM      3  C   UNL     1      16.442  -2.521  62.565  1.00  0.00     0.000 C 
BRANCH   3   4
ATOM      4  C   UNL     1      17.528  -2.992  61.575  1.00  0.00    -0.000 C 
BRANCH   4   5
ATOM      5  C   UNL     1      18.725  -2.039  61.415  1.00  0.00    -0.000 C 
BRANCH   5   6
ATOM      6  C   UNL     1      18.350  -0.566  61.633  1.00  0.00    -0.000 C 
BRANCH   6   7
ATOM      7  C   UNL     1      18.998   0.332  60.572  1.00  0.00    -0.000 C 
BRANCH   7   8
ATOM      8  C   UNL     1      18.383   1.740  60.596  1.00  0.00    -0.000 C 
BRANCH   8   9
ATOM      9  C   UNL     1      17.563   2.009  61.868  1.00  0.00    -0.000 C 
BRANCH   9  10
ATOM     10  C   UNL     1      16.161   2.562  61.560  1.00  0.00    -0.000 C 
BRANCH  10  11
ATOM     11  C   UNL     1      15.126   2.171  62.627  1.00  0.00    -0.003 C 
ATOM     12  C   UNL     1      15.042   3.179  63.773  1.00  0.00     0.004 C 
ENDBRANCH  10  11
ENDBRANCH   9  10
ENDBRANCH   8   9
ENDBRANCH   7   8
ENDBRANCH   6   7
ENDBRANCH   5   6
ENDBRANCH   4   5
ENDBRANCH   3   4
ENDBRANCH   2   3
ENDBRANCH   1   2
BRANCH   1  13
ATOM     13  C   UNL     1      15.017  -0.553  60.038  1.00  0.00     0.000 C 
BRANCH  13  14
ATOM     14  C   UNL     1      15.722  -0.234  58.710  1.00  0.00     0.000 C 
BRANCH  14  15
ATOM     15  C   UNL     1      16.613  -1.401  58.270  1.00  0.00     0.000 C 
BRANCH  15  16
ATOM     16  C   UNL     1      17.538  -0.985  57.120  1.00  0.00     0.000 C 
BRANCH  16  17
ATOM     17  C   UNL     1      16.880   0.094  56.246  1.00  0.00     0.000 C 
BRANCH  17  18
ATOM     18  C   UNL     1      17.871   1.175  55.779  1.00  0.00     0.000 C 
BRANCH  18  19
ATOM     19  C   UNL     1      18.633   1.889  56.910  1.00  0.00     0.000 C 
BRANCH  19  20
ATOM     20  C   UNL     1      18.217   3.359  57.078  1.00  0.00     0.006 C 
BRANCH  20  21
ATOM     21  C   UNL     1      16.857   3.464  57.777  1.00  0.00     0.053 C 
BRANCH  21  22
ATOM     22  C   UNL     1      15.868   4.168  56.902  1.00  0.00     0.041 C 
ATOM     23  O   UNL     1      14.803   4.625  57.394  1.00  0.00    -0.550 OA
ATOM     24  O   UNL     1      16.098   4.274  55.535  1.00  0.00    -0.550 OA
ENDBRANCH  21  22
ENDBRANCH  20  21
ENDBRANCH  19  20
ENDBRANCH  18  19
ENDBRANCH  17  18
ENDBRANCH  16  17
ENDBRANCH  15  16
ENDBRANCH  14  15
ENDBRANCH  13  14
ENDBRANCH   1  13
TORSDOF 20
ENDMDL
MODEL 6
REMARK VINA RESULT:    -3.722      2.397      3.685
REMARK INTER + INTRA:         -12.034
REMARK INTER:                  -8.889
REMARK INTRA:                  -3.145
REMARK UNBOUND:                -3.959
REMARK SMILES CCCCCCCCCCCCCCCCCCCCCC(=O)[O-]
REMARK SMILES IDX 12 1 11 2 10 3 9 4 8 5 7 6 6 7 5 8 4 9 3 10 2 11 1 12 13 13
REMARK SMILES IDX 14 14 15 15 16 16 17 17 18 18 19 19 20 20 21 21 22 22 23 23
REMARK SMILES IDX 24 24
REMARK H PARENT
REMARK Flexibility Score: inf
ROOT
ATOM      1  C   UNL     1      14.825   0.987  61.854  1.00  0.00     0.000 C 
ENDROOT
BRANCH   1   2
ATOM      2  C   UNL     1      15.295   2.071  60.868  1.00  0.00     0.000 C 
BRANCH   2   3
ATOM      3  C   UNL     1      15.927   1.483  59.593  1.00  0.00     0.000 C 
BRANCH   3   4
ATOM      4  C   UNL     1      14.975   1.353  58.386  1.00  0.00    -0.000 C 
BRANCH   4   5
ATOM      5  C   UNL     1      15.204   0.114  57.503  1.00  0.00    -0.000 C 
BRANCH   5   6
ATOM      6  C   UNL     1      16.560  -0.560  57.759  1.00  0.00    -0.000 C 
BRANCH   6   7
ATOM      7  C   UNL     1      17.219  -0.995  56.444  1.00  0.00    -0.000 C 
BRANCH   7   8
ATOM      8  C   UNL     1      17.178   0.140  55.409  1.00  0.00    -0.000 C 
BRANCH   8   9
ATOM      9  C   UNL     1      18.044   1.344  55.812  1.00  0.00    -0.000 C 
BRANCH   9  10
ATOM     10  C   UNL     1      18.046   2.454  54.747  1.00  0.00    -0.000 C 
BRANCH  10  11
ATOM     11  C   UNL     1      17.755   3.841  55.341  1.00  0.00    -0.003 C 
ATOM     12  C   UNL     1      16.429   3.898  56.099  1.00  0.00     0.004 C 
ENDBRANCH  10  11
ENDBRANCH   9  10
ENDBRANCH   8   9
ENDBRANCH   7   8
ENDBRANCH   6   7
ENDBRANCH   5   6
ENDBRANCH   4   5
ENDBRANCH   3   4
ENDBRANCH   2   3
ENDBRANCH   1   2
BRANCH   1  13
ATOM     13  C   UNL     1      13.897  -0.047  61.196  1.00  0.00     0.000 C 
BRANCH  13  14
ATOM     14  C   UNL     1      13.433  -1.138  62.173  1.00  0.00     0.000 C 
BRANCH  14  15
ATOM     15  C   UNL     1      14.052  -2.494  61.812  1.00  0.00     0.000 C 
BRANCH  15  16
ATOM     16  C   UNL     1      14.968  -2.373  60.588  1.00  0.00     0.000 C 
BRANCH  16  17
ATOM     17  C   UNL     1      16.409  -2.780  60.935  1.00  0.00     0.000 C 
BRANCH  17  18
ATOM     18  C   UNL     1      16.882  -2.217  62.287  1.00  0.00     0.000 C 
BRANCH  18  19
ATOM     19  C   UNL     1      18.005  -1.167  62.195  1.00  0.00     0.000 C 
BRANCH  19  20
ATOM     20  C   UNL     1      18.463  -0.906  60.752  1.00  0.00     0.006 C 
BRANCH  20  21
ATOM     21  C   UNL     1      19.927  -0.457  60.716  1.00  0.00     0.053 C 
BRANCH  21  22
ATOM     22  C   UNL     1      20.203   0.346  59.484  1.00  0.00     0.041 C 
ATOM     23  O   UNL     1      19.394   1.238  59.116  1.00  0.00    -0.550 OA
ATOM     24  O   UNL     1      21.327   0.074  58.713  1.00  0.00    -0.550 OA
ENDBRANCH  21  22
ENDBRANCH  20  21
ENDBRANCH  19  20
ENDBRANCH  18  19
ENDBRANCH  17  18
ENDBRANCH  16  17
ENDBRANCH  15  16
ENDBRANCH  14  15
ENDBRANCH  13  14
ENDBRANCH   1  13
TORSDOF 20
ENDMDL
MODEL 7
REMARK VINA RESULT:    -3.689      3.023      6.616
REMARK INTER + INTRA:         -11.961
REMARK INTER:                  -8.061
REMARK INTRA:                  -3.900
REMARK UNBOUND:                -3.959
REMARK SMILES CCCCCCCCCCCCCCCCCCCCCC(=O)[O-]
REMARK SMILES IDX 12 1 11 2 10 3 9 4 8 5 7 6 6 7 5 8 4 9 3 10 2 11 1 12 13 13
REMARK SMILES IDX 14 14 15 15 16 16 17 17 18 18 19 19 20 20 21 21 22 22 23 23
REMARK SMILES IDX 24 24
REMARK H PARENT
REMARK Flexibility Score: inf
ROOT
ATOM      1  C   UNL     1      18.494  -0.627  58.730  1.00  0.00     0.000 C 
ENDROOT
BRANCH   1   2
ATOM      2  C   UNL     1      19.122   0.434  59.649  1.00  0.00     0.000 C 
BRANCH   2   3
ATOM      3  C   UNL     1      18.699   0.274  61.121  1.00  0.00     0.000 C 
BRANCH   3   4
ATOM      4  C   UNL     1      17.534   1.179  61.574  1.00  0.00    -0.000 C 
BRANCH   4   5
ATOM      5  C   UNL     1      16.291   0.435  62.093  1.00  0.00    -0.000 C 
BRANCH   5   6
ATOM      6  C   UNL     1      15.093   0.536  61.137  1.00  0.00    -0.000 C 
BRANCH   6   7
ATOM      7  C   UNL     1      14.925  -0.753  60.324  1.00  0.00    -0.000 C 
BRANCH   7   8
ATOM      8  C   UNL     1      14.505  -1.922  61.228  1.00  0.00    -0.000 C 
BRANCH   8   9
ATOM      9  C   UNL     1      15.097  -3.266  60.777  1.00  0.00    -0.000 C 
BRANCH   9  10
ATOM     10  C   UNL     1      16.630  -3.227  60.657  1.00  0.00    -0.000 C 
BRANCH  10  11
ATOM     11  C   UNL     1      17.327  -3.191  62.027  1.00  0.00    -0.003 C 
ATOM     12  C   UNL     1      18.847  -3.305  61.924  1.00  0.00     0.004 C 
ENDBRANCH  10  11
ENDBRANCH   9  10
ENDBRANCH   8   9
ENDBRANCH   7   8
ENDBRANCH   6   7
ENDBRANCH   5   6
ENDBRANCH   4   5
ENDBRANCH   3   4
ENDBRANCH   2   3
ENDBRANCH   1   2
BRANCH   1  13
ATOM     13  C   UNL     1      18.500  -0.205  57.251  1.00  0.00     0.000 C 
BRANCH  13  14
ATOM     14  C   UNL     1      17.238  -0.653  56.498  1.00  0.00     0.000 C 
BRANCH  14  15
ATOM     15  C   UNL     1      16.018   0.162  56.944  1.00  0.00     0.000 C 
BRANCH  15  16
ATOM     16  C   UNL     1      16.366   1.650  57.072  1.00  0.00     0.000 C 
BRANCH  16  17
ATOM     17  C   UNL     1      15.539   2.316  58.183  1.00  0.00     0.000 C 
BRANCH  17  18
ATOM     18  C   UNL     1      16.347   3.340  59.000  1.00  0.00     0.000 C 
BRANCH  18  19
ATOM     19  C   UNL     1      15.547   4.079  60.088  1.00  0.00     0.000 C 
BRANCH  19  20
ATOM     20  C   UNL     1      16.442   4.708  61.167  1.00  0.00     0.006 C 
BRANCH  20  21
ATOM     21  C   UNL     1      15.631   5.047  62.420  1.00  0.00     0.053 C 
BRANCH  21  22
ATOM     22  C   UNL     1      15.794   3.982  63.459  1.00  0.00     0.041 C 
ATOM     23  O   UNL     1      16.893   3.849  64.060  1.00  0.00    -0.550 OA
ATOM     24  O   UNL     1      14.750   3.104  63.727  1.00  0.00    -0.550 OA
ENDBRANCH  21  22
ENDBRANCH  20  21
ENDBRANCH  19  20
ENDBRANCH  18  19
ENDBRANCH  17  18
ENDBRANCH  16  17
ENDBRANCH  15  16
ENDBRANCH  14  15
ENDBRANCH  13  14
ENDBRANCH   1  13
TORSDOF 20
ENDMDL
MODEL 8
REMARK VINA RESULT:    -3.682      1.582      3.095
REMARK INTER + INTRA:         -11.947
REMARK INTER:                  -8.341
REMARK INTRA:                  -3.605
REMARK UNBOUND:                -3.959
REMARK SMILES CCCCCCCCCCCCCCCCCCCCCC(=O)[O-]
REMARK SMILES IDX 12 1 11 2 10 3 9 4 8 5 7 6 6 7 5 8 4 9 3 10 2 11 1 12 13 13
REMARK SMILES IDX 14 14 15 15 16 16 17 17 18 18 19 19 20 20 21 21 22 22 23 23
REMARK SMILES IDX 24 24
REMARK H PARENT
REMARK Flexibility Score: inf
ROOT
ATOM      1  C   UNL     1      20.053  -0.073  60.194  1.00  0.00     0.000 C 
ENDROOT
BRANCH   1   2
ATOM      2  C   UNL     1      19.194  -0.544  59.007  1.00  0.00     0.000 C 
BRANCH   2   3
ATOM      3  C   UNL     1      17.801  -1.038  59.438  1.00  0.00     0.000 C 
BRANCH   3   4
ATOM      4  C   UNL     1      16.827  -1.352  58.283  1.00  0.00    -0.000 C 
BRANCH   4   5
ATOM      5  C   UNL     1      16.329  -0.128  57.495  1.00  0.00    -0.000 C 
BRANCH   5   6
ATOM      6  C   UNL     1      16.243  -0.385  55.983  1.00  0.00    -0.000 C 
BRANCH   6   7
ATOM      7  C   UNL     1      17.501   0.118  55.265  1.00  0.00    -0.000 C 
BRANCH   7   8
ATOM      8  C   UNL     1      18.044   1.390  55.935  1.00  0.00    -0.000 C 
BRANCH   8   9
ATOM      9  C   UNL     1      17.881   2.641  55.058  1.00  0.00    -0.000 C 
BRANCH   9  10
ATOM     10  C   UNL     1      17.032   3.731  55.733  1.00  0.00    -0.000 C 
BRANCH  10  11
ATOM     11  C   UNL     1      16.861   3.494  57.242  1.00  0.00    -0.003 C 
ATOM     12  C   UNL     1      15.397   3.470  57.680  1.00  0.00     0.004 C 
ENDBRANCH  10  11
ENDBRANCH   9  10
ENDBRANCH   8   9
ENDBRANCH   7   8
ENDBRANCH   6   7
ENDBRANCH   5   6
ENDBRANCH   4   5
ENDBRANCH   3   4
ENDBRANCH   2   3
ENDBRANCH   1   2
BRANCH   1  13
ATOM     13  C   UNL     1      20.467   1.403  60.074  1.00  0.00     0.000 C 
BRANCH  13  14
ATOM     14  C   UNL     1      19.264   2.357  60.022  1.00  0.00     0.000 C 
BRANCH  14  15
ATOM     15  C   UNL     1      18.421   2.243  61.298  1.00  0.00     0.000 C 
BRANCH  15  16
ATOM     16  C   UNL     1      16.956   2.603  61.024  1.00  0.00     0.000 C 
BRANCH  16  17
ATOM     17  C   UNL     1      16.009   1.542  61.607  1.00  0.00     0.000 C 
BRANCH  17  18
ATOM     18  C   UNL     1      14.796   1.258  60.703  1.00  0.00     0.000 C 
BRANCH  18  19
ATOM     19  C   UNL     1      14.384  -0.223  60.614  1.00  0.00     0.000 C 
BRANCH  19  20
ATOM     20  C   UNL     1      13.877  -0.784  61.952  1.00  0.00     0.006 C 
BRANCH  20  21
ATOM     21  C   UNL     1      13.878  -2.316  61.937  1.00  0.00     0.053 C 
BRANCH  21  22
ATOM     22  C   UNL     1      15.271  -2.841  61.795  1.00  0.00     0.041 C 
ATOM     23  O   UNL     1      16.173  -2.464  62.589  1.00  0.00    -0.550 OA
ATOM     24  O   UNL     1      15.587  -3.707  60.755  1.00  0.00    -0.550 OA
ENDBRANCH  21  22
ENDBRANCH  20  21
ENDBRANCH  19  20
ENDBRANCH  18  19
ENDBRANCH  17  18
ENDBRANCH  16  17
ENDBRANCH  15  16
ENDBRANCH  14  15
ENDBRANCH  13  14
ENDBRANCH   1  13
TORSDOF 20
ENDMDL
MODEL 9
REMARK VINA RESULT:    -3.653      1.579      3.584
REMARK INTER + INTRA:         -11.883
REMARK INTER:                  -7.993
REMARK INTRA:                  -3.890
REMARK UNBOUND:                -3.959
REMARK SMILES CCCCCCCCCCCCCCCCCCCCCC(=O)[O-]
REMARK SMILES IDX 12 1 11 2 10 3 9 4 8 5 7 6 6 7 5 8 4 9 3 10 2 11 1 12 13 13
REMARK SMILES IDX 14 14 15 15 16 16 17 17 18 18 19 19 20 20 21 21 22 22 23 23
REMARK SMILES IDX 24 24
REMARK H PARENT
REMARK Flexibility Score: inf
ROOT
ATOM      1  C   UNL     1      18.008  -0.503  58.651  1.00  0.00     0.000 C 
ENDROOT
BRANCH   1   2
ATOM      2  C   UNL     1      16.737  -1.183  58.115  1.00  0.00     0.000 C 
BRANCH   2   3
ATOM      3  C   UNL     1      15.629  -0.177  57.753  1.00  0.00     0.000 C 
BRANCH   3   4
ATOM      4  C   UNL     1      16.123   1.222  57.330  1.00  0.00    -0.000 C 
BRANCH   4   5
ATOM      5  C   UNL     1      15.366   2.403  57.963  1.00  0.00    -0.000 C 
BRANCH   5   6
ATOM      6  C   UNL     1      16.095   3.743  57.787  1.00  0.00    -0.000 C 
BRANCH   6   7
ATOM      7  C   UNL     1      15.998   4.238  56.339  1.00  0.00    -0.000 C 
BRANCH   7   8
ATOM      8  C   UNL     1      17.362   4.734  55.836  1.00  0.00    -0.000 C 
BRANCH   8   9
ATOM      9  C   UNL     1      18.283   3.589  55.388  1.00  0.00    -0.000 C 
BRANCH   9  10
ATOM     10  C   UNL     1      19.622   3.575  56.146  1.00  0.00    -0.000 C 
BRANCH  10  11
ATOM     11  C   UNL     1      19.619   2.594  57.329  1.00  0.00    -0.003 C 
ATOM     12  C   UNL     1      20.468   1.350  57.073  1.00  0.00     0.004 C 
ENDBRANCH  10  11
ENDBRANCH   9  10
ENDBRANCH   8   9
ENDBRANCH   7   8
ENDBRANCH   6   7
ENDBRANCH   5   6
ENDBRANCH   4   5
ENDBRANCH   3   4
ENDBRANCH   2   3
ENDBRANCH   1   2
BRANCH   1  13
ATOM     13  C   UNL     1      18.070  -0.491  60.187  1.00  0.00     0.000 C 
BRANCH  13  14
ATOM     14  C   UNL     1      17.744   0.885  60.786  1.00  0.00     0.000 C 
BRANCH  14  15
ATOM     15  C   UNL     1      16.682   0.764  61.886  1.00  0.00     0.000 C 
BRANCH  15  16
ATOM     16  C   UNL     1      15.389   1.484  61.485  1.00  0.00     0.000 C 
BRANCH  16  17
ATOM     17  C   UNL     1      14.259   0.479  61.212  1.00  0.00     0.000 C 
BRANCH  17  18
ATOM     18  C   UNL     1      14.526  -0.905  61.832  1.00  0.00     0.000 C 
BRANCH  18  19
ATOM     19  C   UNL     1      14.626  -2.061  60.820  1.00  0.00     0.000 C 
BRANCH  19  20
ATOM     20  C   UNL     1      15.502  -3.220  61.321  1.00  0.00     0.006 C 
BRANCH  20  21
ATOM     21  C   UNL     1      16.090  -2.904  62.700  1.00  0.00     0.053 C 
BRANCH  21  22
ATOM     22  C   UNL     1      17.585  -2.963  62.662  1.00  0.00     0.041 C 
ATOM     23  O   UNL     1      18.266  -2.181  63.376  1.00  0.00    -0.550 OA
ATOM     24  O   UNL     1      18.226  -3.846  61.801  1.00  0.00    -0.550 OA
ENDBRANCH  21  22
ENDBRANCH  20  21
ENDBRANCH  19  20
ENDBRANCH  18  19
ENDBRANCH  17  18
ENDBRANCH  16  17
ENDBRANCH  15  16
ENDBRANCH  14  15
ENDBRANCH  13  14
ENDBRANCH   1  13
TORSDOF 20
ENDMDL
