MODEL 1
REMARK VINA RESULT:    -4.392      0.000      0.000
REMARK INTER + INTRA:          -6.671
REMARK INTER:                  -6.189
REMARK INTRA:                  -0.481
REMARK UNBOUND:                -0.481
REMARK SMILES CCCCCCCCC(=O)[O-]
REMARK SMILES IDX 6 1 7 2 8 3 9 4 10 5 11 6 5 7 4 8 3 9 2 10 1 11
REMARK H PARENT
REMARK Flexibility Score: inf
ROOT
ATOM      1  C   UNL     1      55.255  31.366  43.804  1.00  0.00     0.000 C 
ENDROOT
BRANCH   1   2
ATOM      2  C   UNL     1      55.352  32.630  42.936  1.00  0.00     0.006 C 
BRANCH   2   3
ATOM      3  C   UNL     1      54.180  33.591  43.176  1.00  0.00     0.053 C 
BRANCH   3   4
ATOM      4  C   UNL     1      54.501  34.983  42.727  1.00  0.00     0.041 C 
ATOM      5  O   UNL     1      53.739  35.939  43.033  1.00  0.00    -0.550 OA
ATOM      6  O   UNL     1      55.622  35.221  41.942  1.00  0.00    -0.550 OA
ENDBRANCH   3   4
ENDBRANCH   2   3
ENDBRANCH   1   2
BRANCH   1   7
ATOM      7  C   UNL     1      54.882  30.144  42.955  1.00  0.00     0.000 C 
BRANCH   7   8
ATOM      8  C   UNL     1      53.471  29.647  43.296  1.00  0.00    -0.000 C 
BRANCH   8   9
ATOM      9  C   UNL     1      52.532  29.792  42.089  1.00  0.00    -0.000 C 
BRANCH   9  10
ATOM     10  C   UNL     1      51.106  30.192  42.497  1.00  0.00    -0.003 C 
ATOM     11  C   UNL     1      50.813  31.672  42.253  1.00  0.00     0.004 C 
ENDBRANCH   9  10
ENDBRANCH   8   9
ENDBRANCH   7   8
ENDBRANCH   1   7
TORSDOF 7
ENDMDL
MODEL 2
REMARK VINA RESULT:    -4.381      9.749     11.493
REMARK INTER + INTRA:          -6.654
REMARK INTER:                  -5.906
REMARK INTRA:                  -0.748
REMARK UNBOUND:                -0.481
REMARK SMILES CCCCCCCCC(=O)[O-]
REMARK SMILES IDX 6 1 7 2 8 3 9 4 10 5 11 6 5 7 4 8 3 9 2 10 1 11
REMARK H PARENT
REMARK Flexibility Score: inf
ROOT
ATOM      1  C   UNL     1      59.184  38.475  38.402  1.00  0.00     0.000 C 
ENDROOT
BRANCH   1   2
ATOM      2  C   UNL     1      58.407  38.888  37.144  1.00  0.00     0.006 C 
BRANCH   2   3
ATOM      3  C   UNL     1      57.906  37.676  36.346  1.00  0.00     0.053 C 
BRANCH   3   4
ATOM      4  C   UNL     1      57.191  38.089  35.097  1.00  0.00     0.041 C 
ATOM      5  O   UNL     1      55.986  37.767  34.921  1.00  0.00    -0.550 OA
ATOM      6  O   UNL     1      57.864  38.801  34.112  1.00  0.00    -0.550 OA
ENDBRANCH   3   4
ENDBRANCH   2   3
ENDBRANCH   1   2
BRANCH   1   7
ATOM      7  C   UNL     1      60.690  38.703  38.218  1.00  0.00     0.000 C 
BRANCH   7   8
ATOM      8  C   UNL     1      60.958  39.782  37.160  1.00  0.00    -0.000 C 
BRANCH   8   9
ATOM      9  C   UNL     1      62.005  39.304  36.143  1.00  0.00    -0.000 C 
BRANCH   9  10
ATOM     10  C   UNL     1      61.370  38.657  34.903  1.00  0.00    -0.003 C 
ATOM     11  C   UNL     1      61.364  37.130  34.969  1.00  0.00     0.004 C 
ENDBRANCH   9  10
ENDBRANCH   8   9
ENDBRANCH   7   8
ENDBRANCH   1   7
TORSDOF 7
ENDMDL
MODEL 3
REMARK VINA RESULT:    -4.360      9.541     11.654
REMARK INTER + INTRA:          -6.626
REMARK INTER:                  -5.786
REMARK INTRA:                  -0.840
REMARK UNBOUND:                -0.481
REMARK SMILES CCCCCCCCC(=O)[O-]
REMARK SMILES IDX 6 1 7 2 8 3 9 4 10 5 11 6 5 7 4 8 3 9 2 10 1 11
REMARK H PARENT
REMARK Flexibility Score: inf
ROOT
ATOM      1  C   UNL     1      62.164  39.722  36.179  1.00  0.00     0.000 C 
ENDROOT
BRANCH   1   2
ATOM      2  C   UNL     1      61.413  39.408  34.876  1.00  0.00     0.006 C 
BRANCH   2   3
ATOM      3  C   UNL     1      61.643  37.966  34.405  1.00  0.00     0.053 C 
BRANCH   3   4
ATOM      4  C   UNL     1      60.576  37.041  34.903  1.00  0.00     0.041 C 
ATOM      5  O   UNL     1      59.466  36.977  34.310  1.00  0.00    -0.550 OA
ATOM      6  O   UNL     1      60.793  36.275  36.042  1.00  0.00    -0.550 OA
ENDBRANCH   3   4
ENDBRANCH   2   3
ENDBRANCH   1   2
BRANCH   1   7
ATOM      7  C   UNL     1      61.184  40.004  37.324  1.00  0.00     0.000 C 
BRANCH   7   8
ATOM      8  C   UNL     1      61.247  38.900  38.388  1.00  0.00    -0.000 C 
BRANCH   8   9
ATOM      9  C   UNL     1      59.861  38.282  38.620  1.00  0.00    -0.000 C 
BRANCH   9  10
ATOM     10  C   UNL     1      58.791  38.868  37.686  1.00  0.00    -0.003 C 
ATOM     11  C   UNL     1      57.699  37.859  37.329  1.00  0.00     0.004 C 
ENDBRANCH   9  10
ENDBRANCH   8   9
ENDBRANCH   7   8
ENDBRANCH   1   7
TORSDOF 7
ENDMDL
MODEL 4
REMARK VINA RESULT:    -4.352     10.122     11.946
REMARK INTER + INTRA:          -6.614
REMARK INTER:                  -5.704
REMARK INTRA:                  -0.911
REMARK UNBOUND:                -0.481
REMARK SMILES CCCCCCCCC(=O)[O-]
REMARK SMILES IDX 6 1 7 2 8 3 9 4 10 5 11 6 5 7 4 8 3 9 2 10 1 11
REMARK H PARENT
REMARK Flexibility Score: inf
ROOT
ATOM      1  C   UNL     1      59.717  37.381  37.233  1.00  0.00     0.000 C 
ENDROOT
BRANCH   1   2
ATOM      2  C   UNL     1      58.445  38.233  37.100  1.00  0.00     0.006 C 
BRANCH   2   3
ATOM      3  C   UNL     1      58.756  39.686  36.718  1.00  0.00     0.053 C 
BRANCH   3   4
ATOM      4  C   UNL     1      58.396  39.975  35.293  1.00  0.00     0.041 C 
ATOM      5  O   UNL     1      58.832  41.014  34.729  1.00  0.00    -0.550 OA
ATOM      6  O   UNL     1      57.554  39.116  34.599  1.00  0.00    -0.550 OA
ENDBRANCH   3   4
ENDBRANCH   2   3
ENDBRANCH   1   2
BRANCH   1   7
ATOM      7  C   UNL     1      60.009  36.624  35.932  1.00  0.00     0.000 C 
BRANCH   7   8
ATOM      8  C   UNL     1      61.379  37.015  35.362  1.00  0.00    -0.000 C 
BRANCH   8   9
ATOM      9  C   UNL     1      61.226  37.993  34.189  1.00  0.00    -0.000 C 
BRANCH   9  10
ATOM     10  C   UNL     1      62.024  39.290  34.395  1.00  0.00    -0.003 C 
ATOM     11  C   UNL     1      62.386  39.536  35.859  1.00  0.00     0.004 C 
ENDBRANCH   9  10
ENDBRANCH   8   9
ENDBRANCH   7   8
ENDBRANCH   1   7
TORSDOF 7
ENDMDL
MODEL 5
REMARK VINA RESULT:    -4.341      9.753     11.455
REMARK INTER + INTRA:          -6.599
REMARK INTER:                  -5.837
REMARK INTRA:                  -0.762
REMARK UNBOUND:                -0.481
REMARK SMILES CCCCCCCCC(=O)[O-]
REMARK SMILES IDX 6 1 7 2 8 3 9 4 10 5 11 6 5 7 4 8 3 9 2 10 1 11
REMARK H PARENT
REMARK Flexibility Score: inf
ROOT
ATOM      1  C   UNL     1      57.846  37.897  37.151  1.00  0.00     0.000 C 
ENDROOT
BRANCH   1   2
ATOM      2  C   UNL     1      58.688  37.223  36.057  1.00  0.00     0.006 C 
BRANCH   2   3
ATOM      3  C   UNL     1      58.051  37.356  34.668  1.00  0.00     0.053 C 
BRANCH   3   4
ATOM      4  C   UNL     1      57.751  38.784  34.328  1.00  0.00     0.041 C 
ATOM      5  O   UNL     1      58.688  39.614  34.197  1.00  0.00    -0.550 OA
ATOM      6  O   UNL     1      56.434  39.205  34.191  1.00  0.00    -0.550 OA
ENDBRANCH   3   4
ENDBRANCH   2   3
ENDBRANCH   1   2
BRANCH   1   7
ATOM      7  C   UNL     1      58.711  38.817  38.021  1.00  0.00     0.000 C 
BRANCH   7   8
ATOM      8  C   UNL     1      60.049  38.150  38.367  1.00  0.00    -0.000 C 
BRANCH   8   9
ATOM      9  C   UNL     1      61.212  39.141  38.211  1.00  0.00    -0.000 C 
BRANCH   9  10
ATOM     10  C   UNL     1      61.153  39.915  36.885  1.00  0.00    -0.003 C 
ATOM     11  C   UNL     1      61.883  39.199  35.748  1.00  0.00     0.004 C 
ENDBRANCH   9  10
ENDBRANCH   8   9
ENDBRANCH   7   8
ENDBRANCH   1   7
TORSDOF 7
ENDMDL
MODEL 6
REMARK VINA RESULT:    -4.337      9.662     11.314
REMARK INTER + INTRA:          -6.593
REMARK INTER:                  -5.688
REMARK INTRA:                  -0.905
REMARK UNBOUND:                -0.481
REMARK SMILES CCCCCCCCC(=O)[O-]
REMARK SMILES IDX 6 1 7 2 8 3 9 4 10 5 11 6 5 7 4 8 3 9 2 10 1 11
REMARK H PARENT
REMARK Flexibility Score: inf
ROOT
ATOM      1  C   UNL     1      58.639  38.541  38.054  1.00  0.00     0.000 C 
ENDROOT
BRANCH   1   2
ATOM      2  C   UNL     1      60.045  38.034  37.699  1.00  0.00     0.006 C 
BRANCH   2   3
ATOM      3  C   UNL     1      60.975  39.168  37.247  1.00  0.00     0.053 C 
BRANCH   3   4
ATOM      4  C   UNL     1      61.569  38.896  35.899  1.00  0.00     0.041 C 
ATOM      5  O   UNL     1      62.077  39.835  35.231  1.00  0.00    -0.550 OA
ATOM      6  O   UNL     1      61.531  37.614  35.367  1.00  0.00    -0.550 OA
ENDBRANCH   3   4
ENDBRANCH   2   3
ENDBRANCH   1   2
BRANCH   1   7
ATOM      7  C   UNL     1      57.563  37.749  37.300  1.00  0.00     0.000 C 
BRANCH   7   8
ATOM      8  C   UNL     1      58.001  37.458  35.859  1.00  0.00    -0.000 C 
BRANCH   8   9
ATOM      9  C   UNL     1      57.308  38.409  34.872  1.00  0.00    -0.000 C 
BRANCH   9  10
ATOM     10  C   UNL     1      58.286  39.401  34.225  1.00  0.00    -0.003 C 
ATOM     11  C   UNL     1      58.376  40.725  34.983  1.00  0.00     0.004 C 
ENDBRANCH   9  10
ENDBRANCH   8   9
ENDBRANCH   7   8
ENDBRANCH   1   7
TORSDOF 7
ENDMDL
MODEL 7
REMARK VINA RESULT:    -4.336      9.215     11.114
REMARK INTER + INTRA:          -6.591
REMARK INTER:                  -5.844
REMARK INTRA:                  -0.747
REMARK UNBOUND:                -0.481
REMARK SMILES CCCCCCCCC(=O)[O-]
REMARK SMILES IDX 6 1 7 2 8 3 9 4 10 5 11 6 5 7 4 8 3 9 2 10 1 11
REMARK H PARENT
REMARK Flexibility Score: inf
ROOT
ATOM      1  C   UNL     1      61.109  36.713  35.744  1.00  0.00     0.000 C 
ENDROOT
BRANCH   1   2
ATOM      2  C   UNL     1      61.090  37.806  34.665  1.00  0.00     0.006 C 
BRANCH   2   3
ATOM      3  C   UNL     1      61.985  38.998  35.028  1.00  0.00     0.053 C 
BRANCH   3   4
ATOM      4  C   UNL     1      61.288  39.957  35.945  1.00  0.00     0.041 C 
ATOM      5  O   UNL     1      60.403  40.732  35.496  1.00  0.00    -0.550 OA
ATOM      6  O   UNL     1      61.641  40.018  37.287  1.00  0.00    -0.550 OA
ENDBRANCH   3   4
ENDBRANCH   2   3
ENDBRANCH   1   2
BRANCH   1   7
ATOM      7  C   UNL     1      59.745  36.601  36.437  1.00  0.00     0.000 C 
BRANCH   7   8
ATOM      8  C   UNL     1      58.667  37.366  35.657  1.00  0.00    -0.000 C 
BRANCH   8   9
ATOM      9  C   UNL     1      57.767  38.168  36.608  1.00  0.00    -0.000 C 
BRANCH   9  10
ATOM     10  C   UNL     1      58.464  38.503  37.936  1.00  0.00    -0.003 C 
ATOM     11  C   UNL     1      57.527  38.402  39.139  1.00  0.00     0.004 C 
ENDBRANCH   9  10
ENDBRANCH   8   9
ENDBRANCH   7   8
ENDBRANCH   1   7
TORSDOF 7
ENDMDL
MODEL 8
REMARK VINA RESULT:    -4.327     10.073     11.382
REMARK INTER + INTRA:          -6.578
REMARK INTER:                  -5.827
REMARK INTRA:                  -0.751
REMARK UNBOUND:                -0.481
REMARK SMILES CCCCCCCCC(=O)[O-]
REMARK SMILES IDX 6 1 7 2 8 3 9 4 10 5 11 6 5 7 4 8 3 9 2 10 1 11
REMARK H PARENT
REMARK Flexibility Score: inf
ROOT
ATOM      1  C   UNL     1      59.126  36.993  36.277  1.00  0.00     0.000 C 
ENDROOT
BRANCH   1   2
ATOM      2  C   UNL     1      60.227  37.431  37.254  1.00  0.00     0.006 C 
BRANCH   2   3
ATOM      3  C   UNL     1      60.166  38.932  37.563  1.00  0.00     0.053 C 
BRANCH   3   4
ATOM      4  C   UNL     1      61.426  39.636  37.160  1.00  0.00     0.041 C 
ATOM      5  O   UNL     1      61.990  39.349  36.071  1.00  0.00    -0.550 OA
ATOM      6  O   UNL     1      61.995  40.582  38.002  1.00  0.00    -0.550 OA
ENDBRANCH   3   4
ENDBRANCH   2   3
ENDBRANCH   1   2
BRANCH   1   7
ATOM      7  C   UNL     1      57.813  37.732  36.562  1.00  0.00     0.000 C 
BRANCH   7   8
ATOM      8  C   UNL     1      56.930  37.791  35.308  1.00  0.00    -0.000 C 
BRANCH   8   9
ATOM      9  C   UNL     1      57.540  38.724  34.252  1.00  0.00    -0.000 C 
BRANCH   9  10
ATOM     10  C   UNL     1      57.846  40.123  34.807  1.00  0.00    -0.003 C 
ATOM     11  C   UNL     1      59.167  40.691  34.289  1.00  0.00     0.004 C 
ENDBRANCH   9  10
ENDBRANCH   8   9
ENDBRANCH   7   8
ENDBRANCH   1   7
TORSDOF 7
ENDMDL
MODEL 9
REMARK VINA RESULT:    -4.304     10.375     11.648
REMARK INTER + INTRA:          -6.546
REMARK INTER:                  -5.803
REMARK INTRA:                  -0.743
REMARK UNBOUND:                -0.481
REMARK SMILES CCCCCCCCC(=O)[O-]
REMARK SMILES IDX 6 1 7 2 8 3 9 4 10 5 11 6 5 7 4 8 3 9 2 10 1 11
REMARK H PARENT
REMARK Flexibility Score: inf
ROOT
ATOM      1  C   UNL     1      61.664  38.661  34.499  1.00  0.00     0.000 C 
ENDROOT
BRANCH   1   2
ATOM      2  C   UNL     1      62.287  39.455  35.657  1.00  0.00     0.006 C 
BRANCH   2   3
ATOM      3  C   UNL     1      61.241  39.892  36.691  1.00  0.00     0.053 C 
BRANCH   3   4
ATOM      4  C   UNL     1      61.510  39.297  38.040  1.00  0.00     0.041 C 
ATOM      5  O   UNL     1      60.767  38.385  38.489  1.00  0.00    -0.550 OA
ATOM      6  O   UNL     1      62.560  39.774  38.814  1.00  0.00    -0.550 OA
ENDBRANCH   3   4
ENDBRANCH   2   3
ENDBRANCH   1   2
BRANCH   1   7
ATOM      7  C   UNL     1      61.234  37.263  34.960  1.00  0.00     0.000 C 
BRANCH   7   8
ATOM      8  C   UNL     1      59.789  36.965  34.539  1.00  0.00    -0.000 C 
BRANCH   8   9
ATOM      9  C   UNL     1      58.808  37.289  35.675  1.00  0.00    -0.000 C 
BRANCH   9  10
ATOM     10  C   UNL     1      57.599  38.106  35.195  1.00  0.00    -0.003 C 
ATOM     11  C   UNL     1      57.959  39.551  34.852  1.00  0.00     0.004 C 
ENDBRANCH   9  10
ENDBRANCH   8   9
ENDBRANCH   7   8
ENDBRANCH   1   7
TORSDOF 7
ENDMDL
