MODEL 1
REMARK VINA RESULT:    69.914      0.000      0.000
REMARK INTER + INTRA:          97.005
REMARK INTER:                  94.437
REMARK INTRA:                   2.568
REMARK UNBOUND:                 2.568
REMARK SMILES O=c1c(-c2ccc(O)cc2)coc2c([C@@H]3O[C@@H](CO)[C@@H](O)[C@@H](O)[C@H]3O)c(O)ccc12
REMARK SMILES IDX 3 1 11 2 12 3 13 4 30 5 2 6 1 7 29 8 28 9 26 10 14 11 4 12
REMARK SMILES IDX 5 13 6 14 7 15 10 16 9 17 8 18 15 20 24 21 16 22 22 23 17 24
REMARK SMILES IDX 20 25 25 26 23 28 18 30 19 31 21 33 27 35
REMARK H PARENT 8 19 25 27 23 29 19 32 21 34 27 36
REMARK Flexibility Score: inf
ROOT
ATOM      1  C   UNL     1      16.544  40.159  10.250  1.00  0.00     0.065 A 
ATOM      2  C   UNL     1      17.101  40.915  11.289  1.00  0.00     0.208 A 
ATOM      3  O   UNL     1      18.415  41.041  11.410  1.00  0.00    -0.463 OA
ATOM      4  C   UNL     1      19.287  40.475  10.577  1.00  0.00     0.147 A 
ATOM      5  C   UNL     1      18.809  39.686   9.505  1.00  0.00     0.066 A 
ATOM      6  C   UNL     1      17.419  39.540   9.340  1.00  0.00     0.200 A 
ATOM      7  O   UNL     1      16.959  38.873   8.370  1.00  0.00    -0.288 OA
ATOM      8  C   UNL     1      19.719  39.072   8.638  1.00  0.00     0.020 A 
ATOM      9  C   UNL     1      21.085  39.216   8.846  1.00  0.00     0.047 A 
ATOM     10  C   UNL     1      21.580  39.987   9.905  1.00  0.00     0.125 A 
ATOM     11  C   UNL     1      20.681  40.671  10.773  1.00  0.00     0.069 A 
ENDROOT
BRANCH   1  12
ATOM     12  C   UNL     1      15.069  40.032  10.133  1.00  0.00    -0.011 A 
ATOM     13  C   UNL     1      14.355  40.854   9.244  1.00  0.00     0.013 A 
ATOM     14  C   UNL     1      12.965  40.744   9.138  1.00  0.00     0.047 A 
ATOM     15  C   UNL     1      12.271  39.819   9.923  1.00  0.00     0.115 A 
ATOM     16  C   UNL     1      14.363  39.108  10.925  1.00  0.00     0.013 A 
ATOM     17  C   UNL     1      12.974  39.001  10.818  1.00  0.00     0.047 A 
BRANCH  15  18
ATOM     18  O   UNL     1      10.887  39.719   9.808  1.00  0.00    -0.508 OA
ATOM     19  H   UNL     1      10.285  40.524   9.937  1.00  0.00     0.293 HD
ENDBRANCH  15  18
ENDBRANCH   1  12
BRANCH  11  20
ATOM     20  C   UNL     1      21.103  41.575  11.957  1.00  0.00     0.188 C 
ATOM     21  C   UNL     1      22.326  42.526  11.822  1.00  0.00     0.179 C 
ATOM     22  O   UNL     1      19.991  42.304  12.468  1.00  0.00    -0.362 OA
ATOM     23  C   UNL     1      21.970  43.748  10.950  1.00  0.00     0.177 C 
ATOM     24  C   UNL     1      19.575  43.323  11.570  1.00  0.00     0.176 C 
ATOM     25  C   UNL     1      20.665  44.408  11.440  1.00  0.00     0.177 C 
BRANCH  21  26
ATOM     26  O   UNL     1      22.699  42.979  13.102  1.00  0.00    -0.387 OA
ATOM     27  H   UNL     1      23.606  43.375  13.021  1.00  0.00     0.211 HD
ENDBRANCH  21  26
BRANCH  23  28
ATOM     28  O   UNL     1      23.031  44.668  10.969  1.00  0.00    -0.387 OA
ATOM     29  H   UNL     1      23.837  44.184  10.646  1.00  0.00     0.211 HD
ENDBRANCH  23  28
BRANCH  24  30
ATOM     30  C   UNL     1      18.247  43.907  12.078  1.00  0.00     0.191 C 
BRANCH  30  31
ATOM     31  O   UNL     1      18.456  45.117  12.755  1.00  0.00    -0.394 OA
ATOM     32  H   UNL     1      18.734  45.781  12.072  1.00  0.00     0.210 HD
ENDBRANCH  30  31
ENDBRANCH  24  30
BRANCH  25  33
ATOM     33  O   UNL     1      20.866  45.038  12.682  1.00  0.00    -0.388 OA
ATOM     34  H   UNL     1      20.221  45.791  12.732  1.00  0.00     0.211 HD
ENDBRANCH  25  33
ENDBRANCH  11  20
BRANCH  10  35
ATOM     35  O   UNL     1      22.960  40.047  10.074  1.00  0.00    -0.507 OA
ATOM     36  H   UNL     1      23.484  40.902   9.931  1.00  0.00     0.293 HD
ENDBRANCH  10  35
TORSDOF 9
ENDMDL
