MODEL 1
REMARK VINA RESULT:    11.308      0.000      0.000
REMARK INTER + INTRA:          18.653
REMARK INTER:                  19.240
REMARK INTRA:                  -0.587
REMARK UNBOUND:                -0.587
REMARK SMILES CCCCCCCCCCCCCC(=O)[O-]
REMARK SMILES IDX 8 1 9 2 10 3 11 4 12 5 13 6 14 7 15 8 16 9 7 10 6 11 5 12
REMARK SMILES IDX 4 13 3 14 2 15 1 16
REMARK H PARENT
REMARK Flexibility Score: inf
ROOT
ATOM      1  C   UNL     1     -13.105   1.631 -17.945  1.00  0.00     0.000 C 
ENDROOT
BRANCH   1   2
ATOM      2  C   UNL     1     -12.567   3.069 -17.922  1.00  0.00     0.000 C 
BRANCH   2   3
ATOM      3  C   UNL     1     -11.660   3.295 -16.703  1.00  0.00     0.000 C 
BRANCH   3   4
ATOM      4  C   UNL     1     -11.359   4.782 -16.454  1.00  0.00     0.000 C 
BRANCH   4   5
ATOM      5  C   UNL     1     -12.632   5.640 -16.385  1.00  0.00     0.006 C 
BRANCH   5   6
ATOM      6  C   UNL     1     -12.355   6.973 -15.684  1.00  0.00     0.053 C 
BRANCH   6   7
ATOM      7  C   UNL     1     -13.348   8.007 -16.113  1.00  0.00     0.041 C 
ATOM      8  O   UNL     1     -14.316   8.304 -15.366  1.00  0.00    -0.550 OA
ATOM      9  O   UNL     1     -13.231   8.608 -17.360  1.00  0.00    -0.550 OA
ENDBRANCH   6   7
ENDBRANCH   5   6
ENDBRANCH   4   5
ENDBRANCH   3   4
ENDBRANCH   2   3
ENDBRANCH   1   2
BRANCH   1  10
ATOM     10  C   UNL     1     -12.212   0.653 -17.163  1.00  0.00     0.000 C 
BRANCH  10  11
ATOM     11  C   UNL     1     -12.107  -0.724 -17.841  1.00  0.00    -0.000 C 
BRANCH  11  12
ATOM     12  C   UNL     1     -10.665  -1.077 -18.239  1.00  0.00    -0.000 C 
BRANCH  12  13
ATOM     13  C   UNL     1      -9.634  -0.631 -17.187  1.00  0.00    -0.000 C 
BRANCH  13  14
ATOM     14  C   UNL     1      -8.325  -1.443 -17.274  1.00  0.00    -0.000 C 
BRANCH  14  15
ATOM     15  C   UNL     1      -7.130  -0.760 -16.588  1.00  0.00    -0.003 C 
ATOM     16  C   UNL     1      -6.914  -1.232 -15.153  1.00  0.00     0.004 C 
ENDBRANCH  14  15
ENDBRANCH  13  14
ENDBRANCH  12  13
ENDBRANCH  11  12
ENDBRANCH  10  11
ENDBRANCH   1  10
TORSDOF 12
ENDMDL
MODEL 2
REMARK VINA RESULT:    11.309      2.211      2.655
REMARK INTER + INTRA:          18.656
REMARK INTER:                  19.143
REMARK INTRA:                  -0.487
REMARK UNBOUND:                -0.587
REMARK SMILES CCCCCCCCCCCCCC(=O)[O-]
REMARK SMILES IDX 8 1 9 2 10 3 11 4 12 5 13 6 14 7 15 8 16 9 7 10 6 11 5 12
REMARK SMILES IDX 4 13 3 14 2 15 1 16
REMARK H PARENT
REMARK Flexibility Score: inf
ROOT
ATOM      1  C   UNL     1     -13.003   1.203 -17.490  1.00  0.00     0.000 C 
ENDROOT
BRANCH   1   2
ATOM      2  C   UNL     1     -12.337   2.582 -17.599  1.00  0.00     0.000 C 
BRANCH   2   3
ATOM      3  C   UNL     1     -12.895   3.368 -18.796  1.00  0.00     0.000 C 
BRANCH   3   4
ATOM      4  C   UNL     1     -14.363   3.783 -18.601  1.00  0.00     0.000 C 
BRANCH   4   5
ATOM      5  C   UNL     1     -14.546   5.308 -18.552  1.00  0.00     0.006 C 
BRANCH   5   6
ATOM      6  C   UNL     1     -14.981   5.849 -19.917  1.00  0.00     0.053 C 
BRANCH   6   7
ATOM      7  C   UNL     1     -15.006   7.345 -19.903  1.00  0.00     0.041 C 
ATOM      8  O   UNL     1     -14.134   7.999 -20.533  1.00  0.00    -0.550 OA
ATOM      9  O   UNL     1     -15.964   8.017 -19.154  1.00  0.00    -0.550 OA
ENDBRANCH   6   7
ENDBRANCH   5   6
ENDBRANCH   4   5
ENDBRANCH   3   4
ENDBRANCH   2   3
ENDBRANCH   1   2
BRANCH   1  10
ATOM     10  C   UNL     1     -12.008   0.095 -17.110  1.00  0.00     0.000 C 
BRANCH  10  11
ATOM     11  C   UNL     1     -11.773  -0.907 -18.253  1.00  0.00    -0.000 C 
BRANCH  11  12
ATOM     12  C   UNL     1     -10.326  -1.425 -18.296  1.00  0.00    -0.000 C 
BRANCH  12  13
ATOM     13  C   UNL     1      -9.407  -0.698 -17.299  1.00  0.00    -0.000 C 
BRANCH  13  14
ATOM     14  C   UNL     1      -7.942  -1.172 -17.405  1.00  0.00    -0.000 C 
BRANCH  14  15
ATOM     15  C   UNL     1      -7.036  -0.628 -16.288  1.00  0.00    -0.003 C 
ATOM     16  C   UNL     1      -7.146  -1.421 -14.989  1.00  0.00     0.004 C 
ENDBRANCH  14  15
ENDBRANCH  13  14
ENDBRANCH  12  13
ENDBRANCH  11  12
ENDBRANCH  10  11
ENDBRANCH   1  10
TORSDOF 12
ENDMDL
MODEL 3
REMARK VINA RESULT:    11.572      4.572      8.331
REMARK INTER + INTRA:          19.104
REMARK INTER:                  19.587
REMARK INTRA:                  -0.484
REMARK UNBOUND:                -0.587
REMARK SMILES CCCCCCCCCCCCCC(=O)[O-]
REMARK SMILES IDX 8 1 9 2 10 3 11 4 12 5 13 6 14 7 15 8 16 9 7 10 6 11 5 12
REMARK SMILES IDX 4 13 3 14 2 15 1 16
REMARK H PARENT
REMARK Flexibility Score: inf
ROOT
ATOM      1  C   UNL     1     -12.498   0.711 -18.261  1.00  0.00     0.000 C 
ENDROOT
BRANCH   1   2
ATOM      2  C   UNL     1     -12.097  -0.701 -17.809  1.00  0.00     0.000 C 
BRANCH   2   3
ATOM      3  C   UNL     1     -10.678  -1.047 -18.285  1.00  0.00     0.000 C 
BRANCH   3   4
ATOM      4  C   UNL     1      -9.607  -0.752 -17.222  1.00  0.00     0.000 C 
BRANCH   4   5
ATOM      5  C   UNL     1      -8.250  -1.390 -17.556  1.00  0.00     0.006 C 
BRANCH   5   6
ATOM      6  C   UNL     1      -7.114  -0.673 -16.820  1.00  0.00     0.053 C 
BRANCH   6   7
ATOM      7  C   UNL     1      -7.180  -0.958 -15.352  1.00  0.00     0.041 C 
ATOM      8  O   UNL     1      -6.877  -2.098 -14.914  1.00  0.00    -0.550 OA
ATOM      9  O   UNL     1      -7.624   0.023 -14.474  1.00  0.00    -0.550 OA
ENDBRANCH   6   7
ENDBRANCH   5   6
ENDBRANCH   4   5
ENDBRANCH   3   4
ENDBRANCH   2   3
ENDBRANCH   1   2
BRANCH   1  10
ATOM     10  C   UNL     1     -12.396   1.745 -17.128  1.00  0.00     0.000 C 
BRANCH  10  11
ATOM     11  C   UNL     1     -12.442   3.194 -17.642  1.00  0.00    -0.000 C 
BRANCH  11  12
ATOM     12  C   UNL     1     -13.576   3.425 -18.653  1.00  0.00    -0.000 C 
BRANCH  12  13
ATOM     13  C   UNL     1     -14.388   4.698 -18.353  1.00  0.00    -0.000 C 
BRANCH  13  14
ATOM     14  C   UNL     1     -15.198   5.174 -19.578  1.00  0.00    -0.000 C 
BRANCH  14  15
ATOM     15  C   UNL     1     -14.639   6.451 -20.226  1.00  0.00    -0.003 C 
ATOM     16  C   UNL     1     -15.192   7.729 -19.603  1.00  0.00     0.004 C 
ENDBRANCH  14  15
ENDBRANCH  13  14
ENDBRANCH  12  13
ENDBRANCH  11  12
ENDBRANCH  10  11
ENDBRANCH   1  10
TORSDOF 12
ENDMDL
MODEL 4
REMARK VINA RESULT:    11.794      4.167      7.895
REMARK INTER + INTRA:          19.481
REMARK INTER:                  20.108
REMARK INTRA:                  -0.627
REMARK UNBOUND:                -0.587
REMARK SMILES CCCCCCCCCCCCCC(=O)[O-]
REMARK SMILES IDX 8 1 9 2 10 3 11 4 12 5 13 6 14 7 15 8 16 9 7 10 6 11 5 12
REMARK SMILES IDX 4 13 3 14 2 15 1 16
REMARK H PARENT
REMARK Flexibility Score: inf
ROOT
ATOM      1  C   UNL     1     -12.031   0.650 -17.290  1.00  0.00     0.000 C 
ENDROOT
BRANCH   1   2
ATOM      2  C   UNL     1     -12.220  -0.759 -17.871  1.00  0.00     0.000 C 
BRANCH   2   3
ATOM      3  C   UNL     1     -10.873  -1.490 -17.987  1.00  0.00     0.000 C 
BRANCH   3   4
ATOM      4  C   UNL     1      -9.701  -0.668 -17.427  1.00  0.00     0.000 C 
BRANCH   4   5
ATOM      5  C   UNL     1      -8.349  -1.379 -17.587  1.00  0.00     0.006 C 
BRANCH   5   6
ATOM      6  C   UNL     1      -7.237  -0.604 -16.874  1.00  0.00     0.053 C 
BRANCH   6   7
ATOM      7  C   UNL     1      -7.192  -0.967 -15.423  1.00  0.00     0.041 C 
ATOM      8  O   UNL     1      -6.875  -2.134 -15.071  1.00  0.00    -0.550 OA
ATOM      9  O   UNL     1      -7.550  -0.031 -14.461  1.00  0.00    -0.550 OA
ENDBRANCH   6   7
ENDBRANCH   5   6
ENDBRANCH   4   5
ENDBRANCH   3   4
ENDBRANCH   2   3
ENDBRANCH   1   2
BRANCH   1  10
ATOM     10  C   UNL     1     -13.007   1.673 -17.892  1.00  0.00     0.000 C 
BRANCH  10  11
ATOM     11  C   UNL     1     -12.453   3.108 -17.865  1.00  0.00    -0.000 C 
BRANCH  11  12
ATOM     12  C   UNL     1     -11.627   3.398 -16.602  1.00  0.00    -0.000 C 
BRANCH  12  13
ATOM     13  C   UNL     1     -11.358   4.899 -16.401  1.00  0.00    -0.000 C 
BRANCH  13  14
ATOM     14  C   UNL     1     -12.658   5.699 -16.173  1.00  0.00    -0.000 C 
BRANCH  14  15
ATOM     15  C   UNL     1     -12.434   7.214 -16.046  1.00  0.00    -0.003 C 
ATOM     16  C   UNL     1     -13.694   7.974 -15.638  1.00  0.00     0.004 C 
ENDBRANCH  14  15
ENDBRANCH  13  14
ENDBRANCH  12  13
ENDBRANCH  11  12
ENDBRANCH  10  11
ENDBRANCH   1  10
TORSDOF 12
ENDMDL
