MODEL 1
REMARK VINA RESULT:     3.604      0.000      0.000
REMARK INTER + INTRA:           7.912
REMARK INTER:                   9.083
REMARK INTRA:                  -1.171
REMARK UNBOUND:                -1.171
REMARK SMILES CCCCCCCCCCCCCCCCCCCCCCCCCCCC(=O)[O-]
REMARK SMILES IDX 15 1 16 2 17 3 18 4 19 5 20 6 21 7 22 8 23 9 24 10 25 11
REMARK SMILES IDX 26 12 27 13 28 14 29 15 30 16 14 17 13 18 12 19 11 20 10 21
REMARK SMILES IDX 9 22 8 23 7 24 6 25 5 26 4 27 3 28 2 29 1 30
REMARK H PARENT
REMARK Flexibility Score: inf
ROOT
ATOM      1  C   UNL     1      -4.580  -8.772  16.094  1.00  0.00     0.000 C 
ENDROOT
BRANCH   1   2
ATOM      2  C   UNL     1      -3.631  -7.586  16.329  1.00  0.00     0.000 C 
BRANCH   2   3
ATOM      3  C   UNL     1      -2.241  -7.861  15.738  1.00  0.00     0.000 C 
BRANCH   3   4
ATOM      4  C   UNL     1      -1.207  -6.786  16.118  1.00  0.00     0.000 C 
BRANCH   4   5
ATOM      5  C   UNL     1       0.249  -7.286  16.200  1.00  0.00     0.000 C 
BRANCH   5   6
ATOM      6  C   UNL     1       1.040  -7.203  14.881  1.00  0.00     0.000 C 
BRANCH   6   7
ATOM      7  C   UNL     1       2.073  -6.061  14.814  1.00  0.00     0.000 C 
BRANCH   7   8
ATOM      8  C   UNL     1       2.915  -6.021  13.523  1.00  0.00     0.000 C 
BRANCH   8   9
ATOM      9  C   UNL     1       4.135  -5.079  13.565  1.00  0.00     0.000 C 
BRANCH   9  10
ATOM     10  C   UNL     1       4.673  -4.647  12.189  1.00  0.00     0.000 C 
BRANCH  10  11
ATOM     11  C   UNL     1       3.599  -3.994  11.306  1.00  0.00     0.000 C 
BRANCH  11  12
ATOM     12  C   UNL     1       3.240  -2.592  11.825  1.00  0.00     0.006 C 
BRANCH  12  13
ATOM     13  C   UNL     1       4.483  -1.748  12.134  1.00  0.00     0.053 C 
BRANCH  13  14
ATOM     14  C   UNL     1       4.491  -0.461  11.365  1.00  0.00     0.041 C 
ATOM     15  O   UNL     1       4.185  -0.451  10.143  1.00  0.00    -0.550 OA
ATOM     16  O   UNL     1       4.830   0.729  11.999  1.00  0.00    -0.550 OA
ENDBRANCH  13  14
ENDBRANCH  12  13
ENDBRANCH  11  12
ENDBRANCH  10  11
ENDBRANCH   9  10
ENDBRANCH   8   9
ENDBRANCH   7   8
ENDBRANCH   6   7
ENDBRANCH   5   6
ENDBRANCH   4   5
ENDBRANCH   3   4
ENDBRANCH   2   3
ENDBRANCH   1   2
BRANCH   1  17
ATOM     17  C   UNL     1      -5.876  -8.659  16.925  1.00  0.00     0.000 C 
BRANCH  17  18
ATOM     18  C   UNL     1      -7.163  -8.676  16.081  1.00  0.00     0.000 C 
BRANCH  18  19
ATOM     19  C   UNL     1      -8.443  -8.652  16.937  1.00  0.00     0.000 C 
BRANCH  19  20
ATOM     20  C   UNL     1      -9.571  -9.532  16.363  1.00  0.00     0.000 C 
BRANCH  20  21
ATOM     21  C   UNL     1     -10.873  -9.508  17.182  1.00  0.00     0.000 C 
BRANCH  21  22
ATOM     22  C   UNL     1     -11.699 -10.797  17.045  1.00  0.00    -0.000 C 
BRANCH  22  23
ATOM     23  C   UNL     1     -11.281 -11.838  18.097  1.00  0.00    -0.000 C 
BRANCH  23  24
ATOM     24  C   UNL     1     -12.462 -12.685  18.596  1.00  0.00    -0.000 C 
BRANCH  24  25
ATOM     25  C   UNL     1     -13.817 -11.985  18.414  1.00  0.00    -0.000 C 
BRANCH  25  26
ATOM     26  C   UNL     1     -14.941 -12.791  19.078  1.00  0.00    -0.000 C 
BRANCH  26  27
ATOM     27  C   UNL     1     -14.406 -14.104  19.668  1.00  0.00    -0.000 C 
BRANCH  27  28
ATOM     28  C   UNL     1     -14.454 -14.119  21.206  1.00  0.00    -0.000 C 
BRANCH  28  29
ATOM     29  C   UNL     1     -13.125 -14.563  21.834  1.00  0.00    -0.003 C 
ATOM     30  C   UNL     1     -12.681 -13.588  22.922  1.00  0.00     0.004 C 
ENDBRANCH  28  29
ENDBRANCH  27  28
ENDBRANCH  26  27
ENDBRANCH  25  26
ENDBRANCH  24  25
ENDBRANCH  23  24
ENDBRANCH  22  23
ENDBRANCH  21  22
ENDBRANCH  20  21
ENDBRANCH  19  20
ENDBRANCH  18  19
ENDBRANCH  17  18
ENDBRANCH   1  17
TORSDOF 26
ENDMDL
MODEL 2
REMARK VINA RESULT:     4.093      1.553      4.478
REMARK INTER + INTRA:           9.144
REMARK INTER:                  10.430
REMARK INTRA:                  -1.286
REMARK UNBOUND:                -1.171
REMARK SMILES CCCCCCCCCCCCCCCCCCCCCCCCCCCC(=O)[O-]
REMARK SMILES IDX 15 1 16 2 17 3 18 4 19 5 20 6 21 7 22 8 23 9 24 10 25 11
REMARK SMILES IDX 26 12 27 13 28 14 29 15 30 16 14 17 13 18 12 19 11 20 10 21
REMARK SMILES IDX 9 22 8 23 7 24 6 25 5 26 4 27 3 28 2 29 1 30
REMARK H PARENT
REMARK Flexibility Score: inf
ROOT
ATOM      1  C   UNL     1      -9.384  -9.269  16.264  1.00  0.00     0.000 C 
ENDROOT
BRANCH   1   2
ATOM      2  C   UNL     1      -8.193  -8.587  16.957  1.00  0.00     0.000 C 
BRANCH   2   3
ATOM      3  C   UNL     1      -6.922  -8.687  16.102  1.00  0.00     0.000 C 
BRANCH   3   4
ATOM      4  C   UNL     1      -5.633  -8.677  16.945  1.00  0.00     0.000 C 
BRANCH   4   5
ATOM      5  C   UNL     1      -4.327  -8.802  16.135  1.00  0.00     0.000 C 
BRANCH   5   6
ATOM      6  C   UNL     1      -3.401  -7.573  16.203  1.00  0.00     0.000 C 
BRANCH   6   7
ATOM      7  C   UNL     1      -2.002  -7.779  15.591  1.00  0.00     0.000 C 
BRANCH   7   8
ATOM      8  C   UNL     1      -0.914  -6.822  16.117  1.00  0.00     0.000 C 
BRANCH   8   9
ATOM      9  C   UNL     1       0.535  -7.326  15.961  1.00  0.00     0.000 C 
BRANCH   9  10
ATOM     10  C   UNL     1       1.203  -6.986  14.616  1.00  0.00     0.000 C 
BRANCH  10  11
ATOM     11  C   UNL     1       2.446  -6.099  14.775  1.00  0.00     0.000 C 
BRANCH  11  12
ATOM     12  C   UNL     1       3.150  -5.895  13.424  1.00  0.00     0.006 C 
BRANCH  12  13
ATOM     13  C   UNL     1       4.261  -4.840  13.499  1.00  0.00     0.053 C 
BRANCH  13  14
ATOM     14  C   UNL     1       4.263  -3.942  12.298  1.00  0.00     0.041 C 
ATOM     15  O   UNL     1       5.121  -3.025  12.193  1.00  0.00    -0.550 OA
ATOM     16  O   UNL     1       3.322  -4.121  11.290  1.00  0.00    -0.550 OA
ENDBRANCH  13  14
ENDBRANCH  12  13
ENDBRANCH  11  12
ENDBRANCH  10  11
ENDBRANCH   9  10
ENDBRANCH   8   9
ENDBRANCH   7   8
ENDBRANCH   6   7
ENDBRANCH   5   6
ENDBRANCH   4   5
ENDBRANCH   3   4
ENDBRANCH   2   3
ENDBRANCH   1   2
BRANCH   1  17
ATOM     17  C   UNL     1     -10.576  -9.480  17.223  1.00  0.00     0.000 C 
BRANCH  17  18
ATOM     18  C   UNL     1     -11.397 -10.748  16.927  1.00  0.00     0.000 C 
BRANCH  18  19
ATOM     19  C   UNL     1     -11.271 -11.815  18.031  1.00  0.00     0.000 C 
BRANCH  19  20
ATOM     20  C   UNL     1     -12.610 -12.506  18.358  1.00  0.00     0.000 C 
BRANCH  20  21
ATOM     21  C   UNL     1     -12.477 -13.983  18.767  1.00  0.00     0.000 C 
BRANCH  21  22
ATOM     22  C   UNL     1     -13.760 -14.558  19.390  1.00  0.00    -0.000 C 
BRANCH  22  23
ATOM     23  C   UNL     1     -13.789 -16.091  19.285  1.00  0.00    -0.000 C 
BRANCH  23  24
ATOM     24  C   UNL     1     -14.903 -16.724  20.134  1.00  0.00    -0.000 C 
BRANCH  24  25
ATOM     25  C   UNL     1     -14.386 -17.297  21.462  1.00  0.00    -0.000 C 
BRANCH  25  26
ATOM     26  C   UNL     1     -15.111 -16.656  22.653  1.00  0.00    -0.000 C 
BRANCH  26  27
ATOM     27  C   UNL     1     -14.129 -15.889  23.549  1.00  0.00    -0.000 C 
BRANCH  27  28
ATOM     28  C   UNL     1     -13.042 -15.160  22.741  1.00  0.00    -0.000 C 
BRANCH  28  29
ATOM     29  C   UNL     1     -13.103 -13.636  22.908  1.00  0.00    -0.003 C 
ATOM     30  C   UNL     1     -14.539 -13.129  22.786  1.00  0.00     0.004 C 
ENDBRANCH  28  29
ENDBRANCH  27  28
ENDBRANCH  26  27
ENDBRANCH  25  26
ENDBRANCH  24  25
ENDBRANCH  23  24
ENDBRANCH  22  23
ENDBRANCH  21  22
ENDBRANCH  20  21
ENDBRANCH  19  20
ENDBRANCH  18  19
ENDBRANCH  17  18
ENDBRANCH   1  17
TORSDOF 26
ENDMDL
MODEL 3
REMARK VINA RESULT:     4.140      6.805     18.039
REMARK INTER + INTRA:           9.261
REMARK INTER:                   9.957
REMARK INTRA:                  -0.696
REMARK UNBOUND:                -1.171
REMARK SMILES CCCCCCCCCCCCCCCCCCCCCCCCCCCC(=O)[O-]
REMARK SMILES IDX 15 1 16 2 17 3 18 4 19 5 20 6 21 7 22 8 23 9 24 10 25 11
REMARK SMILES IDX 26 12 27 13 28 14 29 15 30 16 14 17 13 18 12 19 11 20 10 21
REMARK SMILES IDX 9 22 8 23 7 24 6 25 5 26 4 27 3 28 2 29 1 30
REMARK H PARENT
REMARK Flexibility Score: inf
ROOT
ATOM      1  C   UNL     1      -4.564  -8.778  16.120  1.00  0.00     0.000 C 
ENDROOT
BRANCH   1   2
ATOM      2  C   UNL     1      -5.831  -8.654  16.982  1.00  0.00     0.000 C 
BRANCH   2   3
ATOM      3  C   UNL     1      -7.085  -8.507  16.107  1.00  0.00     0.000 C 
BRANCH   3   4
ATOM      4  C   UNL     1      -8.391  -8.574  16.919  1.00  0.00     0.000 C 
BRANCH   4   5
ATOM      5  C   UNL     1      -9.450  -9.549  16.366  1.00  0.00     0.000 C 
BRANCH   5   6
ATOM      6  C   UNL     1     -10.811  -9.506  17.085  1.00  0.00     0.000 C 
BRANCH   6   7
ATOM      7  C   UNL     1     -11.599 -10.830  17.065  1.00  0.00     0.000 C 
BRANCH   7   8
ATOM      8  C   UNL     1     -11.199 -11.841  18.158  1.00  0.00     0.000 C 
BRANCH   8   9
ATOM      9  C   UNL     1     -12.177 -13.018  18.351  1.00  0.00     0.000 C 
BRANCH   9  10
ATOM     10  C   UNL     1     -13.593 -12.621  18.803  1.00  0.00     0.000 C 
BRANCH  10  11
ATOM     11  C   UNL     1     -14.037 -13.346  20.082  1.00  0.00     0.000 C 
BRANCH  11  12
ATOM     12  C   UNL     1     -13.463 -14.771  20.133  1.00  0.00     0.006 C 
BRANCH  12  13
ATOM     13  C   UNL     1     -14.059 -15.600  21.278  1.00  0.00     0.053 C 
BRANCH  13  14
ATOM     14  C   UNL     1     -13.456 -15.241  22.603  1.00  0.00     0.041 C 
ATOM     15  O   UNL     1     -13.996 -15.632  23.672  1.00  0.00    -0.550 OA
ATOM     16  O   UNL     1     -12.293 -14.481  22.658  1.00  0.00    -0.550 OA
ENDBRANCH  13  14
ENDBRANCH  12  13
ENDBRANCH  11  12
ENDBRANCH  10  11
ENDBRANCH   9  10
ENDBRANCH   8   9
ENDBRANCH   7   8
ENDBRANCH   6   7
ENDBRANCH   5   6
ENDBRANCH   4   5
ENDBRANCH   3   4
ENDBRANCH   2   3
ENDBRANCH   1   2
BRANCH   1  17
ATOM     17  C   UNL     1      -3.555  -7.643  16.399  1.00  0.00     0.000 C 
BRANCH  17  18
ATOM     18  C   UNL     1      -2.259  -7.744  15.573  1.00  0.00     0.000 C 
BRANCH  18  19
ATOM     19  C   UNL     1      -1.107  -6.908  16.160  1.00  0.00     0.000 C 
BRANCH  19  20
ATOM     20  C   UNL     1       0.286  -7.458  15.794  1.00  0.00     0.000 C 
BRANCH  20  21
ATOM     21  C   UNL     1       1.328  -6.376  15.461  1.00  0.00     0.000 C 
BRANCH  21  22
ATOM     22  C   UNL     1       2.121  -6.672  14.178  1.00  0.00    -0.000 C 
BRANCH  22  23
ATOM     23  C   UNL     1       3.245  -5.644  13.971  1.00  0.00    -0.000 C 
BRANCH  23  24
ATOM     24  C   UNL     1       3.231  -5.024  12.565  1.00  0.00    -0.000 C 
BRANCH  24  25
ATOM     25  C   UNL     1       4.627  -4.593  12.090  1.00  0.00    -0.000 C 
BRANCH  25  26
ATOM     26  C   UNL     1       4.599  -4.190  10.609  1.00  0.00    -0.000 C 
BRANCH  26  27
ATOM     27  C   UNL     1       4.576  -2.662  10.454  1.00  0.00    -0.000 C 
BRANCH  27  28
ATOM     28  C   UNL     1       4.427  -1.936  11.802  1.00  0.00    -0.000 C 
BRANCH  28  29
ATOM     29  C   UNL     1       4.972  -0.502  11.764  1.00  0.00    -0.003 C 
ATOM     30  C   UNL     1       4.649   0.241  13.059  1.00  0.00     0.004 C 
ENDBRANCH  28  29
ENDBRANCH  27  28
ENDBRANCH  26  27
ENDBRANCH  25  26
ENDBRANCH  24  25
ENDBRANCH  23  24
ENDBRANCH  22  23
ENDBRANCH  21  22
ENDBRANCH  20  21
ENDBRANCH  19  20
ENDBRANCH  18  19
ENDBRANCH  17  18
ENDBRANCH   1  17
TORSDOF 26
ENDMDL
MODEL 4
REMARK VINA RESULT:     4.241      6.536     17.769
REMARK INTER + INTRA:           9.516
REMARK INTER:                  10.494
REMARK INTRA:                  -0.978
REMARK UNBOUND:                -1.171
REMARK SMILES CCCCCCCCCCCCCCCCCCCCCCCCCCCC(=O)[O-]
REMARK SMILES IDX 15 1 16 2 17 3 18 4 19 5 20 6 21 7 22 8 23 9 24 10 25 11
REMARK SMILES IDX 26 12 27 13 28 14 29 15 30 16 14 17 13 18 12 19 11 20 10 21
REMARK SMILES IDX 9 22 8 23 7 24 6 25 5 26 4 27 3 28 2 29 1 30
REMARK H PARENT
REMARK Flexibility Score: inf
ROOT
ATOM      1  C   UNL     1      -1.990  -7.269  15.730  1.00  0.00     0.000 C 
ENDROOT
BRANCH   1   2
ATOM      2  C   UNL     1      -3.374  -7.308  16.399  1.00  0.00     0.000 C 
BRANCH   2   3
ATOM      3  C   UNL     1      -4.121  -8.604  16.051  1.00  0.00     0.000 C 
BRANCH   3   4
ATOM      4  C   UNL     1      -5.443  -8.757  16.826  1.00  0.00     0.000 C 
BRANCH   4   5
ATOM      5  C   UNL     1      -6.718  -8.605  15.972  1.00  0.00     0.000 C 
BRANCH   5   6
ATOM      6  C   UNL     1      -8.026  -8.479  16.775  1.00  0.00     0.000 C 
BRANCH   6   7
ATOM      7  C   UNL     1      -9.229  -9.235  16.179  1.00  0.00     0.000 C 
BRANCH   7   8
ATOM      8  C   UNL     1     -10.437  -9.385  17.125  1.00  0.00     0.000 C 
BRANCH   8   9
ATOM      9  C   UNL     1     -11.458 -10.467  16.720  1.00  0.00     0.000 C 
BRANCH   9  10
ATOM     10  C   UNL     1     -11.963 -11.352  17.873  1.00  0.00     0.000 C 
BRANCH  10  11
ATOM     11  C   UNL     1     -11.211 -12.688  17.974  1.00  0.00     0.000 C 
BRANCH  11  12
ATOM     12  C   UNL     1     -11.559 -13.415  19.283  1.00  0.00     0.006 C 
BRANCH  12  13
ATOM     13  C   UNL     1     -13.074 -13.522  19.505  1.00  0.00     0.053 C 
BRANCH  13  14
ATOM     14  C   UNL     1     -13.427 -13.527  20.962  1.00  0.00     0.041 C 
ATOM     15  O   UNL     1     -14.569 -13.149  21.339  1.00  0.00    -0.550 OA
ATOM     16  O   UNL     1     -12.498 -13.953  21.905  1.00  0.00    -0.550 OA
ENDBRANCH  13  14
ENDBRANCH  12  13
ENDBRANCH  11  12
ENDBRANCH  10  11
ENDBRANCH   9  10
ENDBRANCH   8   9
ENDBRANCH   7   8
ENDBRANCH   6   7
ENDBRANCH   5   6
ENDBRANCH   4   5
ENDBRANCH   3   4
ENDBRANCH   2   3
ENDBRANCH   1   2
BRANCH   1  17
ATOM     17  C   UNL     1      -0.902  -6.707  16.670  1.00  0.00     0.000 C 
BRANCH  17  18
ATOM     18  C   UNL     1       0.468  -6.514  15.995  1.00  0.00     0.000 C 
BRANCH  18  19
ATOM     19  C   UNL     1       0.822  -7.652  15.021  1.00  0.00     0.000 C 
BRANCH  19  20
ATOM     20  C   UNL     1       2.142  -7.409  14.262  1.00  0.00     0.000 C 
BRANCH  20  21
ATOM     21  C   UNL     1       2.418  -5.933  13.927  1.00  0.00     0.000 C 
BRANCH  21  22
ATOM     22  C   UNL     1       3.907  -5.633  13.691  1.00  0.00    -0.000 C 
BRANCH  22  23
ATOM     23  C   UNL     1       4.091  -4.335  12.888  1.00  0.00    -0.000 C 
BRANCH  23  24
ATOM     24  C   UNL     1       3.960  -4.551  11.372  1.00  0.00    -0.000 C 
BRANCH  24  25
ATOM     25  C   UNL     1       3.678  -3.250  10.606  1.00  0.00    -0.000 C 
BRANCH  25  26
ATOM     26  C   UNL     1       4.984  -2.615  10.109  1.00  0.00    -0.000 C 
BRANCH  26  27
ATOM     27  C   UNL     1       4.906  -1.082  10.159  1.00  0.00    -0.000 C 
BRANCH  27  28
ATOM     28  C   UNL     1       4.593  -0.465   8.785  1.00  0.00    -0.000 C 
BRANCH  28  29
ATOM     29  C   UNL     1       4.410   1.058   8.850  1.00  0.00    -0.003 C 
ATOM     30  C   UNL     1       3.430   1.445   9.955  1.00  0.00     0.004 C 
ENDBRANCH  28  29
ENDBRANCH  27  28
ENDBRANCH  26  27
ENDBRANCH  25  26
ENDBRANCH  24  25
ENDBRANCH  23  24
ENDBRANCH  22  23
ENDBRANCH  21  22
ENDBRANCH  20  21
ENDBRANCH  19  20
ENDBRANCH  18  19
ENDBRANCH  17  18
ENDBRANCH   1  17
TORSDOF 26
ENDMDL
MODEL 5
REMARK VINA RESULT:     4.299      1.396      3.048
REMARK INTER + INTRA:           9.664
REMARK INTER:                  10.785
REMARK INTRA:                  -1.121
REMARK UNBOUND:                -1.171
REMARK SMILES CCCCCCCCCCCCCCCCCCCCCCCCCCCC(=O)[O-]
REMARK SMILES IDX 15 1 16 2 17 3 18 4 19 5 20 6 21 7 22 8 23 9 24 10 25 11
REMARK SMILES IDX 26 12 27 13 28 14 29 15 30 16 14 17 13 18 12 19 11 20 10 21
REMARK SMILES IDX 9 22 8 23 7 24 6 25 5 26 4 27 3 28 2 29 1 30
REMARK H PARENT
REMARK Flexibility Score: inf
ROOT
ATOM      1  C   UNL     1      -7.237  -8.679  16.104  1.00  0.00     0.000 C 
ENDROOT
BRANCH   1   2
ATOM      2  C   UNL     1      -5.975  -8.715  16.981  1.00  0.00     0.000 C 
BRANCH   2   3
ATOM      3  C   UNL     1      -4.713  -8.912  16.129  1.00  0.00     0.000 C 
BRANCH   3   4
ATOM      4  C   UNL     1      -3.744  -7.719  16.213  1.00  0.00     0.000 C 
BRANCH   4   5
ATOM      5  C   UNL     1      -2.298  -8.025  15.773  1.00  0.00     0.000 C 
BRANCH   5   6
ATOM      6  C   UNL     1      -1.288  -6.890  16.027  1.00  0.00     0.000 C 
BRANCH   6   7
ATOM      7  C   UNL     1       0.184  -7.338  16.112  1.00  0.00     0.000 C 
BRANCH   7   8
ATOM      8  C   UNL     1       0.998  -7.147  14.816  1.00  0.00     0.000 C 
BRANCH   8   9
ATOM      9  C   UNL     1       2.103  -6.075  14.888  1.00  0.00     0.000 C 
BRANCH   9  10
ATOM     10  C   UNL     1       3.035  -6.015  13.664  1.00  0.00     0.000 C 
BRANCH  10  11
ATOM     11  C   UNL     1       4.382  -5.343  13.971  1.00  0.00     0.000 C 
BRANCH  11  12
ATOM     12  C   UNL     1       4.771  -4.359  12.857  1.00  0.00     0.006 C 
BRANCH  12  13
ATOM     13  C   UNL     1       4.138  -4.725  11.508  1.00  0.00     0.053 C 
BRANCH  13  14
ATOM     14  C   UNL     1       3.554  -3.528  10.820  1.00  0.00     0.041 C 
ATOM     15  O   UNL     1       2.967  -2.635  11.490  1.00  0.00    -0.550 OA
ATOM     16  O   UNL     1       3.662  -3.393   9.440  1.00  0.00    -0.550 OA
ENDBRANCH  13  14
ENDBRANCH  12  13
ENDBRANCH  11  12
ENDBRANCH  10  11
ENDBRANCH   9  10
ENDBRANCH   8   9
ENDBRANCH   7   8
ENDBRANCH   6   7
ENDBRANCH   5   6
ENDBRANCH   4   5
ENDBRANCH   3   4
ENDBRANCH   2   3
ENDBRANCH   1   2
BRANCH   1  17
ATOM     17  C   UNL     1      -8.532  -8.767  16.940  1.00  0.00     0.000 C 
BRANCH  17  18
ATOM     18  C   UNL     1      -9.675  -9.527  16.242  1.00  0.00     0.000 C 
BRANCH  18  19
ATOM     19  C   UNL     1     -10.824  -9.893  17.198  1.00  0.00     0.000 C 
BRANCH  19  20
ATOM     20  C   UNL     1     -11.288 -11.357  17.054  1.00  0.00     0.000 C 
BRANCH  20  21
ATOM     21  C   UNL     1     -12.386 -11.775  18.047  1.00  0.00     0.000 C 
BRANCH  21  22
ATOM     22  C   UNL     1     -11.841 -12.534  19.268  1.00  0.00    -0.000 C 
BRANCH  22  23
ATOM     23  C   UNL     1     -12.941 -13.382  19.929  1.00  0.00    -0.000 C 
BRANCH  23  24
ATOM     24  C   UNL     1     -14.084 -12.529  20.503  1.00  0.00    -0.000 C 
BRANCH  24  25
ATOM     25  C   UNL     1     -14.805 -13.211  21.674  1.00  0.00    -0.000 C 
BRANCH  25  26
ATOM     26  C   UNL     1     -13.990 -14.399  22.201  1.00  0.00    -0.000 C 
BRANCH  26  27
ATOM     27  C   UNL     1     -14.738 -15.723  21.983  1.00  0.00    -0.000 C 
BRANCH  27  28
ATOM     28  C   UNL     1     -13.822 -16.833  21.440  1.00  0.00    -0.000 C 
BRANCH  28  29
ATOM     29  C   UNL     1     -14.316 -17.406  20.104  1.00  0.00    -0.003 C 
ATOM     30  C   UNL     1     -14.051 -16.432  18.959  1.00  0.00     0.004 C 
ENDBRANCH  28  29
ENDBRANCH  27  28
ENDBRANCH  26  27
ENDBRANCH  25  26
ENDBRANCH  24  25
ENDBRANCH  23  24
ENDBRANCH  22  23
ENDBRANCH  21  22
ENDBRANCH  20  21
ENDBRANCH  19  20
ENDBRANCH  18  19
ENDBRANCH  17  18
ENDBRANCH   1  17
TORSDOF 26
ENDMDL
MODEL 6
REMARK VINA RESULT:     4.331      6.926     18.055
REMARK INTER + INTRA:           9.744
REMARK INTER:                  10.710
REMARK INTRA:                  -0.966
REMARK UNBOUND:                -1.171
REMARK SMILES CCCCCCCCCCCCCCCCCCCCCCCCCCCC(=O)[O-]
REMARK SMILES IDX 15 1 16 2 17 3 18 4 19 5 20 6 21 7 22 8 23 9 24 10 25 11
REMARK SMILES IDX 26 12 27 13 28 14 29 15 30 16 14 17 13 18 12 19 11 20 10 21
REMARK SMILES IDX 9 22 8 23 7 24 6 25 5 26 4 27 3 28 2 29 1 30
REMARK H PARENT
REMARK Flexibility Score: inf
ROOT
ATOM      1  C   UNL     1      -5.274  -8.709  16.864  1.00  0.00     0.000 C 
ENDROOT
BRANCH   1   2
ATOM      2  C   UNL     1      -6.497  -8.748  15.933  1.00  0.00     0.000 C 
BRANCH   2   3
ATOM      3  C   UNL     1      -7.792  -8.463  16.707  1.00  0.00     0.000 C 
BRANCH   3   4
ATOM      4  C   UNL     1      -9.020  -9.158  16.091  1.00  0.00     0.000 C 
BRANCH   4   5
ATOM      5  C   UNL     1     -10.158  -9.466  17.085  1.00  0.00     0.000 C 
BRANCH   5   6
ATOM      6  C   UNL     1     -11.245 -10.419  16.553  1.00  0.00     0.000 C 
BRANCH   6   7
ATOM      7  C   UNL     1     -12.138 -11.054  17.636  1.00  0.00     0.000 C 
BRANCH   7   8
ATOM      8  C   UNL     1     -11.638 -12.407  18.180  1.00  0.00     0.000 C 
BRANCH   8   9
ATOM      9  C   UNL     1     -12.736 -13.339  18.731  1.00  0.00     0.000 C 
BRANCH   9  10
ATOM     10  C   UNL     1     -14.162 -12.761  18.693  1.00  0.00     0.000 C 
BRANCH  10  11
ATOM     11  C   UNL     1     -15.006 -13.172  19.908  1.00  0.00     0.000 C 
BRANCH  11  12
ATOM     12  C   UNL     1     -14.270 -12.853  21.220  1.00  0.00     0.006 C 
BRANCH  12  13
ATOM     13  C   UNL     1     -14.803 -13.674  22.401  1.00  0.00     0.053 C 
BRANCH  13  14
ATOM     14  C   UNL     1     -13.978 -14.901  22.648  1.00  0.00     0.041 C 
ATOM     15  O   UNL     1     -13.597 -15.185  23.815  1.00  0.00    -0.550 OA
ATOM     16  O   UNL     1     -13.635 -15.736  21.591  1.00  0.00    -0.550 OA
ENDBRANCH  13  14
ENDBRANCH  12  13
ENDBRANCH  11  12
ENDBRANCH  10  11
ENDBRANCH   9  10
ENDBRANCH   8   9
ENDBRANCH   7   8
ENDBRANCH   6   7
ENDBRANCH   5   6
ENDBRANCH   4   5
ENDBRANCH   3   4
ENDBRANCH   2   3
ENDBRANCH   1   2
BRANCH   1  17
ATOM     17  C   UNL     1      -3.943  -8.751  16.083  1.00  0.00     0.000 C 
BRANCH  17  18
ATOM     18  C   UNL     1      -3.034  -7.533  16.332  1.00  0.00     0.000 C 
BRANCH  18  19
ATOM     19  C   UNL     1      -1.856  -7.452  15.344  1.00  0.00     0.000 C 
BRANCH  19  20
ATOM     20  C   UNL     1      -0.513  -7.879  15.970  1.00  0.00     0.000 C 
BRANCH  20  21
ATOM     21  C   UNL     1       0.584  -6.803  15.911  1.00  0.00     0.000 C 
BRANCH  21  22
ATOM     22  C   UNL     1       1.369  -6.808  14.589  1.00  0.00    -0.000 C 
BRANCH  22  23
ATOM     23  C   UNL     1       2.682  -6.019  14.720  1.00  0.00    -0.000 C 
BRANCH  23  24
ATOM     24  C   UNL     1       3.252  -5.584  13.361  1.00  0.00    -0.000 C 
BRANCH  24  25
ATOM     25  C   UNL     1       4.651  -4.960  13.473  1.00  0.00    -0.000 C 
BRANCH  25  26
ATOM     26  C   UNL     1       4.962  -4.094  12.246  1.00  0.00    -0.000 C 
BRANCH  26  27
ATOM     27  C   UNL     1       3.699  -3.387  11.734  1.00  0.00    -0.000 C 
BRANCH  27  28
ATOM     28  C   UNL     1       3.998  -2.407  10.586  1.00  0.00    -0.000 C 
BRANCH  28  29
ATOM     29  C   UNL     1       4.068  -3.103   9.219  1.00  0.00    -0.003 C 
ATOM     30  C   UNL     1       4.557  -2.140   8.140  1.00  0.00     0.004 C 
ENDBRANCH  28  29
ENDBRANCH  27  28
ENDBRANCH  26  27
ENDBRANCH  25  26
ENDBRANCH  24  25
ENDBRANCH  23  24
ENDBRANCH  22  23
ENDBRANCH  21  22
ENDBRANCH  20  21
ENDBRANCH  19  20
ENDBRANCH  18  19
ENDBRANCH  17  18
ENDBRANCH   1  17
TORSDOF 26
ENDMDL
MODEL 7
REMARK VINA RESULT:     4.427      7.012     18.167
REMARK INTER + INTRA:           9.986
REMARK INTER:                  10.906
REMARK INTRA:                  -0.920
REMARK UNBOUND:                -1.171
REMARK SMILES CCCCCCCCCCCCCCCCCCCCCCCCCCCC(=O)[O-]
REMARK SMILES IDX 15 1 16 2 17 3 18 4 19 5 20 6 21 7 22 8 23 9 24 10 25 11
REMARK SMILES IDX 26 12 27 13 28 14 29 15 30 16 14 17 13 18 12 19 11 20 10 21
REMARK SMILES IDX 9 22 8 23 7 24 6 25 5 26 4 27 3 28 2 29 1 30
REMARK H PARENT
REMARK Flexibility Score: inf
ROOT
ATOM      1  C   UNL     1      -3.902  -8.652  16.104  1.00  0.00     0.000 C 
ENDROOT
BRANCH   1   2
ATOM      2  C   UNL     1      -5.225  -8.389  16.842  1.00  0.00     0.000 C 
BRANCH   2   3
ATOM      3  C   UNL     1      -6.431  -8.783  15.977  1.00  0.00     0.000 C 
BRANCH   3   4
ATOM      4  C   UNL     1      -7.778  -8.474  16.655  1.00  0.00     0.000 C 
BRANCH   4   5
ATOM      5  C   UNL     1      -8.985  -9.245  16.083  1.00  0.00     0.000 C 
BRANCH   5   6
ATOM      6  C   UNL     1     -10.106  -9.540  17.097  1.00  0.00     0.000 C 
BRANCH   6   7
ATOM      7  C   UNL     1     -10.869 -10.857  16.856  1.00  0.00     0.000 C 
BRANCH   7   8
ATOM      8  C   UNL     1     -12.340 -10.851  17.320  1.00  0.00     0.000 C 
BRANCH   8   9
ATOM      9  C   UNL     1     -12.728 -11.991  18.283  1.00  0.00     0.000 C 
BRANCH   9  10
ATOM     10  C   UNL     1     -11.606 -13.001  18.585  1.00  0.00     0.000 C 
BRANCH  10  11
ATOM     11  C   UNL     1     -11.703 -13.597  19.997  1.00  0.00     0.000 C 
BRANCH  11  12
ATOM     12  C   UNL     1     -13.133 -14.076  20.293  1.00  0.00     0.006 C 
BRANCH  12  13
ATOM     13  C   UNL     1     -13.373 -14.306  21.791  1.00  0.00     0.053 C 
BRANCH  13  14
ATOM     14  C   UNL     1     -13.580 -15.757  22.109  1.00  0.00     0.041 C 
ATOM     15  O   UNL     1     -13.637 -16.607  21.181  1.00  0.00    -0.550 OA
ATOM     16  O   UNL     1     -13.703 -16.171  23.431  1.00  0.00    -0.550 OA
ENDBRANCH  13  14
ENDBRANCH  12  13
ENDBRANCH  11  12
ENDBRANCH  10  11
ENDBRANCH   9  10
ENDBRANCH   8   9
ENDBRANCH   7   8
ENDBRANCH   6   7
ENDBRANCH   5   6
ENDBRANCH   4   5
ENDBRANCH   3   4
ENDBRANCH   2   3
ENDBRANCH   1   2
BRANCH   1  17
ATOM     17  C   UNL     1      -2.928  -7.459  16.205  1.00  0.00     0.000 C 
BRANCH  17  18
ATOM     18  C   UNL     1      -1.638  -7.634  15.384  1.00  0.00     0.000 C 
BRANCH  18  19
ATOM     19  C   UNL     1      -0.407  -7.000  16.057  1.00  0.00     0.000 C 
BRANCH  19  20
ATOM     20  C   UNL     1       0.918  -7.365  15.359  1.00  0.00     0.000 C 
BRANCH  20  21
ATOM     21  C   UNL     1       1.740  -6.153  14.886  1.00  0.00     0.000 C 
BRANCH  21  22
ATOM     22  C   UNL     1       2.872  -6.530  13.917  1.00  0.00    -0.000 C 
BRANCH  22  23
ATOM     23  C   UNL     1       3.738  -5.307  13.573  1.00  0.00    -0.000 C 
BRANCH  23  24
ATOM     24  C   UNL     1       3.835  -5.055  12.060  1.00  0.00    -0.000 C 
BRANCH  24  25
ATOM     25  C   UNL     1       3.288  -3.680  11.648  1.00  0.00    -0.000 C 
BRANCH  25  26
ATOM     26  C   UNL     1       4.434  -2.701  11.357  1.00  0.00    -0.000 C 
BRANCH  26  27
ATOM     27  C   UNL     1       4.156  -1.325  11.980  1.00  0.00    -0.000 C 
BRANCH  27  28
ATOM     28  C   UNL     1       4.466  -0.169  11.014  1.00  0.00    -0.000 C 
BRANCH  28  29
ATOM     29  C   UNL     1       4.709  -0.650   9.576  1.00  0.00    -0.003 C 
ATOM     30  C   UNL     1       4.716   0.523   8.600  1.00  0.00     0.004 C 
ENDBRANCH  28  29
ENDBRANCH  27  28
ENDBRANCH  26  27
ENDBRANCH  25  26
ENDBRANCH  24  25
ENDBRANCH  23  24
ENDBRANCH  22  23
ENDBRANCH  21  22
ENDBRANCH  20  21
ENDBRANCH  19  20
ENDBRANCH  18  19
ENDBRANCH  17  18
ENDBRANCH   1  17
TORSDOF 26
ENDMDL
MODEL 8
REMARK VINA RESULT:     4.923      1.303      2.015
REMARK INTER + INTRA:          11.235
REMARK INTER:                  12.106
REMARK INTRA:                  -0.871
REMARK UNBOUND:                -1.171
REMARK SMILES CCCCCCCCCCCCCCCCCCCCCCCCCCCC(=O)[O-]
REMARK SMILES IDX 15 1 16 2 17 3 18 4 19 5 20 6 21 7 22 8 23 9 24 10 25 11
REMARK SMILES IDX 26 12 27 13 28 14 29 15 30 16 14 17 13 18 12 19 11 20 10 21
REMARK SMILES IDX 9 22 8 23 7 24 6 25 5 26 4 27 3 28 2 29 1 30
REMARK H PARENT
REMARK Flexibility Score: inf
ROOT
ATOM      1  C   UNL     1      -6.112  -8.828  16.543  1.00  0.00     0.000 C 
ENDROOT
BRANCH   1   2
ATOM      2  C   UNL     1      -5.063  -7.801  16.086  1.00  0.00     0.000 C 
BRANCH   2   3
ATOM      3  C   UNL     1      -3.643  -8.379  16.181  1.00  0.00     0.000 C 
BRANCH   3   4
ATOM      4  C   UNL     1      -2.551  -7.298  16.081  1.00  0.00     0.000 C 
BRANCH   4   5
ATOM      5  C   UNL     1      -1.268  -7.737  15.348  1.00  0.00     0.000 C 
BRANCH   5   6
ATOM      6  C   UNL     1       0.033  -7.559  16.152  1.00  0.00     0.000 C 
BRANCH   6   7
ATOM      7  C   UNL     1       0.963  -6.441  15.643  1.00  0.00     0.000 C 
BRANCH   7   8
ATOM      8  C   UNL     1       1.790  -6.803  14.392  1.00  0.00     0.000 C 
BRANCH   8   9
ATOM      9  C   UNL     1       3.102  -6.011  14.222  1.00  0.00     0.000 C 
BRANCH   9  10
ATOM     10  C   UNL     1       3.305  -5.374  12.835  1.00  0.00     0.000 C 
BRANCH  10  11
ATOM     11  C   UNL     1       4.688  -4.728  12.671  1.00  0.00     0.000 C 
BRANCH  11  12
ATOM     12  C   UNL     1       4.856  -4.141  11.261  1.00  0.00     0.006 C 
BRANCH  12  13
ATOM     13  C   UNL     1       4.357  -2.693  11.168  1.00  0.00     0.053 C 
BRANCH  13  14
ATOM     14  C   UNL     1       4.407  -2.172   9.763  1.00  0.00     0.041 C 
ATOM     15  O   UNL     1       4.584  -0.943   9.549  1.00  0.00    -0.550 OA
ATOM     16  O   UNL     1       4.265  -3.044   8.689  1.00  0.00    -0.550 OA
ENDBRANCH  13  14
ENDBRANCH  12  13
ENDBRANCH  11  12
ENDBRANCH  10  11
ENDBRANCH   9  10
ENDBRANCH   8   9
ENDBRANCH   7   8
ENDBRANCH   6   7
ENDBRANCH   5   6
ENDBRANCH   4   5
ENDBRANCH   3   4
ENDBRANCH   2   3
ENDBRANCH   1   2
BRANCH   1  17
ATOM     17  C   UNL     1      -7.555  -8.348  16.277  1.00  0.00     0.000 C 
BRANCH  17  18
ATOM     18  C   UNL     1      -8.609  -8.999  17.191  1.00  0.00     0.000 C 
BRANCH  18  19
ATOM     19  C   UNL     1      -9.861  -9.466  16.426  1.00  0.00     0.000 C 
BRANCH  19  20
ATOM     20  C   UNL     1     -11.015  -9.887  17.357  1.00  0.00     0.000 C 
BRANCH  20  21
ATOM     21  C   UNL     1     -11.794 -11.125  16.880  1.00  0.00     0.000 C 
BRANCH  21  22
ATOM     22  C   UNL     1     -11.251 -12.443  17.457  1.00  0.00    -0.000 C 
BRANCH  22  23
ATOM     23  C   UNL     1     -11.405 -12.484  18.986  1.00  0.00    -0.000 C 
BRANCH  23  24
ATOM     24  C   UNL     1     -12.336 -13.612  19.459  1.00  0.00    -0.000 C 
BRANCH  24  25
ATOM     25  C   UNL     1     -13.703 -13.097  19.933  1.00  0.00    -0.000 C 
BRANCH  25  26
ATOM     26  C   UNL     1     -14.006 -13.583  21.356  1.00  0.00    -0.000 C 
BRANCH  26  27
ATOM     27  C   UNL     1     -14.924 -14.814  21.335  1.00  0.00    -0.000 C 
BRANCH  27  28
ATOM     28  C   UNL     1     -15.124 -15.422  22.734  1.00  0.00    -0.000 C 
BRANCH  28  29
ATOM     29  C   UNL     1     -13.921 -15.187  23.658  1.00  0.00    -0.003 C 
ATOM     30  C   UNL     1     -14.376 -14.865  25.079  1.00  0.00     0.004 C 
ENDBRANCH  28  29
ENDBRANCH  27  28
ENDBRANCH  26  27
ENDBRANCH  25  26
ENDBRANCH  24  25
ENDBRANCH  23  24
ENDBRANCH  22  23
ENDBRANCH  21  22
ENDBRANCH  20  21
ENDBRANCH  19  20
ENDBRANCH  18  19
ENDBRANCH  17  18
ENDBRANCH   1  17
TORSDOF 26
ENDMDL
MODEL 9
REMARK VINA RESULT:     4.937      7.009     18.225
REMARK INTER + INTRA:          11.269
REMARK INTER:                  12.339
REMARK INTRA:                  -1.070
REMARK UNBOUND:                -1.171
REMARK SMILES CCCCCCCCCCCCCCCCCCCCCCCCCCCC(=O)[O-]
REMARK SMILES IDX 15 1 16 2 17 3 18 4 19 5 20 6 21 7 22 8 23 9 24 10 25 11
REMARK SMILES IDX 26 12 27 13 28 14 29 15 30 16 14 17 13 18 12 19 11 20 10 21
REMARK SMILES IDX 9 22 8 23 7 24 6 25 5 26 4 27 3 28 2 29 1 30
REMARK H PARENT
REMARK Flexibility Score: inf
ROOT
ATOM      1  C   UNL     1      -7.244  -8.385  16.058  1.00  0.00     0.000 C 
ENDROOT
BRANCH   1   2
ATOM      2  C   UNL     1      -8.374  -8.737  17.040  1.00  0.00     0.000 C 
BRANCH   2   3
ATOM      3  C   UNL     1      -9.466  -9.570  16.353  1.00  0.00     0.000 C 
BRANCH   3   4
ATOM      4  C   UNL     1     -10.683  -9.823  17.261  1.00  0.00     0.000 C 
BRANCH   4   5
ATOM      5  C   UNL     1     -11.161 -11.288  17.314  1.00  0.00     0.000 C 
BRANCH   5   6
ATOM      6  C   UNL     1     -12.614 -11.481  17.788  1.00  0.00     0.000 C 
BRANCH   6   7
ATOM      7  C   UNL     1     -12.918 -12.861  18.403  1.00  0.00     0.000 C 
BRANCH   7   8
ATOM      8  C   UNL     1     -13.021 -12.878  19.942  1.00  0.00     0.000 C 
BRANCH   8   9
ATOM      9  C   UNL     1     -14.334 -12.310  20.517  1.00  0.00     0.000 C 
BRANCH   9  10
ATOM     10  C   UNL     1     -14.875 -13.045  21.756  1.00  0.00     0.000 C 
BRANCH  10  11
ATOM     11  C   UNL     1     -13.978 -14.212  22.197  1.00  0.00     0.000 C 
BRANCH  11  12
ATOM     12  C   UNL     1     -14.747 -15.542  22.153  1.00  0.00     0.006 C 
BRANCH  12  13
ATOM     13  C   UNL     1     -13.950 -16.653  21.458  1.00  0.00     0.053 C 
BRANCH  13  14
ATOM     14  C   UNL     1     -14.446 -16.913  20.068  1.00  0.00     0.041 C 
ATOM     15  O   UNL     1     -14.654 -18.094  19.679  1.00  0.00    -0.550 OA
ATOM     16  O   UNL     1     -14.687 -15.852  19.202  1.00  0.00    -0.550 OA
ENDBRANCH  13  14
ENDBRANCH  12  13
ENDBRANCH  11  12
ENDBRANCH  10  11
ENDBRANCH   9  10
ENDBRANCH   8   9
ENDBRANCH   7   8
ENDBRANCH   6   7
ENDBRANCH   5   6
ENDBRANCH   4   5
ENDBRANCH   3   4
ENDBRANCH   2   3
ENDBRANCH   1   2
BRANCH   1  17
ATOM     17  C   UNL     1      -5.868  -8.885  16.548  1.00  0.00     0.000 C 
BRANCH  17  18
ATOM     18  C   UNL     1      -4.760  -7.818  16.489  1.00  0.00     0.000 C 
BRANCH  18  19
ATOM     19  C   UNL     1      -3.394  -8.393  16.070  1.00  0.00     0.000 C 
BRANCH  19  20
ATOM     20  C   UNL     1      -2.258  -7.353  16.124  1.00  0.00     0.000 C 
BRANCH  20  21
ATOM     21  C   UNL     1      -1.056  -7.680  15.220  1.00  0.00     0.000 C 
BRANCH  21  22
ATOM     22  C   UNL     1       0.276  -7.139  15.764  1.00  0.00    -0.000 C 
BRANCH  22  23
ATOM     23  C   UNL     1       1.376  -7.193  14.691  1.00  0.00    -0.000 C 
BRANCH  23  24
ATOM     24  C   UNL     1       2.236  -5.920  14.659  1.00  0.00    -0.000 C 
BRANCH  24  25
ATOM     25  C   UNL     1       3.290  -5.941  13.542  1.00  0.00    -0.000 C 
BRANCH  25  26
ATOM     26  C   UNL     1       4.495  -5.066  13.912  1.00  0.00    -0.000 C 
BRANCH  26  27
ATOM     27  C   UNL     1       5.013  -4.295  12.689  1.00  0.00    -0.000 C 
BRANCH  27  28
ATOM     28  C   UNL     1       4.389  -4.791  11.374  1.00  0.00    -0.000 C 
BRANCH  28  29
ATOM     29  C   UNL     1       5.098  -4.228  10.134  1.00  0.00    -0.003 C 
ATOM     30  C   UNL     1       4.313  -3.064   9.535  1.00  0.00     0.004 C 
ENDBRANCH  28  29
ENDBRANCH  27  28
ENDBRANCH  26  27
ENDBRANCH  25  26
ENDBRANCH  24  25
ENDBRANCH  23  24
ENDBRANCH  22  23
ENDBRANCH  21  22
ENDBRANCH  20  21
ENDBRANCH  19  20
ENDBRANCH  18  19
ENDBRANCH  17  18
ENDBRANCH   1  17
TORSDOF 26
ENDMDL
