MODEL 1
REMARK VINA RESULT:    -3.247      0.000      0.000
REMARK INTER + INTRA:          -5.509
REMARK INTER:                  -4.956
REMARK INTRA:                  -0.553
REMARK UNBOUND:                -0.553
REMARK SMILES CC1=CCC[C@@H](C)C(=O)C[C@H](C(C)C)C(=O)C1
REMARK SMILES IDX 8 1 9 2 6 3 7 4 5 5 4 6 3 7 2 8 1 9 10 11 11 12 15 13 16 14
REMARK SMILES IDX 17 15 12 17 13 18 14 19
REMARK H PARENT
REMARK Flexibility Score: 70.00
ROOT
ATOM      1  C   UNL     1       0.464  10.445  19.558  1.00  0.00     0.136 C 
ATOM      2  O   UNL     1       0.497  10.120  20.736  1.00  0.00    -0.299 OA
ENDROOT
BRANCH   1   3
ATOM      3  C   UNL     1       0.590   9.386  18.479  1.00  0.00     0.053 C 
ATOM      4  C   UNL     1       0.454   7.997  19.111  1.00  0.00     0.016 C 
BRANCH   3   5
ATOM      5  C   UNL     1       1.920   9.493  17.704  1.00  0.00     0.015 C 
BRANCH   5   6
ATOM      6  C   UNL     1       1.788  10.029  16.268  1.00  0.00     0.028 C 
BRANCH   6   7
ATOM      7  C   UNL     1       2.800  11.094  15.909  1.00  0.00    -0.028 C 
ATOM      8  C   UNL     1       2.804  12.405  16.269  1.00  0.00    -0.070 CG0
ATOM      9  C   UNL     1       4.012  13.216  15.860  1.00  0.00     0.039 C 
ATOM     10  G   UNL     1       1.659  13.148  16.952  1.00  0.00     0.000 G0
ENDBRANCH   6   7
ENDBRANCH   5   6
ENDBRANCH   3   5
ENDBRANCH   1   3
BRANCH   1  11
ATOM     11  C   UNL     1       0.240  11.893  19.201  1.00  0.00     0.087 C 
BRANCH  11  12
ATOM     12  C   UNL     1       1.444  12.807  19.560  1.00  0.00     0.066 C 
BRANCH  12  13
ATOM     13  C   UNL     1       1.923  13.626  18.365  1.00  0.00     0.140 C 
ATOM     14  O   UNL     1       2.395  14.738  18.563  1.00  0.00    -0.299 OA
BRANCH  13  15
ATOM     15  C   UNL     1       1.659  13.184  16.948  1.00  0.00     0.106 CG0
ATOM     16  G   UNL     1       2.791  12.415  16.274  1.00  0.00     0.000 G0
ENDBRANCH  13  15
ENDBRANCH  12  13
BRANCH  12  17
ATOM     17  C   UNL     1       1.119  13.749  20.763  1.00  0.00    -0.006 C 
ATOM     18  C   UNL     1      -0.396  13.903  20.991  1.00  0.00     0.008 C 
ATOM     19  C   UNL     1       1.767  13.245  22.068  1.00  0.00     0.008 C 
ENDBRANCH  12  17
ENDBRANCH  11  12
ENDBRANCH   1  11
TORSDOF 1
ENDMDL
MODEL 2
REMARK VINA RESULT:    -3.212      4.451      5.899
REMARK INTER + INTRA:          -5.456
REMARK INTER:                  -5.200
REMARK INTRA:                  -0.256
REMARK UNBOUND:                -0.553
REMARK SMILES CC1=CCC[C@@H](C)C(=O)C[C@H](C(C)C)C(=O)C1
REMARK SMILES IDX 8 1 9 2 6 3 7 4 5 5 4 6 3 7 2 8 1 9 10 11 11 12 15 13 16 14
REMARK SMILES IDX 17 15 12 17 13 18 14 19
REMARK H PARENT
REMARK Flexibility Score: 70.00
ROOT
ATOM      1  C   UNL     1       0.555  12.471  22.250  1.00  0.00     0.136 C 
ATOM      2  O   UNL     1      -0.665  12.544  22.247  1.00  0.00    -0.299 OA
ENDROOT
BRANCH   1   3
ATOM      3  C   UNL     1       1.246  11.401  23.075  1.00  0.00     0.053 C 
ATOM      4  C   UNL     1       0.799  10.018  22.591  1.00  0.00     0.016 C 
BRANCH   3   5
ATOM      5  C   UNL     1       0.969  11.554  24.585  1.00  0.00     0.015 C 
BRANCH   5   6
ATOM      6  C   UNL     1       2.181  12.000  25.421  1.00  0.00     0.028 C 
BRANCH   6   7
ATOM      7  C   UNL     1       3.515  11.782  24.743  1.00  0.00    -0.028 C 
ATOM      8  C   UNL     1       4.319  12.705  24.152  1.00  0.00    -0.070 CG0
ATOM      9  C   UNL     1       5.660  12.216  23.656  1.00  0.00     0.039 C 
ATOM     10  G   UNL     1       3.946  14.154  23.853  1.00  0.00     0.000 G0
ENDBRANCH   6   7
ENDBRANCH   5   6
ENDBRANCH   3   5
ENDBRANCH   1   3
BRANCH   1  11
ATOM     11  C   UNL     1       1.349  13.415  21.383  1.00  0.00     0.087 C 
BRANCH  11  12
ATOM     12  C   UNL     1       1.946  14.615  22.169  1.00  0.00     0.066 C 
BRANCH  12  13
ATOM     13  C   UNL     1       3.434  14.438  22.451  1.00  0.00     0.140 C 
ATOM     14  O   UNL     1       4.210  14.367  21.507  1.00  0.00    -0.299 OA
BRANCH  13  15
ATOM     15  C   UNL     1       3.947  14.162  23.842  1.00  0.00     0.106 CG0
ATOM     16  G   UNL     1       4.305  12.709  24.139  1.00  0.00     0.000 G0
ENDBRANCH  13  15
ENDBRANCH  12  13
BRANCH  12  17
ATOM     17  C   UNL     1       1.695  15.972  21.434  1.00  0.00    -0.006 C 
ATOM     18  C   UNL     1       1.517  15.789  19.916  1.00  0.00     0.008 C 
ATOM     19  C   UNL     1       0.456  16.698  21.994  1.00  0.00     0.008 C 
ENDBRANCH  12  17
ENDBRANCH  11  12
ENDBRANCH   1  11
TORSDOF 1
ENDMDL
MODEL 3
REMARK VINA RESULT:    -3.177      2.869      6.187
REMARK INTER + INTRA:          -5.402
REMARK INTER:                  -5.083
REMARK INTRA:                  -0.320
REMARK UNBOUND:                -0.553
REMARK SMILES CC1=CCC[C@@H](C)C(=O)C[C@H](C(C)C)C(=O)C1
REMARK SMILES IDX 8 1 9 2 6 3 7 4 5 5 4 6 3 7 2 8 1 9 10 11 11 12 15 13 16 14
REMARK SMILES IDX 17 15 12 17 13 18 14 19
REMARK H PARENT
REMARK Flexibility Score: 70.00
ROOT
ATOM      1  C   UNL     1       1.430  15.123  20.708  1.00  0.00     0.136 C 
ATOM      2  O   UNL     1       1.841  15.690  19.706  1.00  0.00    -0.299 OA
ENDROOT
BRANCH   1   3
ATOM      3  C   UNL     1       1.163  15.921  21.971  1.00  0.00     0.053 C 
ATOM      4  C   UNL     1       0.308  17.145  21.629  1.00  0.00     0.016 C 
BRANCH   3   5
ATOM      5  C   UNL     1       2.465  16.359  22.674  1.00  0.00     0.015 C 
BRANCH   5   6
ATOM      6  C   UNL     1       3.633  15.366  22.546  1.00  0.00     0.028 C 
BRANCH   6   7
ATOM      7  C   UNL     1       3.537  14.174  23.471  1.00  0.00    -0.028 C 
ATOM      8  C   UNL     1       3.828  12.874  23.200  1.00  0.00    -0.070 CG0
ATOM      9  C   UNL     1       3.751  11.907  24.359  1.00  0.00     0.039 C 
ATOM     10  G   UNL     1       4.121  12.292  21.820  1.00  0.00     0.000 G0
ENDBRANCH   6   7
ENDBRANCH   5   6
ENDBRANCH   3   5
ENDBRANCH   1   3
BRANCH   1  11
ATOM     11  C   UNL     1       1.140  13.645  20.650  1.00  0.00     0.087 C 
BRANCH  11  12
ATOM     12  C   UNL     1       2.288  12.819  20.006  1.00  0.00     0.066 C 
BRANCH  12  13
ATOM     13  C   UNL     1       2.939  11.863  21.001  1.00  0.00     0.140 C 
ATOM     14  O   UNL     1       2.383  10.802  21.250  1.00  0.00    -0.299 OA
BRANCH  13  15
ATOM     15  C   UNL     1       4.140  12.271  21.817  1.00  0.00     0.106 CG0
ATOM     16  G   UNL     1       3.836  12.877  23.184  1.00  0.00     0.000 G0
ENDBRANCH  13  15
ENDBRANCH  12  13
BRANCH  12  17
ATOM     17  C   UNL     1       1.801  12.035  18.745  1.00  0.00    -0.006 C 
ATOM     18  C   UNL     1       0.267  11.924  18.682  1.00  0.00     0.008 C 
ATOM     19  C   UNL     1       2.305  12.688  17.443  1.00  0.00     0.008 C 
ENDBRANCH  12  17
ENDBRANCH  11  12
ENDBRANCH   1  11
TORSDOF 1
ENDMDL
MODEL 4
REMARK VINA RESULT:    -3.148      2.120      4.427
REMARK INTER + INTRA:          -5.357
REMARK INTER:                  -4.858
REMARK INTRA:                  -0.499
REMARK UNBOUND:                -0.553
REMARK SMILES CC1=CCC[C@@H](C)C(=O)C[C@H](C(C)C)C(=O)C1
REMARK SMILES IDX 8 1 9 2 6 3 7 4 5 5 4 6 3 7 2 8 1 9 10 11 11 12 15 13 16 14
REMARK SMILES IDX 17 15 12 17 13 18 14 19
REMARK H PARENT
REMARK Flexibility Score: 70.00
ROOT
ATOM      1  C   UNL     1       2.238   9.077  18.279  1.00  0.00     0.136 C 
ATOM      2  O   UNL     1       2.781   8.520  17.336  1.00  0.00    -0.299 OA
ENDROOT
BRANCH   1   3
ATOM      3  C   UNL     1       1.333   8.286  19.204  1.00  0.00     0.053 C 
ATOM      4  C   UNL     1      -0.094   8.289  18.646  1.00  0.00     0.016 C 
BRANCH   3   5
ATOM      5  C   UNL     1       1.344   8.835  20.646  1.00  0.00     0.015 C 
BRANCH   5   6
ATOM      6  C   UNL     1       0.022   9.477  21.102  1.00  0.00     0.028 C 
BRANCH   6   7
ATOM      7  C   UNL     1       0.180  10.848  21.720  1.00  0.00    -0.028 C 
ATOM      8  C   UNL     1      -0.019  12.060  21.137  1.00  0.00    -0.070 CG0
ATOM      9  C   UNL     1       0.100  13.269  22.036  1.00  0.00     0.039 C 
ATOM     10  G   UNL     1      -0.246  12.311  19.650  1.00  0.00     0.000 G0
ENDBRANCH   6   7
ENDBRANCH   5   6
ENDBRANCH   3   5
ENDBRANCH   1   3
BRANCH   1  11
ATOM     11  C   UNL     1       2.528  10.535  18.537  1.00  0.00     0.087 C 
BRANCH  11  12
ATOM     12  C   UNL     1       1.510  11.492  17.858  1.00  0.00     0.066 C 
BRANCH  12  13
ATOM     13  C   UNL     1       0.991  12.558  18.819  1.00  0.00     0.140 C 
ATOM     14  O   UNL     1       1.682  13.544  19.035  1.00  0.00    -0.299 OA
BRANCH  13  15
ATOM     15  C   UNL     1      -0.253  12.339  19.644  1.00  0.00     0.106 CG0
ATOM     16  G   UNL     1      -0.023  12.078  21.130  1.00  0.00     0.000 G0
ENDBRANCH  13  15
ENDBRANCH  12  13
BRANCH  12  17
ATOM     17  C   UNL     1       2.109  12.164  16.581  1.00  0.00    -0.006 C 
ATOM     18  C   UNL     1       3.632  11.968  16.478  1.00  0.00     0.008 C 
ATOM     19  C   UNL     1       1.451  11.624  15.296  1.00  0.00     0.008 C 
ENDBRANCH  12  17
ENDBRANCH  11  12
ENDBRANCH   1  11
TORSDOF 1
ENDMDL
MODEL 5
REMARK VINA RESULT:    -3.134      1.803      4.169
REMARK INTER + INTRA:          -5.336
REMARK INTER:                  -4.874
REMARK INTRA:                  -0.462
REMARK UNBOUND:                -0.553
REMARK SMILES CC1=CCC[C@@H](C)C(=O)C[C@H](C(C)C)C(=O)C1
REMARK SMILES IDX 8 1 9 2 6 3 7 4 5 5 4 6 3 7 2 8 1 9 10 11 11 12 15 13 16 14
REMARK SMILES IDX 17 15 12 17 13 18 14 19
REMARK H PARENT
REMARK Flexibility Score: 70.00
ROOT
ATOM      1  C   UNL     1       1.390  11.876  20.517  1.00  0.00     0.136 C 
ATOM      2  O   UNL     1       0.171  11.965  20.517  1.00  0.00    -0.299 OA
ENDROOT
BRANCH   1   3
ATOM      3  C   UNL     1       2.234  13.047  20.986  1.00  0.00     0.053 C 
ATOM      4  C   UNL     1       1.574  13.691  22.210  1.00  0.00     0.016 C 
BRANCH   3   5
ATOM      5  C   UNL     1       2.445  14.098  19.877  1.00  0.00     0.015 C 
BRANCH   5   6
ATOM      6  C   UNL     1       3.813  14.030  19.176  1.00  0.00     0.028 C 
BRANCH   6   7
ATOM      7  C   UNL     1       3.738  13.704  17.701  1.00  0.00    -0.028 C 
ATOM      8  C   UNL     1       3.638  12.481  17.115  1.00  0.00    -0.070 CG0
ATOM      9  C   UNL     1       3.461  12.463  15.614  1.00  0.00     0.039 C 
ATOM     10  G   UNL     1       3.792  11.137  17.820  1.00  0.00     0.000 G0
ENDBRANCH   6   7
ENDBRANCH   5   6
ENDBRANCH   3   5
ENDBRANCH   1   3
BRANCH   1  11
ATOM     11  C   UNL     1       2.031  10.575  20.103  1.00  0.00     0.087 C 
BRANCH  11  12
ATOM     12  C   UNL     1       1.561  10.076  18.709  1.00  0.00     0.066 C 
BRANCH  12  13
ATOM     13  C   UNL     1       2.669  10.155  17.664  1.00  0.00     0.140 C 
ATOM     14  O   UNL     1       2.710   9.308  16.781  1.00  0.00    -0.299 OA
BRANCH  13  15
ATOM     15  C   UNL     1       3.813  11.129  17.797  1.00  0.00     0.106 CG0
ATOM     16  G   UNL     1       3.617  12.476  17.109  1.00  0.00     0.000 G0
ENDBRANCH  13  15
ENDBRANCH  12  13
BRANCH  12  17
ATOM     17  C   UNL     1       0.987   8.624  18.777  1.00  0.00    -0.006 C 
ATOM     18  C   UNL     1       1.639   7.790  19.895  1.00  0.00     0.008 C 
ATOM     19  C   UNL     1      -0.540   8.628  18.987  1.00  0.00     0.008 C 
ENDBRANCH  12  17
ENDBRANCH  11  12
ENDBRANCH   1  11
TORSDOF 1
ENDMDL
MODEL 6
REMARK VINA RESULT:    -3.075      2.038      3.897
REMARK INTER + INTRA:          -5.246
REMARK INTER:                  -4.811
REMARK INTRA:                  -0.434
REMARK UNBOUND:                -0.553
REMARK SMILES CC1=CCC[C@@H](C)C(=O)C[C@H](C(C)C)C(=O)C1
REMARK SMILES IDX 8 1 9 2 6 3 7 4 5 5 4 6 3 7 2 8 1 9 10 11 11 12 15 13 16 14
REMARK SMILES IDX 17 15 12 17 13 18 14 19
REMARK H PARENT
REMARK Flexibility Score: 70.00
ROOT
ATOM      1  C   UNL     1      -0.183  13.456  18.330  1.00  0.00     0.136 C 
ATOM      2  O   UNL     1      -1.232  13.547  18.950  1.00  0.00    -0.299 OA
ENDROOT
BRANCH   1   3
ATOM      3  C   UNL     1       0.062  14.345  17.125  1.00  0.00     0.053 C 
ATOM      4  C   UNL     1      -0.273  15.796  17.486  1.00  0.00     0.016 C 
BRANCH   3   5
ATOM      5  C   UNL     1      -0.752  13.899  15.892  1.00  0.00     0.015 C 
BRANCH   5   6
ATOM      6  C   UNL     1      -0.001  12.968  14.926  1.00  0.00     0.028 C 
BRANCH   6   7
ATOM      7  C   UNL     1       1.505  13.097  14.984  1.00  0.00    -0.028 C 
ATOM      8  C   UNL     1       2.418  12.145  15.313  1.00  0.00    -0.070 CG0
ATOM      9  C   UNL     1       3.873  12.527  15.171  1.00  0.00     0.039 C 
ATOM     10  G   UNL     1       2.106  10.776  15.907  1.00  0.00     0.000 G0
ENDBRANCH   6   7
ENDBRANCH   5   6
ENDBRANCH   3   5
ENDBRANCH   1   3
BRANCH   1  11
ATOM     11  C   UNL     1       0.876  12.497  18.815  1.00  0.00     0.087 C 
BRANCH  11  12
ATOM     12  C   UNL     1       0.771  11.089  18.168  1.00  0.00     0.066 C 
BRANCH  12  13
ATOM     13  C   UNL     1       2.043  10.701  17.420  1.00  0.00     0.140 C 
ATOM     14  O   UNL     1       3.060  10.480  18.062  1.00  0.00    -0.299 OA
BRANCH  13  15
ATOM     15  C   UNL     1       2.125  10.765  15.916  1.00  0.00     0.106 CG0
ATOM     16  G   UNL     1       2.431  12.139  15.328  1.00  0.00     0.000 G0
ENDBRANCH  13  15
ENDBRANCH  12  13
BRANCH  12  17
ATOM     17  C   UNL     1       0.409   9.993  19.221  1.00  0.00    -0.006 C 
ATOM     18  C   UNL     1      -0.874  10.332  20.000  1.00  0.00     0.008 C 
ATOM     19  C   UNL     1       0.238   8.610  18.563  1.00  0.00     0.008 C 
ENDBRANCH  12  17
ENDBRANCH  11  12
ENDBRANCH   1  11
TORSDOF 1
ENDMDL
MODEL 7
REMARK VINA RESULT:    -3.005      2.468      5.003
REMARK INTER + INTRA:          -5.140
REMARK INTER:                  -5.002
REMARK INTRA:                  -0.138
REMARK UNBOUND:                -0.553
REMARK SMILES CC1=CCC[C@@H](C)C(=O)C[C@H](C(C)C)C(=O)C1
REMARK SMILES IDX 8 1 9 2 6 3 7 4 5 5 4 6 3 7 2 8 1 9 10 11 11 12 15 13 16 14
REMARK SMILES IDX 17 15 12 17 13 18 14 19
REMARK H PARENT
REMARK Flexibility Score: 70.00
ROOT
ATOM      1  C   UNL     1       2.564  15.834  22.162  1.00  0.00     0.136 C 
ATOM      2  O   UNL     1       2.742  16.185  23.320  1.00  0.00    -0.299 OA
ENDROOT
BRANCH   1   3
ATOM      3  C   UNL     1       1.793  16.729  21.211  1.00  0.00     0.053 C 
ATOM      4  C   UNL     1       0.321  16.776  21.636  1.00  0.00     0.016 C 
BRANCH   3   5
ATOM      5  C   UNL     1       1.911  16.266  19.744  1.00  0.00     0.015 C 
BRANCH   5   6
ATOM      6  C   UNL     1       0.637  15.625  19.166  1.00  0.00     0.028 C 
BRANCH   6   7
ATOM      7  C   UNL     1       0.898  14.527  18.160  1.00  0.00    -0.028 C 
ATOM      8  C   UNL     1       0.905  13.183  18.365  1.00  0.00    -0.070 CG0
ATOM      9  C   UNL     1       1.081  12.313  17.142  1.00  0.00     0.039 C 
ATOM     10  G   UNL     1       0.856  12.486  19.721  1.00  0.00     0.000 G0
ENDBRANCH   6   7
ENDBRANCH   5   6
ENDBRANCH   3   5
ENDBRANCH   1   3
BRANCH   1  11
ATOM     11  C   UNL     1       3.170  14.537  21.687  1.00  0.00     0.087 C 
BRANCH  11  12
ATOM     12  C   UNL     1       2.208  13.325  21.824  1.00  0.00     0.066 C 
BRANCH  12  13
ATOM     13  C   UNL     1       2.114  12.514  20.535  1.00  0.00     0.140 C 
ATOM     14  O   UNL     1       3.132  12.011  20.079  1.00  0.00    -0.299 OA
BRANCH  13  15
ATOM     15  C   UNL     1       0.848  12.475  19.717  1.00  0.00     0.106 CG0
ATOM     16  G   UNL     1       0.913  13.175  18.363  1.00  0.00     0.000 G0
ENDBRANCH  13  15
ENDBRANCH  12  13
BRANCH  12  17
ATOM     17  C   UNL     1       2.610  12.397  23.015  1.00  0.00    -0.006 C 
ATOM     18  C   UNL     1       3.516  13.113  24.033  1.00  0.00     0.008 C 
ATOM     19  C   UNL     1       1.371  11.853  23.752  1.00  0.00     0.008 C 
ENDBRANCH  12  17
ENDBRANCH  11  12
ENDBRANCH   1  11
TORSDOF 1
ENDMDL
MODEL 8
REMARK VINA RESULT:    -2.986      2.130      2.815
REMARK INTER + INTRA:          -5.111
REMARK INTER:                  -4.681
REMARK INTRA:                  -0.429
REMARK UNBOUND:                -0.553
REMARK SMILES CC1=CCC[C@@H](C)C(=O)C[C@H](C(C)C)C(=O)C1
REMARK SMILES IDX 8 1 9 2 6 3 7 4 5 5 4 6 3 7 2 8 1 9 10 11 11 12 15 13 16 14
REMARK SMILES IDX 17 15 12 17 13 18 14 19
REMARK H PARENT
REMARK Flexibility Score: 70.00
ROOT
ATOM      1  C   UNL     1       1.061  13.016  20.605  1.00  0.00     0.136 C 
ATOM      2  O   UNL     1       0.769  12.876  21.784  1.00  0.00    -0.299 OA
ENDROOT
BRANCH   1   3
ATOM      3  C   UNL     1       1.386  11.801  19.758  1.00  0.00     0.053 C 
ATOM      4  C   UNL     1       2.895  11.537  19.806  1.00  0.00     0.016 C 
BRANCH   3   5
ATOM      5  C   UNL     1       0.918  11.962  18.297  1.00  0.00     0.015 C 
BRANCH   5   6
ATOM      6  C   UNL     1       2.048  12.198  17.280  1.00  0.00     0.028 C 
BRANCH   6   7
ATOM      7  C   UNL     1       1.940  13.504  16.525  1.00  0.00    -0.028 C 
ATOM      8  C   UNL     1       2.637  14.653  16.729  1.00  0.00    -0.070 CG0
ATOM      9  C   UNL     1       2.403  15.771  15.740  1.00  0.00     0.039 C 
ATOM     10  G   UNL     1       3.547  14.947  17.918  1.00  0.00     0.000 G0
ENDBRANCH   6   7
ENDBRANCH   5   6
ENDBRANCH   3   5
ENDBRANCH   1   3
BRANCH   1  11
ATOM     11  C   UNL     1       1.034  14.398  20.002  1.00  0.00     0.087 C 
BRANCH  11  12
ATOM     12  C   UNL     1       2.326  15.214  20.279  1.00  0.00     0.066 C 
BRANCH  12  13
ATOM     13  C   UNL     1       2.908  15.823  19.007  1.00  0.00     0.140 C 
ATOM     14  O   UNL     1       2.730  17.013  18.786  1.00  0.00    -0.299 OA
BRANCH  13  15
ATOM     15  C   UNL     1       3.531  14.964  17.934  1.00  0.00     0.106 CG0
ATOM     16  G   UNL     1       2.642  14.660  16.732  1.00  0.00     0.000 G0
ENDBRANCH  13  15
ENDBRANCH  12  13
BRANCH  12  17
ATOM     17  C   UNL     1       2.090  16.328  21.349  1.00  0.00    -0.006 C 
ATOM     18  C   UNL     1       0.595  16.633  21.555  1.00  0.00     0.008 C 
ATOM     19  C   UNL     1       2.709  15.948  22.708  1.00  0.00     0.008 C 
ENDBRANCH  12  17
ENDBRANCH  11  12
ENDBRANCH   1  11
TORSDOF 1
ENDMDL
MODEL 9
REMARK VINA RESULT:    -2.933      2.693      4.376
REMARK INTER + INTRA:          -5.029
REMARK INTER:                  -4.607
REMARK INTRA:                  -0.422
REMARK UNBOUND:                -0.553
REMARK SMILES CC1=CCC[C@@H](C)C(=O)C[C@H](C(C)C)C(=O)C1
REMARK SMILES IDX 8 1 9 2 6 3 7 4 5 5 4 6 3 7 2 8 1 9 10 11 11 12 15 13 16 14
REMARK SMILES IDX 17 15 12 17 13 18 14 19
REMARK H PARENT
REMARK Flexibility Score: 70.00
ROOT
ATOM      1  C   UNL     1       2.073  11.223  17.976  1.00  0.00     0.136 C 
ATOM      2  O   UNL     1       1.735  11.790  16.947  1.00  0.00    -0.299 OA
ENDROOT
BRANCH   1   3
ATOM      3  C   UNL     1       2.068   9.708  18.040  1.00  0.00     0.053 C 
ATOM      4  C   UNL     1       3.037   9.151  16.991  1.00  0.00     0.016 C 
BRANCH   3   5
ATOM      5  C   UNL     1       0.658   9.116  17.832  1.00  0.00     0.015 C 
BRANCH   5   6
ATOM      6  C   UNL     1      -0.093   8.770  19.129  1.00  0.00     0.028 C 
BRANCH   6   7
ATOM      7  C   UNL     1       0.793   8.257  20.241  1.00  0.00    -0.028 C 
ATOM      8  C   UNL     1       1.061   8.840  21.440  1.00  0.00    -0.070 CG0
ATOM      9  C   UNL     1       1.896   8.038  22.411  1.00  0.00     0.039 C 
ATOM     10  G   UNL     1       0.686  10.262  21.845  1.00  0.00     0.000 G0
ENDBRANCH   6   7
ENDBRANCH   5   6
ENDBRANCH   3   5
ENDBRANCH   1   3
BRANCH   1  11
ATOM     11  C   UNL     1       2.547  12.047  19.147  1.00  0.00     0.087 C 
BRANCH  11  12
ATOM     12  C   UNL     1       1.460  12.240  20.240  1.00  0.00     0.066 C 
BRANCH  12  13
ATOM     13  C   UNL     1       1.694  11.342  21.451  1.00  0.00     0.140 C 
ATOM     14  O   UNL     1       2.779  11.384  22.016  1.00  0.00    -0.299 OA
BRANCH  13  15
ATOM     15  C   UNL     1       0.701  10.279  21.850  1.00  0.00     0.106 CG0
ATOM     16  G   UNL     1       1.059   8.854  21.442  1.00  0.00     0.000 G0
ENDBRANCH  13  15
ENDBRANCH  12  13
BRANCH  12  17
ATOM     17  C   UNL     1       1.349  13.732  20.690  1.00  0.00    -0.006 C 
ATOM     18  C   UNL     1       1.183  14.691  19.497  1.00  0.00     0.008 C 
ATOM     19  C   UNL     1       0.173  13.944  21.663  1.00  0.00     0.008 C 
ENDBRANCH  12  17
ENDBRANCH  11  12
ENDBRANCH   1  11
TORSDOF 1
ENDMDL
