MODEL 1
REMARK VINA RESULT:    -6.189      0.000      0.000
REMARK INTER + INTRA:          -7.894
REMARK INTER:                  -7.636
REMARK INTRA:                  -0.258
REMARK UNBOUND:                -0.258
REMARK SMILES O=c1c(O)c(-c2cc(O)c(O)c(O)c2)oc2cc(O)cc(O)c12
REMARK SMILES IDX 5 1 3 2 2 3 1 4 23 5 21 6 20 7 18 8 17 9 16 10 15 11 6 12
REMARK SMILES IDX 7 13 8 14 14 15 10 16 12 17 9 18 11 20 13 22 4 24 22 26
REMARK SMILES IDX 19 28
REMARK H PARENT 9 19 11 21 13 23 4 25 22 27 19 29
REMARK Flexibility Score: inf
ROOT
ATOM      1  C   UNL     1       8.342  25.967  12.952  1.00  0.00     0.180 A 
ATOM      2  C   UNL     1       7.616  24.766  13.086  1.00  0.00     0.208 A 
ATOM      3  C   UNL     1       7.719  23.796  12.077  1.00  0.00     0.238 A 
ATOM      4  O   UNL     1       7.065  22.722  12.182  1.00  0.00    -0.285 OA
ATOM      5  C   UNL     1       8.554  24.030  10.966  1.00  0.00     0.111 A 
ATOM      6  C   UNL     1       8.716  23.102   9.910  1.00  0.00     0.134 A 
ATOM      7  C   UNL     1       9.575  23.405   8.843  1.00  0.00     0.093 A 
ATOM      8  C   UNL     1      10.275  24.613   8.812  1.00  0.00     0.123 A 
ATOM      9  C   UNL     1      10.119  25.535   9.853  1.00  0.00     0.094 A 
ATOM     10  C   UNL     1       9.266  25.252  10.924  1.00  0.00     0.146 A 
ATOM     11  O   UNL     1       9.132  26.146  11.897  1.00  0.00    -0.452 OA
ENDROOT
BRANCH   1  12
ATOM     12  C   UNL     1       8.273  27.045  13.963  1.00  0.00     0.029 A 
ATOM     13  C   UNL     1       9.417  27.371  14.706  1.00  0.00     0.062 A 
ATOM     14  C   UNL     1       9.385  28.403  15.654  1.00  0.00     0.162 A 
ATOM     15  C   UNL     1       7.097  27.792  14.155  1.00  0.00     0.062 A 
ATOM     16  C   UNL     1       8.200  29.130  15.855  1.00  0.00     0.200 A 
ATOM     17  C   UNL     1       7.059  28.826  15.101  1.00  0.00     0.162 A 
BRANCH  14  18
ATOM     18  O   UNL     1      10.525  28.706  16.396  1.00  0.00    -0.504 OA
ATOM     19  H   UNL     1      11.420  28.873  15.951  1.00  0.00     0.293 HD
ENDBRANCH  14  18
BRANCH  16  20
ATOM     20  O   UNL     1       8.140  30.159  16.795  1.00  0.00    -0.502 OA
ATOM     21  H   UNL     1       7.373  30.821  16.821  1.00  0.00     0.293 HD
ENDBRANCH  16  20
BRANCH  17  22
ATOM     22  O   UNL     1       5.889  29.560  15.294  1.00  0.00    -0.504 OA
ATOM     23  H   UNL     1       5.524  29.743  16.221  1.00  0.00     0.293 HD
ENDBRANCH  17  22
ENDBRANCH   1  12
BRANCH   2  24
ATOM     24  O   UNL     1       6.833  24.539  14.220  1.00  0.00    -0.502 OA
ATOM     25  H   UNL     1       6.626  25.271  14.890  1.00  0.00     0.293 HD
ENDBRANCH   2  24
BRANCH   6  26
ATOM     26  O   UNL     1       8.033  21.885   9.911  1.00  0.00    -0.507 OA
ATOM     27  H   UNL     1       7.517  21.562   9.102  1.00  0.00     0.293 HD
ENDBRANCH   6  26
BRANCH   8  28
ATOM     28  O   UNL     1      11.122  24.890   7.741  1.00  0.00    -0.508 OA
ATOM     29  H   UNL     1      11.061  24.376   6.871  1.00  0.00     0.293 HD
ENDBRANCH   8  28
TORSDOF 7
ENDMDL
MODEL 2
REMARK VINA RESULT:    -6.062      1.532      2.749
REMARK INTER + INTRA:          -7.738
REMARK INTER:                  -7.694
REMARK INTRA:                  -0.043
REMARK UNBOUND:                -0.258
REMARK SMILES O=c1c(O)c(-c2cc(O)c(O)c(O)c2)oc2cc(O)cc(O)c12
REMARK SMILES IDX 5 1 3 2 2 3 1 4 23 5 21 6 20 7 18 8 17 9 16 10 15 11 6 12
REMARK SMILES IDX 7 13 8 14 14 15 10 16 12 17 9 18 11 20 13 22 4 24 22 26
REMARK SMILES IDX 19 28
REMARK H PARENT 9 19 11 21 13 23 4 25 22 27 19 29
REMARK Flexibility Score: inf
ROOT
ATOM      1  C   UNL     1       7.220  26.337  13.956  1.00  0.00     0.180 A 
ATOM      2  C   UNL     1       6.183  25.510  14.431  1.00  0.00     0.208 A 
ATOM      3  C   UNL     1       5.903  24.315  13.752  1.00  0.00     0.238 A 
ATOM      4  O   UNL     1       4.968  23.573  14.163  1.00  0.00    -0.285 OA
ATOM      5  C   UNL     1       6.671  23.956  12.626  1.00  0.00     0.111 A 
ATOM      6  C   UNL     1       6.455  22.767  11.889  1.00  0.00     0.134 A 
ATOM      7  C   UNL     1       7.271  22.476  10.784  1.00  0.00     0.093 A 
ATOM      8  C   UNL     1       8.294  23.347  10.405  1.00  0.00     0.123 A 
ATOM      9  C   UNL     1       8.512  24.524  11.129  1.00  0.00     0.094 A 
ATOM     10  C   UNL     1       7.709  24.832  12.232  1.00  0.00     0.146 A 
ATOM     11  O   UNL     1       7.934  25.958  12.900  1.00  0.00    -0.452 OA
ENDROOT
BRANCH   1  12
ATOM     12  C   UNL     1       7.564  27.621  14.606  1.00  0.00     0.029 A 
ATOM     13  C   UNL     1       6.556  28.567  14.845  1.00  0.00     0.062 A 
ATOM     14  C   UNL     1       6.850  29.782  15.478  1.00  0.00     0.162 A 
ATOM     15  C   UNL     1       8.873  27.891  15.044  1.00  0.00     0.062 A 
ATOM     16  C   UNL     1       8.165  30.053  15.893  1.00  0.00     0.200 A 
ATOM     17  C   UNL     1       9.173  29.104  15.679  1.00  0.00     0.162 A 
BRANCH  14  18
ATOM     18  O   UNL     1       5.842  30.720  15.696  1.00  0.00    -0.504 OA
ATOM     19  H   UNL     1       4.963  30.464  16.130  1.00  0.00     0.293 HD
ENDBRANCH  14  18
BRANCH  16  20
ATOM     20  O   UNL     1       8.485  31.256  16.524  1.00  0.00    -0.502 OA
ATOM     21  H   UNL     1       8.352  31.395  17.519  1.00  0.00     0.293 HD
ENDBRANCH  16  20
BRANCH  17  22
ATOM     22  O   UNL     1      10.473  29.371  16.106  1.00  0.00    -0.504 OA
ATOM     23  H   UNL     1      10.658  29.956  16.912  1.00  0.00     0.293 HD
ENDBRANCH  17  22
ENDBRANCH   1  12
BRANCH   2  24
ATOM     24  O   UNL     1       5.468  25.865  15.579  1.00  0.00    -0.502 OA
ATOM     25  H   UNL     1       4.749  25.272  15.975  1.00  0.00     0.293 HD
ENDBRANCH   2  24
BRANCH   6  26
ATOM     26  O   UNL     1       5.442  21.875  12.242  1.00  0.00    -0.507 OA
ATOM     27  H   UNL     1       4.465  22.140  12.214  1.00  0.00     0.293 HD
ENDBRANCH   6  26
BRANCH   8  28
ATOM     28  O   UNL     1       9.090  23.034   9.304  1.00  0.00    -0.508 OA
ATOM     29  H   UNL     1       9.706  23.719   8.885  1.00  0.00     0.293 HD
ENDBRANCH   8  28
TORSDOF 7
ENDMDL
MODEL 3
REMARK VINA RESULT:    -6.036      1.496      2.064
REMARK INTER + INTRA:          -7.705
REMARK INTER:                  -7.583
REMARK INTRA:                  -0.122
REMARK UNBOUND:                -0.258
REMARK SMILES O=c1c(O)c(-c2cc(O)c(O)c(O)c2)oc2cc(O)cc(O)c12
REMARK SMILES IDX 5 1 3 2 2 3 1 4 23 5 21 6 20 7 18 8 17 9 16 10 15 11 6 12
REMARK SMILES IDX 7 13 8 14 14 15 10 16 12 17 9 18 11 20 13 22 4 24 22 26
REMARK SMILES IDX 19 28
REMARK H PARENT 9 19 11 21 13 23 4 25 22 27 19 29
REMARK Flexibility Score: inf
ROOT
ATOM      1  C   UNL     1       7.240  26.332  13.956  1.00  0.00     0.180 A 
ATOM      2  C   UNL     1       6.207  25.485  14.403  1.00  0.00     0.208 A 
ATOM      3  C   UNL     1       5.952  24.297  13.701  1.00  0.00     0.238 A 
ATOM      4  O   UNL     1       5.022  23.536  14.086  1.00  0.00    -0.285 OA
ATOM      5  C   UNL     1       6.741  23.965  12.581  1.00  0.00     0.111 A 
ATOM      6  C   UNL     1       6.553  22.785  11.822  1.00  0.00     0.134 A 
ATOM      7  C   UNL     1       7.388  22.522  10.726  1.00  0.00     0.093 A 
ATOM      8  C   UNL     1       8.406  23.412  10.375  1.00  0.00     0.123 A 
ATOM      9  C   UNL     1       8.597  24.580  11.121  1.00  0.00     0.094 A 
ATOM     10  C   UNL     1       7.774  24.861  12.216  1.00  0.00     0.146 A 
ATOM     11  O   UNL     1       7.974  25.979  12.904  1.00  0.00    -0.452 OA
ENDROOT
BRANCH   1  12
ATOM     12  C   UNL     1       7.558  27.610  14.631  1.00  0.00     0.029 A 
ATOM     13  C   UNL     1       8.874  27.865  15.043  1.00  0.00     0.062 A 
ATOM     14  C   UNL     1       9.207  29.076  15.666  1.00  0.00     0.162 A 
ATOM     15  C   UNL     1       6.578  28.601  14.818  1.00  0.00     0.062 A 
ATOM     16  C   UNL     1       8.217  30.053  15.867  1.00  0.00     0.200 A 
ATOM     17  C   UNL     1       6.905  29.815  15.439  1.00  0.00     0.162 A 
BRANCH  14  18
ATOM     18  O   UNL     1      10.515  29.312  16.084  1.00  0.00    -0.504 OA
ATOM     19  H   UNL     1      11.180  29.804  15.498  1.00  0.00     0.293 HD
ENDBRANCH  14  18
BRANCH  16  20
ATOM     20  O   UNL     1       8.521  31.266  16.487  1.00  0.00    -0.502 OA
ATOM     21  H   UNL     1       8.202  31.487  17.424  1.00  0.00     0.293 HD
ENDBRANCH  16  20
BRANCH  17  22
ATOM     22  O   UNL     1       5.929  30.792  15.628  1.00  0.00    -0.504 OA
ATOM     23  H   UNL     1       5.007  30.710  15.216  1.00  0.00     0.293 HD
ENDBRANCH  17  22
ENDBRANCH   1  12
BRANCH   2  24
ATOM     24  O   UNL     1       5.471  25.813  15.544  1.00  0.00    -0.502 OA
ATOM     25  H   UNL     1       5.767  26.534  16.191  1.00  0.00     0.293 HD
ENDBRANCH   2  24
BRANCH   6  26
ATOM     26  O   UNL     1       5.546  21.875  12.146  1.00  0.00    -0.507 OA
ATOM     27  H   UNL     1       4.913  21.509  11.447  1.00  0.00     0.293 HD
ENDBRANCH   6  26
BRANCH   8  28
ATOM     28  O   UNL     1       9.221  23.127   9.282  1.00  0.00    -0.508 OA
ATOM     29  H   UNL     1       9.365  22.178   8.961  1.00  0.00     0.293 HD
ENDBRANCH   8  28
TORSDOF 7
ENDMDL
MODEL 4
REMARK VINA RESULT:    -5.845      3.573      4.080
REMARK INTER + INTRA:          -7.469
REMARK INTER:                  -7.386
REMARK INTRA:                  -0.083
REMARK UNBOUND:                -0.258
REMARK SMILES O=c1c(O)c(-c2cc(O)c(O)c(O)c2)oc2cc(O)cc(O)c12
REMARK SMILES IDX 5 1 3 2 2 3 1 4 23 5 21 6 20 7 18 8 17 9 16 10 15 11 6 12
REMARK SMILES IDX 7 13 8 14 14 15 10 16 12 17 9 18 11 20 13 22 4 24 22 26
REMARK SMILES IDX 19 28
REMARK H PARENT 9 19 11 21 13 23 4 25 22 27 19 29
REMARK Flexibility Score: inf
ROOT
ATOM      1  C   UNL     1       6.730  26.724  14.376  1.00  0.00     0.180 A 
ATOM      2  C   UNL     1       6.905  25.466  14.985  1.00  0.00     0.208 A 
ATOM      3  C   UNL     1       6.275  24.346  14.421  1.00  0.00     0.238 A 
ATOM      4  O   UNL     1       6.416  23.216  14.965  1.00  0.00    -0.285 OA
ATOM      5  C   UNL     1       5.500  24.496  13.253  1.00  0.00     0.111 A 
ATOM      6  C   UNL     1       4.836  23.418  12.620  1.00  0.00     0.134 A 
ATOM      7  C   UNL     1       4.092  23.648  11.453  1.00  0.00     0.093 A 
ATOM      8  C   UNL     1       3.999  24.930  10.908  1.00  0.00     0.123 A 
ATOM      9  C   UNL     1       4.652  26.000  11.529  1.00  0.00     0.094 A 
ATOM     10  C   UNL     1       5.398  25.792  12.694  1.00  0.00     0.146 A 
ATOM     11  O   UNL     1       6.004  26.825  13.267  1.00  0.00    -0.452 OA
ENDROOT
BRANCH   1  12
ATOM     12  C   UNL     1       7.346  27.955  14.921  1.00  0.00     0.029 A 
ATOM     13  C   UNL     1       6.529  29.040  15.272  1.00  0.00     0.062 A 
ATOM     14  C   UNL     1       7.084  30.209  15.810  1.00  0.00     0.162 A 
ATOM     15  C   UNL     1       8.731  28.040  15.149  1.00  0.00     0.062 A 
ATOM     16  C   UNL     1       8.472  30.293  16.015  1.00  0.00     0.200 A 
ATOM     17  C   UNL     1       9.292  29.206  15.688  1.00  0.00     0.162 A 
BRANCH  14  18
ATOM     18  O   UNL     1       6.263  31.286  16.141  1.00  0.00    -0.504 OA
ATOM     19  H   UNL     1       6.647  32.171  16.450  1.00  0.00     0.293 HD
ENDBRANCH  14  18
BRANCH  16  20
ATOM     20  O   UNL     1       9.050  31.447  16.546  1.00  0.00    -0.502 OA
ATOM     21  H   UNL     1       9.633  32.062  15.990  1.00  0.00     0.293 HD
ENDBRANCH  16  20
BRANCH  17  22
ATOM     22  O   UNL     1      10.666  29.289  15.907  1.00  0.00    -0.504 OA
ATOM     23  H   UNL     1      11.046  29.571  16.803  1.00  0.00     0.293 HD
ENDBRANCH  17  22
ENDBRANCH   1  12
BRANCH   2  24
ATOM     24  O   UNL     1       7.717  25.336  16.115  1.00  0.00    -0.502 OA
ATOM     25  H   UNL     1       8.381  26.052  16.390  1.00  0.00     0.293 HD
ENDBRANCH   2  24
BRANCH   6  26
ATOM     26  O   UNL     1       4.910  22.125  13.138  1.00  0.00    -0.507 OA
ATOM     27  H   UNL     1       4.859  21.945  14.134  1.00  0.00     0.293 HD
ENDBRANCH   6  26
BRANCH   8  28
ATOM     28  O   UNL     1       3.253  25.132   9.748  1.00  0.00    -0.508 OA
ATOM     29  H   UNL     1       2.255  25.299   9.783  1.00  0.00     0.293 HD
ENDBRANCH   8  28
TORSDOF 7
ENDMDL
MODEL 5
REMARK VINA RESULT:    -5.824      2.024      4.275
REMARK INTER + INTRA:          -7.444
REMARK INTER:                  -7.354
REMARK INTRA:                  -0.090
REMARK UNBOUND:                -0.258
REMARK SMILES O=c1c(O)c(-c2cc(O)c(O)c(O)c2)oc2cc(O)cc(O)c12
REMARK SMILES IDX 5 1 3 2 2 3 1 4 23 5 21 6 20 7 18 8 17 9 16 10 15 11 6 12
REMARK SMILES IDX 7 13 8 14 14 15 10 16 12 17 9 18 11 20 13 22 4 24 22 26
REMARK SMILES IDX 19 28
REMARK H PARENT 9 19 11 21 13 23 4 25 22 27 19 29
REMARK Flexibility Score: inf
ROOT
ATOM      1  C   UNL     1       7.163  26.079  13.741  1.00  0.00     0.180 A 
ATOM      2  C   UNL     1       7.944  25.588  12.676  1.00  0.00     0.208 A 
ATOM      3  C   UNL     1       7.559  24.394  12.047  1.00  0.00     0.238 A 
ATOM      4  O   UNL     1       8.257  23.940  11.099  1.00  0.00    -0.285 OA
ATOM      5  C   UNL     1       6.396  23.723  12.476  1.00  0.00     0.111 A 
ATOM      6  C   UNL     1       5.937  22.518  11.892  1.00  0.00     0.134 A 
ATOM      7  C   UNL     1       4.763  21.916  12.371  1.00  0.00     0.093 A 
ATOM      8  C   UNL     1       4.041  22.494  13.417  1.00  0.00     0.123 A 
ATOM      9  C   UNL     1       4.490  23.685  13.998  1.00  0.00     0.094 A 
ATOM     10  C   UNL     1       5.658  24.299  13.537  1.00  0.00     0.146 A 
ATOM     11  O   UNL     1       6.064  25.427  14.109  1.00  0.00    -0.452 OA
ENDROOT
BRANCH   1  12
ATOM     12  C   UNL     1       7.514  27.320  14.467  1.00  0.00     0.029 A 
ATOM     13  C   UNL     1       6.537  28.311  14.653  1.00  0.00     0.062 A 
ATOM     14  C   UNL     1       6.837  29.487  15.355  1.00  0.00     0.162 A 
ATOM     15  C   UNL     1       8.790  27.505  15.025  1.00  0.00     0.062 A 
ATOM     16  C   UNL     1       8.122  29.672  15.892  1.00  0.00     0.200 A 
ATOM     17  C   UNL     1       9.095  28.678  15.730  1.00  0.00     0.162 A 
BRANCH  14  18
ATOM     18  O   UNL     1       5.862  30.470  15.520  1.00  0.00    -0.504 OA
ATOM     19  H   UNL     1       5.303  30.800  14.742  1.00  0.00     0.293 HD
ENDBRANCH  14  18
BRANCH  16  20
ATOM     20  O   UNL     1       8.446  30.835  16.592  1.00  0.00    -0.502 OA
ATOM     21  H   UNL     1       8.919  31.615  16.151  1.00  0.00     0.293 HD
ENDBRANCH  16  20
BRANCH  17  22
ATOM     22  O   UNL     1      10.364  28.860  16.277  1.00  0.00    -0.504 OA
ATOM     23  H   UNL     1      10.491  29.173  17.232  1.00  0.00     0.293 HD
ENDBRANCH  17  22
ENDBRANCH   1  12
BRANCH   2  24
ATOM     24  O   UNL     1       9.065  26.298  12.238  1.00  0.00    -0.502 OA
ATOM     25  H   UNL     1       9.348  26.317  11.265  1.00  0.00     0.293 HD
ENDBRANCH   2  24
BRANCH   6  26
ATOM     26  O   UNL     1       6.635  21.915  10.845  1.00  0.00    -0.507 OA
ATOM     27  H   UNL     1       6.831  20.922  10.837  1.00  0.00     0.293 HD
ENDBRANCH   6  26
BRANCH   8  28
ATOM     28  O   UNL     1       2.879  21.876  13.873  1.00  0.00    -0.508 OA
ATOM     29  H   UNL     1       2.909  21.000  14.380  1.00  0.00     0.293 HD
ENDBRANCH   8  28
TORSDOF 7
ENDMDL
MODEL 6
REMARK VINA RESULT:    -5.760     21.376     22.812
REMARK INTER + INTRA:          -7.364
REMARK INTER:                  -7.053
REMARK INTRA:                  -0.311
REMARK UNBOUND:                -0.258
REMARK SMILES O=c1c(O)c(-c2cc(O)c(O)c(O)c2)oc2cc(O)cc(O)c12
REMARK SMILES IDX 5 1 3 2 2 3 1 4 23 5 21 6 20 7 18 8 17 9 16 10 15 11 6 12
REMARK SMILES IDX 7 13 8 14 14 15 10 16 12 17 9 18 11 20 13 22 4 24 22 26
REMARK SMILES IDX 19 28
REMARK H PARENT 9 19 11 21 13 23 4 25 22 27 19 29
REMARK Flexibility Score: inf
ROOT
ATOM      1  C   UNL     1      -3.888  38.939  -0.089  1.00  0.00     0.180 A 
ATOM      2  C   UNL     1      -3.402  39.077   1.226  1.00  0.00     0.208 A 
ATOM      3  C   UNL     1      -2.221  39.804   1.440  1.00  0.00     0.238 A 
ATOM      4  O   UNL     1      -1.771  39.924   2.612  1.00  0.00    -0.285 OA
ATOM      5  C   UNL     1      -1.557  40.395   0.345  1.00  0.00     0.111 A 
ATOM      6  C   UNL     1      -0.365  41.146   0.476  1.00  0.00     0.134 A 
ATOM      7  C   UNL     1       0.229  41.711  -0.663  1.00  0.00     0.093 A 
ATOM      8  C   UNL     1      -0.344  41.542  -1.925  1.00  0.00     0.123 A 
ATOM      9  C   UNL     1      -1.522  40.799  -2.061  1.00  0.00     0.094 A 
ATOM     10  C   UNL     1      -2.129  40.227  -0.939  1.00  0.00     0.146 A 
ATOM     11  O   UNL     1      -3.244  39.523  -1.095  1.00  0.00    -0.452 OA
ENDROOT
BRANCH   1  12
ATOM     12  C   UNL     1      -5.116  38.173  -0.398  1.00  0.00     0.029 A 
ATOM     13  C   UNL     1      -5.008  36.865  -0.895  1.00  0.00     0.062 A 
ATOM     14  C   UNL     1      -6.155  36.109  -1.175  1.00  0.00     0.162 A 
ATOM     15  C   UNL     1      -6.393  38.707  -0.151  1.00  0.00     0.062 A 
ATOM     16  C   UNL     1      -7.427  36.659  -0.944  1.00  0.00     0.200 A 
ATOM     17  C   UNL     1      -7.543  37.956  -0.428  1.00  0.00     0.162 A 
BRANCH  14  18
ATOM     18  O   UNL     1      -6.034  34.817  -1.682  1.00  0.00    -0.504 OA
ATOM     19  H   UNL     1      -6.345  34.008  -1.155  1.00  0.00     0.293 HD
ENDBRANCH  14  18
BRANCH  16  20
ATOM     20  O   UNL     1      -8.585  35.929  -1.218  1.00  0.00    -0.502 OA
ATOM     21  H   UNL     1      -8.572  34.921  -1.328  1.00  0.00     0.293 HD
ENDBRANCH  16  20
BRANCH  17  22
ATOM     22  O   UNL     1      -8.808  38.491  -0.187  1.00  0.00    -0.504 OA
ATOM     23  H   UNL     1      -8.972  39.147   0.568  1.00  0.00     0.293 HD
ENDBRANCH  17  22
ENDBRANCH   1  12
BRANCH   2  24
ATOM     24  O   UNL     1      -4.105  38.522   2.299  1.00  0.00    -0.502 OA
ATOM     25  H   UNL     1      -3.705  37.809   2.898  1.00  0.00     0.293 HD
ENDBRANCH   2  24
BRANCH   6  26
ATOM     26  O   UNL     1       0.232  41.336   1.723  1.00  0.00    -0.507 OA
ATOM     27  H   UNL     1       0.836  40.637   2.136  1.00  0.00     0.293 HD
ENDBRANCH   6  26
BRANCH   8  28
ATOM     28  O   UNL     1       0.267  42.113  -3.039  1.00  0.00    -0.508 OA
ATOM     29  H   UNL     1      -0.178  42.104  -3.949  1.00  0.00     0.293 HD
ENDBRANCH   8  28
TORSDOF 7
ENDMDL
MODEL 7
REMARK VINA RESULT:    -5.713     21.410     22.884
REMARK INTER + INTRA:          -7.306
REMARK INTER:                  -6.978
REMARK INTRA:                  -0.328
REMARK UNBOUND:                -0.258
REMARK SMILES O=c1c(O)c(-c2cc(O)c(O)c(O)c2)oc2cc(O)cc(O)c12
REMARK SMILES IDX 5 1 3 2 2 3 1 4 23 5 21 6 20 7 18 8 17 9 16 10 15 11 6 12
REMARK SMILES IDX 7 13 8 14 14 15 10 16 12 17 9 18 11 20 13 22 4 24 22 26
REMARK SMILES IDX 19 28
REMARK H PARENT 9 19 11 21 13 23 4 25 22 27 19 29
REMARK Flexibility Score: inf
ROOT
ATOM      1  C   UNL     1      -3.874  38.923  -0.098  1.00  0.00     0.180 A 
ATOM      2  C   UNL     1      -3.385  39.058   1.217  1.00  0.00     0.208 A 
ATOM      3  C   UNL     1      -2.206  39.788   1.430  1.00  0.00     0.238 A 
ATOM      4  O   UNL     1      -1.753  39.906   2.602  1.00  0.00    -0.285 OA
ATOM      5  C   UNL     1      -1.548  40.386   0.336  1.00  0.00     0.111 A 
ATOM      6  C   UNL     1      -0.358  41.142   0.466  1.00  0.00     0.134 A 
ATOM      7  C   UNL     1       0.230  41.714  -0.672  1.00  0.00     0.093 A 
ATOM      8  C   UNL     1      -0.345  41.547  -1.933  1.00  0.00     0.123 A 
ATOM      9  C   UNL     1      -1.521  40.800  -2.068  1.00  0.00     0.094 A 
ATOM     10  C   UNL     1      -2.122  40.221  -0.947  1.00  0.00     0.146 A 
ATOM     11  O   UNL     1      -3.236  39.514  -1.103  1.00  0.00    -0.452 OA
ENDROOT
BRANCH   1  12
ATOM     12  C   UNL     1      -5.100  38.153  -0.406  1.00  0.00     0.029 A 
ATOM     13  C   UNL     1      -6.356  38.750  -0.220  1.00  0.00     0.062 A 
ATOM     14  C   UNL     1      -7.533  38.051  -0.524  1.00  0.00     0.162 A 
ATOM     15  C   UNL     1      -5.033  36.854  -0.938  1.00  0.00     0.062 A 
ATOM     16  C   UNL     1      -7.456  36.745  -1.035  1.00  0.00     0.200 A 
ATOM     17  C   UNL     1      -6.206  36.150  -1.246  1.00  0.00     0.162 A 
BRANCH  14  18
ATOM     18  O   UNL     1      -8.775  38.650  -0.321  1.00  0.00    -0.504 OA
ATOM     19  H   UNL     1      -8.998  39.129   0.544  1.00  0.00     0.293 HD
ENDBRANCH  14  18
BRANCH  16  20
ATOM     20  O   UNL     1      -8.612  36.026  -1.344  1.00  0.00    -0.502 OA
ATOM     21  H   UNL     1      -8.626  35.309  -2.060  1.00  0.00     0.293 HD
ENDBRANCH  16  20
BRANCH  17  22
ATOM     22  O   UNL     1      -6.135  34.859  -1.767  1.00  0.00    -0.504 OA
ATOM     23  H   UNL     1      -5.484  34.619  -2.505  1.00  0.00     0.293 HD
ENDBRANCH  17  22
ENDBRANCH   1  12
BRANCH   2  24
ATOM     24  O   UNL     1      -4.083  38.496   2.289  1.00  0.00    -0.502 OA
ATOM     25  H   UNL     1      -4.896  37.906   2.157  1.00  0.00     0.293 HD
ENDBRANCH   2  24
BRANCH   6  26
ATOM     26  O   UNL     1       0.242  41.329   1.712  1.00  0.00    -0.507 OA
ATOM     27  H   UNL     1       0.700  42.198   1.958  1.00  0.00     0.293 HD
ENDBRANCH   6  26
BRANCH   8  28
ATOM     28  O   UNL     1       0.260  42.125  -3.047  1.00  0.00    -0.508 OA
ATOM     29  H   UNL     1      -0.189  42.869  -3.566  1.00  0.00     0.293 HD
ENDBRANCH   8  28
TORSDOF 7
ENDMDL
MODEL 8
REMARK VINA RESULT:    -5.460      3.257      7.051
REMARK INTER + INTRA:          -6.995
REMARK INTER:                  -6.784
REMARK INTRA:                  -0.211
REMARK UNBOUND:                -0.258
REMARK SMILES O=c1c(O)c(-c2cc(O)c(O)c(O)c2)oc2cc(O)cc(O)c12
REMARK SMILES IDX 5 1 3 2 2 3 1 4 23 5 21 6 20 7 18 8 17 9 16 10 15 11 6 12
REMARK SMILES IDX 7 13 8 14 14 15 10 16 12 17 9 18 11 20 13 22 4 24 22 26
REMARK SMILES IDX 19 28
REMARK H PARENT 9 19 11 21 13 23 4 25 22 27 19 29
REMARK Flexibility Score: inf
ROOT
ATOM      1  C   UNL     1       6.803  26.074  13.931  1.00  0.00     0.180 A 
ATOM      2  C   UNL     1       8.161  25.748  14.116  1.00  0.00     0.208 A 
ATOM      3  C   UNL     1       9.014  26.699  14.697  1.00  0.00     0.238 A 
ATOM      4  O   UNL     1      10.234  26.422  14.857  1.00  0.00    -0.285 OA
ATOM      5  C   UNL     1       8.496  27.947  15.100  1.00  0.00     0.111 A 
ATOM      6  C   UNL     1       9.287  28.958  15.696  1.00  0.00     0.134 A 
ATOM      7  C   UNL     1       8.693  30.170  16.079  1.00  0.00     0.093 A 
ATOM      8  C   UNL     1       7.329  30.391  15.878  1.00  0.00     0.123 A 
ATOM      9  C   UNL     1       6.542  29.396  15.289  1.00  0.00     0.094 A 
ATOM     10  C   UNL     1       7.115  28.181  14.899  1.00  0.00     0.146 A 
ATOM     11  O   UNL     1       6.346  27.255  14.337  1.00  0.00    -0.452 OA
ENDROOT
BRANCH   1  12
ATOM     12  C   UNL     1       5.845  25.132  13.309  1.00  0.00     0.029 A 
ATOM     13  C   UNL     1       5.492  23.957  13.989  1.00  0.00     0.062 A 
ATOM     14  C   UNL     1       4.571  23.058  13.433  1.00  0.00     0.162 A 
ATOM     15  C   UNL     1       5.237  25.417  12.075  1.00  0.00     0.062 A 
ATOM     16  C   UNL     1       3.983  23.341  12.188  1.00  0.00     0.200 A 
ATOM     17  C   UNL     1       4.314  24.523  11.514  1.00  0.00     0.162 A 
BRANCH  14  18
ATOM     18  O   UNL     1       4.239  21.887  14.112  1.00  0.00    -0.504 OA
ATOM     19  H   UNL     1       4.949  21.278  14.500  1.00  0.00     0.293 HD
ENDBRANCH  14  18
BRANCH  16  20
ATOM     20  O   UNL     1       3.066  22.462  11.611  1.00  0.00    -0.502 OA
ATOM     21  H   UNL     1       3.341  21.777  10.917  1.00  0.00     0.293 HD
ENDBRANCH  16  20
BRANCH  17  22
ATOM     22  O   UNL     1       3.718  24.807  10.286  1.00  0.00    -0.504 OA
ATOM     23  H   UNL     1       2.801  24.448  10.045  1.00  0.00     0.293 HD
ENDBRANCH  17  22
ENDBRANCH   1  12
BRANCH   2  24
ATOM     24  O   UNL     1       8.639  24.486  13.753  1.00  0.00    -0.502 OA
ATOM     25  H   UNL     1       8.855  24.244  12.792  1.00  0.00     0.293 HD
ENDBRANCH   2  24
BRANCH   6  26
ATOM     26  O   UNL     1      10.652  28.769  15.912  1.00  0.00    -0.507 OA
ATOM     27  H   UNL     1      11.038  27.856  16.119  1.00  0.00     0.293 HD
ENDBRANCH   6  26
BRANCH   8  28
ATOM     28  O   UNL     1       6.764  31.604  16.267  1.00  0.00    -0.508 OA
ATOM     29  H   UNL     1       7.071  32.088  17.102  1.00  0.00     0.293 HD
ENDBRANCH   8  28
TORSDOF 7
ENDMDL
MODEL 9
REMARK VINA RESULT:    -5.147     21.277     22.513
REMARK INTER + INTRA:          -6.608
REMARK INTER:                  -6.491
REMARK INTRA:                  -0.117
REMARK UNBOUND:                -0.258
REMARK SMILES O=c1c(O)c(-c2cc(O)c(O)c(O)c2)oc2cc(O)cc(O)c12
REMARK SMILES IDX 5 1 3 2 2 3 1 4 23 5 21 6 20 7 18 8 17 9 16 10 15 11 6 12
REMARK SMILES IDX 7 13 8 14 14 15 10 16 12 17 9 18 11 20 13 22 4 24 22 26
REMARK SMILES IDX 19 28
REMARK H PARENT 9 19 11 21 13 23 4 25 22 27 19 29
REMARK Flexibility Score: inf
ROOT
ATOM      1  C   UNL     1      -4.335  38.924   0.209  1.00  0.00     0.180 A 
ATOM      2  C   UNL     1      -5.261  39.220   1.229  1.00  0.00     0.208 A 
ATOM      3  C   UNL     1      -6.372  38.380   1.400  1.00  0.00     0.238 A 
ATOM      4  O   UNL     1      -7.213  38.642   2.304  1.00  0.00    -0.285 OA
ATOM      5  C   UNL     1      -6.531  37.253   0.568  1.00  0.00     0.111 A 
ATOM      6  C   UNL     1      -7.619  36.355   0.679  1.00  0.00     0.134 A 
ATOM      7  C   UNL     1      -7.699  35.250  -0.183  1.00  0.00     0.093 A 
ATOM      8  C   UNL     1      -6.716  35.026  -1.148  1.00  0.00     0.123 A 
ATOM      9  C   UNL     1      -5.638  35.910  -1.262  1.00  0.00     0.094 A 
ATOM     10  C   UNL     1      -5.540  37.018  -0.415  1.00  0.00     0.146 A 
ATOM     11  O   UNL     1      -4.509  37.844  -0.548  1.00  0.00    -0.452 OA
ENDROOT
BRANCH   1  12
ATOM     12  C   UNL     1      -3.149  39.771  -0.047  1.00  0.00     0.029 A 
ATOM     13  C   UNL     1      -2.199  39.955   0.969  1.00  0.00     0.062 A 
ATOM     14  C   UNL     1      -1.056  40.735   0.747  1.00  0.00     0.162 A 
ATOM     15  C   UNL     1      -2.923  40.351  -1.308  1.00  0.00     0.062 A 
ATOM     16  C   UNL     1      -0.848  41.328  -0.510  1.00  0.00     0.200 A 
ATOM     17  C   UNL     1      -1.780  41.131  -1.537  1.00  0.00     0.162 A 
BRANCH  14  18
ATOM     18  O   UNL     1      -0.127  40.922   1.769  1.00  0.00    -0.504 OA
ATOM     19  H   UNL     1       0.610  41.614   1.697  1.00  0.00     0.293 HD
ENDBRANCH  14  18
BRANCH  16  20
ATOM     20  O   UNL     1       0.280  42.111  -0.756  1.00  0.00    -0.502 OA
ATOM     21  H   UNL     1       1.160  41.953  -0.279  1.00  0.00     0.293 HD
ENDBRANCH  16  20
BRANCH  17  22
ATOM     22  O   UNL     1      -1.563  41.710  -2.786  1.00  0.00    -0.504 OA
ATOM     23  H   UNL     1      -2.008  42.580  -3.053  1.00  0.00     0.293 HD
ENDBRANCH  17  22
ENDBRANCH   1  12
BRANCH   2  24
ATOM     24  O   UNL     1      -5.055  40.315   2.072  1.00  0.00    -0.502 OA
ATOM     25  H   UNL     1      -5.495  40.388   2.982  1.00  0.00     0.293 HD
ENDBRANCH   2  24
BRANCH   6  26
ATOM     26  O   UNL     1      -8.618  36.551   1.633  1.00  0.00    -0.507 OA
ATOM     27  H   UNL     1      -8.862  37.474   1.968  1.00  0.00     0.293 HD
ENDBRANCH   6  26
BRANCH   8  28
ATOM     28  O   UNL     1      -6.819  33.921  -1.990  1.00  0.00    -0.508 OA
ATOM     29  H   UNL     1      -6.046  33.625  -2.573  1.00  0.00     0.293 HD
ENDBRANCH   8  28
TORSDOF 7
ENDMDL
