MODEL 1
REMARK VINA RESULT:    -7.590      0.000      0.000
REMARK INTER + INTRA:         -11.085
REMARK INTER:                 -11.139
REMARK INTRA:                   0.054
REMARK UNBOUND:                 0.054
REMARK SMILES O=c1c(O[C@@H]2O[C@H](CO)[C@@H](O)[C@H](O)[C@@H]2O)c(-c2ccc(O)c(O)c2)oc2cc(O)cc(O)c12
REMARK SMILES IDX 4 1 3 2 16 3 25 4 2 5 26 6 1 7 33 8 27 9 31 10 28 11 30 12
REMARK SMILES IDX 17 13 18 14 19 15 20 16 24 17 22 18 21 19 23 21 32 23 29 25
REMARK SMILES IDX 5 27 14 28 6 29 12 30 7 31 10 32 15 33 13 35 8 37 9 38 11 40
REMARK H PARENT 21 20 23 22 32 24 29 26 15 34 13 36 9 39 11 41
REMARK Flexibility Score: inf
ROOT
ATOM      1  O   UNL     1      60.374 151.429   5.951  1.00  0.00    -0.454 OA
ENDROOT
BRANCH   1   2
ATOM      2  C   UNL     1      60.551 151.999   4.670  1.00  0.00     0.214 A 
ATOM      3  C   UNL     1      61.695 151.667   3.921  1.00  0.00     0.180 A 
ATOM      4  O   UNL     1      61.822 152.085   2.669  1.00  0.00    -0.452 OA
ATOM      5  C   UNL     1      59.594 152.854   4.082  1.00  0.00     0.239 A 
ATOM      6  C   UNL     1      60.948 152.884   2.076  1.00  0.00     0.146 A 
ATOM      7  O   UNL     1      58.530 153.111   4.698  1.00  0.00    -0.285 OA
ATOM      8  C   UNL     1      59.812 153.363   2.778  1.00  0.00     0.111 A 
ATOM      9  C   UNL     1      61.168 153.256   0.746  1.00  0.00     0.094 A 
ATOM     10  C   UNL     1      58.945 154.282   2.119  1.00  0.00     0.134 A 
ATOM     11  C   UNL     1      60.282 154.106   0.092  1.00  0.00     0.123 A 
ATOM     12  C   UNL     1      59.173 154.611   0.777  1.00  0.00     0.093 A 
BRANCH   3  13
ATOM     13  C   UNL     1      62.799 150.896   4.502  1.00  0.00     0.025 A 
ATOM     14  C   UNL     1      64.064 151.483   4.626  1.00  0.00     0.016 A 
ATOM     15  C   UNL     1      65.151 150.737   5.097  1.00  0.00     0.051 A 
ATOM     16  C   UNL     1      64.970 149.399   5.467  1.00  0.00     0.157 A 
ATOM     17  C   UNL     1      62.623 149.550   4.856  1.00  0.00     0.062 A 
ATOM     18  C   UNL     1      63.692 148.815   5.384  1.00  0.00     0.158 A 
BRANCH  16  19
ATOM     19  O   UNL     1      66.050 148.640   5.898  1.00  0.00    -0.504 OA
ATOM     20  H   UNL     1      65.950 147.791   6.447  1.00  0.00     0.293 HD
ENDBRANCH  16  19
BRANCH  18  21
ATOM     21  O   UNL     1      63.465 147.520   5.840  1.00  0.00    -0.504 OA
ATOM     22  H   UNL     1      64.204 146.973   6.257  1.00  0.00     0.293 HD
ENDBRANCH  18  21
ENDBRANCH   3  13
BRANCH  10  23
ATOM     23  O   UNL     1      57.875 154.913   2.755  1.00  0.00    -0.507 OA
ATOM     24  H   UNL     1      57.281 154.432   3.413  1.00  0.00     0.293 HD
ENDBRANCH  10  23
BRANCH  11  25
ATOM     25  O   UNL     1      60.523 154.455  -1.234  1.00  0.00    -0.508 OA
ATOM     26  H   UNL     1      60.152 153.905  -2.002  1.00  0.00     0.293 HD
ENDBRANCH  11  25
ENDBRANCH   1   2
BRANCH   1  27
ATOM     27  C   UNL     1      59.226 150.671   6.360  1.00  0.00     0.339 C 
ATOM     28  C   UNL     1      59.551 149.165   6.606  1.00  0.00     0.214 C 
ATOM     29  O   UNL     1      58.549 151.330   7.424  1.00  0.00    -0.332 OA
ATOM     30  C   UNL     1      60.006 148.826   8.032  1.00  0.00     0.180 C 
ATOM     31  C   UNL     1      59.053 151.078   8.732  1.00  0.00     0.179 C 
ATOM     32  C   UNL     1      59.181 149.581   9.076  1.00  0.00     0.177 C 
BRANCH  28  33
ATOM     33  O   UNL     1      60.537 148.721   5.711  1.00  0.00    -0.384 OA
ATOM     34  H   UNL     1      60.633 149.414   5.006  1.00  0.00     0.211 HD
ENDBRANCH  28  33
BRANCH  30  35
ATOM     35  O   UNL     1      61.378 149.073   8.192  1.00  0.00    -0.387 OA
ATOM     36  H   UNL     1      61.844 148.208   8.053  1.00  0.00     0.211 HD
ENDBRANCH  30  35
BRANCH  31  37
ATOM     37  C   UNL     1      60.259 151.963   9.116  1.00  0.00     0.191 C 
BRANCH  37  38
ATOM     38  O   UNL     1      60.275 153.171   8.409  1.00  0.00    -0.394 OA
ATOM     39  H   UNL     1      59.352 153.329   8.091  1.00  0.00     0.210 HD
ENDBRANCH  37  38
ENDBRANCH  31  37
BRANCH  32  40
ATOM     40  O   UNL     1      57.883 149.027   9.124  1.00  0.00    -0.387 OA
ATOM     41  H   UNL     1      57.921 148.145   8.658  1.00  0.00     0.211 HD
ENDBRANCH  32  40
ENDBRANCH   1  27
TORSDOF 12
ENDMDL
MODEL 2
REMARK VINA RESULT:    -6.364      1.299      1.806
REMARK INTER + INTRA:          -9.286
REMARK INTER:                 -10.375
REMARK INTRA:                   1.089
REMARK UNBOUND:                 0.054
REMARK SMILES O=c1c(O[C@@H]2O[C@H](CO)[C@@H](O)[C@H](O)[C@@H]2O)c(-c2ccc(O)c(O)c2)oc2cc(O)cc(O)c12
REMARK SMILES IDX 4 1 3 2 16 3 25 4 2 5 26 6 1 7 33 8 27 9 31 10 28 11 30 12
REMARK SMILES IDX 17 13 18 14 19 15 20 16 24 17 22 18 21 19 23 21 32 23 29 25
REMARK SMILES IDX 5 27 14 28 6 29 12 30 7 31 10 32 15 33 13 35 8 37 9 38 11 40
REMARK H PARENT 21 20 23 22 32 24 29 26 15 34 13 36 9 39 11 41
REMARK Flexibility Score: inf
ROOT
ATOM      1  O   UNL     1      60.062 151.578   5.448  1.00  0.00    -0.454 OA
ENDROOT
BRANCH   1   2
ATOM      2  C   UNL     1      60.365 152.152   4.193  1.00  0.00     0.214 A 
ATOM      3  C   UNL     1      61.581 151.830   3.562  1.00  0.00     0.180 A 
ATOM      4  O   UNL     1      61.832 152.252   2.330  1.00  0.00    -0.452 OA
ATOM      5  C   UNL     1      59.466 153.001   3.511  1.00  0.00     0.239 A 
ATOM      6  C   UNL     1      61.016 153.045   1.653  1.00  0.00     0.146 A 
ATOM      7  O   UNL     1      58.343 153.249   4.016  1.00  0.00    -0.285 OA
ATOM      8  C   UNL     1      59.812 153.514   2.237  1.00  0.00     0.111 A 
ATOM      9  C   UNL     1      61.368 153.421   0.353  1.00  0.00     0.094 A 
ATOM     10  C   UNL     1      59.009 154.428   1.494  1.00  0.00     0.134 A 
ATOM     11  C   UNL     1      60.547 154.266  -0.387  1.00  0.00     0.123 A 
ATOM     12  C   UNL     1      59.370 154.761   0.183  1.00  0.00     0.093 A 
BRANCH   3  13
ATOM     13  C   UNL     1      62.627 151.065   4.252  1.00  0.00     0.025 A 
ATOM     14  C   UNL     1      63.881 151.648   4.470  1.00  0.00     0.016 A 
ATOM     15  C   UNL     1      64.918 150.906   5.048  1.00  0.00     0.051 A 
ATOM     16  C   UNL     1      64.696 149.578   5.431  1.00  0.00     0.157 A 
ATOM     17  C   UNL     1      62.411 149.729   4.619  1.00  0.00     0.062 A 
ATOM     18  C   UNL     1      63.426 149.000   5.252  1.00  0.00     0.158 A 
BRANCH  16  19
ATOM     19  O   UNL     1      65.731 148.823   5.968  1.00  0.00    -0.504 OA
ATOM     20  H   UNL     1      66.480 149.222   6.524  1.00  0.00     0.293 HD
ENDBRANCH  16  19
BRANCH  18  21
ATOM     21  O   UNL     1      63.151 147.717   5.715  1.00  0.00    -0.504 OA
ATOM     22  H   UNL     1      62.815 146.995   5.094  1.00  0.00     0.293 HD
ENDBRANCH  18  21
ENDBRANCH   3  13
BRANCH  10  23
ATOM     23  O   UNL     1      57.876 155.050   2.018  1.00  0.00    -0.507 OA
ATOM     24  H   UNL     1      57.523 154.838   2.940  1.00  0.00     0.293 HD
ENDBRANCH  10  23
BRANCH  11  25
ATOM     25  O   UNL     1      60.918 154.620  -1.681  1.00  0.00    -0.508 OA
ATOM     26  H   UNL     1      61.063 153.919  -2.400  1.00  0.00     0.293 HD
ENDBRANCH  11  25
ENDBRANCH   1   2
BRANCH   1  27
ATOM     27  C   UNL     1      58.904 151.889   6.235  1.00  0.00     0.339 C 
ATOM     28  C   UNL     1      58.884 151.144   7.606  1.00  0.00     0.214 C 
ATOM     29  O   UNL     1      58.713 153.297   6.303  1.00  0.00    -0.332 OA
ATOM     30  C   UNL     1      59.587 151.883   8.753  1.00  0.00     0.180 C 
ATOM     31  C   UNL     1      59.453 153.975   7.313  1.00  0.00     0.179 C 
ATOM     32  C   UNL     1      59.278 153.381   8.724  1.00  0.00     0.177 C 
BRANCH  28  33
ATOM     33  O   UNL     1      59.461 149.870   7.482  1.00  0.00    -0.384 OA
ATOM     34  H   UNL     1      58.777 149.205   7.758  1.00  0.00     0.211 HD
ENDBRANCH  28  33
BRANCH  30  35
ATOM     35  O   UNL     1      60.970 151.649   8.726  1.00  0.00    -0.387 OA
ATOM     36  H   UNL     1      61.412 152.538   8.739  1.00  0.00     0.211 HD
ENDBRANCH  30  35
BRANCH  31  37
ATOM     37  C   UNL     1      60.902 154.317   6.901  1.00  0.00     0.191 C 
BRANCH  37  38
ATOM     38  O   UNL     1      61.036 155.650   6.495  1.00  0.00    -0.394 OA
ATOM     39  H   UNL     1      61.365 155.634   5.563  1.00  0.00     0.210 HD
ENDBRANCH  37  38
ENDBRANCH  31  37
BRANCH  32  40
ATOM     40  O   UNL     1      57.939 153.582   9.124  1.00  0.00    -0.387 OA
ATOM     41  H   UNL     1      57.362 153.064   8.495  1.00  0.00     0.211 HD
ENDBRANCH  32  40
ENDBRANCH   1  27
TORSDOF 12
ENDMDL
MODEL 3
REMARK VINA RESULT:    -6.009      2.172      6.356
REMARK INTER + INTRA:          -8.765
REMARK INTER:                  -9.931
REMARK INTRA:                   1.166
REMARK UNBOUND:                 0.054
REMARK SMILES O=c1c(O[C@@H]2O[C@H](CO)[C@@H](O)[C@H](O)[C@@H]2O)c(-c2ccc(O)c(O)c2)oc2cc(O)cc(O)c12
REMARK SMILES IDX 4 1 3 2 16 3 25 4 2 5 26 6 1 7 33 8 27 9 31 10 28 11 30 12
REMARK SMILES IDX 17 13 18 14 19 15 20 16 24 17 22 18 21 19 23 21 32 23 29 25
REMARK SMILES IDX 5 27 14 28 6 29 12 30 7 31 10 32 15 33 13 35 8 37 9 38 11 40
REMARK H PARENT 21 20 23 22 32 24 29 26 15 34 13 36 9 39 11 41
REMARK Flexibility Score: inf
ROOT
ATOM      1  O   UNL     1      59.928 152.963   5.496  1.00  0.00    -0.454 OA
ENDROOT
BRANCH   1   2
ATOM      2  C   UNL     1      60.974 152.116   5.066  1.00  0.00     0.214 A 
ATOM      3  C   UNL     1      61.399 152.172   3.725  1.00  0.00     0.180 A 
ATOM      4  O   UNL     1      62.461 151.484   3.328  1.00  0.00    -0.452 OA
ATOM      5  C   UNL     1      61.655 151.246   5.945  1.00  0.00     0.239 A 
ATOM      6  C   UNL     1      63.132 150.660   4.119  1.00  0.00     0.146 A 
ATOM      7  O   UNL     1      61.346 151.227   7.162  1.00  0.00    -0.285 OA
ATOM      8  C   UNL     1      62.722 150.450   5.460  1.00  0.00     0.111 A 
ATOM      9  C   UNL     1      64.247 149.991   3.605  1.00  0.00     0.094 A 
ATOM     10  C   UNL     1      63.431 149.494   6.244  1.00  0.00     0.134 A 
ATOM     11  C   UNL     1      64.970 149.105   4.398  1.00  0.00     0.123 A 
ATOM     12  C   UNL     1      64.563 148.864   5.714  1.00  0.00     0.093 A 
BRANCH   3  13
ATOM     13  C   UNL     1      60.667 152.946   2.717  1.00  0.00     0.025 A 
ATOM     14  C   UNL     1      59.355 153.358   2.979  1.00  0.00     0.016 A 
ATOM     15  C   UNL     1      58.609 154.021   1.997  1.00  0.00     0.051 A 
ATOM     16  C   UNL     1      59.184 154.294   0.750  1.00  0.00     0.157 A 
ATOM     17  C   UNL     1      61.235 153.203   1.461  1.00  0.00     0.062 A 
ATOM     18  C   UNL     1      60.516 153.918   0.495  1.00  0.00     0.158 A 
BRANCH  16  19
ATOM     19  O   UNL     1      58.438 154.916  -0.243  1.00  0.00    -0.504 OA
ATOM     20  H   UNL     1      57.437 154.788  -0.350  1.00  0.00     0.293 HD
ENDBRANCH  16  19
BRANCH  18  21
ATOM     21  O   UNL     1      61.143 154.267  -0.697  1.00  0.00    -0.504 OA
ATOM     22  H   UNL     1      61.107 153.662  -1.505  1.00  0.00     0.293 HD
ENDBRANCH  18  21
ENDBRANCH   3  13
BRANCH  10  23
ATOM     23  O   UNL     1      63.038 149.116   7.528  1.00  0.00    -0.507 OA
ATOM     24  H   UNL     1      62.220 149.502   7.977  1.00  0.00     0.293 HD
ENDBRANCH  10  23
BRANCH  11  25
ATOM     25  O   UNL     1      66.080 148.458   3.862  1.00  0.00    -0.508 OA
ATOM     26  H   UNL     1      66.909 148.972   3.584  1.00  0.00     0.293 HD
ENDBRANCH  11  25
ENDBRANCH   1   2
BRANCH   1  27
ATOM     27  C   UNL     1      59.626 153.265   6.866  1.00  0.00     0.339 C 
ATOM     28  C   UNL     1      60.690 154.192   7.530  1.00  0.00     0.214 C 
ATOM     29  O   UNL     1      58.276 153.695   6.994  1.00  0.00    -0.332 OA
ATOM     30  C   UNL     1      60.424 155.696   7.373  1.00  0.00     0.180 C 
ATOM     31  C   UNL     1      58.038 155.076   6.746  1.00  0.00     0.179 C 
ATOM     32  C   UNL     1      58.942 156.024   7.559  1.00  0.00     0.177 C 
BRANCH  28  33
ATOM     33  O   UNL     1      61.970 153.916   7.025  1.00  0.00    -0.384 OA
ATOM     34  H   UNL     1      62.603 154.547   7.456  1.00  0.00     0.211 HD
ENDBRANCH  28  33
BRANCH  30  35
ATOM     35  O   UNL     1      60.896 156.162   6.136  1.00  0.00    -0.387 OA
ATOM     36  H   UNL     1      60.148 156.659   5.713  1.00  0.00     0.211 HD
ENDBRANCH  30  35
BRANCH  31  37
ATOM     37  C   UNL     1      57.876 155.421   5.249  1.00  0.00     0.191 C 
BRANCH  37  38
ATOM     38  O   UNL     1      58.238 156.744   4.969  1.00  0.00    -0.394 OA
ATOM     39  H   UNL     1      58.383 156.802   3.993  1.00  0.00     0.210 HD
ENDBRANCH  37  38
ENDBRANCH  31  37
BRANCH  32  40
ATOM     40  O   UNL     1      58.608 155.885   8.925  1.00  0.00    -0.387 OA
ATOM     41  H   UNL     1      58.728 156.781   9.350  1.00  0.00     0.211 HD
ENDBRANCH  32  40
ENDBRANCH   1  27
TORSDOF 12
ENDMDL
