MODEL 1
REMARK VINA RESULT:    -5.405      0.000      0.000
REMARK INTER + INTRA:         -11.365
REMARK INTER:                  -9.197
REMARK INTRA:                  -2.168
REMARK UNBOUND:                -2.168
REMARK SMILES OC[C@@H]1O[C@@H](Oc2cc(O)cc3[o+]c(-c4ccc(O)cc4)c(O[C@H]4O[C@H](CO)[C@H](O)[C@@H](O)[C@H]4O)cc23)[C@H](O)[C@H](O)[C@H]1O.[Cl-]
REMARK SMILES IDX 14 1 22 2 35 3 36 4 7 5 8 6 9 7 11 8 12 9 13 10 15 11 16 12
REMARK SMILES IDX 17 13 18 14 21 15 20 16 19 17 23 19 24 20 33 21 25 22 31 23
REMARK SMILES IDX 26 24 29 25 34 26 32 28 27 30 28 31 30 33 6 35 5 36 37 37
REMARK SMILES IDX 4 38 39 39 3 40 41 41 38 42 40 44 2 46 1 47 42 49 10 51
REMARK H PARENT 19 18 34 27 32 29 28 32 30 34 38 43 40 45 1 48 42 50 10 52
REMARK Flexibility Score: inf
ROOT
ATOM      1  C   UNL     1      -4.422 -28.833  12.478  1.00  0.00     0.402 A 
ATOM      2  C   UNL     1      -3.379 -28.057  13.022  1.00  0.00     0.229 A 
ATOM      3  C   UNL     1      -3.657 -27.259  14.140  1.00  0.00     0.079 A 
ATOM      4  C   UNL     1      -4.952 -27.228  14.673  1.00  0.00     0.126 A 
ATOM      5  C   UNL     1      -5.267 -26.451  15.805  1.00  0.00     0.143 A 
ATOM      6  C   UNL     1      -6.579 -26.502  16.324  1.00  0.00     0.094 A 
ATOM      7  C   UNL     1      -7.558 -27.293  15.714  1.00  0.00     0.128 A 
ATOM      8  C   UNL     1      -7.238 -28.054  14.586  1.00  0.00     0.162 A 
ATOM      9  C   UNL     1      -5.939 -28.030  14.070  1.00  0.00     0.368 A 
ATOM     10  O   UNL     1      -5.641 -28.779  13.011  1.00  0.00    -0.202 OA
ENDROOT
BRANCH   1  11
ATOM     11  C   UNL     1      -4.210 -29.705  11.300  1.00  0.00     0.084 A 
ATOM     12  C   UNL     1      -4.067 -31.100  11.430  1.00  0.00     0.022 A 
ATOM     13  C   UNL     1      -3.865 -31.899  10.300  1.00  0.00     0.047 A 
ATOM     14  C   UNL     1      -3.831 -31.318   9.026  1.00  0.00     0.115 A 
ATOM     15  C   UNL     1      -4.189 -29.134  10.018  1.00  0.00     0.022 A 
ATOM     16  C   UNL     1      -4.000 -29.935   8.888  1.00  0.00     0.047 A 
BRANCH  14  17
ATOM     17  O   UNL     1      -3.630 -32.125   7.907  1.00  0.00    -0.508 OA
ATOM     18  H   UNL     1      -3.920 -33.096   7.898  1.00  0.00     0.293 HD
ENDBRANCH  14  17
ENDBRANCH   1  11
BRANCH   2  19
ATOM     19  O   UNL     1      -2.104 -28.110  12.430  1.00  0.00    -0.452 OA
BRANCH  19  20
ATOM     20  C   UNL     1      -0.847 -28.295  13.092  1.00  0.00     0.339 C 
ATOM     21  C   UNL     1       0.348 -28.027  12.142  1.00  0.00     0.214 C 
ATOM     22  O   UNL     1      -0.796 -29.608  13.624  1.00  0.00    -0.332 OA
ATOM     23  C   UNL     1       0.316 -28.978  10.916  1.00  0.00     0.180 C 
ATOM     24  C   UNL     1      -0.529 -30.650  12.679  1.00  0.00     0.179 C 
ATOM     25  C   UNL     1      -0.568 -30.222  11.180  1.00  0.00     0.177 C 
BRANCH  21  26
ATOM     26  O   UNL     1       0.375 -26.683  11.726  1.00  0.00    -0.384 OA
ATOM     27  H   UNL     1       0.187 -26.131  12.535  1.00  0.00     0.211 HD
ENDBRANCH  21  26
BRANCH  23  28
ATOM     28  O   UNL     1      -0.097 -28.313   9.744  1.00  0.00    -0.387 OA
ATOM     29  H   UNL     1       0.640 -28.395   9.079  1.00  0.00     0.211 HD
ENDBRANCH  23  28
BRANCH  24  30
ATOM     30  C   UNL     1       0.787 -31.337  13.074  1.00  0.00     0.191 C 
BRANCH  30  31
ATOM     31  O   UNL     1       1.220 -30.879  14.325  1.00  0.00    -0.394 OA
ATOM     32  H   UNL     1       2.214 -30.893  14.303  1.00  0.00     0.210 HD
ENDBRANCH  30  31
ENDBRANCH  24  30
BRANCH  25  33
ATOM     33  O   UNL     1      -0.168 -31.288  10.354  1.00  0.00    -0.387 OA
ATOM     34  H   UNL     1       0.166 -30.886   9.507  1.00  0.00     0.211 HD
ENDBRANCH  25  33
ENDBRANCH  19  20
ENDBRANCH   2  19
BRANCH   5  35
ATOM     35  O   UNL     1      -4.268 -25.654  16.388  1.00  0.00    -0.461 OA
BRANCH  35  36
ATOM     36  C   UNL     1      -4.059 -25.518  17.796  1.00  0.00     0.339 C 
ATOM     37  C   UNL     1      -2.558 -25.610  18.123  1.00  0.00     0.214 C 
ATOM     38  O   UNL     1      -4.639 -24.328  18.307  1.00  0.00    -0.332 OA
ATOM     39  C   UNL     1      -1.823 -24.347  17.637  1.00  0.00     0.180 C 
ATOM     40  C   UNL     1      -4.048 -23.158  17.761  1.00  0.00     0.179 C 
ATOM     41  C   UNL     1      -2.546 -23.089  18.139  1.00  0.00     0.177 C 
BRANCH  37  42
ATOM     42  O   UNL     1      -2.397 -25.756  19.515  1.00  0.00    -0.384 OA
ATOM     43  H   UNL     1      -3.308 -25.860  19.905  1.00  0.00     0.211 HD
ENDBRANCH  37  42
BRANCH  39  44
ATOM     44  O   UNL     1      -0.502 -24.349  18.108  1.00  0.00    -0.387 OA
ATOM     45  H   UNL     1       0.005 -23.714  17.537  1.00  0.00     0.211 HD
ENDBRANCH  39  44
BRANCH  40  46
ATOM     46  C   UNL     1      -4.816 -21.934  18.301  1.00  0.00     0.191 C 
BRANCH  46  47
ATOM     47  O   UNL     1      -5.867 -21.601  17.429  1.00  0.00    -0.394 OA
ATOM     48  H   UNL     1      -5.625 -21.958  16.533  1.00  0.00     0.210 HD
ENDBRANCH  46  47
ENDBRANCH  40  46
BRANCH  41  49
ATOM     49  O   UNL     1      -1.946 -21.932  17.604  1.00  0.00    -0.387 OA
ATOM     50  H   UNL     1      -2.374 -21.140  18.018  1.00  0.00     0.211 HD
ENDBRANCH  41  49
ENDBRANCH  35  36
ENDBRANCH   5  35
BRANCH   7  51
ATOM     51  O   UNL     1      -8.857 -27.327  16.218  1.00  0.00    -0.507 OA
ATOM     52  H   UNL     1      -9.141 -26.740  16.992  1.00  0.00     0.293 HD
ENDBRANCH   7  51
TORSDOF 17
ENDMDL
MODEL 2
REMARK VINA RESULT:    -5.343     10.560     14.009
REMARK INTER + INTRA:         -11.260
REMARK INTER:                  -8.997
REMARK INTRA:                  -2.263
REMARK UNBOUND:                -2.168
REMARK SMILES OC[C@@H]1O[C@@H](Oc2cc(O)cc3[o+]c(-c4ccc(O)cc4)c(O[C@H]4O[C@H](CO)[C@H](O)[C@@H](O)[C@H]4O)cc23)[C@H](O)[C@H](O)[C@H]1O.[Cl-]
REMARK SMILES IDX 14 1 22 2 35 3 36 4 7 5 8 6 9 7 11 8 12 9 13 10 15 11 16 12
REMARK SMILES IDX 17 13 18 14 21 15 20 16 19 17 23 19 24 20 33 21 25 22 31 23
REMARK SMILES IDX 26 24 29 25 34 26 32 28 27 30 28 31 30 33 6 35 5 36 37 37
REMARK SMILES IDX 4 38 39 39 3 40 41 41 38 42 40 44 2 46 1 47 42 49 10 51
REMARK H PARENT 19 18 34 27 32 29 28 32 30 34 38 43 40 45 1 48 42 50 10 52
REMARK Flexibility Score: inf
ROOT
ATOM      1  C   UNL     1       1.851 -15.675  12.452  1.00  0.00     0.402 A 
ATOM      2  C   UNL     1       3.145 -16.232  12.515  1.00  0.00     0.229 A 
ATOM      3  C   UNL     1       3.492 -16.982  13.647  1.00  0.00     0.079 A 
ATOM      4  C   UNL     1       2.571 -17.140  14.690  1.00  0.00     0.126 A 
ATOM      5  C   UNL     1       2.877 -17.899  15.837  1.00  0.00     0.143 A 
ATOM      6  C   UNL     1       1.888 -18.063  16.831  1.00  0.00     0.094 A 
ATOM      7  C   UNL     1       0.631 -17.465  16.693  1.00  0.00     0.128 A 
ATOM      8  C   UNL     1       0.339 -16.707  15.555  1.00  0.00     0.162 A 
ATOM      9  C   UNL     1       1.301 -16.550  14.552  1.00  0.00     0.368 A 
ATOM     10  O   UNL     1       1.002 -15.847  13.463  1.00  0.00    -0.202 OA
ENDROOT
BRANCH   1  11
ATOM     11  C   UNL     1       1.405 -14.874  11.289  1.00  0.00     0.084 A 
ATOM     12  C   UNL     1       1.352 -13.468  11.338  1.00  0.00     0.022 A 
ATOM     13  C   UNL     1       0.923 -12.737  10.225  1.00  0.00     0.047 A 
ATOM     14  C   UNL     1       0.569 -13.400   9.043  1.00  0.00     0.115 A 
ATOM     15  C   UNL     1       1.060 -15.529  10.096  1.00  0.00     0.022 A 
ATOM     16  C   UNL     1       0.645 -14.797   8.980  1.00  0.00     0.047 A 
BRANCH  14  17
ATOM     17  O   UNL     1       0.144 -12.661   7.941  1.00  0.00    -0.508 OA
ATOM     18  H   UNL     1       0.758 -12.489   7.152  1.00  0.00     0.293 HD
ENDBRANCH  14  17
ENDBRANCH   1  11
BRANCH   2  19
ATOM     19  O   UNL     1       4.035 -16.020  11.447  1.00  0.00    -0.452 OA
BRANCH  19  20
ATOM     20  C   UNL     1       4.738 -14.812  11.130  1.00  0.00     0.339 C 
ATOM     21  C   UNL     1       5.415 -14.889   9.739  1.00  0.00     0.214 C 
ATOM     22  O   UNL     1       5.687 -14.552  12.150  1.00  0.00    -0.332 OA
ATOM     23  C   UNL     1       6.433 -16.058   9.672  1.00  0.00     0.180 C 
ATOM     24  C   UNL     1       6.882 -15.340  12.101  1.00  0.00     0.179 C 
ATOM     25  C   UNL     1       6.863 -16.523  11.085  1.00  0.00     0.177 C 
BRANCH  21  26
ATOM     26  O   UNL     1       4.458 -15.005   8.713  1.00  0.00    -0.384 OA
ATOM     27  H   UNL     1       4.950 -15.291   7.895  1.00  0.00     0.211 HD
ENDBRANCH  21  26
BRANCH  23  28
ATOM     28  O   UNL     1       5.941 -17.143   8.919  1.00  0.00    -0.387 OA
ATOM     29  H   UNL     1       6.604 -17.883   8.995  1.00  0.00     0.211 HD
ENDBRANCH  23  28
BRANCH  24  30
ATOM     30  C   UNL     1       8.078 -14.396  11.903  1.00  0.00     0.191 C 
BRANCH  30  31
ATOM     31  O   UNL     1       7.732 -13.088  12.265  1.00  0.00    -0.394 OA
ATOM     32  H   UNL     1       8.158 -12.917  13.148  1.00  0.00     0.210 HD
ENDBRANCH  30  31
ENDBRANCH  24  30
BRANCH  25  33
ATOM     33  O   UNL     1       8.123 -17.144  11.031  1.00  0.00    -0.387 OA
ATOM     34  H   UNL     1       8.800 -16.417  10.978  1.00  0.00     0.211 HD
ENDBRANCH  25  33
ENDBRANCH  19  20
ENDBRANCH   2  19
BRANCH   5  35
ATOM     35  O   UNL     1       4.153 -18.475  15.957  1.00  0.00    -0.461 OA
BRANCH  35  36
ATOM     36  C   UNL     1       4.402 -19.802  16.428  1.00  0.00     0.339 C 
ATOM     37  C   UNL     1       3.503 -20.807  15.688  1.00  0.00     0.214 C 
ATOM     38  O   UNL     1       5.774 -20.150  16.333  1.00  0.00    -0.332 OA
ATOM     39  C   UNL     1       3.965 -20.968  14.227  1.00  0.00     0.180 C 
ATOM     40  C   UNL     1       6.238 -20.174  14.991  1.00  0.00     0.179 C 
ATOM     41  C   UNL     1       5.474 -21.250  14.178  1.00  0.00     0.177 C 
BRANCH  37  42
ATOM     42  O   UNL     1       3.556 -22.050  16.349  1.00  0.00    -0.384 OA
ATOM     43  H   UNL     1       3.809 -21.865  17.295  1.00  0.00     0.211 HD
ENDBRANCH  37  42
BRANCH  39  44
ATOM     44  O   UNL     1       3.270 -22.023  13.617  1.00  0.00    -0.387 OA
ATOM     45  H   UNL     1       2.528 -21.613  13.100  1.00  0.00     0.211 HD
ENDBRANCH  39  44
BRANCH  40  46
ATOM     46  C   UNL     1       7.752 -20.460  15.010  1.00  0.00     0.191 C 
BRANCH  46  47
ATOM     47  O   UNL     1       7.987 -21.831  14.801  1.00  0.00    -0.394 OA
ATOM     48  H   UNL     1       7.209 -22.184  14.291  1.00  0.00     0.210 HD
ENDBRANCH  46  47
ENDBRANCH  40  46
BRANCH  41  49
ATOM     49  O   UNL     1       5.923 -21.285  12.843  1.00  0.00    -0.387 OA
ATOM     50  H   UNL     1       6.260 -22.197  12.652  1.00  0.00     0.211 HD
ENDBRANCH  41  49
ENDBRANCH  35  36
ENDBRANCH   5  35
BRANCH   7  51
ATOM     51  O   UNL     1      -0.337 -17.613  17.684  1.00  0.00    -0.507 OA
ATOM     52  H   UNL     1      -0.951 -18.418  17.710  1.00  0.00     0.293 HD
ENDBRANCH   7  51
TORSDOF 17
ENDMDL
MODEL 3
REMARK VINA RESULT:    -5.318      2.522      8.758
REMARK INTER + INTRA:         -11.217
REMARK INTER:                  -9.142
REMARK INTRA:                  -2.074
REMARK UNBOUND:                -2.168
REMARK SMILES OC[C@@H]1O[C@@H](Oc2cc(O)cc3[o+]c(-c4ccc(O)cc4)c(O[C@H]4O[C@H](CO)[C@H](O)[C@@H](O)[C@H]4O)cc23)[C@H](O)[C@H](O)[C@H]1O.[Cl-]
REMARK SMILES IDX 14 1 22 2 35 3 36 4 7 5 8 6 9 7 11 8 12 9 13 10 15 11 16 12
REMARK SMILES IDX 17 13 18 14 21 15 20 16 19 17 23 19 24 20 33 21 25 22 31 23
REMARK SMILES IDX 26 24 29 25 34 26 32 28 27 30 28 31 30 33 6 35 5 36 37 37
REMARK SMILES IDX 4 38 39 39 3 40 41 41 38 42 40 44 2 46 1 47 42 49 10 51
REMARK H PARENT 19 18 34 27 32 29 28 32 30 34 38 43 40 45 1 48 42 50 10 52
REMARK Flexibility Score: inf
ROOT
ATOM      1  C   UNL     1      -8.340 -26.040  16.478  1.00  0.00     0.402 A 
ATOM      2  C   UNL     1      -6.932 -25.991  16.419  1.00  0.00     0.229 A 
ATOM      3  C   UNL     1      -6.261 -27.001  15.715  1.00  0.00     0.079 A 
ATOM      4  C   UNL     1      -6.987 -28.036  15.114  1.00  0.00     0.126 A 
ATOM      5  C   UNL     1      -6.350 -29.059  14.385  1.00  0.00     0.143 A 
ATOM      6  C   UNL     1      -7.141 -30.047  13.761  1.00  0.00     0.094 A 
ATOM      7  C   UNL     1      -8.535 -30.026  13.880  1.00  0.00     0.128 A 
ATOM      8  C   UNL     1      -9.158 -29.011  14.612  1.00  0.00     0.162 A 
ATOM      9  C   UNL     1      -8.390 -28.014  15.221  1.00  0.00     0.368 A 
ATOM     10  O   UNL     1      -8.997 -27.041  15.894  1.00  0.00    -0.202 OA
ENDROOT
BRANCH   1  11
ATOM     11  C   UNL     1      -9.124 -25.011  17.198  1.00  0.00     0.084 A 
ATOM     12  C   UNL     1      -9.569 -23.839  16.557  1.00  0.00     0.022 A 
ATOM     13  C   UNL     1     -10.306 -22.882  17.263  1.00  0.00     0.047 A 
ATOM     14  C   UNL     1     -10.631 -23.098  18.608  1.00  0.00     0.115 A 
ATOM     15  C   UNL     1      -9.466 -25.225  18.543  1.00  0.00     0.022 A 
ATOM     16  C   UNL     1     -10.215 -24.274  19.244  1.00  0.00     0.047 A 
BRANCH  14  17
ATOM     17  O   UNL     1     -11.366 -22.138  19.301  1.00  0.00    -0.508 OA
ATOM     18  H   UNL     1     -11.193 -21.946  20.281  1.00  0.00     0.293 HD
ENDBRANCH  14  17
ENDBRANCH   1  11
BRANCH   2  19
ATOM     19  O   UNL     1      -6.255 -24.940  17.062  1.00  0.00    -0.452 OA
BRANCH  19  20
ATOM     20  C   UNL     1      -5.625 -24.971  18.348  1.00  0.00     0.339 C 
ATOM     21  C   UNL     1      -5.581 -23.566  19.001  1.00  0.00     0.214 C 
ATOM     22  O   UNL     1      -4.324 -25.514  18.210  1.00  0.00    -0.332 OA
ATOM     23  C   UNL     1      -4.798 -22.559  18.118  1.00  0.00     0.180 C 
ATOM     24  C   UNL     1      -3.335 -24.629  17.673  1.00  0.00     0.179 C 
ATOM     25  C   UNL     1      -3.880 -23.283  17.102  1.00  0.00     0.177 C 
BRANCH  21  26
ATOM     26  O   UNL     1      -6.878 -23.088  19.267  1.00  0.00    -0.384 OA
ATOM     27  H   UNL     1      -7.486 -23.878  19.228  1.00  0.00     0.211 HD
ENDBRANCH  21  26
BRANCH  23  28
ATOM     28  O   UNL     1      -5.657 -21.658  17.458  1.00  0.00    -0.387 OA
ATOM     29  H   UNL     1      -5.606 -21.856  16.483  1.00  0.00     0.211 HD
ENDBRANCH  23  28
BRANCH  24  30
ATOM     30  C   UNL     1      -2.236 -24.432  18.728  1.00  0.00     0.191 C 
BRANCH  30  31
ATOM     31  O   UNL     1      -0.993 -24.244  18.108  1.00  0.00    -0.394 OA
ATOM     32  H   UNL     1      -1.166 -24.228  17.128  1.00  0.00     0.210 HD
ENDBRANCH  30  31
ENDBRANCH  24  30
BRANCH  25  33
ATOM     33  O   UNL     1      -2.818 -22.445  16.721  1.00  0.00    -0.387 OA
ATOM     34  H   UNL     1      -2.747 -22.502  15.730  1.00  0.00     0.211 HD
ENDBRANCH  25  33
ENDBRANCH  19  20
ENDBRANCH   2  19
BRANCH   5  35
ATOM     35  O   UNL     1      -4.948 -29.065  14.295  1.00  0.00    -0.461 OA
BRANCH  35  36
ATOM     36  C   UNL     1      -4.181 -28.129  13.532  1.00  0.00     0.339 C 
ATOM     37  C   UNL     1      -2.692 -28.516  13.555  1.00  0.00     0.214 C 
ATOM     38  O   UNL     1      -4.673 -27.996  12.207  1.00  0.00    -0.332 OA
ATOM     39  C   UNL     1      -2.453 -29.784  12.713  1.00  0.00     0.180 C 
ATOM     40  C   UNL     1      -4.572 -29.203  11.466  1.00  0.00     0.179 C 
ATOM     41  C   UNL     1      -3.086 -29.623  11.323  1.00  0.00     0.177 C 
BRANCH  37  42
ATOM     42  O   UNL     1      -1.929 -27.448  13.045  1.00  0.00    -0.384 OA
ATOM     43  H   UNL     1      -1.714 -26.850  13.813  1.00  0.00     0.211 HD
ENDBRANCH  37  42
BRANCH  39  44
ATOM     44  O   UNL     1      -1.077 -30.018  12.577  1.00  0.00    -0.387 OA
ATOM     45  H   UNL     1      -0.972 -30.980  12.356  1.00  0.00     0.211 HD
ENDBRANCH  39  44
BRANCH  40  46
ATOM     46  C   UNL     1      -5.222 -28.977  10.087  1.00  0.00     0.191 C 
BRANCH  46  47
ATOM     47  O   UNL     1      -4.315 -28.337   9.225  1.00  0.00    -0.394 OA
ATOM     48  H   UNL     1      -4.166 -28.949   8.454  1.00  0.00     0.210 HD
ENDBRANCH  46  47
ENDBRANCH  40  46
BRANCH  41  49
ATOM     49  O   UNL     1      -2.970 -30.819  10.589  1.00  0.00    -0.387 OA
ATOM     50  H   UNL     1      -2.019 -31.096  10.592  1.00  0.00     0.211 HD
ENDBRANCH  41  49
ENDBRANCH  35  36
ENDBRANCH   5  35
BRANCH   7  51
ATOM     51  O   UNL     1      -9.313 -31.013  13.277  1.00  0.00    -0.507 OA
ATOM     52  H   UNL     1      -8.902 -31.730  12.694  1.00  0.00     0.293 HD
ENDBRANCH   7  51
TORSDOF 17
ENDMDL
MODEL 4
REMARK VINA RESULT:    -5.266      2.222      7.800
REMARK INTER + INTRA:         -11.128
REMARK INTER:                  -7.876
REMARK INTRA:                  -3.252
REMARK UNBOUND:                -2.168
REMARK SMILES OC[C@@H]1O[C@@H](Oc2cc(O)cc3[o+]c(-c4ccc(O)cc4)c(O[C@H]4O[C@H](CO)[C@H](O)[C@@H](O)[C@H]4O)cc23)[C@H](O)[C@H](O)[C@H]1O.[Cl-]
REMARK SMILES IDX 14 1 22 2 35 3 36 4 7 5 8 6 9 7 11 8 12 9 13 10 15 11 16 12
REMARK SMILES IDX 17 13 18 14 21 15 20 16 19 17 23 19 24 20 33 21 25 22 31 23
REMARK SMILES IDX 26 24 29 25 34 26 32 28 27 30 28 31 30 33 6 35 5 36 37 37
REMARK SMILES IDX 4 38 39 39 3 40 41 41 38 42 40 44 2 46 1 47 42 49 10 51
REMARK H PARENT 19 18 34 27 32 29 28 32 30 34 38 43 40 45 1 48 42 50 10 52
REMARK Flexibility Score: inf
ROOT
ATOM      1  C   UNL     1      -7.542 -27.371  15.410  1.00  0.00     0.402 A 
ATOM      2  C   UNL     1      -6.182 -27.024  15.284  1.00  0.00     0.229 A 
ATOM      3  C   UNL     1      -5.445 -27.593  14.236  1.00  0.00     0.079 A 
ATOM      4  C   UNL     1      -6.057 -28.500  13.363  1.00  0.00     0.126 A 
ATOM      5  C   UNL     1      -5.355 -29.081  12.289  1.00  0.00     0.143 A 
ATOM      6  C   UNL     1      -6.042 -29.950  11.414  1.00  0.00     0.094 A 
ATOM      7  C   UNL     1      -7.393 -30.248  11.619  1.00  0.00     0.128 A 
ATOM      8  C   UNL     1      -8.080 -29.674  12.693  1.00  0.00     0.162 A 
ATOM      9  C   UNL     1      -7.419 -28.797  13.558  1.00  0.00     0.368 A 
ATOM     10  O   UNL     1      -8.091 -28.238  14.561  1.00  0.00    -0.202 OA
ENDROOT
BRANCH   1  11
ATOM     11  C   UNL     1      -8.391 -26.811  16.487  1.00  0.00     0.084 A 
ATOM     12  C   UNL     1      -8.966 -25.530  16.383  1.00  0.00     0.022 A 
ATOM     13  C   UNL     1      -9.762 -25.026  17.418  1.00  0.00     0.047 A 
ATOM     14  C   UNL     1     -10.015 -25.806  18.554  1.00  0.00     0.115 A 
ATOM     15  C   UNL     1      -8.662 -27.591  17.623  1.00  0.00     0.022 A 
ATOM     16  C   UNL     1      -9.468 -27.091  18.650  1.00  0.00     0.047 A 
BRANCH  14  17
ATOM     17  O   UNL     1     -10.810 -25.293  19.577  1.00  0.00    -0.508 OA
ATOM     18  H   UNL     1     -11.594 -25.816  19.948  1.00  0.00     0.293 HD
ENDBRANCH  14  17
ENDBRANCH   1  11
BRANCH   2  19
ATOM     19  O   UNL     1      -5.615 -26.126  16.205  1.00  0.00    -0.452 OA
BRANCH  19  20
ATOM     20  C   UNL     1      -4.792 -26.444  17.335  1.00  0.00     0.339 C 
ATOM     21  C   UNL     1      -4.991 -25.434  18.493  1.00  0.00     0.214 C 
ATOM     22  O   UNL     1      -3.439 -26.489  16.919  1.00  0.00    -0.332 OA
ATOM     23  C   UNL     1      -4.641 -23.990  18.048  1.00  0.00     0.180 C 
ATOM     24  C   UNL     1      -2.805 -25.219  16.729  1.00  0.00     0.179 C 
ATOM     25  C   UNL     1      -3.754 -23.982  16.778  1.00  0.00     0.177 C 
BRANCH  21  26
ATOM     26  O   UNL     1      -6.303 -25.493  19.000  1.00  0.00    -0.384 OA
ATOM     27  H   UNL     1      -6.227 -25.764  19.956  1.00  0.00     0.211 HD
ENDBRANCH  21  26
BRANCH  23  28
ATOM     28  O   UNL     1      -5.795 -23.204  17.854  1.00  0.00    -0.387 OA
ATOM     29  H   UNL     1      -6.220 -23.072  18.746  1.00  0.00     0.211 HD
ENDBRANCH  23  28
BRANCH  24  30
ATOM     30  C   UNL     1      -1.629 -25.112  17.712  1.00  0.00     0.191 C 
BRANCH  30  31
ATOM     31  O   UNL     1      -0.822 -26.254  17.632  1.00  0.00    -0.394 OA
ATOM     32  H   UNL     1      -0.543 -26.468  18.563  1.00  0.00     0.210 HD
ENDBRANCH  30  31
ENDBRANCH  24  30
BRANCH  25  33
ATOM     33  O   UNL     1      -3.013 -22.790  16.708  1.00  0.00    -0.387 OA
ATOM     34  H   UNL     1      -3.345 -22.290  15.914  1.00  0.00     0.211 HD
ENDBRANCH  25  33
ENDBRANCH  19  20
ENDBRANCH   2  19
BRANCH   5  35
ATOM     35  O   UNL     1      -3.994 -28.776  12.116  1.00  0.00    -0.461 OA
BRANCH  35  36
ATOM     36  C   UNL     1      -2.933 -29.732  12.194  1.00  0.00     0.339 C 
ATOM     37  C   UNL     1      -1.587 -29.061  11.869  1.00  0.00     0.214 C 
ATOM     38  O   UNL     1      -2.906 -30.393  13.449  1.00  0.00    -0.332 OA
ATOM     39  C   UNL     1      -1.164 -28.122  13.015  1.00  0.00     0.180 C 
ATOM     40  C   UNL     1      -2.643 -29.505  14.525  1.00  0.00     0.179 C 
ATOM     41  C   UNL     1      -1.243 -28.860  14.359  1.00  0.00     0.177 C 
BRANCH  37  42
ATOM     42  O   UNL     1      -0.609 -30.057  11.676  1.00  0.00    -0.384 OA
ATOM     43  H   UNL     1      -1.077 -30.859  11.314  1.00  0.00     0.211 HD
ENDBRANCH  37  42
BRANCH  39  44
ATOM     44  O   UNL     1       0.146 -27.668  12.805  1.00  0.00    -0.387 OA
ATOM     45  H   UNL     1       0.584 -28.329  12.207  1.00  0.00     0.211 HD
ENDBRANCH  39  44
BRANCH  40  46
ATOM     46  C   UNL     1      -2.737 -30.304  15.841  1.00  0.00     0.191 C 
BRANCH  46  47
ATOM     47  O   UNL     1      -3.127 -29.456  16.893  1.00  0.00    -0.394 OA
ATOM     48  H   UNL     1      -2.842 -28.536  16.645  1.00  0.00     0.210 HD
ENDBRANCH  46  47
ENDBRANCH  40  46
BRANCH  41  49
ATOM     49  O   UNL     1      -0.968 -27.977  15.421  1.00  0.00    -0.387 OA
ATOM     50  H   UNL     1       0.006 -27.795  15.431  1.00  0.00     0.211 HD
ENDBRANCH  41  49
ENDBRANCH  35  36
ENDBRANCH   5  35
BRANCH   7  51
ATOM     51  O   UNL     1      -8.064 -31.121  10.764  1.00  0.00    -0.507 OA
ATOM     52  H   UNL     1      -8.564 -30.786   9.950  1.00  0.00     0.293 HD
ENDBRANCH   7  51
TORSDOF 17
ENDMDL
MODEL 5
REMARK VINA RESULT:    -5.254      2.731      8.118
REMARK INTER + INTRA:         -11.108
REMARK INTER:                  -7.772
REMARK INTRA:                  -3.336
REMARK UNBOUND:                -2.168
REMARK SMILES OC[C@@H]1O[C@@H](Oc2cc(O)cc3[o+]c(-c4ccc(O)cc4)c(O[C@H]4O[C@H](CO)[C@H](O)[C@@H](O)[C@H]4O)cc23)[C@H](O)[C@H](O)[C@H]1O.[Cl-]
REMARK SMILES IDX 14 1 22 2 35 3 36 4 7 5 8 6 9 7 11 8 12 9 13 10 15 11 16 12
REMARK SMILES IDX 17 13 18 14 21 15 20 16 19 17 23 19 24 20 33 21 25 22 31 23
REMARK SMILES IDX 26 24 29 25 34 26 32 28 27 30 28 31 30 33 6 35 5 36 37 37
REMARK SMILES IDX 4 38 39 39 3 40 41 41 38 42 40 44 2 46 1 47 42 49 10 51
REMARK H PARENT 19 18 34 27 32 29 28 32 30 34 38 43 40 45 1 48 42 50 10 52
REMARK Flexibility Score: inf
ROOT
ATOM      1  C   UNL     1      -8.223 -26.119  16.372  1.00  0.00     0.402 A 
ATOM      2  C   UNL     1      -6.822 -25.969  16.330  1.00  0.00     0.229 A 
ATOM      3  C   UNL     1      -6.078 -26.889  15.579  1.00  0.00     0.079 A 
ATOM      4  C   UNL     1      -6.726 -27.938  14.916  1.00  0.00     0.126 A 
ATOM      5  C   UNL     1      -6.014 -28.873  14.139  1.00  0.00     0.143 A 
ATOM      6  C   UNL     1      -6.730 -29.878  13.453  1.00  0.00     0.094 A 
ATOM      7  C   UNL     1      -8.123 -29.960  13.559  1.00  0.00     0.128 A 
ATOM      8  C   UNL     1      -8.820 -29.033  14.339  1.00  0.00     0.162 A 
ATOM      9  C   UNL     1      -8.128 -28.020  15.009  1.00  0.00     0.368 A 
ATOM     10  O   UNL     1      -8.806 -27.129  15.728  1.00  0.00    -0.202 OA
ENDROOT
BRANCH   1  11
ATOM     11  C   UNL     1      -9.082 -25.187  17.138  1.00  0.00     0.084 A 
ATOM     12  C   UNL     1      -9.371 -25.400  18.500  1.00  0.00     0.022 A 
ATOM     13  C   UNL     1     -10.189 -24.505  19.198  1.00  0.00     0.047 A 
ATOM     14  C   UNL     1     -10.704 -23.373  18.552  1.00  0.00     0.115 A 
ATOM     15  C   UNL     1      -9.592 -24.043  16.503  1.00  0.00     0.022 A 
ATOM     16  C   UNL     1     -10.398 -23.142  17.205  1.00  0.00     0.047 A 
BRANCH  14  17
ATOM     17  O   UNL     1     -11.516 -22.489  19.258  1.00  0.00    -0.508 OA
ATOM     18  H   UNL     1     -11.375 -21.486  19.206  1.00  0.00     0.293 HD
ENDBRANCH  14  17
ENDBRANCH   1  11
BRANCH   2  19
ATOM     19  O   UNL     1      -6.225 -24.910  17.035  1.00  0.00    -0.452 OA
BRANCH  19  20
ATOM     20  C   UNL     1      -5.509 -24.987  18.274  1.00  0.00     0.339 C 
ATOM     21  C   UNL     1      -5.427 -23.608  18.978  1.00  0.00     0.214 C 
ATOM     22  O   UNL     1      -4.218 -25.515  18.028  1.00  0.00    -0.332 OA
ATOM     23  C   UNL     1      -4.710 -22.562  18.084  1.00  0.00     0.180 C 
ATOM     24  C   UNL     1      -3.272 -24.603  17.460  1.00  0.00     0.179 C 
ATOM     25  C   UNL     1      -3.859 -23.240  16.980  1.00  0.00     0.177 C 
BRANCH  21  26
ATOM     26  O   UNL     1      -6.705 -23.150  19.349  1.00  0.00    -0.384 OA
ATOM     27  H   UNL     1      -7.352 -23.855  19.070  1.00  0.00     0.211 HD
ENDBRANCH  21  26
BRANCH  23  28
ATOM     28  O   UNL     1      -5.615 -21.642  17.519  1.00  0.00    -0.387 OA
ATOM     29  H   UNL     1      -6.449 -21.671  18.064  1.00  0.00     0.211 HD
ENDBRANCH  23  28
BRANCH  24  30
ATOM     30  C   UNL     1      -2.104 -24.439  18.445  1.00  0.00     0.191 C 
BRANCH  30  31
ATOM     31  O   UNL     1      -0.880 -24.547  17.772  1.00  0.00    -0.394 OA
ATOM     32  H   UNL     1      -0.277 -23.864  18.171  1.00  0.00     0.210 HD
ENDBRANCH  30  31
ENDBRANCH  24  30
BRANCH  25  33
ATOM     33  O   UNL     1      -2.829 -22.380  16.562  1.00  0.00    -0.387 OA
ATOM     34  H   UNL     1      -2.575 -21.830  17.351  1.00  0.00     0.211 HD
ENDBRANCH  25  33
ENDBRANCH  19  20
ENDBRANCH   2  19
BRANCH   5  35
ATOM     35  O   UNL     1      -4.614 -28.776  14.063  1.00  0.00    -0.461 OA
BRANCH  35  36
ATOM     36  C   UNL     1      -3.709 -29.824  14.423  1.00  0.00     0.339 C 
ATOM     37  C   UNL     1      -2.328 -29.574  13.794  1.00  0.00     0.214 C 
ATOM     38  O   UNL     1      -3.627 -29.995  15.829  1.00  0.00    -0.332 OA
ATOM     39  C   UNL     1      -1.628 -28.389  14.486  1.00  0.00     0.180 C 
ATOM     40  C   UNL     1      -3.101 -28.851  16.485  1.00  0.00     0.179 C 
ATOM     41  C   UNL     1      -1.651 -28.579  16.010  1.00  0.00     0.177 C 
BRANCH  37  42
ATOM     42  O   UNL     1      -1.544 -30.738  13.921  1.00  0.00    -0.384 OA
ATOM     43  H   UNL     1      -1.009 -30.822  13.085  1.00  0.00     0.211 HD
ENDBRANCH  37  42
BRANCH  39  44
ATOM     44  O   UNL     1      -0.300 -28.291  14.045  1.00  0.00    -0.387 OA
ATOM     45  H   UNL     1      -0.267 -27.528  13.409  1.00  0.00     0.211 HD
ENDBRANCH  39  44
BRANCH  40  46
ATOM     46  C   UNL     1      -3.150 -29.104  18.006  1.00  0.00     0.191 C 
BRANCH  46  47
ATOM     47  O   UNL     1      -2.998 -27.892  18.701  1.00  0.00    -0.394 OA
ATOM     48  H   UNL     1      -2.028 -27.788  18.895  1.00  0.00     0.210 HD
ENDBRANCH  46  47
ENDBRANCH  40  46
BRANCH  41  49
ATOM     49  O   UNL     1      -1.115 -27.446  16.653  1.00  0.00    -0.387 OA
ATOM     50  H   UNL     1      -0.758 -26.834  15.961  1.00  0.00     0.211 HD
ENDBRANCH  41  49
ENDBRANCH  35  36
ENDBRANCH   5  35
BRANCH   7  51
ATOM     51  O   UNL     1      -8.826 -30.964  12.896  1.00  0.00    -0.507 OA
ATOM     52  H   UNL     1      -9.484 -31.560  13.382  1.00  0.00     0.293 HD
ENDBRANCH   7  51
TORSDOF 17
ENDMDL
MODEL 6
REMARK VINA RESULT:    -5.187      3.166      7.842
REMARK INTER + INTRA:         -10.994
REMARK INTER:                  -8.382
REMARK INTRA:                  -2.612
REMARK UNBOUND:                -2.168
REMARK SMILES OC[C@@H]1O[C@@H](Oc2cc(O)cc3[o+]c(-c4ccc(O)cc4)c(O[C@H]4O[C@H](CO)[C@H](O)[C@@H](O)[C@H]4O)cc23)[C@H](O)[C@H](O)[C@H]1O.[Cl-]
REMARK SMILES IDX 14 1 22 2 35 3 36 4 7 5 8 6 9 7 11 8 12 9 13 10 15 11 16 12
REMARK SMILES IDX 17 13 18 14 21 15 20 16 19 17 23 19 24 20 33 21 25 22 31 23
REMARK SMILES IDX 26 24 29 25 34 26 32 28 27 30 28 31 30 33 6 35 5 36 37 37
REMARK SMILES IDX 4 38 39 39 3 40 41 41 38 42 40 44 2 46 1 47 42 49 10 51
REMARK H PARENT 19 18 34 27 32 29 28 32 30 34 38 43 40 45 1 48 42 50 10 52
REMARK Flexibility Score: inf
ROOT
ATOM      1  C   UNL     1      -3.936 -30.873  10.171  1.00  0.00     0.402 A 
ATOM      2  C   UNL     1      -2.968 -30.909  11.195  1.00  0.00     0.229 A 
ATOM      3  C   UNL     1      -1.618 -30.996  10.830  1.00  0.00     0.079 A 
ATOM      4  C   UNL     1      -1.262 -31.069   9.478  1.00  0.00     0.126 A 
ATOM      5  C   UNL     1       0.085 -31.142   9.071  1.00  0.00     0.143 A 
ATOM      6  C   UNL     1       0.382 -31.162   7.692  1.00  0.00     0.094 A 
ATOM      7  C   UNL     1      -0.644 -31.133   6.741  1.00  0.00     0.128 A 
ATOM      8  C   UNL     1      -1.978 -31.070   7.154  1.00  0.00     0.162 A 
ATOM      9  C   UNL     1      -2.288 -31.030   8.516  1.00  0.00     0.368 A 
ATOM     10  O   UNL     1      -3.560 -30.944   8.895  1.00  0.00    -0.202 OA
ENDROOT
BRANCH   1  11
ATOM     11  C   UNL     1      -5.383 -30.777  10.472  1.00  0.00     0.084 A 
ATOM     12  C   UNL     1      -6.011 -29.537  10.695  1.00  0.00     0.022 A 
ATOM     13  C   UNL     1      -7.379 -29.478  10.980  1.00  0.00     0.047 A 
ATOM     14  C   UNL     1      -8.141 -30.653  11.017  1.00  0.00     0.115 A 
ATOM     15  C   UNL     1      -6.157 -31.949  10.497  1.00  0.00     0.022 A 
ATOM     16  C   UNL     1      -7.528 -31.887  10.768  1.00  0.00     0.047 A 
BRANCH  14  17
ATOM     17  O   UNL     1      -9.503 -30.581  11.301  1.00  0.00    -0.508 OA
ATOM     18  H   UNL     1     -10.187 -31.066  10.731  1.00  0.00     0.293 HD
ENDBRANCH  14  17
ENDBRANCH   1  11
BRANCH   2  19
ATOM     19  O   UNL     1      -3.387 -30.856  12.536  1.00  0.00    -0.452 OA
BRANCH  19  20
ATOM     20  C   UNL     1      -2.644 -30.366  13.660  1.00  0.00     0.339 C 
ATOM     21  C   UNL     1      -3.435 -30.517  14.983  1.00  0.00     0.214 C 
ATOM     22  O   UNL     1      -2.291 -29.014  13.423  1.00  0.00    -0.332 OA
ATOM     23  C   UNL     1      -4.775 -29.738  14.930  1.00  0.00     0.180 C 
ATOM     24  C   UNL     1      -3.339 -28.058  13.613  1.00  0.00     0.179 C 
ATOM     25  C   UNL     1      -4.764 -28.656  13.821  1.00  0.00     0.177 C 
BRANCH  21  26
ATOM     26  O   UNL     1      -3.661 -31.873  15.288  1.00  0.00    -0.384 OA
ATOM     27  H   UNL     1      -4.642 -31.973  15.431  1.00  0.00     0.211 HD
ENDBRANCH  21  26
BRANCH  23  28
ATOM     28  O   UNL     1      -5.880 -30.599  14.774  1.00  0.00    -0.387 OA
ATOM     29  H   UNL     1      -6.599 -30.276  15.384  1.00  0.00     0.211 HD
ENDBRANCH  23  28
BRANCH  24  30
ATOM     30  C   UNL     1      -2.921 -27.098  14.739  1.00  0.00     0.191 C 
BRANCH  30  31
ATOM     31  O   UNL     1      -1.767 -27.570  15.377  1.00  0.00    -0.394 OA
ATOM     32  H   UNL     1      -1.030 -27.508  14.712  1.00  0.00     0.210 HD
ENDBRANCH  30  31
ENDBRANCH  24  30
BRANCH  25  33
ATOM     33  O   UNL     1      -5.686 -27.639  14.123  1.00  0.00    -0.387 OA
ATOM     34  H   UNL     1      -5.833 -27.125  13.284  1.00  0.00     0.211 HD
ENDBRANCH  25  33
ENDBRANCH  19  20
ENDBRANCH   2  19
BRANCH   5  35
ATOM     35  O   UNL     1       1.094 -31.185  10.048  1.00  0.00    -0.461 OA
BRANCH  35  36
ATOM     36  C   UNL     1       2.159 -30.237  10.156  1.00  0.00     0.339 C 
ATOM     37  C   UNL     1       1.854 -28.994   9.303  1.00  0.00     0.214 C 
ATOM     38  O   UNL     1       2.433 -29.897  11.507  1.00  0.00    -0.332 OA
ATOM     39  C   UNL     1       0.718 -28.170   9.939  1.00  0.00     0.180 C 
ATOM     40  C   UNL     1       1.337 -29.251  12.137  1.00  0.00     0.179 C 
ATOM     41  C   UNL     1       1.020 -27.912  11.423  1.00  0.00     0.177 C 
BRANCH  37  42
ATOM     42  O   UNL     1       3.018 -28.208   9.198  1.00  0.00    -0.384 OA
ATOM     43  H   UNL     1       2.749 -27.343   8.782  1.00  0.00     0.211 HD
ENDBRANCH  37  42
BRANCH  39  44
ATOM     44  O   UNL     1       0.578 -26.946   9.269  1.00  0.00    -0.387 OA
ATOM     45  H   UNL     1      -0.027 -26.386   9.822  1.00  0.00     0.211 HD
ENDBRANCH  39  44
BRANCH  40  46
ATOM     46  C   UNL     1       1.701 -29.020  13.617  1.00  0.00     0.191 C 
BRANCH  46  47
ATOM     47  O   UNL     1       0.576 -28.561  14.325  1.00  0.00    -0.394 OA
ATOM     48  H   UNL     1      -0.223 -28.975  13.901  1.00  0.00     0.210 HD
ENDBRANCH  46  47
ENDBRANCH  40  46
BRANCH  41  49
ATOM     49  O   UNL     1      -0.066 -27.259  12.038  1.00  0.00    -0.387 OA
ATOM     50  H   UNL     1       0.058 -27.306  13.019  1.00  0.00     0.211 HD
ENDBRANCH  41  49
ENDBRANCH  35  36
ENDBRANCH   5  35
BRANCH   7  51
ATOM     51  O   UNL     1      -0.349 -31.172   5.379  1.00  0.00    -0.507 OA
ATOM     52  H   UNL     1       0.054 -30.377   4.901  1.00  0.00     0.293 HD
ENDBRANCH   7  51
TORSDOF 17
ENDMDL
MODEL 7
REMARK VINA RESULT:    -5.172      1.804      8.323
REMARK INTER + INTRA:         -10.967
REMARK INTER:                  -8.792
REMARK INTRA:                  -2.176
REMARK UNBOUND:                -2.168
REMARK SMILES OC[C@@H]1O[C@@H](Oc2cc(O)cc3[o+]c(-c4ccc(O)cc4)c(O[C@H]4O[C@H](CO)[C@H](O)[C@@H](O)[C@H]4O)cc23)[C@H](O)[C@H](O)[C@H]1O.[Cl-]
REMARK SMILES IDX 14 1 22 2 35 3 36 4 7 5 8 6 9 7 11 8 12 9 13 10 15 11 16 12
REMARK SMILES IDX 17 13 18 14 21 15 20 16 19 17 23 19 24 20 33 21 25 22 31 23
REMARK SMILES IDX 26 24 29 25 34 26 32 28 27 30 28 31 30 33 6 35 5 36 37 37
REMARK SMILES IDX 4 38 39 39 3 40 41 41 38 42 40 44 2 46 1 47 42 49 10 51
REMARK H PARENT 19 18 34 27 32 29 28 32 30 34 38 43 40 45 1 48 42 50 10 52
REMARK Flexibility Score: inf
ROOT
ATOM      1  C   UNL     1      -7.045 -26.903  15.733  1.00  0.00     0.402 A 
ATOM      2  C   UNL     1      -5.735 -26.389  15.648  1.00  0.00     0.229 A 
ATOM      3  C   UNL     1      -4.858 -26.955  14.713  1.00  0.00     0.079 A 
ATOM      4  C   UNL     1      -5.283 -28.020  13.911  1.00  0.00     0.126 A 
ATOM      5  C   UNL     1      -4.437 -28.606  12.949  1.00  0.00     0.143 A 
ATOM      6  C   UNL     1      -4.941 -29.644  12.136  1.00  0.00     0.094 A 
ATOM      7  C   UNL     1      -6.254 -30.101  12.294  1.00  0.00     0.128 A 
ATOM      8  C   UNL     1      -7.084 -29.519  13.258  1.00  0.00     0.162 A 
ATOM      9  C   UNL     1      -6.606 -28.478  14.058  1.00  0.00     0.368 A 
ATOM     10  O   UNL     1      -7.415 -27.917  14.953  1.00  0.00    -0.202 OA
ENDROOT
BRANCH   1  11
ATOM     11  C   UNL     1      -8.033 -26.358  16.692  1.00  0.00     0.084 A 
ATOM     12  C   UNL     1      -8.178 -26.891  17.987  1.00  0.00     0.022 A 
ATOM     13  C   UNL     1      -9.123 -26.358  18.870  1.00  0.00     0.047 A 
ATOM     14  C   UNL     1      -9.914 -25.269  18.480  1.00  0.00     0.115 A 
ATOM     15  C   UNL     1      -8.821 -25.258  16.314  1.00  0.00     0.022 A 
ATOM     16  C   UNL     1      -9.755 -24.718  17.203  1.00  0.00     0.047 A 
BRANCH  14  17
ATOM     17  O   UNL     1     -10.851 -24.747  19.369  1.00  0.00    -0.508 OA
ATOM     18  H   UNL     1     -11.216 -25.300  20.136  1.00  0.00     0.293 HD
ENDBRANCH  14  17
ENDBRANCH   1  11
BRANCH   2  19
ATOM     19  O   UNL     1      -5.356 -25.333  16.497  1.00  0.00    -0.452 OA
BRANCH  19  20
ATOM     20  C   UNL     1      -4.763 -25.435  17.797  1.00  0.00     0.339 C 
ATOM     21  C   UNL     1      -5.049 -24.179  18.659  1.00  0.00     0.214 C 
ATOM     22  O   UNL     1      -3.371 -25.652  17.652  1.00  0.00    -0.332 OA
ATOM     23  C   UNL     1      -4.493 -22.896  17.987  1.00  0.00     0.180 C 
ATOM     24  C   UNL     1      -2.595 -24.497  17.314  1.00  0.00     0.179 C 
ATOM     25  C   UNL     1      -3.415 -23.228  16.926  1.00  0.00     0.177 C 
BRANCH  21  26
ATOM     26  O   UNL     1      -6.426 -24.045  18.921  1.00  0.00    -0.384 OA
ATOM     27  H   UNL     1      -6.591 -23.077  19.090  1.00  0.00     0.211 HD
ENDBRANCH  21  26
BRANCH  23  28
ATOM     28  O   UNL     1      -5.518 -22.109  17.425  1.00  0.00    -0.387 OA
ATOM     29  H   UNL     1      -5.769 -22.523  16.555  1.00  0.00     0.211 HD
ENDBRANCH  23  28
BRANCH  24  30
ATOM     30  C   UNL     1      -1.590 -24.239  18.448  1.00  0.00     0.191 C 
BRANCH  30  31
ATOM     31  O   UNL     1      -0.531 -23.445  17.989  1.00  0.00    -0.394 OA
ATOM     32  H   UNL     1      -0.216 -22.916  18.771  1.00  0.00     0.210 HD
ENDBRANCH  30  31
ENDBRANCH  24  30
BRANCH  25  33
ATOM     33  O   UNL     1      -2.559 -22.128  16.740  1.00  0.00    -0.387 OA
ATOM     34  H   UNL     1      -2.263 -21.838  17.644  1.00  0.00     0.211 HD
ENDBRANCH  25  33
ENDBRANCH  19  20
ENDBRANCH   2  19
BRANCH   5  35
ATOM     35  O   UNL     1      -3.118 -28.137  12.822  1.00  0.00    -0.461 OA
BRANCH  35  36
ATOM     36  C   UNL     1      -1.983 -28.730  13.459  1.00  0.00     0.339 C 
ATOM     37  C   UNL     1      -1.837 -30.199  13.028  1.00  0.00     0.214 C 
ATOM     38  O   UNL     1      -0.796 -27.989  13.224  1.00  0.00    -0.332 OA
ATOM     39  C   UNL     1      -1.375 -30.286  11.561  1.00  0.00     0.180 C 
ATOM     40  C   UNL     1      -0.437 -27.959  11.851  1.00  0.00     0.179 C 
ATOM     41  C   UNL     1      -0.145 -29.393  11.340  1.00  0.00     0.177 C 
BRANCH  37  42
ATOM     42  O   UNL     1      -0.901 -30.836  13.866  1.00  0.00    -0.384 OA
ATOM     43  H   UNL     1      -1.368 -31.039  14.723  1.00  0.00     0.211 HD
ENDBRANCH  37  42
BRANCH  39  44
ATOM     44  O   UNL     1      -1.057 -31.613  11.235  1.00  0.00    -0.387 OA
ATOM     45  H   UNL     1      -0.370 -31.573  10.519  1.00  0.00     0.211 HD
ENDBRANCH  39  44
BRANCH  40  46
ATOM     46  C   UNL     1       0.799 -27.050  11.696  1.00  0.00     0.191 C 
BRANCH  46  47
ATOM     47  O   UNL     1       0.950 -26.665  10.353  1.00  0.00    -0.394 OA
ATOM     48  H   UNL     1       0.156 -27.008   9.862  1.00  0.00     0.210 HD
ENDBRANCH  46  47
ENDBRANCH  40  46
BRANCH  41  49
ATOM     49  O   UNL     1       0.213 -29.379   9.978  1.00  0.00    -0.387 OA
ATOM     50  H   UNL     1      -0.603 -29.537   9.440  1.00  0.00     0.211 HD
ENDBRANCH  41  49
ENDBRANCH  35  36
ENDBRANCH   5  35
BRANCH   7  51
ATOM     51  O   UNL     1      -6.744 -31.138  11.503  1.00  0.00    -0.507 OA
ATOM     52  H   UNL     1      -7.670 -31.522  11.646  1.00  0.00     0.293 HD
ENDBRANCH   7  51
TORSDOF 17
ENDMDL
MODEL 8
REMARK VINA RESULT:    -5.097      2.382      4.156
REMARK INTER + INTRA:         -10.840
REMARK INTER:                  -9.275
REMARK INTRA:                  -1.565
REMARK UNBOUND:                -2.168
REMARK SMILES OC[C@@H]1O[C@@H](Oc2cc(O)cc3[o+]c(-c4ccc(O)cc4)c(O[C@H]4O[C@H](CO)[C@H](O)[C@@H](O)[C@H]4O)cc23)[C@H](O)[C@H](O)[C@H]1O.[Cl-]
REMARK SMILES IDX 14 1 22 2 35 3 36 4 7 5 8 6 9 7 11 8 12 9 13 10 15 11 16 12
REMARK SMILES IDX 17 13 18 14 21 15 20 16 19 17 23 19 24 20 33 21 25 22 31 23
REMARK SMILES IDX 26 24 29 25 34 26 32 28 27 30 28 31 30 33 6 35 5 36 37 37
REMARK SMILES IDX 4 38 39 39 3 40 41 41 38 42 40 44 2 46 1 47 42 49 10 51
REMARK H PARENT 19 18 34 27 32 29 28 32 30 34 38 43 40 45 1 48 42 50 10 52
REMARK Flexibility Score: inf
ROOT
ATOM      1  C   UNL     1      -3.132 -30.186   9.622  1.00  0.00     0.402 A 
ATOM      2  C   UNL     1      -2.369 -29.750  10.725  1.00  0.00     0.229 A 
ATOM      3  C   UNL     1      -3.046 -29.338  11.881  1.00  0.00     0.079 A 
ATOM      4  C   UNL     1      -4.445 -29.343  11.911  1.00  0.00     0.126 A 
ATOM      5  C   UNL     1      -5.162 -28.952  13.059  1.00  0.00     0.143 A 
ATOM      6  C   UNL     1      -6.571 -29.027  13.044  1.00  0.00     0.094 A 
ATOM      7  C   UNL     1      -7.250 -29.463  11.901  1.00  0.00     0.128 A 
ATOM      8  C   UNL     1      -6.531 -29.841  10.763  1.00  0.00     0.162 A 
ATOM      9  C   UNL     1      -5.134 -29.791  10.768  1.00  0.00     0.368 A 
ATOM     10  O   UNL     1      -4.462 -30.177   9.687  1.00  0.00    -0.202 OA
ENDROOT
BRANCH   1  11
ATOM     11  C   UNL     1      -2.494 -30.641   8.366  1.00  0.00     0.084 A 
ATOM     12  C   UNL     1      -1.094 -30.669   8.216  1.00  0.00     0.022 A 
ATOM     13  C   UNL     1      -0.519 -31.101   7.016  1.00  0.00     0.047 A 
ATOM     14  C   UNL     1      -1.335 -31.535   5.963  1.00  0.00     0.115 A 
ATOM     15  C   UNL     1      -3.303 -31.091   7.310  1.00  0.00     0.022 A 
ATOM     16  C   UNL     1      -2.726 -31.535   6.116  1.00  0.00     0.047 A 
BRANCH  14  17
ATOM     17  O   UNL     1      -0.750 -31.964   4.773  1.00  0.00    -0.508 OA
ATOM     18  H   UNL     1      -1.196 -31.800   3.877  1.00  0.00     0.293 HD
ENDBRANCH  14  17
ENDBRANCH   1  11
BRANCH   2  19
ATOM     19  O   UNL     1      -0.966 -29.744  10.628  1.00  0.00    -0.452 OA
BRANCH  19  20
ATOM     20  C   UNL     1      -0.021 -29.719  11.705  1.00  0.00     0.339 C 
ATOM     21  C   UNL     1       0.619 -28.318  11.876  1.00  0.00     0.214 C 
ATOM     22  O   UNL     1       0.965 -30.710  11.476  1.00  0.00    -0.332 OA
ATOM     23  C   UNL     1       1.363 -27.879  10.587  1.00  0.00     0.180 C 
ATOM     24  C   UNL     1       1.962 -30.380  10.503  1.00  0.00     0.179 C 
ATOM     25  C   UNL     1       1.688 -29.087   9.674  1.00  0.00     0.177 C 
BRANCH  21  26
ATOM     26  O   UNL     1      -0.344 -27.360  12.244  1.00  0.00    -0.384 OA
ATOM     27  H   UNL     1      -1.142 -27.866  12.561  1.00  0.00     0.211 HD
ENDBRANCH  21  26
BRANCH  23  28
ATOM     28  O   UNL     1       0.648 -26.896   9.875  1.00  0.00    -0.387 OA
ATOM     29  H   UNL     1       0.834 -26.018  10.308  1.00  0.00     0.211 HD
ENDBRANCH  23  28
BRANCH  24  30
ATOM     30  C   UNL     1       3.332 -30.367  11.199  1.00  0.00     0.191 C 
BRANCH  30  31
ATOM     31  O   UNL     1       4.345 -30.693  10.288  1.00  0.00    -0.394 OA
ATOM     32  H   UNL     1       4.135 -31.603   9.945  1.00  0.00     0.210 HD
ENDBRANCH  30  31
ENDBRANCH  24  30
BRANCH  25  33
ATOM     33  O   UNL     1       2.786 -28.792   8.847  1.00  0.00    -0.387 OA
ATOM     34  H   UNL     1       3.401 -29.573   8.895  1.00  0.00     0.211 HD
ENDBRANCH  25  33
ENDBRANCH  19  20
ENDBRANCH   2  19
BRANCH   5  35
ATOM     35  O   UNL     1      -4.454 -28.504  14.187  1.00  0.00    -0.461 OA
BRANCH  35  36
ATOM     36  C   UNL     1      -3.720 -27.278  14.249  1.00  0.00     0.339 C 
ATOM     37  C   UNL     1      -4.470 -26.250  15.114  1.00  0.00     0.214 C 
ATOM     38  O   UNL     1      -2.389 -27.478  14.699  1.00  0.00    -0.332 OA
ATOM     39  C   UNL     1      -4.411 -26.653  16.600  1.00  0.00     0.180 C 
ATOM     40  C   UNL     1      -2.335 -27.974  16.029  1.00  0.00     0.179 C 
ATOM     41  C   UNL     1      -2.961 -26.950  17.010  1.00  0.00     0.177 C 
BRANCH  37  42
ATOM     42  O   UNL     1      -3.886 -24.981  14.936  1.00  0.00    -0.384 OA
ATOM     43  H   UNL     1      -3.230 -25.064  14.189  1.00  0.00     0.211 HD
ENDBRANCH  37  42
BRANCH  39  44
ATOM     44  O   UNL     1      -4.922 -25.620  17.399  1.00  0.00    -0.387 OA
ATOM     45  H   UNL     1      -4.276 -25.488  18.140  1.00  0.00     0.211 HD
ENDBRANCH  39  44
BRANCH  40  46
ATOM     46  C   UNL     1      -0.859 -28.250  16.379  1.00  0.00     0.191 C 
BRANCH  46  47
ATOM     47  O   UNL     1      -0.085 -28.294  15.205  1.00  0.00    -0.394 OA
ATOM     48  H   UNL     1       0.505 -27.493  15.216  1.00  0.00     0.210 HD
ENDBRANCH  46  47
ENDBRANCH  40  46
BRANCH  41  49
ATOM     49  O   UNL     1      -2.913 -27.428  18.334  1.00  0.00    -0.387 OA
ATOM     50  H   UNL     1      -3.659 -27.018  18.840  1.00  0.00     0.211 HD
ENDBRANCH  41  49
ENDBRANCH  35  36
ENDBRANCH   5  35
BRANCH   7  51
ATOM     51  O   UNL     1      -8.643 -29.519  11.882  1.00  0.00    -0.507 OA
ATOM     52  H   UNL     1      -9.207 -28.854  12.396  1.00  0.00     0.293 HD
ENDBRANCH   7  51
TORSDOF 17
ENDMDL
MODEL 9
REMARK VINA RESULT:    -4.985      2.869      6.796
REMARK INTER + INTRA:         -10.650
REMARK INTER:                  -7.700
REMARK INTRA:                  -2.950
REMARK UNBOUND:                -2.168
REMARK SMILES OC[C@@H]1O[C@@H](Oc2cc(O)cc3[o+]c(-c4ccc(O)cc4)c(O[C@H]4O[C@H](CO)[C@H](O)[C@@H](O)[C@H]4O)cc23)[C@H](O)[C@H](O)[C@H]1O.[Cl-]
REMARK SMILES IDX 14 1 22 2 35 3 36 4 7 5 8 6 9 7 11 8 12 9 13 10 15 11 16 12
REMARK SMILES IDX 17 13 18 14 21 15 20 16 19 17 23 19 24 20 33 21 25 22 31 23
REMARK SMILES IDX 26 24 29 25 34 26 32 28 27 30 28 31 30 33 6 35 5 36 37 37
REMARK SMILES IDX 4 38 39 39 3 40 41 41 38 42 40 44 2 46 1 47 42 49 10 51
REMARK H PARENT 19 18 34 27 32 29 28 32 30 34 38 43 40 45 1 48 42 50 10 52
REMARK Flexibility Score: inf
ROOT
ATOM      1  C   UNL     1      -5.099 -28.227  14.907  1.00  0.00     0.402 A 
ATOM      2  C   UNL     1      -5.631 -27.068  15.507  1.00  0.00     0.229 A 
ATOM      3  C   UNL     1      -7.022 -26.971  15.650  1.00  0.00     0.079 A 
ATOM      4  C   UNL     1      -7.846 -28.000  15.179  1.00  0.00     0.126 A 
ATOM      5  C   UNL     1      -9.247 -27.947  15.318  1.00  0.00     0.143 A 
ATOM      6  C   UNL     1     -10.020 -29.038  14.867  1.00  0.00     0.094 A 
ATOM      7  C   UNL     1      -9.410 -30.148  14.273  1.00  0.00     0.128 A 
ATOM      8  C   UNL     1      -8.020 -30.189  14.131  1.00  0.00     0.162 A 
ATOM      9  C   UNL     1      -7.238 -29.124  14.589  1.00  0.00     0.368 A 
ATOM     10  O   UNL     1      -5.915 -29.186  14.470  1.00  0.00    -0.202 OA
ENDROOT
BRANCH   1  11
ATOM     11  C   UNL     1      -3.641 -28.410  14.722  1.00  0.00     0.084 A 
ATOM     12  C   UNL     1      -2.865 -29.135  15.646  1.00  0.00     0.022 A 
ATOM     13  C   UNL     1      -1.488 -29.288  15.447  1.00  0.00     0.047 A 
ATOM     14  C   UNL     1      -0.877 -28.743  14.311  1.00  0.00     0.115 A 
ATOM     15  C   UNL     1      -3.022 -27.878  13.579  1.00  0.00     0.022 A 
ATOM     16  C   UNL     1      -1.649 -28.044  13.375  1.00  0.00     0.047 A 
BRANCH  14  17
ATOM     17  O   UNL     1       0.494 -28.903  14.124  1.00  0.00    -0.508 OA
ATOM     18  H   UNL     1       0.987 -29.706  14.498  1.00  0.00     0.293 HD
ENDBRANCH  14  17
ENDBRANCH   1  11
BRANCH   2  19
ATOM     19  O   UNL     1      -4.754 -26.057  15.939  1.00  0.00    -0.452 OA
BRANCH  19  20
ATOM     20  C   UNL     1      -3.872 -26.097  17.067  1.00  0.00     0.339 C 
ATOM     21  C   UNL     1      -4.545 -25.535  18.345  1.00  0.00     0.214 C 
ATOM     22  O   UNL     1      -2.690 -25.382  16.752  1.00  0.00    -0.332 OA
ATOM     23  C   UNL     1      -4.988 -24.062  18.146  1.00  0.00     0.180 C 
ATOM     24  C   UNL     1      -2.797 -23.955  16.801  1.00  0.00     0.179 C 
ATOM     25  C   UNL     1      -4.244 -23.396  16.961  1.00  0.00     0.177 C 
BRANCH  21  26
ATOM     26  O   UNL     1      -5.637 -26.333  18.737  1.00  0.00    -0.384 OA
ATOM     27  H   UNL     1      -5.790 -26.150  19.705  1.00  0.00     0.211 HD
ENDBRANCH  21  26
BRANCH  23  28
ATOM     28  O   UNL     1      -6.383 -23.947  17.985  1.00  0.00    -0.387 OA
ATOM     29  H   UNL     1      -6.811 -24.571  18.634  1.00  0.00     0.211 HD
ENDBRANCH  23  28
BRANCH  24  30
ATOM     30  C   UNL     1      -1.830 -23.433  17.875  1.00  0.00     0.191 C 
BRANCH  30  31
ATOM     31  O   UNL     1      -1.480 -22.102  17.611  1.00  0.00    -0.394 OA
ATOM     32  H   UNL     1      -0.817 -22.126  16.870  1.00  0.00     0.210 HD
ENDBRANCH  30  31
ENDBRANCH  24  30
BRANCH  25  33
ATOM     33  O   UNL     1      -4.217 -22.000  17.125  1.00  0.00    -0.387 OA
ATOM     34  H   UNL     1      -3.684 -21.817  17.946  1.00  0.00     0.211 HD
ENDBRANCH  25  33
ENDBRANCH  19  20
ENDBRANCH   2  19
BRANCH   5  35
ATOM     35  O   UNL     1      -9.834 -26.813  15.905  1.00  0.00    -0.461 OA
BRANCH  35  36
ATOM     36  C   UNL     1     -10.618 -26.834  17.101  1.00  0.00     0.339 C 
ATOM     37  C   UNL     1      -9.703 -26.879  18.337  1.00  0.00     0.214 C 
ATOM     38  O   UNL     1     -11.530 -25.749  17.157  1.00  0.00    -0.332 OA
ATOM     39  C   UNL     1      -8.990 -25.527  18.527  1.00  0.00     0.180 C 
ATOM     40  C   UNL     1     -10.874 -24.490  17.203  1.00  0.00     0.179 C 
ATOM     41  C   UNL     1     -10.011 -24.381  18.486  1.00  0.00     0.177 C 
BRANCH  37  42
ATOM     42  O   UNL     1     -10.477 -27.180  19.475  1.00  0.00    -0.384 OA
ATOM     43  H   UNL     1     -11.278 -27.681  19.158  1.00  0.00     0.211 HD
ENDBRANCH  37  42
BRANCH  39  44
ATOM     44  O   UNL     1      -8.314 -25.509  19.756  1.00  0.00    -0.387 OA
ATOM     45  H   UNL     1      -7.591 -24.833  19.673  1.00  0.00     0.211 HD
ENDBRANCH  39  44
BRANCH  40  46
ATOM     46  C   UNL     1     -11.949 -23.386  17.159  1.00  0.00     0.191 C 
BRANCH  46  47
ATOM     47  O   UNL     1     -11.375 -22.169  16.750  1.00  0.00    -0.394 OA
ATOM     48  H   UNL     1     -10.605 -21.994  17.355  1.00  0.00     0.210 HD
ENDBRANCH  46  47
ENDBRANCH  40  46
BRANCH  41  49
ATOM     49  O   UNL     1      -9.354 -23.136  18.545  1.00  0.00    -0.387 OA
ATOM     50  H   UNL     1      -8.938 -23.045  19.440  1.00  0.00     0.211 HD
ENDBRANCH  41  49
ENDBRANCH  35  36
ENDBRANCH   5  35
BRANCH   7  51
ATOM     51  O   UNL     1     -10.177 -31.217  13.812  1.00  0.00    -0.507 OA
ATOM     52  H   UNL     1     -10.369 -32.022  14.395  1.00  0.00     0.293 HD
ENDBRANCH   7  51
TORSDOF 17
ENDMDL
