MODEL 1
REMARK VINA RESULT:    -9.872      0.000      0.000
REMARK INTER + INTRA:         -12.937
REMARK INTER:                 -11.314
REMARK INTRA:                  -1.622
REMARK UNBOUND:                -1.622
REMARK SMILES C[C@@H]1O[C@@H](OC[C@H]2O[C@H](Oc3c(-c4ccc(O)c(O)c4)oc4cc(O)cc(O)c4c3=O)[C@@H](O)[C@H](O)[C@H]2O)[C@H](O)[C@H](O)[C@@H]1O
REMARK SMILES IDX 7 1 36 2 34 3 32 4 9 5 8 6 6 7 5 8 4 9 1 10 2 11 42 12 3 13
REMARK SMILES IDX 40 14 38 15 43 16 41 18 39 20 37 22 35 24 10 26 11 27 12 28
REMARK SMILES IDX 30 29 21 30 29 31 31 32 22 33 27 34 23 35 26 36 24 37 13 38
REMARK SMILES IDX 20 39 14 40 18 41 15 42 16 43 19 44 17 46 28 48 25 50 33 52
REMARK H PARENT 43 17 41 19 39 21 37 23 35 25 19 45 17 47 28 49 25 51 33 53
REMARK Flexibility Score: inf
ROOT
ATOM      1  C   UNL     1      30.706  -4.087  33.068  1.00  0.00     0.180 C 
ATOM      2  C   UNL     1      32.156  -5.029  33.028  1.00  0.00     0.177 C 
ATOM      3  C   UNL     1      34.225  -4.453  32.898  1.00  0.00     0.180 C 
ATOM      4  C   UNL     1      34.493  -5.355  34.253  1.00  0.00     0.214 C 
ATOM      5  C   UNL     1      32.956  -3.645  34.636  1.00  0.00     0.339 C 
ATOM      6  O   UNL     1      31.552  -2.947  33.446  1.00  0.00    -0.332 OA
ENDROOT
BRANCH   1   7
ATOM      7  C   UNL     1      29.137  -3.861  34.395  1.00  0.00     0.198 C 
BRANCH   7   8
ATOM      8  O   UNL     1      27.294  -3.329  34.102  1.00  0.00    -0.347 OA
BRANCH   8   9
ATOM      9  C   UNL     1      25.762  -2.150  34.450  1.00  0.00     0.281 C 
ATOM     10  C   UNL     1      23.484   1.655  35.214  1.00  0.00     0.041 C 
ATOM     11  C   UNL     1      25.013   0.750  35.427  1.00  0.00     0.150 C 
ATOM     12  C   UNL     1      24.523   0.429  36.823  1.00  0.00     0.174 C 
ATOM     13  O   UNL     1      26.027  -0.556  34.855  1.00  0.00    -0.344 OA
ATOM     14  C   UNL     1      24.066  -1.047  36.558  1.00  0.00     0.179 C 
ATOM     15  C   UNL     1      23.860  -1.665  34.987  1.00  0.00     0.202 C 
BRANCH  12  16
ATOM     16  O   UNL     1      23.429   1.124  37.518  1.00  0.00    -0.388 OA
ATOM     17  H   UNL     1      22.504   2.035  37.649  1.00  0.00     0.211 HD
ENDBRANCH  12  16
BRANCH  14  18
ATOM     18  O   UNL     1      22.617  -0.958  36.652  1.00  0.00    -0.387 OA
ATOM     19  H   UNL     1      21.950  -0.521  37.433  1.00  0.00     0.211 HD
ENDBRANCH  14  18
BRANCH  15  20
ATOM     20  O   UNL     1      22.508  -0.957  34.229  1.00  0.00    -0.385 OA
ATOM     21  H   UNL     1      21.876  -0.502  33.434  1.00  0.00     0.211 HD
ENDBRANCH  15  20
ENDBRANCH   8   9
ENDBRANCH   7   8
ENDBRANCH   1   7
BRANCH   2  22
ATOM     22  O   UNL     1      31.510  -5.909  34.067  1.00  0.00    -0.387 OA
ATOM     23  H   UNL     1      30.181  -5.913  34.167  1.00  0.00     0.211 HD
ENDBRANCH   2  22
BRANCH   3  24
ATOM     24  O   UNL     1      34.143  -2.988  32.725  1.00  0.00    -0.387 OA
ATOM     25  H   UNL     1      34.415  -2.404  31.810  1.00  0.00     0.211 HD
ENDBRANCH   3  24
BRANCH   5  26
ATOM     26  O   UNL     1      33.568  -1.910  35.652  1.00  0.00    -0.454 OA
BRANCH  26  27
ATOM     27  C   UNL     1      34.094  -0.065  36.428  1.00  0.00     0.214 A 
ATOM     28  C   UNL     1      34.871   0.431  35.166  1.00  0.00     0.180 A 
ATOM     29  C   UNL     1      34.728   0.262  38.435  1.00  0.00     0.239 A 
ATOM     30  O   UNL     1      34.336  -0.164  36.524  1.00  0.00    -0.452 OA
ATOM     31  C   UNL     1      36.313  -0.226  39.161  1.00  0.00     0.111 A 
ATOM     32  O   UNL     1      33.879   1.165  39.101  1.00  0.00    -0.285 OA
ATOM     33  C   UNL     1      34.992  -0.832  38.386  1.00  0.00     0.146 A 
ATOM     34  C   UNL     1      36.978   0.783  40.283  1.00  0.00     0.134 A 
ATOM     35  C   UNL     1      34.833  -1.396  40.044  1.00  0.00     0.094 A 
ATOM     36  C   UNL     1      36.134   0.841  41.456  1.00  0.00     0.093 A 
ATOM     37  C   UNL     1      35.404  -0.621  41.504  1.00  0.00     0.123 A 
BRANCH  28  38
ATOM     38  C   UNL     1      34.801   1.366  32.810  1.00  0.00     0.025 A 
ATOM     39  C   UNL     1      34.525   0.655  31.527  1.00  0.00     0.062 A 
ATOM     40  C   UNL     1      33.404   3.198  32.810  1.00  0.00     0.016 A 
ATOM     41  C   UNL     1      33.846   1.070  32.835  1.00  0.00     0.158 A 
ATOM     42  C   UNL     1      33.798   3.967  31.962  1.00  0.00     0.051 A 
ATOM     43  C   UNL     1      33.795   3.227  33.400  1.00  0.00     0.157 A 
BRANCH  41  44
ATOM     44  O   UNL     1      33.075  -0.345  33.457  1.00  0.00    -0.504 OA
ATOM     45  H   UNL     1      33.760  -0.875  34.158  1.00  0.00     0.293 HD
ENDBRANCH  41  44
BRANCH  43  46
ATOM     46  O   UNL     1      34.609   3.953  34.775  1.00  0.00    -0.504 OA
ATOM     47  H   UNL     1      34.931   3.476  35.673  1.00  0.00     0.293 HD
ENDBRANCH  43  46
ENDBRANCH  28  38
BRANCH  34  48
ATOM     48  O   UNL     1      36.772   1.675  39.055  1.00  0.00    -0.507 OA
ATOM     49  H   UNL     1      35.973   1.684  38.408  1.00  0.00     0.293 HD
ENDBRANCH  34  48
BRANCH  37  50
ATOM     50  O   UNL     1      35.205  -1.191  42.803  1.00  0.00    -0.508 OA
ATOM     51  H   UNL     1      34.394  -1.134  43.384  1.00  0.00     0.293 HD
ENDBRANCH  37  50
ENDBRANCH  26  27
ENDBRANCH   5  26
BRANCH   4  52
ATOM     52  O   UNL     1      35.226  -7.116  34.657  1.00  0.00    -0.384 OA
ATOM     53  H   UNL     1      35.540  -8.429  35.025  1.00  0.00     0.211 HD
ENDBRANCH   4  52
TORSDOF 16
ENDMDL
MODEL 2
REMARK VINA RESULT:    -9.766      5.543     10.517
REMARK INTER + INTRA:         -12.815
REMARK INTER:                 -10.511
REMARK INTRA:                  -2.305
REMARK UNBOUND:                -1.622
REMARK SMILES C[C@@H]1O[C@@H](OC[C@H]2O[C@H](Oc3c(-c4ccc(O)c(O)c4)oc4cc(O)cc(O)c4c3=O)[C@@H](O)[C@H](O)[C@H]2O)[C@H](O)[C@H](O)[C@@H]1O
REMARK SMILES IDX 7 1 36 2 34 3 32 4 9 5 8 6 6 7 5 8 4 9 1 10 2 11 42 12 3 13
REMARK SMILES IDX 40 14 38 15 43 16 41 18 39 20 37 22 35 24 10 26 11 27 12 28
REMARK SMILES IDX 30 29 21 30 29 31 31 32 22 33 27 34 23 35 26 36 24 37 13 38
REMARK SMILES IDX 20 39 14 40 18 41 15 42 16 43 19 44 17 46 28 48 25 50 33 52
REMARK H PARENT 43 17 41 19 39 21 37 23 35 25 19 45 17 47 28 49 25 51 33 53
REMARK Flexibility Score: inf
ROOT
ATOM      1  C   UNL     1      31.151   5.703  35.106  1.00  0.00     0.180 C 
ATOM      2  C   UNL     1      30.800   4.874  33.630  1.00  0.00     0.177 C 
ATOM      3  C   UNL     1      30.238   2.833  33.241  1.00  0.00     0.180 C 
ATOM      4  C   UNL     1      28.931   3.418  32.423  1.00  0.00     0.214 C 
ATOM      5  C   UNL     1      28.933   4.093  34.654  1.00  0.00     0.339 C 
ATOM      6  O   UNL     1      30.452   4.609  35.793  1.00  0.00    -0.332 OA
ENDROOT
BRANCH   1   7
ATOM      7  C   UNL     1      30.367   7.343  36.092  1.00  0.00     0.198 C 
BRANCH   7   8
ATOM      8  O   UNL     1      30.101   7.676  37.986  1.00  0.00    -0.347 OA
BRANCH   8   9
ATOM      9  C   UNL     1      30.314   7.175  39.873  1.00  0.00     0.281 C 
ATOM     10  C   UNL     1      32.319   5.701  43.623  1.00  0.00     0.041 C 
ATOM     11  C   UNL     1      32.201   5.595  41.840  1.00  0.00     0.150 C 
ATOM     12  C   UNL     1      31.358   4.356  42.062  1.00  0.00     0.174 C 
ATOM     13  O   UNL     1      31.696   6.383  40.362  1.00  0.00    -0.344 OA
ATOM     14  C   UNL     1      29.954   4.999  41.790  1.00  0.00     0.179 C 
ATOM     15  C   UNL     1      29.718   6.683  41.756  1.00  0.00     0.202 C 
BRANCH  12  16
ATOM     16  O   UNL     1      31.274   3.601  43.320  1.00  0.00    -0.388 OA
ATOM     17  H   UNL     1      30.909   2.601  44.074  1.00  0.00     0.211 HD
ENDBRANCH  12  16
BRANCH  14  18
ATOM     18  O   UNL     1      29.339   4.997  43.108  1.00  0.00    -0.387 OA
ATOM     19  H   UNL     1      29.768   4.844  44.127  1.00  0.00     0.211 HD
ENDBRANCH  14  18
BRANCH  15  20
ATOM     20  O   UNL     1      29.884   7.351  43.315  1.00  0.00    -0.385 OA
ATOM     21  H   UNL     1      30.368   7.726  44.244  1.00  0.00     0.211 HD
ENDBRANCH  15  20
ENDBRANCH   8   9
ENDBRANCH   7   8
ENDBRANCH   1   7
BRANCH   2  22
ATOM     22  O   UNL     1      30.076   6.124  33.201  1.00  0.00    -0.387 OA
ATOM     23  H   UNL     1      29.186   6.043  32.213  1.00  0.00     0.211 HD
ENDBRANCH   2  22
BRANCH   3  24
ATOM     24  O   UNL     1      30.329   2.212  34.579  1.00  0.00    -0.387 OA
ATOM     25  H   UNL     1      30.488   1.128  34.806  1.00  0.00     0.211 HD
ENDBRANCH   3  24
BRANCH   5  26
ATOM     26  O   UNL     1      27.663   3.135  36.027  1.00  0.00    -0.454 OA
BRANCH  26  27
ATOM     27  C   UNL     1      26.426   1.974  37.212  1.00  0.00     0.214 A 
ATOM     28  C   UNL     1      25.411   1.604  36.083  1.00  0.00     0.180 A 
ATOM     29  C   UNL     1      25.874   2.457  39.212  1.00  0.00     0.239 A 
ATOM     30  O   UNL     1      26.263   2.192  37.271  1.00  0.00    -0.452 OA
ATOM     31  C   UNL     1      24.742   3.770  39.734  1.00  0.00     0.111 A 
ATOM     32  O   UNL     1      26.275   1.453  40.113  1.00  0.00    -0.285 OA
ATOM     33  C   UNL     1      26.128   3.505  38.885  1.00  0.00     0.146 A 
ATOM     34  C   UNL     1      23.785   3.472  41.044  1.00  0.00     0.134 A 
ATOM     35  C   UNL     1      26.655   4.308  40.358  1.00  0.00     0.094 A 
ATOM     36  C   UNL     1      24.602   3.315  42.227  1.00  0.00     0.093 A 
ATOM     37  C   UNL     1      25.913   4.249  41.941  1.00  0.00     0.123 A 
BRANCH  28  38
ATOM     38  C   UNL     1      24.866   0.213  34.034  1.00  0.00     0.025 A 
ATOM     39  C   UNL     1      25.418   0.323  32.652  1.00  0.00     0.062 A 
ATOM     40  C   UNL     1      25.075  -2.009  34.604  1.00  0.00     0.016 A 
ATOM     41  C   UNL     1      25.833  -0.041  34.080  1.00  0.00     0.158 A 
ATOM     42  C   UNL     1      24.294  -2.643  33.929  1.00  0.00     0.051 A 
ATOM     43  C   UNL     1      24.756  -1.680  35.144  1.00  0.00     0.157 A 
BRANCH  41  44
ATOM     44  O   UNL     1      27.265   0.863  34.420  1.00  0.00    -0.504 OA
ATOM     45  H   UNL     1      27.728   1.214  33.469  1.00  0.00     0.293 HD
ENDBRANCH  41  44
BRANCH  43  46
ATOM     46  O   UNL     1      23.744  -1.497  36.566  1.00  0.00    -0.504 OA
ATOM     47  H   UNL     1      22.725  -1.185  36.610  1.00  0.00     0.293 HD
ENDBRANCH  43  46
ENDBRANCH  28  38
BRANCH  34  48
ATOM     48  O   UNL     1      23.469   2.322  40.082  1.00  0.00    -0.507 OA
ATOM     49  H   UNL     1      22.566   1.857  39.929  1.00  0.00     0.293 HD
ENDBRANCH  34  48
BRANCH  37  50
ATOM     50  O   UNL     1      26.451   4.954  43.066  1.00  0.00    -0.508 OA
ATOM     51  H   UNL     1      25.955   5.367  43.829  1.00  0.00     0.293 HD
ENDBRANCH  37  50
ENDBRANCH  26  27
ENDBRANCH   5  26
BRANCH   4  52
ATOM     52  O   UNL     1      28.437   3.688  30.556  1.00  0.00    -0.384 OA
ATOM     53  H   UNL     1      28.173   3.671  29.182  1.00  0.00     0.211 HD
ENDBRANCH   4  52
TORSDOF 16
ENDMDL
MODEL 3
REMARK VINA RESULT:    -9.756      5.802     12.285
REMARK INTER + INTRA:         -12.804
REMARK INTER:                 -10.256
REMARK INTRA:                  -2.548
REMARK UNBOUND:                -1.622
REMARK SMILES C[C@@H]1O[C@@H](OC[C@H]2O[C@H](Oc3c(-c4ccc(O)c(O)c4)oc4cc(O)cc(O)c4c3=O)[C@@H](O)[C@H](O)[C@H]2O)[C@H](O)[C@H](O)[C@@H]1O
REMARK SMILES IDX 7 1 36 2 34 3 32 4 9 5 8 6 6 7 5 8 4 9 1 10 2 11 42 12 3 13
REMARK SMILES IDX 40 14 38 15 43 16 41 18 39 20 37 22 35 24 10 26 11 27 12 28
REMARK SMILES IDX 30 29 21 30 29 31 31 32 22 33 27 34 23 35 26 36 24 37 13 38
REMARK SMILES IDX 20 39 14 40 18 41 15 42 16 43 19 44 17 46 28 48 25 50 33 52
REMARK H PARENT 43 17 41 19 39 21 37 23 35 25 19 45 17 47 28 49 25 51 33 53
REMARK Flexibility Score: inf
ROOT
ATOM      1  C   UNL     1      25.945   5.939  40.949  1.00  0.00     0.180 C 
ATOM      2  C   UNL     1      24.950   5.071  42.066  1.00  0.00     0.177 C 
ATOM      3  C   UNL     1      22.961   4.272  41.879  1.00  0.00     0.180 C 
ATOM      4  C   UNL     1      23.572   2.814  42.350  1.00  0.00     0.214 C 
ATOM      5  C   UNL     1      24.575   3.587  40.393  1.00  0.00     0.339 C 
ATOM      6  O   UNL     1      25.064   5.426  39.891  1.00  0.00    -0.332 OA
ENDROOT
BRANCH   1   7
ATOM      7  C   UNL     1      27.800   5.634  40.091  1.00  0.00     0.198 C 
BRANCH   7   8
ATOM      8  O   UNL     1      28.465   4.182  38.987  1.00  0.00    -0.347 OA
BRANCH   8   9
ATOM      9  C   UNL     1      28.748   3.334  37.239  1.00  0.00     0.281 C 
ATOM     10  C   UNL     1      30.011   2.899  32.940  1.00  0.00     0.041 C 
ATOM     11  C   UNL     1      29.388   3.982  34.222  1.00  0.00     0.150 C 
ATOM     12  C   UNL     1      28.018   3.759  33.617  1.00  0.00     0.174 C 
ATOM     13  O   UNL     1      29.224   4.265  35.941  1.00  0.00    -0.344 OA
ATOM     14  C   UNL     1      27.480   2.735  34.675  1.00  0.00     0.179 C 
ATOM     15  C   UNL     1      28.506   1.941  35.775  1.00  0.00     0.202 C 
BRANCH  12  16
ATOM     16  O   UNL     1      27.761   3.206  32.280  1.00  0.00    -0.388 OA
ATOM     17  H   UNL     1      27.209   2.387  31.427  1.00  0.00     0.211 HD
ENDBRANCH  12  16
BRANCH  14  18
ATOM     18  O   UNL     1      27.422   1.493  33.920  1.00  0.00    -0.387 OA
ATOM     19  H   UNL     1      26.722   0.624  33.974  1.00  0.00     0.211 HD
ENDBRANCH  14  18
BRANCH  15  20
ATOM     20  O   UNL     1      29.498   0.811  34.972  1.00  0.00    -0.385 OA
ATOM     21  H   UNL     1      29.832   0.067  34.214  1.00  0.00     0.211 HD
ENDBRANCH  15  20
ENDBRANCH   8   9
ENDBRANCH   7   8
ENDBRANCH   1   7
BRANCH   2  22
ATOM     22  O   UNL     1      26.201   4.337  42.475  1.00  0.00    -0.387 OA
ATOM     23  H   UNL     1      26.085   3.230  43.208  1.00  0.00     0.211 HD
ENDBRANCH   2  22
BRANCH   3  24
ATOM     24  O   UNL     1      22.545   4.748  40.543  1.00  0.00    -0.387 OA
ATOM     25  H   UNL     1      23.157   5.348  39.825  1.00  0.00     0.211 HD
ENDBRANCH   3  24
BRANCH   5  26
ATOM     26  O   UNL     1      24.005   2.766  38.544  1.00  0.00    -0.454 OA
BRANCH  26  27
ATOM     27  C   UNL     1      23.315   2.196  36.678  1.00  0.00     0.214 A 
ATOM     28  C   UNL     1      21.800   2.425  36.983  1.00  0.00     0.180 A 
ATOM     29  C   UNL     1      24.082   0.552  35.561  1.00  0.00     0.239 A 
ATOM     30  O   UNL     1      23.281   1.933  36.761  1.00  0.00    -0.452 OA
ATOM     31  C   UNL     1      23.840  -1.205  35.922  1.00  0.00     0.111 A 
ATOM     32  O   UNL     1      24.587   0.968  34.315  1.00  0.00    -0.285 OA
ATOM     33  C   UNL     1      24.413   0.193  36.576  1.00  0.00     0.146 A 
ATOM     34  C   UNL     1      23.690  -2.231  34.638  1.00  0.00     0.134 A 
ATOM     35  C   UNL     1      25.850  -0.768  36.252  1.00  0.00     0.094 A 
ATOM     36  C   UNL     1      24.923  -2.262  33.884  1.00  0.00     0.093 A 
ATOM     37  C   UNL     1      26.085  -1.962  34.995  1.00  0.00     0.123 A 
BRANCH  28  38
ATOM     38  C   UNL     1      19.872   4.046  37.276  1.00  0.00     0.025 A 
ATOM     39  C   UNL     1      19.711   5.141  38.277  1.00  0.00     0.062 A 
ATOM     40  C   UNL     1      19.438   5.015  35.231  1.00  0.00     0.016 A 
ATOM     41  C   UNL     1      20.563   4.740  37.070  1.00  0.00     0.158 A 
ATOM     42  C   UNL     1      18.256   5.277  35.187  1.00  0.00     0.051 A 
ATOM     43  C   UNL     1      19.563   4.327  35.119  1.00  0.00     0.157 A 
BRANCH  41  44
ATOM     44  O   UNL     1      22.212   4.927  37.550  1.00  0.00    -0.504 OA
ATOM     45  H   UNL     1      22.264   5.423  38.546  1.00  0.00     0.293 HD
ENDBRANCH  41  44
BRANCH  43  46
ATOM     46  O   UNL     1      19.492   2.774  34.304  1.00  0.00    -0.504 OA
ATOM     47  H   UNL     1      19.192   1.834  34.710  1.00  0.00     0.293 HD
ENDBRANCH  43  46
ENDBRANCH  28  38
BRANCH  34  48
ATOM     48  O   UNL     1      22.593  -1.186  34.412  1.00  0.00    -0.507 OA
ATOM     49  H   UNL     1      22.541  -0.474  33.672  1.00  0.00     0.293 HD
ENDBRANCH  34  48
BRANCH  37  50
ATOM     50  O   UNL     1      27.316  -2.678  34.839  1.00  0.00    -0.508 OA
ATOM     51  H   UNL     1      27.632  -3.197  34.045  1.00  0.00     0.293 HD
ENDBRANCH  37  50
ENDBRANCH  26  27
ENDBRANCH   5  26
BRANCH   4  52
ATOM     52  O   UNL     1      23.614   1.762  43.991  1.00  0.00    -0.384 OA
ATOM     53  H   UNL     1      23.753   1.190  45.261  1.00  0.00     0.211 HD
ENDBRANCH   4  52
TORSDOF 16
ENDMDL
MODEL 4
REMARK VINA RESULT:    -9.701      4.979     11.397
REMARK INTER + INTRA:         -12.741
REMARK INTER:                 -10.041
REMARK INTRA:                  -2.700
REMARK UNBOUND:                -1.622
REMARK SMILES C[C@@H]1O[C@@H](OC[C@H]2O[C@H](Oc3c(-c4ccc(O)c(O)c4)oc4cc(O)cc(O)c4c3=O)[C@@H](O)[C@H](O)[C@H]2O)[C@H](O)[C@H](O)[C@@H]1O
REMARK SMILES IDX 7 1 36 2 34 3 32 4 9 5 8 6 6 7 5 8 4 9 1 10 2 11 42 12 3 13
REMARK SMILES IDX 40 14 38 15 43 16 41 18 39 20 37 22 35 24 10 26 11 27 12 28
REMARK SMILES IDX 30 29 21 30 29 31 31 32 22 33 27 34 23 35 26 36 24 37 13 38
REMARK SMILES IDX 20 39 14 40 18 41 15 42 16 43 19 44 17 46 28 48 25 50 33 52
REMARK H PARENT 43 17 41 19 39 21 37 23 35 25 19 45 17 47 28 49 25 51 33 53
REMARK Flexibility Score: inf
ROOT
ATOM      1  C   UNL     1      27.080   6.032  41.625  1.00  0.00     0.180 C 
ATOM      2  C   UNL     1      25.727   5.050  42.069  1.00  0.00     0.177 C 
ATOM      3  C   UNL     1      24.258   4.026  40.876  1.00  0.00     0.180 C 
ATOM      4  C   UNL     1      24.651   2.648  41.692  1.00  0.00     0.214 C 
ATOM      5  C   UNL     1      26.481   3.539  40.556  1.00  0.00     0.339 C 
ATOM      6  O   UNL     1      26.981   5.424  40.291  1.00  0.00    -0.332 OA
ENDROOT
BRANCH   1   7
ATOM      7  C   UNL     1      29.121   5.948  41.938  1.00  0.00     0.198 C 
BRANCH   7   8
ATOM      8  O   UNL     1      30.318   4.429  42.108  1.00  0.00    -0.347 OA
BRANCH   8   9
ATOM      9  C   UNL     1      32.088   3.599  41.927  1.00  0.00     0.281 C 
ATOM     10  C   UNL     1      35.336   0.962  40.268  1.00  0.00     0.041 C 
ATOM     11  C   UNL     1      33.586   1.181  40.570  1.00  0.00     0.150 C 
ATOM     12  C   UNL     1      33.777   0.290  41.779  1.00  0.00     0.174 C 
ATOM     13  O   UNL     1      32.290   2.314  40.884  1.00  0.00    -0.344 OA
ATOM     14  C   UNL     1      33.775   1.410  42.876  1.00  0.00     0.179 C 
ATOM     15  C   UNL     1      33.966   3.056  42.493  1.00  0.00     0.202 C 
BRANCH  12  16
ATOM     16  O   UNL     1      34.941  -0.577  42.019  1.00  0.00    -0.388 OA
ATOM     17  H   UNL     1      35.621  -1.488  42.657  1.00  0.00     0.211 HD
ENDBRANCH  12  16
BRANCH  14  18
ATOM     18  O   UNL     1      35.155   1.415  43.334  1.00  0.00    -0.387 OA
ATOM     19  H   UNL     1      35.597   1.400  44.360  1.00  0.00     0.211 HD
ENDBRANCH  14  18
BRANCH  15  20
ATOM     20  O   UNL     1      35.554   3.375  41.963  1.00  0.00    -0.385 OA
ATOM     21  H   UNL     1      36.622   3.203  41.701  1.00  0.00     0.211 HD
ENDBRANCH  15  20
ENDBRANCH   8   9
ENDBRANCH   7   8
ENDBRANCH   1   7
BRANCH   2  22
ATOM     22  O   UNL     1      26.613   4.466  43.138  1.00  0.00    -0.387 OA
ATOM     23  H   UNL     1      27.279   3.342  42.875  1.00  0.00     0.211 HD
ENDBRANCH   2  22
BRANCH   3  24
ATOM     24  O   UNL     1      24.599   4.455  39.503  1.00  0.00    -0.387 OA
ATOM     25  H   UNL     1      24.242   3.994  38.548  1.00  0.00     0.211 HD
ENDBRANCH   3  24
BRANCH   5  26
ATOM     26  O   UNL     1      27.105   2.663  38.750  1.00  0.00    -0.454 OA
BRANCH  26  27
ATOM     27  C   UNL     1      27.882   2.022  36.943  1.00  0.00     0.214 A 
ATOM     28  C   UNL     1      28.378   3.425  36.466  1.00  0.00     0.180 A 
ATOM     29  C   UNL     1      26.955   0.581  35.677  1.00  0.00     0.239 A 
ATOM     30  O   UNL     1      27.643   2.074  36.811  1.00  0.00    -0.452 OA
ATOM     31  C   UNL     1      25.465   0.821  34.677  1.00  0.00     0.111 A 
ATOM     32  O   UNL     1      27.789  -0.533  35.469  1.00  0.00    -0.285 OA
ATOM     33  C   UNL     1      26.023   0.900  36.225  1.00  0.00     0.146 A 
ATOM     34  C   UNL     1      25.401   0.063  33.213  1.00  0.00     0.134 A 
ATOM     35  C   UNL     1      24.990  -0.523  36.196  1.00  0.00     0.094 A 
ATOM     36  C   UNL     1      25.390  -1.371  33.400  1.00  0.00     0.093 A 
ATOM     37  C   UNL     1      24.658  -1.586  34.847  1.00  0.00     0.123 A 
BRANCH  28  38
ATOM     38  C   UNL     1      30.099   5.280  36.624  1.00  0.00     0.025 A 
ATOM     39  C   UNL     1      29.919   6.747  36.417  1.00  0.00     0.062 A 
ATOM     40  C   UNL     1      31.187   5.075  38.645  1.00  0.00     0.016 A 
ATOM     41  C   UNL     1      29.515   5.614  37.365  1.00  0.00     0.158 A 
ATOM     42  C   UNL     1      32.316   5.489  38.504  1.00  0.00     0.051 A 
ATOM     43  C   UNL     1      31.106   4.423  38.379  1.00  0.00     0.157 A 
BRANCH  41  44
ATOM     44  O   UNL     1      27.801   5.716  37.547  1.00  0.00    -0.504 OA
ATOM     45  H   UNL     1      27.329   5.980  36.573  1.00  0.00     0.293 HD
ENDBRANCH  41  44
BRANCH  43  46
ATOM     46  O   UNL     1      31.444   2.721  38.119  1.00  0.00    -0.504 OA
ATOM     47  H   UNL     1      31.584   2.215  37.191  1.00  0.00     0.293 HD
ENDBRANCH  43  46
ENDBRANCH  28  38
BRANCH  34  48
ATOM     48  O   UNL     1      26.687   0.892  33.149  1.00  0.00    -0.507 OA
ATOM     49  H   UNL     1      26.812   1.884  33.386  1.00  0.00     0.293 HD
ENDBRANCH  34  48
BRANCH  37  50
ATOM     50  O   UNL     1      23.792  -2.721  34.961  1.00  0.00    -0.508 OA
ATOM     51  H   UNL     1      23.087  -2.893  35.647  1.00  0.00     0.293 HD
ENDBRANCH  37  50
ENDBRANCH  26  27
ENDBRANCH   5  26
BRANCH   4  52
ATOM     52  O   UNL     1      23.889   1.603  43.151  1.00  0.00    -0.384 OA
ATOM     53  H   UNL     1      23.250   1.053  44.268  1.00  0.00     0.211 HD
ENDBRANCH   4  52
TORSDOF 16
ENDMDL
MODEL 5
REMARK VINA RESULT:    -9.666      5.767     11.798
REMARK INTER + INTRA:         -12.701
REMARK INTER:                 -10.643
REMARK INTRA:                  -2.058
REMARK UNBOUND:                -1.622
REMARK SMILES C[C@@H]1O[C@@H](OC[C@H]2O[C@H](Oc3c(-c4ccc(O)c(O)c4)oc4cc(O)cc(O)c4c3=O)[C@@H](O)[C@H](O)[C@H]2O)[C@H](O)[C@H](O)[C@@H]1O
REMARK SMILES IDX 7 1 36 2 34 3 32 4 9 5 8 6 6 7 5 8 4 9 1 10 2 11 42 12 3 13
REMARK SMILES IDX 40 14 38 15 43 16 41 18 39 20 37 22 35 24 10 26 11 27 12 28
REMARK SMILES IDX 30 29 21 30 29 31 31 32 22 33 27 34 23 35 26 36 24 37 13 38
REMARK SMILES IDX 20 39 14 40 18 41 15 42 16 43 19 44 17 46 28 48 25 50 33 52
REMARK H PARENT 43 17 41 19 39 21 37 23 35 25 19 45 17 47 28 49 25 51 33 53
REMARK Flexibility Score: inf
ROOT
ATOM      1  C   UNL     1      23.588   6.307  40.184  1.00  0.00     0.180 C 
ATOM      2  C   UNL     1      22.982   5.182  41.349  1.00  0.00     0.177 C 
ATOM      3  C   UNL     1      22.478   3.096  41.186  1.00  0.00     0.180 C 
ATOM      4  C   UNL     1      23.487   2.820  42.461  1.00  0.00     0.214 C 
ATOM      5  C   UNL     1      24.611   3.767  40.651  1.00  0.00     0.339 C 
ATOM      6  O   UNL     1      23.991   5.141  39.386  1.00  0.00    -0.332 OA
ENDROOT
BRANCH   1   7
ATOM      7  C   UNL     1      25.277   7.488  40.024  1.00  0.00     0.198 C 
BRANCH   7   8
ATOM      8  O   UNL     1      26.798   7.695  41.212  1.00  0.00    -0.347 OA
BRANCH   8   9
ATOM      9  C   UNL     1      28.378   6.979  42.133  1.00  0.00     0.281 C 
ATOM     10  C   UNL     1      32.719   6.306  43.114  1.00  0.00     0.041 C 
ATOM     11  C   UNL     1      31.498   6.645  41.850  1.00  0.00     0.150 C 
ATOM     12  C   UNL     1      31.567   5.170  41.517  1.00  0.00     0.174 C 
ATOM     13  O   UNL     1      29.893   7.246  41.495  1.00  0.00    -0.344 OA
ATOM     14  C   UNL     1      30.238   4.727  42.221  1.00  0.00     0.179 C 
ATOM     15  C   UNL     1      29.429   5.720  43.339  1.00  0.00     0.202 C 
BRANCH  12  16
ATOM     16  O   UNL     1      32.634   4.253  41.944  1.00  0.00    -0.388 OA
ATOM     17  H   UNL     1      33.149   3.084  42.211  1.00  0.00     0.211 HD
ENDBRANCH  12  16
BRANCH  14  18
ATOM     18  O   UNL     1      30.717   3.944  43.349  1.00  0.00    -0.387 OA
ATOM     19  H   UNL     1      30.648   2.853  43.577  1.00  0.00     0.211 HD
ENDBRANCH  14  18
BRANCH  15  20
ATOM     20  O   UNL     1      30.320   5.857  44.786  1.00  0.00    -0.385 OA
ATOM     21  H   UNL     1      30.539   5.988  45.869  1.00  0.00     0.211 HD
ENDBRANCH  15  20
ENDBRANCH   8   9
ENDBRANCH   7   8
ENDBRANCH   1   7
BRANCH   2  22
ATOM     22  O   UNL     1      23.923   5.827  42.333  1.00  0.00    -0.387 OA
ATOM     23  H   UNL     1      23.480   6.841  43.075  1.00  0.00     0.211 HD
ENDBRANCH   2  22
BRANCH   3  24
ATOM     24  O   UNL     1      22.664   2.829  39.744  1.00  0.00    -0.387 OA
ATOM     25  H   UNL     1      22.849   1.836  39.265  1.00  0.00     0.211 HD
ENDBRANCH   3  24
BRANCH   5  26
ATOM     26  O   UNL     1      25.807   2.551  39.424  1.00  0.00    -0.454 OA
BRANCH  26  27
ATOM     27  C   UNL     1      26.797   1.398  38.019  1.00  0.00     0.214 A 
ATOM     28  C   UNL     1      27.897   2.456  37.681  1.00  0.00     0.180 A 
ATOM     29  C   UNL     1      25.831   0.165  36.575  1.00  0.00     0.239 A 
ATOM     30  O   UNL     1      26.646   1.506  37.811  1.00  0.00    -0.452 OA
ATOM     31  C   UNL     1      24.914   0.724  35.118  1.00  0.00     0.111 A 
ATOM     32  O   UNL     1      26.213  -1.182  36.713  1.00  0.00    -0.285 OA
ATOM     33  C   UNL     1      24.966   0.863  36.759  1.00  0.00     0.146 A 
ATOM     34  C   UNL     1      25.019  -0.199  33.754  1.00  0.00     0.134 A 
ATOM     35  C   UNL     1      23.540  -0.115  36.440  1.00  0.00     0.094 A 
ATOM     36  C   UNL     1      24.421  -1.495  33.987  1.00  0.00     0.093 A 
ATOM     37  C   UNL     1      23.262  -1.212  35.106  1.00  0.00     0.123 A 
BRANCH  28  38
ATOM     38  C   UNL     1      30.049   3.626  38.337  1.00  0.00     0.025 A 
ATOM     39  C   UNL     1      31.456   3.153  38.189  1.00  0.00     0.062 A 
ATOM     40  C   UNL     1      30.014   5.744  37.431  1.00  0.00     0.016 A 
ATOM     41  C   UNL     1      30.245   3.584  37.357  1.00  0.00     0.158 A 
ATOM     42  C   UNL     1      30.644   6.473  38.165  1.00  0.00     0.051 A 
ATOM     43  C   UNL     1      29.366   5.608  37.682  1.00  0.00     0.157 A 
BRANCH  41  44
ATOM     44  O   UNL     1      30.006   2.355  36.167  1.00  0.00    -0.504 OA
ATOM     45  H   UNL     1      29.610   2.807  35.229  1.00  0.00     0.293 HD
ENDBRANCH  41  44
BRANCH  43  46
ATOM     46  O   UNL     1      27.768   5.948  38.324  1.00  0.00    -0.504 OA
ATOM     47  H   UNL     1      27.496   6.684  39.047  1.00  0.00     0.293 HD
ENDBRANCH  43  46
ENDBRANCH  28  38
BRANCH  34  48
ATOM     48  O   UNL     1      26.475   0.129  34.097  1.00  0.00    -0.507 OA
ATOM     49  H   UNL     1      26.830   0.672  34.894  1.00  0.00     0.293 HD
ENDBRANCH  34  48
BRANCH  37  50
ATOM     50  O   UNL     1      22.046  -1.956  34.966  1.00  0.00    -0.508 OA
ATOM     51  H   UNL     1      21.157  -1.631  34.647  1.00  0.00     0.293 HD
ENDBRANCH  37  50
ENDBRANCH  26  27
ENDBRANCH   5  26
BRANCH   4  52
ATOM     52  O   UNL     1      23.292   2.502  44.375  1.00  0.00    -0.384 OA
ATOM     53  H   UNL     1      23.075   2.064  45.686  1.00  0.00     0.211 HD
ENDBRANCH   4  52
TORSDOF 16
ENDMDL
MODEL 6
REMARK VINA RESULT:    -9.653      4.244     10.169
REMARK INTER + INTRA:         -12.686
REMARK INTER:                 -10.854
REMARK INTRA:                  -1.832
REMARK UNBOUND:                -1.622
REMARK SMILES C[C@@H]1O[C@@H](OC[C@H]2O[C@H](Oc3c(-c4ccc(O)c(O)c4)oc4cc(O)cc(O)c4c3=O)[C@@H](O)[C@H](O)[C@H]2O)[C@H](O)[C@H](O)[C@@H]1O
REMARK SMILES IDX 7 1 36 2 34 3 32 4 9 5 8 6 6 7 5 8 4 9 1 10 2 11 42 12 3 13
REMARK SMILES IDX 40 14 38 15 43 16 41 18 39 20 37 22 35 24 10 26 11 27 12 28
REMARK SMILES IDX 30 29 21 30 29 31 31 32 22 33 27 34 23 35 26 36 24 37 13 38
REMARK SMILES IDX 20 39 14 40 18 41 15 42 16 43 19 44 17 46 28 48 25 50 33 52
REMARK H PARENT 43 17 41 19 39 21 37 23 35 25 19 45 17 47 28 49 25 51 33 53
REMARK Flexibility Score: inf
ROOT
ATOM      1  C   UNL     1      23.783  -1.460  35.745  1.00  0.00     0.180 C 
ATOM      2  C   UNL     1      22.457  -0.353  35.833  1.00  0.00     0.177 C 
ATOM      3  C   UNL     1      22.131   1.384  37.061  1.00  0.00     0.180 C 
ATOM      4  C   UNL     1      21.854   2.232  35.673  1.00  0.00     0.214 C 
ATOM      5  C   UNL     1      23.995   1.310  35.717  1.00  0.00     0.339 C 
ATOM      6  O   UNL     1      24.583  -0.430  36.423  1.00  0.00    -0.332 OA
ENDROOT
BRANCH   1   7
ATOM      7  C   UNL     1      25.098  -2.062  34.268  1.00  0.00     0.198 C 
BRANCH   7   8
ATOM      8  O   UNL     1      26.413  -3.490  34.245  1.00  0.00    -0.347 OA
BRANCH   8   9
ATOM      9  C   UNL     1      28.268  -4.125  34.138  1.00  0.00     0.281 C 
ATOM     10  C   UNL     1      32.690  -4.323  34.953  1.00  0.00     0.041 C 
ATOM     11  C   UNL     1      31.235  -3.292  34.791  1.00  0.00     0.150 C 
ATOM     12  C   UNL     1      31.725  -2.980  33.392  1.00  0.00     0.174 C 
ATOM     13  O   UNL     1      29.488  -3.220  34.822  1.00  0.00    -0.344 OA
ATOM     14  C   UNL     1      30.747  -3.920  32.606  1.00  0.00     0.179 C 
ATOM     15  C   UNL     1      29.854  -5.147  33.374  1.00  0.00     0.202 C 
BRANCH  12  16
ATOM     16  O   UNL     1      33.087  -3.227  32.896  1.00  0.00    -0.388 OA
ATOM     17  H   UNL     1      33.983  -3.811  32.149  1.00  0.00     0.211 HD
ENDBRANCH  12  16
BRANCH  14  18
ATOM     18  O   UNL     1      31.633  -4.959  32.103  1.00  0.00    -0.387 OA
ATOM     19  H   UNL     1      32.730  -4.962  31.898  1.00  0.00     0.211 HD
ENDBRANCH  14  18
BRANCH  15  20
ATOM     20  O   UNL     1      30.876  -6.406  33.896  1.00  0.00    -0.385 OA
ATOM     21  H   UNL     1      31.629  -6.956  34.505  1.00  0.00     0.211 HD
ENDBRANCH  15  20
ENDBRANCH   8   9
ENDBRANCH   7   8
ENDBRANCH   1   7
BRANCH   2  22
ATOM     22  O   UNL     1      22.397  -0.441  34.330  1.00  0.00    -0.387 OA
ATOM     23  H   UNL     1      22.369   0.687  33.622  1.00  0.00     0.211 HD
ENDBRANCH   2  22
BRANCH   3  24
ATOM     24  O   UNL     1      23.307   1.373  37.956  1.00  0.00    -0.387 OA
ATOM     25  H   UNL     1      24.067   0.558  38.056  1.00  0.00     0.211 HD
ENDBRANCH   3  24
BRANCH   5  26
ATOM     26  O   UNL     1      25.643   2.538  36.155  1.00  0.00    -0.454 OA
BRANCH  26  27
ATOM     27  C   UNL     1      27.388   3.520  36.679  1.00  0.00     0.214 A 
ATOM     28  C   UNL     1      26.695   4.705  37.424  1.00  0.00     0.180 A 
ATOM     29  C   UNL     1      29.082   3.727  35.404  1.00  0.00     0.239 A 
ATOM     30  O   UNL     1      27.380   3.675  36.448  1.00  0.00    -0.452 OA
ATOM     31  C   UNL     1      29.211   4.785  33.941  1.00  0.00     0.111 A 
ATOM     32  O   UNL     1      30.230   3.150  35.979  1.00  0.00    -0.285 OA
ATOM     33  C   UNL     1      28.320   3.561  34.591  1.00  0.00     0.146 A 
ATOM     34  C   UNL     1      30.671   5.491  33.640  1.00  0.00     0.134 A 
ATOM     35  C   UNL     1      29.229   2.806  33.288  1.00  0.00     0.094 A 
ATOM     36  C   UNL     1      31.659   4.477  33.345  1.00  0.00     0.093 A 
ATOM     37  C   UNL     1      30.801   3.259  32.668  1.00  0.00     0.123 A 
BRANCH  28  38
ATOM     38  C   UNL     1      25.511   5.563  39.496  1.00  0.00     0.025 A 
ATOM     39  C   UNL     1      24.165   6.196  39.612  1.00  0.00     0.062 A 
ATOM     40  C   UNL     1      25.543   3.891  41.080  1.00  0.00     0.016 A 
ATOM     41  C   UNL     1      24.834   4.862  39.270  1.00  0.00     0.158 A 
ATOM     42  C   UNL     1      25.561   4.412  42.173  1.00  0.00     0.051 A 
ATOM     43  C   UNL     1      26.179   3.901  40.768  1.00  0.00     0.157 A 
BRANCH  41  44
ATOM     44  O   UNL     1      24.147   4.339  37.774  1.00  0.00    -0.504 OA
ATOM     45  H   UNL     1      24.949   3.963  37.098  1.00  0.00     0.293 HD
ENDBRANCH  41  44
BRANCH  43  46
ATOM     46  O   UNL     1      27.907   3.654  40.595  1.00  0.00    -0.504 OA
ATOM     47  H   UNL     1      28.410   2.819  40.164  1.00  0.00     0.293 HD
ENDBRANCH  43  46
ENDBRANCH  28  38
BRANCH  34  48
ATOM     48  O   UNL     1      30.326   5.939  35.063  1.00  0.00    -0.507 OA
ATOM     49  H   UNL     1      29.986   6.858  35.371  1.00  0.00     0.293 HD
ENDBRANCH  34  48
BRANCH  37  50
ATOM     50  O   UNL     1      31.435   2.553  31.596  1.00  0.00    -0.508 OA
ATOM     51  H   UNL     1      31.230   2.601  30.619  1.00  0.00     0.293 HD
ENDBRANCH  37  50
ENDBRANCH  26  27
ENDBRANCH   5  26
BRANCH   4  52
ATOM     52  O   UNL     1      20.294   2.884  34.703  1.00  0.00    -0.384 OA
ATOM     53  H   UNL     1      19.099   3.424  34.214  1.00  0.00     0.211 HD
ENDBRANCH   4  52
TORSDOF 16
ENDMDL
MODEL 7
REMARK VINA RESULT:    -9.649      3.724     10.369
REMARK INTER + INTRA:         -12.681
REMARK INTER:                 -10.995
REMARK INTRA:                  -1.687
REMARK UNBOUND:                -1.622
REMARK SMILES C[C@@H]1O[C@@H](OC[C@H]2O[C@H](Oc3c(-c4ccc(O)c(O)c4)oc4cc(O)cc(O)c4c3=O)[C@@H](O)[C@H](O)[C@H]2O)[C@H](O)[C@H](O)[C@@H]1O
REMARK SMILES IDX 7 1 36 2 34 3 32 4 9 5 8 6 6 7 5 8 4 9 1 10 2 11 42 12 3 13
REMARK SMILES IDX 40 14 38 15 43 16 41 18 39 20 37 22 35 24 10 26 11 27 12 28
REMARK SMILES IDX 30 29 21 30 29 31 31 32 22 33 27 34 23 35 26 36 24 37 13 38
REMARK SMILES IDX 20 39 14 40 18 41 15 42 16 43 19 44 17 46 28 48 25 50 33 52
REMARK H PARENT 43 17 41 19 39 21 37 23 35 25 19 45 17 47 28 49 25 51 33 53
REMARK Flexibility Score: inf
ROOT
ATOM      1  C   UNL     1      30.692   3.315  32.799  1.00  0.00     0.180 C 
ATOM      2  C   UNL     1      29.647   4.654  32.475  1.00  0.00     0.177 C 
ATOM      3  C   UNL     1      27.502   4.825  32.494  1.00  0.00     0.180 C 
ATOM      4  C   UNL     1      27.679   6.097  33.530  1.00  0.00     0.214 C 
ATOM      5  C   UNL     1      28.577   4.132  34.404  1.00  0.00     0.339 C 
ATOM      6  O   UNL     1      29.549   2.692  33.480  1.00  0.00    -0.332 OA
ENDROOT
BRANCH   1   7
ATOM      7  C   UNL     1      32.206   2.927  34.152  1.00  0.00     0.198 C 
BRANCH   7   8
ATOM      8  O   UNL     1      33.210   1.303  34.501  1.00  0.00    -0.347 OA
BRANCH   8   9
ATOM      9  C   UNL     1      33.376  -0.654  34.513  1.00  0.00     0.281 C 
ATOM     10  C   UNL     1      34.942  -4.740  33.458  1.00  0.00     0.041 C 
ATOM     11  C   UNL     1      34.622  -3.066  32.912  1.00  0.00     0.150 C 
ATOM     12  C   UNL     1      33.369  -3.615  32.264  1.00  0.00     0.174 C 
ATOM     13  O   UNL     1      34.349  -1.404  33.386  1.00  0.00    -0.344 OA
ATOM     14  C   UNL     1      32.336  -3.117  33.333  1.00  0.00     0.179 C 
ATOM     15  C   UNL     1      32.813  -2.577  34.873  1.00  0.00     0.202 C 
BRANCH  12  16
ATOM     16  O   UNL     1      33.102  -5.037  32.004  1.00  0.00    -0.388 OA
ATOM     17  H   UNL     1      32.692  -6.050  31.291  1.00  0.00     0.211 HD
ENDBRANCH  12  16
BRANCH  14  18
ATOM     18  O   UNL     1      31.903  -4.354  33.963  1.00  0.00    -0.387 OA
ATOM     19  H   UNL     1      31.102  -4.564  34.712  1.00  0.00     0.211 HD
ENDBRANCH  14  18
BRANCH  15  20
ATOM     20  O   UNL     1      33.388  -3.872  35.820  1.00  0.00    -0.385 OA
ATOM     21  H   UNL     1      33.685  -4.906  36.103  1.00  0.00     0.211 HD
ENDBRANCH  15  20
ENDBRANCH   8   9
ENDBRANCH   7   8
ENDBRANCH   1   7
BRANCH   2  22
ATOM     22  O   UNL     1      30.644   5.501  33.223  1.00  0.00    -0.387 OA
ATOM     23  H   UNL     1      31.199   6.540  32.601  1.00  0.00     0.211 HD
ENDBRANCH   2  22
BRANCH   3  24
ATOM     24  O   UNL     1      27.069   3.436  32.751  1.00  0.00    -0.387 OA
ATOM     25  H   UNL     1      26.619   3.038  33.695  1.00  0.00     0.211 HD
ENDBRANCH   3  24
BRANCH   5  26
ATOM     26  O   UNL     1      27.511   3.068  35.870  1.00  0.00    -0.454 OA
BRANCH  26  27
ATOM     27  C   UNL     1      26.312   1.919  37.106  1.00  0.00     0.214 A 
ATOM     28  C   UNL     1      25.263   1.537  36.012  1.00  0.00     0.180 A 
ATOM     29  C   UNL     1      25.824   2.422  39.117  1.00  0.00     0.239 A 
ATOM     30  O   UNL     1      26.152   2.137  37.167  1.00  0.00    -0.452 OA
ATOM     31  C   UNL     1      24.707   3.740  39.660  1.00  0.00     0.111 A 
ATOM     32  O   UNL     1      26.253   1.427  40.014  1.00  0.00    -0.285 OA
ATOM     33  C   UNL     1      26.066   3.466  38.771  1.00  0.00     0.146 A 
ATOM     34  C   UNL     1      23.792   3.454  41.003  1.00  0.00     0.134 A 
ATOM     35  C   UNL     1      26.639   4.285  40.218  1.00  0.00     0.094 A 
ATOM     36  C   UNL     1      24.646   3.310  42.161  1.00  0.00     0.093 A 
ATOM     37  C   UNL     1      25.947   4.242  41.825  1.00  0.00     0.123 A 
BRANCH  28  38
ATOM     38  C   UNL     1      24.655   0.125  33.996  1.00  0.00     0.025 A 
ATOM     39  C   UNL     1      25.127   0.251  32.586  1.00  0.00     0.062 A 
ATOM     40  C   UNL     1      24.970  -2.088  34.553  1.00  0.00     0.016 A 
ATOM     41  C   UNL     1      25.631  -0.096  33.989  1.00  0.00     0.158 A 
ATOM     42  C   UNL     1      24.176  -2.749  33.921  1.00  0.00     0.051 A 
ATOM     43  C   UNL     1      24.670  -1.769  35.109  1.00  0.00     0.157 A 
BRANCH  41  44
ATOM     44  O   UNL     1      27.048   0.856  34.251  1.00  0.00    -0.504 OA
ATOM     45  H   UNL     1      27.745   0.745  33.389  1.00  0.00     0.293 HD
ENDBRANCH  41  44
BRANCH  43  46
ATOM     46  O   UNL     1      23.732  -1.618  36.585  1.00  0.00    -0.504 OA
ATOM     47  H   UNL     1      23.477  -2.385  37.281  1.00  0.00     0.293 HD
ENDBRANCH  43  46
ENDBRANCH  28  38
BRANCH  34  48
ATOM     48  O   UNL     1      23.447   2.295  40.063  1.00  0.00    -0.507 OA
ATOM     49  H   UNL     1      22.894   2.327  39.198  1.00  0.00     0.293 HD
ENDBRANCH  34  48
BRANCH  37  50
ATOM     50  O   UNL     1      26.519   4.959  42.925  1.00  0.00    -0.508 OA
ATOM     51  H   UNL     1      26.743   4.614  43.836  1.00  0.00     0.293 HD
ENDBRANCH  37  50
ENDBRANCH  26  27
ENDBRANCH   5  26
BRANCH   4  52
ATOM     52  O   UNL     1      27.622   8.042  33.403  1.00  0.00    -0.384 OA
ATOM     53  H   UNL     1      27.369   9.407  33.226  1.00  0.00     0.211 HD
ENDBRANCH   4  52
TORSDOF 16
ENDMDL
MODEL 8
REMARK VINA RESULT:    -9.624      2.233      5.682
REMARK INTER + INTRA:         -12.653
REMARK INTER:                 -10.836
REMARK INTRA:                  -1.817
REMARK UNBOUND:                -1.622
REMARK SMILES C[C@@H]1O[C@@H](OC[C@H]2O[C@H](Oc3c(-c4ccc(O)c(O)c4)oc4cc(O)cc(O)c4c3=O)[C@@H](O)[C@H](O)[C@H]2O)[C@H](O)[C@H](O)[C@@H]1O
REMARK SMILES IDX 7 1 36 2 34 3 32 4 9 5 8 6 6 7 5 8 4 9 1 10 2 11 42 12 3 13
REMARK SMILES IDX 40 14 38 15 43 16 41 18 39 20 37 22 35 24 10 26 11 27 12 28
REMARK SMILES IDX 30 29 21 30 29 31 31 32 22 33 27 34 23 35 26 36 24 37 13 38
REMARK SMILES IDX 20 39 14 40 18 41 15 42 16 43 19 44 17 46 28 48 25 50 33 52
REMARK H PARENT 43 17 41 19 39 21 37 23 35 25 19 45 17 47 28 49 25 51 33 53
REMARK Flexibility Score: inf
ROOT
ATOM      1  C   UNL     1      31.167   4.510  35.091  1.00  0.00     0.180 C 
ATOM      2  C   UNL     1      31.450   4.318  33.396  1.00  0.00     0.177 C 
ATOM      3  C   UNL     1      33.182   3.650  32.307  1.00  0.00     0.180 C 
ATOM      4  C   UNL     1      32.210   2.537  31.573  1.00  0.00     0.214 C 
ATOM      5  C   UNL     1      32.260   2.257  33.887  1.00  0.00     0.339 C 
ATOM      6  O   UNL     1      32.320   3.624  35.302  1.00  0.00    -0.332 OA
ENDROOT
BRANCH   1   7
ATOM      7  C   UNL     1      29.824   3.728  36.454  1.00  0.00     0.198 C 
BRANCH   7   8
ATOM      8  O   UNL     1      28.292   2.562  36.201  1.00  0.00    -0.347 OA
BRANCH   8   9
ATOM      9  C   UNL     1      27.505   0.789  35.899  1.00  0.00     0.281 C 
ATOM     10  C   UNL     1      25.624  -2.646  33.681  1.00  0.00     0.041 C 
ATOM     11  C   UNL     1      25.807  -0.872  33.829  1.00  0.00     0.150 C 
ATOM     12  C   UNL     1      24.474  -0.887  34.547  1.00  0.00     0.174 C 
ATOM     13  O   UNL     1      26.779   0.449  34.438  1.00  0.00    -0.344 OA
ATOM     14  C   UNL     1      25.015  -0.737  36.011  1.00  0.00     0.179 C 
ATOM     15  C   UNL     1      26.651  -0.988  36.403  1.00  0.00     0.202 C 
BRANCH  12  16
ATOM     16  O   UNL     1      23.514  -2.000  34.531  1.00  0.00    -0.388 OA
ATOM     17  H   UNL     1      22.407  -2.599  34.189  1.00  0.00     0.211 HD
ENDBRANCH  12  16
BRANCH  14  18
ATOM     18  O   UNL     1      24.734  -2.039  36.593  1.00  0.00    -0.387 OA
ATOM     19  H   UNL     1      24.154  -2.337  37.500  1.00  0.00     0.211 HD
ENDBRANCH  14  18
BRANCH  15  20
ATOM     20  O   UNL     1      27.062  -2.637  36.265  1.00  0.00    -0.385 OA
ATOM     21  H   UNL     1      27.304  -3.617  35.797  1.00  0.00     0.211 HD
ENDBRANCH  15  20
ENDBRANCH   8   9
ENDBRANCH   7   8
ENDBRANCH   1   7
BRANCH   2  22
ATOM     22  O   UNL     1      30.046   3.777  33.311  1.00  0.00    -0.387 OA
ATOM     23  H   UNL     1      29.845   2.478  33.529  1.00  0.00     0.211 HD
ENDBRANCH   2  22
BRANCH   3  24
ATOM     24  O   UNL     1      34.191   3.483  33.374  1.00  0.00    -0.387 OA
ATOM     25  H   UNL     1      35.287   3.696  33.300  1.00  0.00     0.211 HD
ENDBRANCH   3  24
BRANCH   5  26
ATOM     26  O   UNL     1      33.421   0.716  34.719  1.00  0.00    -0.454 OA
BRANCH  26  27
ATOM     27  C   UNL     1      34.341  -0.866  35.687  1.00  0.00     0.214 A 
ATOM     28  C   UNL     1      33.255  -1.932  35.332  1.00  0.00     0.180 A 
ATOM     29  C   UNL     1      35.311  -0.721  37.578  1.00  0.00     0.239 A 
ATOM     30  O   UNL     1      34.199  -0.816  35.921  1.00  0.00    -0.452 OA
ATOM     31  C   UNL     1      34.512  -0.514  39.189  1.00  0.00     0.111 A 
ATOM     32  O   UNL     1      36.667  -1.086  37.488  1.00  0.00    -0.285 OA
ATOM     33  C   UNL     1      34.642   0.177  37.699  1.00  0.00     0.146 A 
ATOM     34  C   UNL     1      35.201  -1.272  40.482  1.00  0.00     0.134 A 
ATOM     35  C   UNL     1      35.539   1.249  38.767  1.00  0.00     0.094 A 
ATOM     36  C   UNL     1      36.511  -0.715  40.740  1.00  0.00     0.093 A 
ATOM     37  C   UNL     1      36.400   0.836  40.232  1.00  0.00     0.123 A 
BRANCH  28  38
ATOM     38  C   UNL     1      32.233  -3.490  33.612  1.00  0.00     0.025 A 
ATOM     39  C   UNL     1      32.899  -4.535  32.780  1.00  0.00     0.062 A 
ATOM     40  C   UNL     1      30.427  -4.539  34.584  1.00  0.00     0.016 A 
ATOM     41  C   UNL     1      32.546  -4.209  34.233  1.00  0.00     0.158 A 
ATOM     42  C   UNL     1      29.619  -4.774  33.713  1.00  0.00     0.051 A 
ATOM     43  C   UNL     1      30.413  -3.860  34.785  1.00  0.00     0.157 A 
BRANCH  41  44
ATOM     44  O   UNL     1      33.997  -4.416  35.147  1.00  0.00    -0.504 OA
ATOM     45  H   UNL     1      33.852  -4.029  36.182  1.00  0.00     0.293 HD
ENDBRANCH  41  44
BRANCH  43  46
ATOM     46  O   UNL     1      29.726  -2.345  35.343  1.00  0.00    -0.504 OA
ATOM     47  H   UNL     1      28.772  -2.184  35.792  1.00  0.00     0.293 HD
ENDBRANCH  43  46
ENDBRANCH  28  38
BRANCH  34  48
ATOM     48  O   UNL     1      34.951  -2.400  39.477  1.00  0.00    -0.507 OA
ATOM     49  H   UNL     1      34.125  -2.546  38.884  1.00  0.00     0.293 HD
ENDBRANCH  34  48
BRANCH  37  50
ATOM     50  O   UNL     1      37.097   1.813  41.013  1.00  0.00    -0.508 OA
ATOM     51  H   UNL     1      36.729   2.414  41.722  1.00  0.00     0.293 HD
ENDBRANCH  37  50
ENDBRANCH  26  27
ENDBRANCH   5  26
BRANCH   4  52
ATOM     52  O   UNL     1      31.318   2.358  29.849  1.00  0.00    -0.384 OA
ATOM     53  H   UNL     1      30.845   2.368  28.532  1.00  0.00     0.211 HD
ENDBRANCH   4  52
TORSDOF 16
ENDMDL
MODEL 9
REMARK VINA RESULT:    -9.613      5.237     13.085
REMARK INTER + INTRA:         -12.640
REMARK INTER:                 -10.965
REMARK INTRA:                  -1.676
REMARK UNBOUND:                -1.622
REMARK SMILES C[C@@H]1O[C@@H](OC[C@H]2O[C@H](Oc3c(-c4ccc(O)c(O)c4)oc4cc(O)cc(O)c4c3=O)[C@@H](O)[C@H](O)[C@H]2O)[C@H](O)[C@H](O)[C@@H]1O
REMARK SMILES IDX 7 1 36 2 34 3 32 4 9 5 8 6 6 7 5 8 4 9 1 10 2 11 42 12 3 13
REMARK SMILES IDX 40 14 38 15 43 16 41 18 39 20 37 22 35 24 10 26 11 27 12 28
REMARK SMILES IDX 30 29 21 30 29 31 31 32 22 33 27 34 23 35 26 36 24 37 13 38
REMARK SMILES IDX 20 39 14 40 18 41 15 42 16 43 19 44 17 46 28 48 25 50 33 52
REMARK H PARENT 43 17 41 19 39 21 37 23 35 25 19 45 17 47 28 49 25 51 33 53
REMARK Flexibility Score: inf
ROOT
ATOM      1  C   UNL     1      26.786   5.763  40.901  1.00  0.00     0.180 C 
ATOM      2  C   UNL     1      25.522   5.248  41.963  1.00  0.00     0.177 C 
ATOM      3  C   UNL     1      23.416   4.953  41.633  1.00  0.00     0.180 C 
ATOM      4  C   UNL     1      23.603   3.426  42.229  1.00  0.00     0.214 C 
ATOM      5  C   UNL     1      24.916   3.788  40.337  1.00  0.00     0.339 C 
ATOM      6  O   UNL     1      25.889   5.410  39.793  1.00  0.00    -0.332 OA
ENDROOT
BRANCH   1   7
ATOM      7  C   UNL     1      28.566   4.951  40.234  1.00  0.00     0.198 C 
BRANCH   7   8
ATOM      8  O   UNL     1      29.956   3.985  41.185  1.00  0.00    -0.347 OA
BRANCH   8   9
ATOM      9  C   UNL     1      31.830   3.447  41.422  1.00  0.00     0.281 C 
ATOM     10  C   UNL     1      35.681   1.228  40.713  1.00  0.00     0.041 C 
ATOM     11  C   UNL     1      33.892   1.184  40.680  1.00  0.00     0.150 C 
ATOM     12  C   UNL     1      33.977   0.470  42.013  1.00  0.00     0.174 C 
ATOM     13  O   UNL     1      32.410   2.111  40.613  1.00  0.00    -0.344 OA
ATOM     14  C   UNL     1      33.605   1.684  42.932  1.00  0.00     0.179 C 
ATOM     15  C   UNL     1      33.625   3.289  42.368  1.00  0.00     0.202 C 
BRANCH  12  16
ATOM     16  O   UNL     1      35.187  -0.160  42.562  1.00  0.00    -0.388 OA
ATOM     17  H   UNL     1      35.842  -1.031  43.278  1.00  0.00     0.211 HD
ENDBRANCH  12  16
BRANCH  14  18
ATOM     18  O   UNL     1      34.857   1.968  43.614  1.00  0.00    -0.387 OA
ATOM     19  H   UNL     1      35.531   1.323  44.228  1.00  0.00     0.211 HD
ENDBRANCH  14  18
BRANCH  15  20
ATOM     20  O   UNL     1      35.221   3.811  42.079  1.00  0.00    -0.385 OA
ATOM     21  H   UNL     1      36.141   4.099  41.523  1.00  0.00     0.211 HD
ENDBRANCH  15  20
ENDBRANCH   8   9
ENDBRANCH   7   8
ENDBRANCH   1   7
BRANCH   2  22
ATOM     22  O   UNL     1      26.513   4.259  42.522  1.00  0.00    -0.387 OA
ATOM     23  H   UNL     1      26.202   2.963  42.510  1.00  0.00     0.211 HD
ENDBRANCH   2  22
BRANCH   3  24
ATOM     24  O   UNL     1      23.238   5.421  40.243  1.00  0.00    -0.387 OA
ATOM     25  H   UNL     1      22.650   4.916  39.436  1.00  0.00     0.211 HD
ENDBRANCH   3  24
BRANCH   5  26
ATOM     26  O   UNL     1      24.303   3.005  38.486  1.00  0.00    -0.454 OA
BRANCH  26  27
ATOM     27  C   UNL     1      23.689   2.494  36.576  1.00  0.00     0.214 A 
ATOM     28  C   UNL     1      22.188   2.880  36.775  1.00  0.00     0.180 A 
ATOM     29  C   UNL     1      24.358   0.771  35.517  1.00  0.00     0.239 A 
ATOM     30  O   UNL     1      23.622   2.237  36.657  1.00  0.00    -0.452 OA
ATOM     31  C   UNL     1      23.911  -0.949  35.861  1.00  0.00     0.111 A 
ATOM     32  O   UNL     1      24.989   1.123  34.310  1.00  0.00    -0.285 OA
ATOM     33  C   UNL     1      24.579   0.388  36.553  1.00  0.00     0.146 A 
ATOM     34  C   UNL     1      23.746  -1.964  34.571  1.00  0.00     0.134 A 
ATOM     35  C   UNL     1      25.927  -0.719  36.331  1.00  0.00     0.094 A 
ATOM     36  C   UNL     1      25.019  -2.128  33.906  1.00  0.00     0.093 A 
ATOM     37  C   UNL     1      26.126  -1.940  35.095  1.00  0.00     0.123 A 
BRANCH  28  38
ATOM     38  C   UNL     1      20.422   4.693  36.930  1.00  0.00     0.025 A 
ATOM     39  C   UNL     1      19.237   4.773  37.834  1.00  0.00     0.062 A 
ATOM     40  C   UNL     1      21.496   6.719  37.146  1.00  0.00     0.016 A 
ATOM     41  C   UNL     1      20.768   4.802  37.863  1.00  0.00     0.158 A 
ATOM     42  C   UNL     1      20.798   7.568  36.635  1.00  0.00     0.051 A 
ATOM     43  C   UNL     1      21.851   6.340  36.664  1.00  0.00     0.157 A 
BRANCH  41  44
ATOM     44  O   UNL     1      21.257   3.666  39.069  1.00  0.00    -0.504 OA
ATOM     45  H   UNL     1      20.430   2.947  39.271  1.00  0.00     0.293 HD
ENDBRANCH  41  44
BRANCH  43  46
ATOM     46  O   UNL     1      22.893   6.029  35.287  1.00  0.00    -0.504 OA
ATOM     47  H   UNL     1      23.740   6.593  34.965  1.00  0.00     0.293 HD
ENDBRANCH  43  46
ENDBRANCH  28  38
BRANCH  34  48
ATOM     48  O   UNL     1      22.781  -0.813  34.268  1.00  0.00    -0.507 OA
ATOM     49  H   UNL     1      23.002   0.107  33.867  1.00  0.00     0.293 HD
ENDBRANCH  34  48
BRANCH  37  50
ATOM     50  O   UNL     1      27.284  -2.780  35.026  1.00  0.00    -0.508 OA
ATOM     51  H   UNL     1      28.197  -2.604  35.392  1.00  0.00     0.293 HD
ENDBRANCH  37  50
ENDBRANCH  26  27
ENDBRANCH   5  26
BRANCH   4  52
ATOM     52  O   UNL     1      23.252   2.515  43.917  1.00  0.00    -0.384 OA
ATOM     53  H   UNL     1      22.786   1.833  45.046  1.00  0.00     0.211 HD
ENDBRANCH   4  52
TORSDOF 16
ENDMDL
