MODEL 1
REMARK VINA RESULT:    -1.946      0.000      0.000
REMARK INTER + INTRA:          -1.946
REMARK INTER:                  -1.946
REMARK INTRA:                   0.000
REMARK UNBOUND:                 0.000
REMARK SMILES CC(=O)[O-]
REMARK SMILES IDX 1 1 2 2 3 3 4 4
REMARK H PARENT
REMARK Flexibility Score: inf
ROOT
ATOM      1  C   UNL     1      20.633  19.409  46.602  1.00  0.00     0.063 C 
ATOM      2  C   UNL     1      19.686  20.143  45.714  1.00  0.00     0.038 C 
ATOM      3  O   UNL     1      19.455  19.722  44.551  1.00  0.00    -0.550 OA
ATOM      4  O   UNL     1      19.097  21.323  46.149  1.00  0.00    -0.550 OA
ENDROOT
TORSDOF 0
ENDMDL
MODEL 2
REMARK VINA RESULT:    -1.932      0.100      1.619
REMARK INTER + INTRA:          -1.932
REMARK INTER:                  -1.932
REMARK INTRA:                   0.000
REMARK UNBOUND:                 0.000
REMARK SMILES CC(=O)[O-]
REMARK SMILES IDX 1 1 2 2 3 3 4 4
REMARK H PARENT
REMARK Flexibility Score: inf
ROOT
ATOM      1  C   UNL     1      20.636  19.376  46.616  1.00  0.00     0.063 C 
ATOM      2  C   UNL     1      19.732  20.174  45.738  1.00  0.00     0.038 C 
ATOM      3  O   UNL     1      19.240  21.255  46.154  1.00  0.00    -0.550 OA
ATOM      4  O   UNL     1      19.389  19.699  44.479  1.00  0.00    -0.550 OA
ENDROOT
TORSDOF 0
ENDMDL
MODEL 3
REMARK VINA RESULT:    -1.904      1.402      2.132
REMARK INTER + INTRA:          -1.904
REMARK INTER:                  -1.904
REMARK INTRA:                   0.000
REMARK UNBOUND:                 0.000
REMARK SMILES CC(=O)[O-]
REMARK SMILES IDX 1 1 2 2 3 3 4 4
REMARK H PARENT
REMARK Flexibility Score: inf
ROOT
ATOM      1  C   UNL     1      20.932  19.156  46.840  1.00  0.00     0.063 C 
ATOM      2  C   UNL     1      20.084  20.339  47.165  1.00  0.00     0.038 C 
ATOM      3  O   UNL     1      19.797  20.602  48.362  1.00  0.00    -0.550 OA
ATOM      4  O   UNL     1      19.564  21.124  46.144  1.00  0.00    -0.550 OA
ENDROOT
TORSDOF 0
ENDMDL
MODEL 4
REMARK VINA RESULT:    -1.854      1.841      1.914
REMARK INTER + INTRA:          -1.854
REMARK INTER:                  -1.854
REMARK INTRA:                   0.000
REMARK UNBOUND:                 0.000
REMARK SMILES CC(=O)[O-]
REMARK SMILES IDX 1 1 2 2 3 3 4 4
REMARK H PARENT
REMARK Flexibility Score: inf
ROOT
ATOM      1  C   UNL     1      19.838  20.240  48.540  1.00  0.00     0.063 C 
ATOM      2  C   UNL     1      20.177  20.177  47.089  1.00  0.00     0.038 C 
ATOM      3  O   UNL     1      21.027  19.346  46.674  1.00  0.00    -0.550 OA
ATOM      4  O   UNL     1      19.596  21.070  46.199  1.00  0.00    -0.550 OA
ENDROOT
TORSDOF 0
ENDMDL
MODEL 5
REMARK VINA RESULT:    -1.849      2.400      2.885
REMARK INTER + INTRA:          -1.849
REMARK INTER:                  -1.849
REMARK INTRA:                   0.000
REMARK UNBOUND:                 0.000
REMARK SMILES CC(=O)[O-]
REMARK SMILES IDX 1 1 2 2 3 3 4 4
REMARK H PARENT
REMARK Flexibility Score: inf
ROOT
ATOM      1  C   UNL     1      19.853  20.680  49.505  1.00  0.00     0.063 C 
ATOM      2  C   UNL     1      19.468  20.539  48.071  1.00  0.00     0.038 C 
ATOM      3  O   UNL     1      18.313  20.865  47.692  1.00  0.00    -0.550 OA
ATOM      4  O   UNL     1      20.365  19.998  47.160  1.00  0.00    -0.550 OA
ENDROOT
TORSDOF 0
ENDMDL
MODEL 6
REMARK VINA RESULT:    -1.838      2.003      2.199
REMARK INTER + INTRA:          -1.838
REMARK INTER:                  -1.838
REMARK INTRA:                   0.000
REMARK UNBOUND:                 0.000
REMARK SMILES CC(=O)[O-]
REMARK SMILES IDX 1 1 2 2 3 3 4 4
REMARK H PARENT
REMARK Flexibility Score: inf
ROOT
ATOM      1  C   UNL     1      19.473  20.404  45.443  1.00  0.00     0.063 C 
ATOM      2  C   UNL     1      18.508  21.206  46.249  1.00  0.00     0.038 C 
ATOM      3  O   UNL     1      17.955  22.220  45.748  1.00  0.00    -0.550 OA
ATOM      4  O   UNL     1      18.257  20.868  47.572  1.00  0.00    -0.550 OA
ENDROOT
TORSDOF 0
ENDMDL
MODEL 7
REMARK VINA RESULT:    -1.833      1.944      2.147
REMARK INTER + INTRA:          -1.833
REMARK INTER:                  -1.833
REMARK INTRA:                   0.000
REMARK UNBOUND:                 0.000
REMARK SMILES CC(=O)[O-]
REMARK SMILES IDX 1 1 2 2 3 3 4 4
REMARK H PARENT
REMARK Flexibility Score: inf
ROOT
ATOM      1  C   UNL     1      19.561  20.270  45.476  1.00  0.00     0.063 C 
ATOM      2  C   UNL     1      18.658  21.080  46.344  1.00  0.00     0.038 C 
ATOM      3  O   UNL     1      18.437  20.724  47.531  1.00  0.00    -0.550 OA
ATOM      4  O   UNL     1      18.017  22.199  45.829  1.00  0.00    -0.550 OA
ENDROOT
TORSDOF 0
ENDMDL
MODEL 8
REMARK VINA RESULT:    -1.752      3.157      3.424
REMARK INTER + INTRA:          -1.752
REMARK INTER:                  -1.752
REMARK INTRA:                   0.000
REMARK UNBOUND:                 0.000
REMARK SMILES CC(=O)[O-]
REMARK SMILES IDX 1 1 2 2 3 3 4 4
REMARK H PARENT
REMARK Flexibility Score: inf
ROOT
ATOM      1  C   UNL     1      21.010  16.715  47.605  1.00  0.00     0.063 C 
ATOM      2  C   UNL     1      21.077  18.189  47.825  1.00  0.00     0.038 C 
ATOM      3  O   UNL     1      21.359  18.958  46.870  1.00  0.00    -0.550 OA
ATOM      4  O   UNL     1      20.880  18.712  49.096  1.00  0.00    -0.550 OA
ENDROOT
TORSDOF 0
ENDMDL
MODEL 9
REMARK VINA RESULT:    -1.734      3.343      3.931
REMARK INTER + INTRA:          -1.734
REMARK INTER:                  -1.734
REMARK INTRA:                   0.000
REMARK UNBOUND:                 0.000
REMARK SMILES CC(=O)[O-]
REMARK SMILES IDX 1 1 2 2 3 3 4 4
REMARK H PARENT
REMARK Flexibility Score: inf
ROOT
ATOM      1  C   UNL     1      20.975  19.163  46.819  1.00  0.00     0.063 C 
ATOM      2  C   UNL     1      20.993  18.062  47.825  1.00  0.00     0.038 C 
ATOM      3  O   UNL     1      20.959  18.330  49.054  1.00  0.00    -0.550 OA
ATOM      4  O   UNL     1      21.103  16.742  47.410  1.00  0.00    -0.550 OA
ENDROOT
TORSDOF 0
ENDMDL
