MODEL 1
REMARK VINA RESULT:    -5.446      0.000      0.000
REMARK INTER + INTRA:          -6.482
REMARK INTER:                  -6.560
REMARK INTRA:                   0.079
REMARK UNBOUND:                 0.079
REMARK SMILES O=c1c(O)c(-c2ccc(O)c(O)c2)oc2cc(O)cc(O)c12
REMARK SMILES IDX 5 1 3 2 2 3 1 4 22 5 20 6 19 7 17 8 16 9 15 10 14 11 6 12
REMARK SMILES IDX 7 13 8 14 9 15 13 16 11 17 10 18 12 20 4 22 21 24 18 26
REMARK H PARENT 10 19 12 21 4 23 21 25 18 27
REMARK Flexibility Score: inf
ROOT
ATOM      1  C   UNL     1       8.360  -4.565  14.059  1.00  0.00     0.180 A 
ATOM      2  C   UNL     1       8.263  -3.224  14.479  1.00  0.00     0.208 A 
ATOM      3  C   UNL     1       8.789  -2.866  15.731  1.00  0.00     0.238 A 
ATOM      4  O   UNL     1       8.717  -1.666  16.114  1.00  0.00    -0.285 OA
ATOM      5  C   UNL     1       9.382  -3.852  16.546  1.00  0.00     0.111 A 
ATOM      6  C   UNL     1       9.932  -3.574  17.820  1.00  0.00     0.134 A 
ATOM      7  C   UNL     1      10.497  -4.613  18.575  1.00  0.00     0.093 A 
ATOM      8  C   UNL     1      10.522  -5.922  18.080  1.00  0.00     0.123 A 
ATOM      9  C   UNL     1       9.982  -6.200  16.823  1.00  0.00     0.094 A 
ATOM     10  C   UNL     1       9.415  -5.178  16.056  1.00  0.00     0.146 A 
ATOM     11  O   UNL     1       8.913  -5.470  14.861  1.00  0.00    -0.452 OA
ENDROOT
BRANCH   1  12
ATOM     12  C   UNL     1       7.846  -5.016  12.746  1.00  0.00     0.025 A 
ATOM     13  C   UNL     1       7.025  -6.151  12.630  1.00  0.00     0.016 A 
ATOM     14  C   UNL     1       6.532  -6.542  11.383  1.00  0.00     0.051 A 
ATOM     15  C   UNL     1       6.840  -5.800  10.236  1.00  0.00     0.157 A 
ATOM     16  C   UNL     1       8.134  -4.262  11.596  1.00  0.00     0.062 A 
ATOM     17  C   UNL     1       7.643  -4.652  10.344  1.00  0.00     0.158 A 
BRANCH  15  18
ATOM     18  O   UNL     1       6.349  -6.194   8.993  1.00  0.00    -0.504 OA
ATOM     19  H   UNL     1       5.404  -5.970   8.700  1.00  0.00     0.293 HD
ENDBRANCH  15  18
BRANCH  17  20
ATOM     20  O   UNL     1       7.962  -3.887   9.223  1.00  0.00    -0.504 OA
ATOM     21  H   UNL     1       7.272  -3.326   8.740  1.00  0.00     0.293 HD
ENDBRANCH  17  20
ENDBRANCH   1  12
BRANCH   2  22
ATOM     22  O   UNL     1       7.626  -2.275  13.674  1.00  0.00    -0.502 OA
ATOM     23  H   UNL     1       7.129  -1.482  14.061  1.00  0.00     0.293 HD
ENDBRANCH   2  22
BRANCH   6  24
ATOM     24  O   UNL     1       9.921  -2.280  18.341  1.00  0.00    -0.507 OA
ATOM     25  H   UNL     1       9.079  -1.715  18.348  1.00  0.00     0.293 HD
ENDBRANCH   6  24
BRANCH   8  26
ATOM     26  O   UNL     1      11.082  -6.954  18.829  1.00  0.00    -0.508 OA
ATOM     27  H   UNL     1      11.897  -7.462  18.507  1.00  0.00     0.293 HD
ENDBRANCH   8  26
TORSDOF 6
ENDMDL
MODEL 2
REMARK VINA RESULT:    -5.239      4.334      7.257
REMARK INTER + INTRA:          -6.233
REMARK INTER:                  -5.917
REMARK INTRA:                  -0.316
REMARK UNBOUND:                 0.079
REMARK SMILES O=c1c(O)c(-c2ccc(O)c(O)c2)oc2cc(O)cc(O)c12
REMARK SMILES IDX 5 1 3 2 2 3 1 4 22 5 20 6 19 7 17 8 16 9 15 10 14 11 6 12
REMARK SMILES IDX 7 13 8 14 9 15 13 16 11 17 10 18 12 20 4 22 21 24 18 26
REMARK H PARENT 10 19 12 21 4 23 21 25 18 27
REMARK Flexibility Score: inf
ROOT
ATOM      1  C   UNL     1      10.176  -4.667  20.679  1.00  0.00     0.180 A 
ATOM      2  C   UNL     1       8.974  -4.853  21.390  1.00  0.00     0.208 A 
ATOM      3  C   UNL     1       9.024  -4.966  22.788  1.00  0.00     0.238 A 
ATOM      4  O   UNL     1       7.953  -5.122  23.436  1.00  0.00    -0.285 OA
ATOM      5  C   UNL     1      10.269  -4.910  23.449  1.00  0.00     0.111 A 
ATOM      6  C   UNL     1      10.405  -5.018  24.853  1.00  0.00     0.134 A 
ATOM      7  C   UNL     1      11.680  -4.962  25.435  1.00  0.00     0.093 A 
ATOM      8  C   UNL     1      12.820  -4.801  24.638  1.00  0.00     0.123 A 
ATOM      9  C   UNL     1      12.690  -4.693  23.253  1.00  0.00     0.094 A 
ATOM     10  C   UNL     1      11.428  -4.745  22.655  1.00  0.00     0.146 A 
ATOM     11  O   UNL     1      11.333  -4.634  21.335  1.00  0.00    -0.452 OA
ENDROOT
BRANCH   1  12
ATOM     12  C   UNL     1      10.204  -4.521  19.206  1.00  0.00     0.025 A 
ATOM     13  C   UNL     1      10.411  -5.628  18.364  1.00  0.00     0.016 A 
ATOM     14  C   UNL     1      10.408  -5.469  16.976  1.00  0.00     0.051 A 
ATOM     15  C   UNL     1      10.185  -4.208  16.408  1.00  0.00     0.157 A 
ATOM     16  C   UNL     1       9.959  -3.263  18.631  1.00  0.00     0.062 A 
ATOM     17  C   UNL     1       9.956  -3.100  17.241  1.00  0.00     0.158 A 
BRANCH  15  18
ATOM     18  O   UNL     1      10.185  -4.053  15.023  1.00  0.00    -0.504 OA
ATOM     19  H   UNL     1       9.477  -4.487  14.440  1.00  0.00     0.293 HD
ENDBRANCH  15  18
BRANCH  17  20
ATOM     20  O   UNL     1       9.724  -1.833  16.708  1.00  0.00    -0.504 OA
ATOM     21  H   UNL     1      10.045  -0.989  17.166  1.00  0.00     0.293 HD
ENDBRANCH  17  20
ENDBRANCH   1  12
BRANCH   2  22
ATOM     22  O   UNL     1       7.758  -4.955  20.707  1.00  0.00    -0.502 OA
ATOM     23  H   UNL     1       7.639  -4.621  19.759  1.00  0.00     0.293 HD
ENDBRANCH   2  22
BRANCH   6  24
ATOM     24  O   UNL     1       9.287  -5.181  25.673  1.00  0.00    -0.507 OA
ATOM     25  H   UNL     1       8.790  -4.387  26.061  1.00  0.00     0.293 HD
ENDBRANCH   6  24
BRANCH   8  26
ATOM     26  O   UNL     1      14.087  -4.746  25.215  1.00  0.00    -0.508 OA
ATOM     27  H   UNL     1      14.737  -3.999  24.999  1.00  0.00     0.293 HD
ENDBRANCH   8  26
TORSDOF 6
ENDMDL
MODEL 3
REMARK VINA RESULT:    -5.237      1.947      3.219
REMARK INTER + INTRA:          -6.230
REMARK INTER:                  -5.939
REMARK INTRA:                  -0.291
REMARK UNBOUND:                 0.079
REMARK SMILES O=c1c(O)c(-c2ccc(O)c(O)c2)oc2cc(O)cc(O)c12
REMARK SMILES IDX 5 1 3 2 2 3 1 4 22 5 20 6 19 7 17 8 16 9 15 10 14 11 6 12
REMARK SMILES IDX 7 13 8 14 9 15 13 16 11 17 10 18 12 20 4 22 21 24 18 26
REMARK H PARENT 10 19 12 21 4 23 21 25 18 27
REMARK Flexibility Score: inf
ROOT
ATOM      1  C   UNL     1       8.261  -4.065  14.537  1.00  0.00     0.180 A 
ATOM      2  C   UNL     1       9.544  -4.262  15.083  1.00  0.00     0.208 A 
ATOM      3  C   UNL     1       9.780  -3.884  16.414  1.00  0.00     0.238 A 
ATOM      4  O   UNL     1      10.922  -4.065  16.917  1.00  0.00    -0.285 OA
ATOM      5  C   UNL     1       8.740  -3.301  17.168  1.00  0.00     0.111 A 
ATOM      6  C   UNL     1       8.896  -2.891  18.513  1.00  0.00     0.134 A 
ATOM      7  C   UNL     1       7.815  -2.310  19.194  1.00  0.00     0.093 A 
ATOM      8  C   UNL     1       6.583  -2.133  18.553  1.00  0.00     0.123 A 
ATOM      9  C   UNL     1       6.424  -2.537  17.227  1.00  0.00     0.094 A 
ATOM     10  C   UNL     1       7.489  -3.119  16.533  1.00  0.00     0.146 A 
ATOM     11  O   UNL     1       7.309  -3.499  15.274  1.00  0.00    -0.452 OA
ENDROOT
BRANCH   1  12
ATOM     12  C   UNL     1       7.930  -4.455  13.147  1.00  0.00     0.025 A 
ATOM     13  C   UNL     1       8.318  -3.663  12.052  1.00  0.00     0.016 A 
ATOM     14  C   UNL     1       8.015  -4.064  10.749  1.00  0.00     0.051 A 
ATOM     15  C   UNL     1       7.334  -5.266  10.518  1.00  0.00     0.157 A 
ATOM     16  C   UNL     1       7.267  -5.670  12.910  1.00  0.00     0.062 A 
ATOM     17  C   UNL     1       6.961  -6.075  11.605  1.00  0.00     0.158 A 
BRANCH  15  18
ATOM     18  O   UNL     1       7.033  -5.663   9.216  1.00  0.00    -0.504 OA
ATOM     19  H   UNL     1       7.711  -6.146   8.638  1.00  0.00     0.293 HD
ENDBRANCH  15  18
BRANCH  17  20
ATOM     20  O   UNL     1       6.289  -7.281  11.409  1.00  0.00    -0.504 OA
ATOM     21  H   UNL     1       5.937  -7.559  10.502  1.00  0.00     0.293 HD
ENDBRANCH  17  20
ENDBRANCH   1  12
BRANCH   2  22
ATOM     22  O   UNL     1      10.572  -4.795  14.299  1.00  0.00    -0.502 OA
ATOM     23  H   UNL     1      11.465  -5.067  14.690  1.00  0.00     0.293 HD
ENDBRANCH   2  22
BRANCH   6  24
ATOM     24  O   UNL     1      10.113  -3.054  19.178  1.00  0.00    -0.507 OA
ATOM     25  H   UNL     1      10.556  -2.288  19.672  1.00  0.00     0.293 HD
ENDBRANCH   6  24
BRANCH   8  26
ATOM     26  O   UNL     1       5.510  -1.556  19.228  1.00  0.00    -0.508 OA
ATOM     27  H   UNL     1       5.470  -1.532  20.240  1.00  0.00     0.293 HD
ENDBRANCH   8  26
TORSDOF 6
ENDMDL
MODEL 4
REMARK VINA RESULT:    -5.234     11.377     13.566
REMARK INTER + INTRA:          -6.226
REMARK INTER:                  -6.017
REMARK INTRA:                  -0.209
REMARK UNBOUND:                 0.079
REMARK SMILES O=c1c(O)c(-c2ccc(O)c(O)c2)oc2cc(O)cc(O)c12
REMARK SMILES IDX 5 1 3 2 2 3 1 4 22 5 20 6 19 7 17 8 16 9 15 10 14 11 6 12
REMARK SMILES IDX 7 13 8 14 9 15 13 16 11 17 10 18 12 20 4 22 21 24 18 26
REMARK H PARENT 10 19 12 21 4 23 21 25 18 27
REMARK Flexibility Score: inf
ROOT
ATOM      1  C   UNL     1      18.537   1.750  13.770  1.00  0.00     0.180 A 
ATOM      2  C   UNL     1      18.715   0.500  14.393  1.00  0.00     0.208 A 
ATOM      3  C   UNL     1      18.910  -0.636  13.591  1.00  0.00     0.238 A 
ATOM      4  O   UNL     1      19.081  -1.760  14.138  1.00  0.00    -0.285 OA
ATOM      5  C   UNL     1      18.904  -0.507  12.186  1.00  0.00     0.111 A 
ATOM      6  C   UNL     1      19.090  -1.601  11.308  1.00  0.00     0.134 A 
ATOM      7  C   UNL     1      19.061  -1.392   9.921  1.00  0.00     0.093 A 
ATOM      8  C   UNL     1      18.850  -0.110   9.398  1.00  0.00     0.123 A 
ATOM      9  C   UNL     1      18.667   0.971  10.260  1.00  0.00     0.094 A 
ATOM     10  C   UNL     1      18.694   0.783  11.645  1.00  0.00     0.146 A 
ATOM     11  O   UNL     1      18.522   1.831  12.443  1.00  0.00    -0.452 OA
ENDROOT
BRANCH   1  12
ATOM     12  C   UNL     1      18.345   2.996  14.548  1.00  0.00     0.025 A 
ATOM     13  C   UNL     1      17.101   3.649  14.590  1.00  0.00     0.016 A 
ATOM     14  C   UNL     1      16.938   4.809  15.351  1.00  0.00     0.051 A 
ATOM     15  C   UNL     1      18.009   5.326  16.092  1.00  0.00     0.157 A 
ATOM     16  C   UNL     1      19.409   3.505  15.311  1.00  0.00     0.062 A 
ATOM     17  C   UNL     1      19.250   4.667  16.074  1.00  0.00     0.158 A 
BRANCH  15  18
ATOM     18  O   UNL     1      17.843   6.484  16.849  1.00  0.00    -0.504 OA
ATOM     19  H   UNL     1      17.386   6.466  17.754  1.00  0.00     0.293 HD
ENDBRANCH  15  18
BRANCH  17  20
ATOM     20  O   UNL     1      20.334   5.151  16.806  1.00  0.00    -0.504 OA
ATOM     21  H   UNL     1      21.284   5.093  16.462  1.00  0.00     0.293 HD
ENDBRANCH  17  20
ENDBRANCH   1  12
BRANCH   2  22
ATOM     22  O   UNL     1      18.668   0.390  15.786  1.00  0.00    -0.502 OA
ATOM     23  H   UNL     1      18.802   1.186  16.397  1.00  0.00     0.293 HD
ENDBRANCH   2  22
BRANCH   6  24
ATOM     24  O   UNL     1      19.301  -2.890  11.800  1.00  0.00    -0.507 OA
ATOM     25  H   UNL     1      18.738  -3.272  12.551  1.00  0.00     0.293 HD
ENDBRANCH   6  24
BRANCH   8  26
ATOM     26  O   UNL     1      18.821   0.097   8.021  1.00  0.00    -0.508 OA
ATOM     27  H   UNL     1      19.212   0.932   7.602  1.00  0.00     0.293 HD
ENDBRANCH   8  26
TORSDOF 6
ENDMDL
MODEL 5
REMARK VINA RESULT:    -5.233     12.024     13.895
REMARK INTER + INTRA:          -6.225
REMARK INTER:                  -5.904
REMARK INTRA:                  -0.322
REMARK UNBOUND:                 0.079
REMARK SMILES O=c1c(O)c(-c2ccc(O)c(O)c2)oc2cc(O)cc(O)c12
REMARK SMILES IDX 5 1 3 2 2 3 1 4 22 5 20 6 19 7 17 8 16 9 15 10 14 11 6 12
REMARK SMILES IDX 7 13 8 14 9 15 13 16 11 17 10 18 12 20 4 22 21 24 18 26
REMARK H PARENT 10 19 12 21 4 23 21 25 18 27
REMARK Flexibility Score: inf
ROOT
ATOM      1  C   UNL     1      18.673   3.983  16.073  1.00  0.00     0.180 A 
ATOM      2  C   UNL     1      19.982   4.502  16.081  1.00  0.00     0.208 A 
ATOM      3  C   UNL     1      20.302   5.518  16.996  1.00  0.00     0.238 A 
ATOM      4  O   UNL     1      21.474   5.984  17.020  1.00  0.00    -0.285 OA
ATOM      5  C   UNL     1      19.310   6.008  17.870  1.00  0.00     0.111 A 
ATOM      6  C   UNL     1      19.550   7.030  18.818  1.00  0.00     0.134 A 
ATOM      7  C   UNL     1      18.507   7.471  19.646  1.00  0.00     0.093 A 
ATOM      8  C   UNL     1      17.229   6.907  19.543  1.00  0.00     0.123 A 
ATOM      9  C   UNL     1      16.988   5.898  18.610  1.00  0.00     0.094 A 
ATOM     10  C   UNL     1      18.015   5.445  17.777  1.00  0.00     0.146 A 
ATOM     11  O   UNL     1      17.759   4.480  16.901  1.00  0.00    -0.452 OA
ENDROOT
BRANCH   1  12
ATOM     12  C   UNL     1      18.263   2.899  15.151  1.00  0.00     0.025 A 
ATOM     13  C   UNL     1      17.703   3.180  13.892  1.00  0.00     0.016 A 
ATOM     14  C   UNL     1      17.348   2.140  13.030  1.00  0.00     0.051 A 
ATOM     15  C   UNL     1      17.558   0.807  13.404  1.00  0.00     0.157 A 
ATOM     16  C   UNL     1      18.492   1.561  15.512  1.00  0.00     0.062 A 
ATOM     17  C   UNL     1      18.136   0.517  14.651  1.00  0.00     0.158 A 
BRANCH  15  18
ATOM     18  O   UNL     1      17.201  -0.228  12.541  1.00  0.00    -0.504 OA
ATOM     19  H   UNL     1      16.518  -0.093  11.804  1.00  0.00     0.293 HD
ENDBRANCH  15  18
BRANCH  17  20
ATOM     20  O   UNL     1      18.366  -0.800  15.051  1.00  0.00    -0.504 OA
ATOM     21  H   UNL     1      17.804  -1.570  14.712  1.00  0.00     0.293 HD
ENDBRANCH  17  20
ENDBRANCH   1  12
BRANCH   2  22
ATOM     22  O   UNL     1      20.934   4.034  15.171  1.00  0.00    -0.502 OA
ATOM     23  H   UNL     1      21.906   4.314  15.212  1.00  0.00     0.293 HD
ENDBRANCH   2  22
BRANCH   6  24
ATOM     24  O   UNL     1      20.813   7.612  18.944  1.00  0.00    -0.507 OA
ATOM     25  H   UNL     1      21.192   7.873  19.847  1.00  0.00     0.293 HD
ENDBRANCH   6  24
BRANCH   8  26
ATOM     26  O   UNL     1      16.193   7.345  20.365  1.00  0.00    -0.508 OA
ATOM     27  H   UNL     1      16.211   7.195  21.367  1.00  0.00     0.293 HD
ENDBRANCH   8  26
TORSDOF 6
ENDMDL
MODEL 6
REMARK VINA RESULT:    -5.224     11.076     12.014
REMARK INTER + INTRA:          -6.214
REMARK INTER:                  -5.999
REMARK INTRA:                  -0.215
REMARK UNBOUND:                 0.079
REMARK SMILES O=c1c(O)c(-c2ccc(O)c(O)c2)oc2cc(O)cc(O)c12
REMARK SMILES IDX 5 1 3 2 2 3 1 4 22 5 20 6 19 7 17 8 16 9 15 10 14 11 6 12
REMARK SMILES IDX 7 13 8 14 9 15 13 16 11 17 10 18 12 20 4 22 21 24 18 26
REMARK H PARENT 10 19 12 21 4 23 21 25 18 27
REMARK Flexibility Score: inf
ROOT
ATOM      1  C   UNL     1      18.666  -0.600  11.843  1.00  0.00     0.180 A 
ATOM      2  C   UNL     1      18.874  -0.835  13.215  1.00  0.00     0.208 A 
ATOM      3  C   UNL     1      18.634   0.206  14.126  1.00  0.00     0.238 A 
ATOM      4  O   UNL     1      18.807   0.003  15.359  1.00  0.00    -0.285 OA
ATOM      5  C   UNL     1      18.212   1.465  13.651  1.00  0.00     0.111 A 
ATOM      6  C   UNL     1      17.952   2.565  14.501  1.00  0.00     0.134 A 
ATOM      7  C   UNL     1      17.544   3.789  13.950  1.00  0.00     0.093 A 
ATOM      8  C   UNL     1      17.391   3.931  12.566  1.00  0.00     0.123 A 
ATOM      9  C   UNL     1      17.645   2.848  11.724  1.00  0.00     0.094 A 
ATOM     10  C   UNL     1      18.052   1.620  12.254  1.00  0.00     0.146 A 
ATOM     11  O   UNL     1      18.281   0.605  11.430  1.00  0.00    -0.452 OA
ENDROOT
BRANCH   1  12
ATOM     12  C   UNL     1      18.879  -1.653  10.823  1.00  0.00     0.025 A 
ATOM     13  C   UNL     1      17.803  -2.210  10.110  1.00  0.00     0.016 A 
ATOM     14  C   UNL     1      18.032  -3.185   9.136  1.00  0.00     0.051 A 
ATOM     15  C   UNL     1      19.337  -3.607   8.849  1.00  0.00     0.157 A 
ATOM     16  C   UNL     1      20.187  -2.063  10.517  1.00  0.00     0.062 A 
ATOM     17  C   UNL     1      20.419  -3.040   9.542  1.00  0.00     0.158 A 
BRANCH  15  18
ATOM     18  O   UNL     1      19.561  -4.580   7.878  1.00  0.00    -0.504 OA
ATOM     19  H   UNL     1      20.382  -4.558   7.283  1.00  0.00     0.293 HD
ENDBRANCH  15  18
BRANCH  17  20
ATOM     20  O   UNL     1      21.731  -3.433   9.276  1.00  0.00    -0.504 OA
ATOM     21  H   UNL     1      21.948  -4.313   8.826  1.00  0.00     0.293 HD
ENDBRANCH  17  20
ENDBRANCH   1  12
BRANCH   2  22
ATOM     22  O   UNL     1      19.340  -2.077  13.657  1.00  0.00    -0.502 OA
ATOM     23  H   UNL     1      18.727  -2.773  14.063  1.00  0.00     0.293 HD
ENDBRANCH   2  22
BRANCH   6  24
ATOM     24  O   UNL     1      18.097   2.455  15.885  1.00  0.00    -0.507 OA
ATOM     25  H   UNL     1      18.371   3.245  16.457  1.00  0.00     0.293 HD
ENDBRANCH   6  24
BRANCH   8  26
ATOM     26  O   UNL     1      16.986   5.147  12.018  1.00  0.00    -0.508 OA
ATOM     27  H   UNL     1      16.455   5.821  12.557  1.00  0.00     0.293 HD
ENDBRANCH   8  26
TORSDOF 6
ENDMDL
MODEL 7
REMARK VINA RESULT:    -5.200      2.060      7.349
REMARK INTER + INTRA:          -6.185
REMARK INTER:                  -5.976
REMARK INTRA:                  -0.209
REMARK UNBOUND:                 0.079
REMARK SMILES O=c1c(O)c(-c2ccc(O)c(O)c2)oc2cc(O)cc(O)c12
REMARK SMILES IDX 5 1 3 2 2 3 1 4 22 5 20 6 19 7 17 8 16 9 15 10 14 11 6 12
REMARK SMILES IDX 7 13 8 14 9 15 13 16 11 17 10 18 12 20 4 22 21 24 18 26
REMARK H PARENT 10 19 12 21 4 23 21 25 18 27
REMARK Flexibility Score: inf
ROOT
ATOM      1  C   UNL     1       9.565  -4.596  17.681  1.00  0.00     0.180 A 
ATOM      2  C   UNL     1       9.418  -3.235  17.350  1.00  0.00     0.208 A 
ATOM      3  C   UNL     1       8.884  -2.896  16.097  1.00  0.00     0.238 A 
ATOM      4  O   UNL     1       8.738  -1.680  15.793  1.00  0.00    -0.285 OA
ATOM      5  C   UNL     1       8.526  -3.917  15.192  1.00  0.00     0.111 A 
ATOM      6  C   UNL     1       7.985  -3.659  13.910  1.00  0.00     0.134 A 
ATOM      7  C   UNL     1       7.662  -4.730  13.063  1.00  0.00     0.093 A 
ATOM      8  C   UNL     1       7.870  -6.052  13.475  1.00  0.00     0.123 A 
ATOM      9  C   UNL     1       8.403  -6.310  14.739  1.00  0.00     0.094 A 
ATOM     10  C   UNL     1       8.729  -5.256  15.597  1.00  0.00     0.146 A 
ATOM     11  O   UNL     1       9.230  -5.531  16.796  1.00  0.00    -0.452 OA
ENDROOT
BRANCH   1  12
ATOM     12  C   UNL     1      10.102  -5.033  18.990  1.00  0.00     0.025 A 
ATOM     13  C   UNL     1      11.378  -5.611  19.102  1.00  0.00     0.016 A 
ATOM     14  C   UNL     1      11.874  -5.993  20.351  1.00  0.00     0.051 A 
ATOM     15  C   UNL     1      11.109  -5.791  21.507  1.00  0.00     0.157 A 
ATOM     16  C   UNL     1       9.348  -4.812  20.154  1.00  0.00     0.062 A 
ATOM     17  C   UNL     1       9.841  -5.194  21.408  1.00  0.00     0.158 A 
BRANCH  15  18
ATOM     18  O   UNL     1      11.606  -6.174  22.752  1.00  0.00    -0.504 OA
ATOM     19  H   UNL     1      11.218  -6.962  23.258  1.00  0.00     0.293 HD
ENDBRANCH  15  18
BRANCH  17  20
ATOM     20  O   UNL     1       9.058  -4.972  22.540  1.00  0.00    -0.504 OA
ATOM     21  H   UNL     1       9.429  -5.063  23.477  1.00  0.00     0.293 HD
ENDBRANCH  17  20
ENDBRANCH   1  12
BRANCH   2  22
ATOM     22  O   UNL     1       9.827  -2.242  18.245  1.00  0.00    -0.502 OA
ATOM     23  H   UNL     1      10.802  -2.027  18.407  1.00  0.00     0.293 HD
ENDBRANCH   2  22
BRANCH   6  24
ATOM     24  O   UNL     1       7.767  -2.352  13.470  1.00  0.00    -0.507 OA
ATOM     25  H   UNL     1       7.345  -1.652  14.070  1.00  0.00     0.293 HD
ENDBRANCH   6  24
BRANCH   8  26
ATOM     26  O   UNL     1       7.551  -7.115  12.634  1.00  0.00    -0.508 OA
ATOM     27  H   UNL     1       7.227  -6.963  11.686  1.00  0.00     0.293 HD
ENDBRANCH   8  26
TORSDOF 6
ENDMDL
MODEL 8
REMARK VINA RESULT:    -5.145      1.609      2.282
REMARK INTER + INTRA:          -6.119
REMARK INTER:                  -5.794
REMARK INTRA:                  -0.325
REMARK UNBOUND:                 0.079
REMARK SMILES O=c1c(O)c(-c2ccc(O)c(O)c2)oc2cc(O)cc(O)c12
REMARK SMILES IDX 5 1 3 2 2 3 1 4 22 5 20 6 19 7 17 8 16 9 15 10 14 11 6 12
REMARK SMILES IDX 7 13 8 14 9 15 13 16 11 17 10 18 12 20 4 22 21 24 18 26
REMARK H PARENT 10 19 12 21 4 23 21 25 18 27
REMARK Flexibility Score: inf
ROOT
ATOM      1  C   UNL     1       8.788  -4.646  15.687  1.00  0.00     0.180 A 
ATOM      2  C   UNL     1       8.940  -3.597  16.614  1.00  0.00     0.208 A 
ATOM      3  C   UNL     1       9.588  -3.857  17.832  1.00  0.00     0.238 A 
ATOM      4  O   UNL     1       9.738  -2.923  18.667  1.00  0.00    -0.285 OA
ATOM      5  C   UNL     1      10.054  -5.159  18.110  1.00  0.00     0.111 A 
ATOM      6  C   UNL     1      10.714  -5.504  19.313  1.00  0.00     0.134 A 
ATOM      7  C   UNL     1      11.140  -6.825  19.519  1.00  0.00     0.093 A 
ATOM      8  C   UNL     1      10.919  -7.804  18.543  1.00  0.00     0.123 A 
ATOM      9  C   UNL     1      10.270  -7.468  17.355  1.00  0.00     0.094 A 
ATOM     10  C   UNL     1       9.839  -6.157  17.131  1.00  0.00     0.146 A 
ATOM     11  O   UNL     1       9.228  -5.864  15.989  1.00  0.00    -0.452 OA
ENDROOT
BRANCH   1  12
ATOM     12  C   UNL     1       8.133  -4.445  14.374  1.00  0.00     0.025 A 
ATOM     13  C   UNL     1       6.749  -4.626  14.211  1.00  0.00     0.016 A 
ATOM     14  C   UNL     1       6.149  -4.408  12.968  1.00  0.00     0.051 A 
ATOM     15  C   UNL     1       6.920  -3.992  11.874  1.00  0.00     0.157 A 
ATOM     16  C   UNL     1       8.897  -4.007  13.280  1.00  0.00     0.062 A 
ATOM     17  C   UNL     1       8.301  -3.788  12.033  1.00  0.00     0.158 A 
BRANCH  15  18
ATOM     18  O   UNL     1       6.319  -3.776  10.635  1.00  0.00    -0.504 OA
ATOM     19  H   UNL     1       6.139  -2.840  10.289  1.00  0.00     0.293 HD
ENDBRANCH  15  18
BRANCH  17  20
ATOM     20  O   UNL     1       9.095  -3.367  10.966  1.00  0.00    -0.504 OA
ATOM     21  H   UNL     1       9.106  -3.855  10.079  1.00  0.00     0.293 HD
ENDBRANCH  17  20
ENDBRANCH   1  12
BRANCH   2  22
ATOM     22  O   UNL     1       8.424  -2.327  16.336  1.00  0.00    -0.502 OA
ATOM     23  H   UNL     1       9.012  -1.554  16.052  1.00  0.00     0.293 HD
ENDBRANCH   2  22
BRANCH   6  24
ATOM     24  O   UNL     1      10.948  -4.549  20.304  1.00  0.00    -0.507 OA
ATOM     25  H   UNL     1      11.356  -3.646  20.089  1.00  0.00     0.293 HD
ENDBRANCH   6  24
BRANCH   8  26
ATOM     26  O   UNL     1      11.342  -9.116  18.748  1.00  0.00    -0.508 OA
ATOM     27  H   UNL     1      10.789  -9.774  19.284  1.00  0.00     0.293 HD
ENDBRANCH   8  26
TORSDOF 6
ENDMDL
MODEL 9
REMARK VINA RESULT:    -5.132      3.997      9.732
REMARK INTER + INTRA:          -6.103
REMARK INTER:                  -5.807
REMARK INTRA:                  -0.296
REMARK UNBOUND:                 0.079
REMARK SMILES O=c1c(O)c(-c2ccc(O)c(O)c2)oc2cc(O)cc(O)c12
REMARK SMILES IDX 5 1 3 2 2 3 1 4 22 5 20 6 19 7 17 8 16 9 15 10 14 11 6 12
REMARK SMILES IDX 7 13 8 14 9 15 13 16 11 17 10 18 12 20 4 22 21 24 18 26
REMARK H PARENT 10 19 12 21 4 23 21 25 18 27
REMARK Flexibility Score: inf
ROOT
ATOM      1  C   UNL     1      10.946  -5.066  20.981  1.00  0.00     0.180 A 
ATOM      2  C   UNL     1      11.065  -6.320  20.351  1.00  0.00     0.208 A 
ATOM      3  C   UNL     1      10.790  -6.418  18.978  1.00  0.00     0.238 A 
ATOM      4  O   UNL     1      10.903  -7.534  18.401  1.00  0.00    -0.285 OA
ATOM      5  C   UNL     1      10.384  -5.271  18.265  1.00  0.00     0.111 A 
ATOM      6  C   UNL     1      10.085  -5.286  16.882  1.00  0.00     0.134 A 
ATOM      7  C   UNL     1       9.678  -4.104  16.245  1.00  0.00     0.093 A 
ATOM      8  C   UNL     1       9.565  -2.909  16.966  1.00  0.00     0.123 A 
ATOM      9  C   UNL     1       9.859  -2.890  18.330  1.00  0.00     0.094 A 
ATOM     10  C   UNL     1      10.267  -4.057  18.982  1.00  0.00     0.146 A 
ATOM     11  O   UNL     1      10.546  -4.009  20.279  1.00  0.00    -0.452 OA
ENDROOT
BRANCH   1  12
ATOM     12  C   UNL     1      11.237  -4.878  22.421  1.00  0.00     0.025 A 
ATOM     13  C   UNL     1      10.210  -4.863  23.380  1.00  0.00     0.016 A 
ATOM     14  C   UNL     1      10.511  -4.709  24.735  1.00  0.00     0.051 A 
ATOM     15  C   UNL     1      11.842  -4.583  25.155  1.00  0.00     0.157 A 
ATOM     16  C   UNL     1      12.571  -4.774  22.848  1.00  0.00     0.062 A 
ATOM     17  C   UNL     1      12.877  -4.619  24.205  1.00  0.00     0.158 A 
BRANCH  15  18
ATOM     18  O   UNL     1      12.139  -4.429  26.507  1.00  0.00    -0.504 OA
ATOM     19  H   UNL     1      11.846  -5.112  27.197  1.00  0.00     0.293 HD
ENDBRANCH  15  18
BRANCH  17  20
ATOM     20  O   UNL     1      14.213  -4.504  24.590  1.00  0.00    -0.504 OA
ATOM     21  H   UNL     1      14.530  -4.764  25.515  1.00  0.00     0.293 HD
ENDBRANCH  17  20
ENDBRANCH   1  12
BRANCH   2  22
ATOM     22  O   UNL     1      11.421  -7.451  21.091  1.00  0.00    -0.502 OA
ATOM     23  H   UNL     1      11.795  -7.389  22.030  1.00  0.00     0.293 HD
ENDBRANCH   2  22
BRANCH   6  24
ATOM     24  O   UNL     1      10.188  -6.462  16.136  1.00  0.00    -0.507 OA
ATOM     25  H   UNL     1       9.465  -7.171  16.158  1.00  0.00     0.293 HD
ENDBRANCH   6  24
BRANCH   8  26
ATOM     26  O   UNL     1       9.160  -1.736  16.335  1.00  0.00    -0.508 OA
ATOM     27  H   UNL     1       8.223  -1.366  16.451  1.00  0.00     0.293 HD
ENDBRANCH   8  26
TORSDOF 6
ENDMDL
