MODEL 1
REMARK VINA RESULT:    -4.485      0.000      0.000
REMARK INTER + INTRA:          -7.187
REMARK INTER:                  -6.844
REMARK INTRA:                  -0.342
REMARK UNBOUND:                -0.342
REMARK SMILES O=C([O-])CCCCCCCCC(=O)[O-]
REMARK SMILES IDX 7 1 6 2 5 3 4 4 2 5 1 6 3 7 8 8 9 9 10 10 11 11 12 12 13 13
REMARK SMILES IDX 14 14
REMARK H PARENT
REMARK Flexibility Score: inf
ROOT
ATOM      1  C   UNL     1     -12.730   2.054 -21.866  1.00  0.00     0.000 C 
ENDROOT
BRANCH   1   2
ATOM      2  C   UNL     1     -11.639   1.665 -20.856  1.00  0.00     0.000 C 
BRANCH   2   3
ATOM      3  C   UNL     1     -10.244   1.994 -21.402  1.00  0.00     0.006 C 
BRANCH   3   4
ATOM      4  C   UNL     1      -9.272   2.321 -20.265  1.00  0.00     0.053 C 
BRANCH   4   5
ATOM      5  C   UNL     1      -8.207   1.275 -20.169  1.00  0.00     0.041 C 
ATOM      6  O   UNL     1      -7.013   1.605 -19.941  1.00  0.00    -0.550 OA
ATOM      7  O   UNL     1      -8.540  -0.069 -20.281  1.00  0.00    -0.550 OA
ENDBRANCH   4   5
ENDBRANCH   3   4
ENDBRANCH   2   3
ENDBRANCH   1   2
BRANCH   1   8
ATOM      8  C   UNL     1     -13.885   2.837 -21.220  1.00  0.00     0.000 C 
BRANCH   8   9
ATOM      9  C   UNL     1     -15.087   3.003 -22.166  1.00  0.00     0.000 C 
BRANCH   9  10
ATOM     10  C   UNL     1     -14.681   3.542 -23.547  1.00  0.00     0.006 C 
BRANCH  10  11
ATOM     11  C   UNL     1     -14.452   5.060 -23.547  1.00  0.00     0.053 C 
BRANCH  11  12
ATOM     12  C   UNL     1     -15.690   5.773 -23.991  1.00  0.00     0.041 C 
ATOM     13  O   UNL     1     -16.603   6.031 -23.163  1.00  0.00    -0.550 OA
ATOM     14  O   UNL     1     -15.857   6.112 -25.327  1.00  0.00    -0.550 OA
ENDBRANCH  11  12
ENDBRANCH  10  11
ENDBRANCH   9  10
ENDBRANCH   8   9
ENDBRANCH   1   8
TORSDOF 9
ENDMDL
MODEL 2
REMARK VINA RESULT:    -4.296      1.238      7.440
REMARK INTER + INTRA:          -6.899
REMARK INTER:                  -6.548
REMARK INTRA:                  -0.351
REMARK UNBOUND:                -0.342
REMARK SMILES O=C([O-])CCCCCCCCC(=O)[O-]
REMARK SMILES IDX 7 1 6 2 5 3 4 4 2 5 1 6 3 7 8 8 9 9 10 10 11 11 12 12 13 13
REMARK SMILES IDX 14 14
REMARK H PARENT
REMARK Flexibility Score: inf
ROOT
ATOM      1  C   UNL     1     -12.780   2.541 -21.942  1.00  0.00     0.000 C 
ENDROOT
BRANCH   1   2
ATOM      2  C   UNL     1     -14.278   2.886 -21.942  1.00  0.00     0.000 C 
BRANCH   2   3
ATOM      3  C   UNL     1     -14.742   3.309 -23.342  1.00  0.00     0.006 C 
BRANCH   3   4
ATOM      4  C   UNL     1     -15.471   4.655 -23.295  1.00  0.00     0.053 C 
BRANCH   4   5
ATOM      5  C   UNL     1     -14.797   5.648 -24.189  1.00  0.00     0.041 C 
ATOM      6  O   UNL     1     -13.565   5.877 -24.064  1.00  0.00    -0.550 OA
ATOM      7  O   UNL     1     -15.518   6.283 -25.192  1.00  0.00    -0.550 OA
ENDBRANCH   4   5
ENDBRANCH   3   4
ENDBRANCH   2   3
ENDBRANCH   1   2
BRANCH   1   8
ATOM      8  C   UNL     1     -12.454   1.310 -21.081  1.00  0.00     0.000 C 
BRANCH   8   9
ATOM      9  C   UNL     1     -11.823   1.685 -19.729  1.00  0.00     0.000 C 
BRANCH   9  10
ATOM     10  C   UNL     1     -10.451   1.025 -19.516  1.00  0.00     0.006 C 
BRANCH  10  11
ATOM     11  C   UNL     1      -9.312   2.047 -19.400  1.00  0.00     0.053 C 
BRANCH  11  12
ATOM     12  C   UNL     1      -8.241   1.749 -20.401  1.00  0.00     0.041 C 
ATOM     13  O   UNL     1      -8.541   1.545 -21.607  1.00  0.00    -0.550 OA
ATOM     14  O   UNL     1      -6.917   1.650 -19.996  1.00  0.00    -0.550 OA
ENDBRANCH  11  12
ENDBRANCH  10  11
ENDBRANCH   9  10
ENDBRANCH   8   9
ENDBRANCH   1   8
TORSDOF 9
ENDMDL
MODEL 3
REMARK VINA RESULT:    -4.293     13.150     14.365
REMARK INTER + INTRA:          -6.893
REMARK INTER:                  -6.413
REMARK INTRA:                  -0.480
REMARK UNBOUND:                -0.342
REMARK SMILES O=C([O-])CCCCCCCCC(=O)[O-]
REMARK SMILES IDX 7 1 6 2 5 3 4 4 2 5 1 6 3 7 8 8 9 9 10 10 11 11 12 12 13 13
REMARK SMILES IDX 14 14
REMARK H PARENT
REMARK Flexibility Score: inf
ROOT
ATOM      1  C   UNL     1      -7.488   3.007 -34.803  1.00  0.00     0.000 C 
ENDROOT
BRANCH   1   2
ATOM      2  C   UNL     1      -6.730   4.179 -35.446  1.00  0.00     0.000 C 
BRANCH   2   3
ATOM      3  C   UNL     1      -7.386   5.518 -35.086  1.00  0.00     0.006 C 
BRANCH   3   4
ATOM      4  C   UNL     1      -6.482   6.342 -34.165  1.00  0.00     0.053 C 
BRANCH   4   5
ATOM      5  C   UNL     1      -7.111   6.497 -32.816  1.00  0.00     0.041 C 
ATOM      6  O   UNL     1      -7.823   5.574 -32.339  1.00  0.00    -0.550 OA
ATOM      7  O   UNL     1      -6.869   7.639 -32.063  1.00  0.00    -0.550 OA
ENDBRANCH   4   5
ENDBRANCH   3   4
ENDBRANCH   2   3
ENDBRANCH   1   2
BRANCH   1   8
ATOM      8  C   UNL     1      -9.013   3.134 -34.949  1.00  0.00     0.000 C 
BRANCH   8   9
ATOM      9  C   UNL     1      -9.528   2.568 -36.284  1.00  0.00     0.000 C 
BRANCH   9  10
ATOM     10  C   UNL     1     -10.642   1.526 -36.092  1.00  0.00     0.006 C 
BRANCH  10  11
ATOM     11  C   UNL     1     -11.354   1.170 -37.404  1.00  0.00     0.053 C 
BRANCH  11  12
ATOM     12  C   UNL     1     -12.499   2.101 -37.645  1.00  0.00     0.041 C 
ATOM     13  O   UNL     1     -12.860   2.369 -38.821  1.00  0.00    -0.550 OA
ATOM     14  O   UNL     1     -13.139   2.709 -36.573  1.00  0.00    -0.550 OA
ENDBRANCH  11  12
ENDBRANCH  10  11
ENDBRANCH   9  10
ENDBRANCH   8   9
ENDBRANCH   1   8
TORSDOF 9
ENDMDL
MODEL 4
REMARK VINA RESULT:    -4.274      1.591      2.257
REMARK INTER + INTRA:          -6.866
REMARK INTER:                  -6.439
REMARK INTRA:                  -0.426
REMARK UNBOUND:                -0.342
REMARK SMILES O=C([O-])CCCCCCCCC(=O)[O-]
REMARK SMILES IDX 7 1 6 2 5 3 4 4 2 5 1 6 3 7 8 8 9 9 10 10 11 11 12 12 13 13
REMARK SMILES IDX 14 14
REMARK H PARENT
REMARK Flexibility Score: inf
ROOT
ATOM      1  C   UNL     1     -12.021  -0.218 -21.686  1.00  0.00     0.000 C 
ENDROOT
BRANCH   1   2
ATOM      2  C   UNL     1     -10.653  -0.868 -21.425  1.00  0.00     0.000 C 
BRANCH   2   3
ATOM      3  C   UNL     1      -9.526   0.168 -21.522  1.00  0.00     0.006 C 
BRANCH   3   4
ATOM      4  C   UNL     1      -8.612   0.103 -20.295  1.00  0.00     0.053 C 
BRANCH   4   5
ATOM      5  C   UNL     1      -8.025   1.449 -20.007  1.00  0.00     0.041 C 
ATOM      6  O   UNL     1      -6.784   1.574 -19.833  1.00  0.00    -0.550 OA
ATOM      7  O   UNL     1      -8.841   2.573 -19.981  1.00  0.00    -0.550 OA
ENDBRANCH   4   5
ENDBRANCH   3   4
ENDBRANCH   2   3
ENDBRANCH   1   2
BRANCH   1   8
ATOM      8  C   UNL     1     -12.160   1.161 -21.019  1.00  0.00     0.000 C 
BRANCH   8   9
ATOM      9  C   UNL     1     -12.474   2.277 -22.031  1.00  0.00     0.000 C 
BRANCH   9  10
ATOM     10  C   UNL     1     -13.852   2.915 -21.795  1.00  0.00     0.006 C 
BRANCH  10  11
ATOM     11  C   UNL     1     -14.626   3.154 -23.098  1.00  0.00     0.053 C 
BRANCH  11  12
ATOM     12  C   UNL     1     -14.465   4.571 -23.548  1.00  0.00     0.041 C 
ATOM     13  O   UNL     1     -15.069   4.982 -24.574  1.00  0.00    -0.550 OA
ATOM     14  O   UNL     1     -13.611   5.426 -22.863  1.00  0.00    -0.550 OA
ENDBRANCH  11  12
ENDBRANCH  10  11
ENDBRANCH   9  10
ENDBRANCH   8   9
ENDBRANCH   1   8
TORSDOF 9
ENDMDL
MODEL 5
REMARK VINA RESULT:    -4.256     14.529     15.618
REMARK INTER + INTRA:          -6.838
REMARK INTER:                  -6.169
REMARK INTRA:                  -0.669
REMARK UNBOUND:                -0.342
REMARK SMILES O=C([O-])CCCCCCCCC(=O)[O-]
REMARK SMILES IDX 7 1 6 2 5 3 4 4 2 5 1 6 3 7 8 8 9 9 10 10 11 11 12 12 13 13
REMARK SMILES IDX 14 14
REMARK H PARENT
REMARK Flexibility Score: inf
ROOT
ATOM      1  C   UNL     1      -8.201   5.115 -33.941  1.00  0.00     0.000 C 
ENDROOT
BRANCH   1   2
ATOM      2  C   UNL     1      -7.980   3.598 -34.044  1.00  0.00     0.000 C 
BRANCH   2   3
ATOM      3  C   UNL     1      -6.880   3.272 -35.062  1.00  0.00     0.006 C 
BRANCH   3   4
ATOM      4  C   UNL     1      -7.015   4.140 -36.316  1.00  0.00     0.053 C 
BRANCH   4   5
ATOM      5  C   UNL     1      -5.866   3.903 -37.244  1.00  0.00     0.041 C 
ATOM      6  O   UNL     1      -5.664   4.682 -38.213  1.00  0.00    -0.550 OA
ATOM      7  O   UNL     1      -4.988   2.852 -37.010  1.00  0.00    -0.550 OA
ENDBRANCH   4   5
ENDBRANCH   3   4
ENDBRANCH   2   3
ENDBRANCH   1   2
BRANCH   1   8
ATOM      8  C   UNL     1      -7.783   5.685 -32.575  1.00  0.00     0.000 C 
BRANCH   8   9
ATOM      9  C   UNL     1      -6.701   6.772 -32.694  1.00  0.00     0.000 C 
BRANCH   9  10
ATOM     10  C   UNL     1      -6.100   6.853 -34.106  1.00  0.00     0.006 C 
BRANCH  10  11
ATOM     11  C   UNL     1      -5.114   8.019 -34.265  1.00  0.00     0.053 C 
BRANCH  11  12
ATOM     12  C   UNL     1      -4.493   7.994 -35.625  1.00  0.00     0.041 C 
ATOM     13  O   UNL     1      -5.185   7.685 -36.631  1.00  0.00    -0.550 OA
ATOM     14  O   UNL     1      -3.140   8.267 -35.778  1.00  0.00    -0.550 OA
ENDBRANCH  11  12
ENDBRANCH  10  11
ENDBRANCH   9  10
ENDBRANCH   8   9
ENDBRANCH   1   8
TORSDOF 9
ENDMDL
MODEL 6
REMARK VINA RESULT:    -4.251      1.102      7.259
REMARK INTER + INTRA:          -6.829
REMARK INTER:                  -6.406
REMARK INTRA:                  -0.423
REMARK UNBOUND:                -0.342
REMARK SMILES O=C([O-])CCCCCCCCC(=O)[O-]
REMARK SMILES IDX 7 1 6 2 5 3 4 4 2 5 1 6 3 7 8 8 9 9 10 10 11 11 12 12 13 13
REMARK SMILES IDX 14 14
REMARK H PARENT
REMARK Flexibility Score: inf
ROOT
ATOM      1  C   UNL     1     -13.173   2.546 -21.827  1.00  0.00     0.000 C 
ENDROOT
BRANCH   1   2
ATOM      2  C   UNL     1     -14.439   3.098 -21.154  1.00  0.00     0.000 C 
BRANCH   2   3
ATOM      3  C   UNL     1     -15.396   3.698 -22.192  1.00  0.00     0.006 C 
BRANCH   3   4
ATOM      4  C   UNL     1     -14.776   3.669 -23.592  1.00  0.00     0.053 C 
BRANCH   4   5
ATOM      5  C   UNL     1     -14.603   5.059 -24.117  1.00  0.00     0.041 C 
ATOM      6  O   UNL     1     -15.474   5.563 -24.875  1.00  0.00    -0.550 OA
ATOM      7  O   UNL     1     -13.505   5.817 -23.730  1.00  0.00    -0.550 OA
ENDBRANCH   4   5
ENDBRANCH   3   4
ENDBRANCH   2   3
ENDBRANCH   1   2
BRANCH   1   8
ATOM      8  C   UNL     1     -12.326   1.681 -20.880  1.00  0.00     0.000 C 
BRANCH   8   9
ATOM      9  C   UNL     1     -11.766   0.425 -21.569  1.00  0.00     0.000 C 
BRANCH   9  10
ATOM     10  C   UNL     1     -10.407   0.679 -22.242  1.00  0.00     0.006 C 
BRANCH  10  11
ATOM     11  C   UNL     1      -9.551   1.703 -21.484  1.00  0.00     0.053 C 
BRANCH  11  12
ATOM     12  C   UNL     1      -8.600   1.007 -20.563  1.00  0.00     0.041 C 
ATOM     13  O   UNL     1      -8.697  -0.234 -20.373  1.00  0.00    -0.550 OA
ATOM     14  O   UNL     1      -7.635   1.734 -19.879  1.00  0.00    -0.550 OA
ENDBRANCH  11  12
ENDBRANCH  10  11
ENDBRANCH   9  10
ENDBRANCH   8   9
ENDBRANCH   1   8
TORSDOF 9
ENDMDL
MODEL 7
REMARK VINA RESULT:    -4.185      1.202      7.584
REMARK INTER + INTRA:          -6.729
REMARK INTER:                  -6.364
REMARK INTRA:                  -0.365
REMARK UNBOUND:                -0.342
REMARK SMILES O=C([O-])CCCCCCCCC(=O)[O-]
REMARK SMILES IDX 7 1 6 2 5 3 4 4 2 5 1 6 3 7 8 8 9 9 10 10 11 11 12 12 13 13
REMARK SMILES IDX 14 14
REMARK H PARENT
REMARK Flexibility Score: inf
ROOT
ATOM      1  C   UNL     1     -15.096   3.470 -21.915  1.00  0.00     0.000 C 
ENDROOT
BRANCH   1   2
ATOM      2  C   UNL     1     -14.740   3.674 -23.396  1.00  0.00     0.000 C 
BRANCH   2   3
ATOM      3  C   UNL     1     -14.386   5.140 -23.678  1.00  0.00     0.006 C 
BRANCH   3   4
ATOM      4  C   UNL     1     -15.246   5.705 -24.811  1.00  0.00     0.053 C 
BRANCH   4   5
ATOM      5  C   UNL     1     -16.210   6.720 -24.282  1.00  0.00     0.041 C 
ATOM      6  O   UNL     1     -16.991   6.421 -23.340  1.00  0.00    -0.550 OA
ATOM      7  O   UNL     1     -16.212   8.011 -24.795  1.00  0.00    -0.550 OA
ENDBRANCH   4   5
ENDBRANCH   3   4
ENDBRANCH   2   3
ENDBRANCH   1   2
BRANCH   1   8
ATOM      8  C   UNL     1     -13.952   2.830 -21.112  1.00  0.00     0.000 C 
BRANCH   8   9
ATOM      9  C   UNL     1     -12.780   2.386 -22.005  1.00  0.00     0.000 C 
BRANCH   9  10
ATOM     10  C   UNL     1     -11.949   1.259 -21.369  1.00  0.00     0.006 C 
BRANCH  10  11
ATOM     11  C   UNL     1     -10.698   1.779 -20.647  1.00  0.00     0.053 C 
BRANCH  11  12
ATOM     12  C   UNL     1      -9.484   1.571 -21.495  1.00  0.00     0.041 C 
ATOM     13  O   UNL     1      -9.604   1.230 -22.701  1.00  0.00    -0.550 OA
ATOM     14  O   UNL     1      -8.217   1.707 -20.941  1.00  0.00    -0.550 OA
ENDBRANCH  11  12
ENDBRANCH  10  11
ENDBRANCH   9  10
ENDBRANCH   8   9
ENDBRANCH   1   8
TORSDOF 9
ENDMDL
MODEL 8
REMARK VINA RESULT:    -4.110     14.182     15.480
REMARK INTER + INTRA:          -6.615
REMARK INTER:                  -6.140
REMARK INTRA:                  -0.475
REMARK UNBOUND:                -0.342
REMARK SMILES O=C([O-])CCCCCCCCC(=O)[O-]
REMARK SMILES IDX 7 1 6 2 5 3 4 4 2 5 1 6 3 7 8 8 9 9 10 10 11 11 12 12 13 13
REMARK SMILES IDX 14 14
REMARK H PARENT
REMARK Flexibility Score: inf
ROOT
ATOM      1  C   UNL     1      -7.919   5.937 -32.518  1.00  0.00     0.000 C 
ENDROOT
BRANCH   1   2
ATOM      2  C   UNL     1      -8.035   5.351 -33.933  1.00  0.00     0.000 C 
BRANCH   2   3
ATOM      3  C   UNL     1      -7.979   3.818 -33.899  1.00  0.00     0.006 C 
BRANCH   3   4
ATOM      4  C   UNL     1      -8.360   3.224 -35.257  1.00  0.00     0.053 C 
BRANCH   4   5
ATOM      5  C   UNL     1      -7.354   3.605 -36.297  1.00  0.00     0.041 C 
ATOM      6  O   UNL     1      -6.154   3.241 -36.181  1.00  0.00    -0.550 OA
ATOM      7  O   UNL     1      -7.751   4.321 -37.419  1.00  0.00    -0.550 OA
ENDBRANCH   4   5
ENDBRANCH   3   4
ENDBRANCH   2   3
ENDBRANCH   1   2
BRANCH   1   8
ATOM      8  C   UNL     1      -6.821   7.008 -32.406  1.00  0.00     0.000 C 
BRANCH   8   9
ATOM      9  C   UNL     1      -5.823   6.955 -33.576  1.00  0.00     0.000 C 
BRANCH   9  10
ATOM     10  C   UNL     1      -5.507   8.348 -34.144  1.00  0.00     0.006 C 
BRANCH  10  11
ATOM     11  C   UNL     1      -4.368   8.325 -35.172  1.00  0.00     0.053 C 
BRANCH  11  12
ATOM     12  C   UNL     1      -3.085   8.763 -34.539  1.00  0.00     0.041 C 
ATOM     13  O   UNL     1      -2.174   7.925 -34.308  1.00  0.00    -0.550 OA
ATOM     14  O   UNL     1      -2.912  10.088 -34.161  1.00  0.00    -0.550 OA
ENDBRANCH  11  12
ENDBRANCH  10  11
ENDBRANCH   9  10
ENDBRANCH   8   9
ENDBRANCH   1   8
TORSDOF 9
ENDMDL
MODEL 9
REMARK VINA RESULT:    -4.052     14.428     15.613
REMARK INTER + INTRA:          -6.526
REMARK INTER:                  -5.740
REMARK INTRA:                  -0.786
REMARK UNBOUND:                -0.342
REMARK SMILES O=C([O-])CCCCCCCCC(=O)[O-]
REMARK SMILES IDX 7 1 6 2 5 3 4 4 2 5 1 6 3 7 8 8 9 9 10 10 11 11 12 12 13 13
REMARK SMILES IDX 14 14
REMARK H PARENT
REMARK Flexibility Score: inf
ROOT
ATOM      1  C   UNL     1      -5.100   4.517 -37.723  1.00  0.00     0.000 C 
ENDROOT
BRANCH   1   2
ATOM      2  C   UNL     1      -5.772   5.894 -37.839  1.00  0.00     0.000 C 
BRANCH   2   3
ATOM      3  C   UNL     1      -5.171   6.883 -36.831  1.00  0.00     0.006 C 
BRANCH   3   4
ATOM      4  C   UNL     1      -6.057   7.009 -35.589  1.00  0.00     0.053 C 
BRANCH   4   5
ATOM      5  C   UNL     1      -5.382   7.844 -34.546  1.00  0.00     0.041 C 
ATOM      6  O   UNL     1      -6.029   8.251 -33.545  1.00  0.00    -0.550 OA
ATOM      7  O   UNL     1      -4.027   8.130 -34.654  1.00  0.00    -0.550 OA
ENDBRANCH   4   5
ENDBRANCH   3   4
ENDBRANCH   2   3
ENDBRANCH   1   2
BRANCH   1   8
ATOM      8  C   UNL     1      -6.115   3.364 -37.668  1.00  0.00     0.000 C 
BRANCH   8   9
ATOM      9  C   UNL     1      -7.235   3.611 -36.643  1.00  0.00     0.000 C 
BRANCH   9  10
ATOM     10  C   UNL     1      -6.765   3.403 -35.194  1.00  0.00     0.006 C 
BRANCH  10  11
ATOM     11  C   UNL     1      -7.923   3.418 -34.187  1.00  0.00     0.053 C 
BRANCH  11  12
ATOM     12  C   UNL     1      -8.236   4.821 -33.774  1.00  0.00     0.041 C 
ATOM     13  O   UNL     1      -9.102   5.486 -34.401  1.00  0.00    -0.550 OA
ATOM     14  O   UNL     1      -7.539   5.411 -32.728  1.00  0.00    -0.550 OA
ENDBRANCH  11  12
ENDBRANCH  10  11
ENDBRANCH   9  10
ENDBRANCH   8   9
ENDBRANCH   1   8
TORSDOF 9
ENDMDL
