MODEL 1
REMARK VINA RESULT:    -2.912      0.000      0.000
REMARK INTER + INTRA:          -3.359
REMARK INTER:                  -3.337
REMARK INTRA:                  -0.022
REMARK UNBOUND:                -0.022
REMARK SMILES CC(C)[C@H]([NH3+])C(=O)[O-]
REMARK SMILES IDX 4 1 5 2 6 6 7 7 8 8 2 9 1 10 3 11
REMARK H PARENT 5 3 5 4 5 5
REMARK Flexibility Score: inf
ROOT
ATOM      1  C   UNL     1       9.064  -8.455   6.950  1.00  0.00     0.230 C 
ENDROOT
BRANCH   1   2
ATOM      2  N   UNL     1       8.690  -8.925   8.293  1.00  0.00    -0.350 N 
ATOM      3  H   UNL     1       8.278  -8.141   8.849  1.00  0.00     0.345 HD
ATOM      4  H   UNL     1       7.959  -9.671   8.224  1.00  0.00     0.345 HD
ATOM      5  H   UNL     1       9.523  -9.311   8.796  1.00  0.00     0.345 HD
ENDBRANCH   1   2
BRANCH   1   6
ATOM      6  C   UNL     1       8.140  -9.068   5.928  1.00  0.00     0.099 C 
ATOM      7  O   UNL     1       8.428  -9.027   4.702  1.00  0.00    -0.544 OA
ATOM      8  O   UNL     1       6.959  -9.675   6.335  1.00  0.00    -0.544 OA
ENDBRANCH   1   6
BRANCH   1   9
ATOM      9  C   UNL     1      10.554  -8.776   6.617  1.00  0.00     0.047 C 
ATOM     10  C   UNL     1      11.336  -9.225   7.861  1.00  0.00     0.014 C 
ATOM     11  C   UNL     1      11.258  -7.558   5.991  1.00  0.00     0.014 C 
ENDBRANCH   1   9
TORSDOF 3
ENDMDL
MODEL 2
REMARK VINA RESULT:    -2.830     24.148     24.632
REMARK INTER + INTRA:          -3.265
REMARK INTER:                  -3.213
REMARK INTRA:                  -0.053
REMARK UNBOUND:                -0.022
REMARK SMILES CC(C)[C@H]([NH3+])C(=O)[O-]
REMARK SMILES IDX 4 1 5 2 6 6 7 7 8 8 2 9 1 10 3 11
REMARK H PARENT 5 3 5 4 5 5
REMARK Flexibility Score: inf
ROOT
ATOM      1  C   UNL     1      -5.717   8.733  13.196  1.00  0.00     0.230 C 
ENDROOT
BRANCH   1   2
ATOM      2  N   UNL     1      -5.117   8.891  11.863  1.00  0.00    -0.350 N 
ATOM      3  H   UNL     1      -5.857   9.109  11.157  1.00  0.00     0.345 HD
ATOM      4  H   UNL     1      -4.445   9.692  11.863  1.00  0.00     0.345 HD
ATOM      5  H   UNL     1      -4.608   8.020  11.580  1.00  0.00     0.345 HD
ENDBRANCH   1   2
BRANCH   1   6
ATOM      6  C   UNL     1      -7.115   9.298  13.189  1.00  0.00     0.099 C 
ATOM      7  O   UNL     1      -7.771   9.364  12.115  1.00  0.00    -0.544 OA
ATOM      8  O   UNL     1      -7.686   9.756  14.369  1.00  0.00    -0.544 OA
ENDBRANCH   1   6
BRANCH   1   9
ATOM      9  C   UNL     1      -4.851   9.406  14.306  1.00  0.00     0.047 C 
ATOM     10  C   UNL     1      -3.626  10.125  13.720  1.00  0.00     0.014 C 
ATOM     11  C   UNL     1      -4.380   8.373  15.347  1.00  0.00     0.014 C 
ENDBRANCH   1   9
TORSDOF 3
ENDMDL
MODEL 3
REMARK VINA RESULT:    -2.734      3.486      4.073
REMARK INTER + INTRA:          -3.155
REMARK INTER:                  -3.144
REMARK INTRA:                  -0.011
REMARK UNBOUND:                -0.022
REMARK SMILES CC(C)[C@H]([NH3+])C(=O)[O-]
REMARK SMILES IDX 4 1 5 2 6 6 7 7 8 8 2 9 1 10 3 11
REMARK H PARENT 5 3 5 4 5 5
REMARK Flexibility Score: inf
ROOT
ATOM      1  C   UNL     1       9.909  -7.919   3.711  1.00  0.00     0.230 C 
ENDROOT
BRANCH   1   2
ATOM      2  N   UNL     1       9.125  -8.928   2.982  1.00  0.00    -0.350 N 
ATOM      3  H   UNL     1       9.759  -9.649   2.568  1.00  0.00     0.345 HD
ATOM      4  H   UNL     1       8.480  -9.426   3.638  1.00  0.00     0.345 HD
ATOM      5  H   UNL     1       8.559  -8.481   2.223  1.00  0.00     0.345 HD
ENDBRANCH   1   2
BRANCH   1   6
ATOM      6  C   UNL     1      11.210  -7.675   2.988  1.00  0.00     0.099 C 
ATOM      7  O   UNL     1      11.473  -6.537   2.516  1.00  0.00    -0.544 OA
ATOM      8  O   UNL     1      12.123  -8.709   2.833  1.00  0.00    -0.544 OA
ENDBRANCH   1   6
BRANCH   1   9
ATOM      9  C   UNL     1      10.165  -8.340   5.191  1.00  0.00     0.047 C 
ATOM     10  C   UNL     1       8.881  -8.280   6.035  1.00  0.00     0.014 C 
ATOM     11  C   UNL     1      11.239  -7.452   5.844  1.00  0.00     0.014 C 
ENDBRANCH   1   9
TORSDOF 3
ENDMDL
MODEL 4
REMARK VINA RESULT:    -2.675      2.298      2.870
REMARK INTER + INTRA:          -3.088
REMARK INTER:                  -3.038
REMARK INTRA:                  -0.051
REMARK UNBOUND:                -0.022
REMARK SMILES CC(C)[C@H]([NH3+])C(=O)[O-]
REMARK SMILES IDX 4 1 5 2 6 6 7 7 8 8 2 9 1 10 3 11
REMARK H PARENT 5 3 5 4 5 5
REMARK Flexibility Score: inf
ROOT
ATOM      1  C   UNL     1       8.519  -9.493   4.927  1.00  0.00     0.230 C 
ENDROOT
BRANCH   1   2
ATOM      2  N   UNL     1       8.236 -10.010   3.579  1.00  0.00    -0.350 N 
ATOM      3  H   UNL     1       7.757 -10.936   3.640  1.00  0.00     0.345 HD
ATOM      4  H   UNL     1       7.591  -9.361   3.072  1.00  0.00     0.345 HD
ATOM      5  H   UNL     1       9.121 -10.108   3.027  1.00  0.00     0.345 HD
ENDBRANCH   1   2
BRANCH   1   6
ATOM      6  C   UNL     1       7.246  -9.478   5.736  1.00  0.00     0.099 C 
ATOM      7  O   UNL     1       6.145  -9.208   5.188  1.00  0.00    -0.544 OA
ATOM      8  O   UNL     1       7.285  -9.755   7.096  1.00  0.00    -0.544 OA
ENDBRANCH   1   6
BRANCH   1   9
ATOM      9  C   UNL     1       9.166  -8.075   4.882  1.00  0.00     0.047 C 
ATOM     10  C   UNL     1       9.852  -7.800   3.534  1.00  0.00     0.014 C 
ATOM     11  C   UNL     1      10.193  -7.895   6.015  1.00  0.00     0.014 C 
ENDBRANCH   1   9
TORSDOF 3
ENDMDL
MODEL 5
REMARK VINA RESULT:    -2.629      2.063      2.600
REMARK INTER + INTRA:          -3.035
REMARK INTER:                  -2.989
REMARK INTRA:                  -0.045
REMARK UNBOUND:                -0.022
REMARK SMILES CC(C)[C@H]([NH3+])C(=O)[O-]
REMARK SMILES IDX 4 1 5 2 6 6 7 7 8 8 2 9 1 10 3 11
REMARK H PARENT 5 3 5 4 5 5
REMARK Flexibility Score: inf
ROOT
ATOM      1  C   UNL     1       9.475  -9.332   5.621  1.00  0.00     0.230 C 
ENDROOT
BRANCH   1   2
ATOM      2  N   UNL     1       9.001 -10.125   4.476  1.00  0.00    -0.350 N 
ATOM      3  H   UNL     1       8.013 -10.429   4.630  1.00  0.00     0.345 HD
ATOM      4  H   UNL     1       9.013  -9.543   3.606  1.00  0.00     0.345 HD
ATOM      5  H   UNL     1       9.609 -10.966   4.331  1.00  0.00     0.345 HD
ENDBRANCH   1   2
BRANCH   1   6
ATOM      6  C   UNL     1       8.371  -9.217   6.643  1.00  0.00     0.099 C 
ATOM      7  O   UNL     1       7.180  -9.479   6.327  1.00  0.00    -0.544 OA
ATOM      8  O   UNL     1       8.664  -8.811   7.938  1.00  0.00    -0.544 OA
ENDBRANCH   1   6
BRANCH   1   9
ATOM      9  C   UNL     1       9.978  -7.922   5.184  1.00  0.00     0.047 C 
ATOM     10  C   UNL     1      10.177  -7.831   3.662  1.00  0.00     0.014 C 
ATOM     11  C   UNL     1      11.299  -7.559   5.887  1.00  0.00     0.014 C 
ENDBRANCH   1   9
TORSDOF 3
ENDMDL
MODEL 6
REMARK VINA RESULT:    -2.625      3.239      3.879
REMARK INTER + INTRA:          -3.031
REMARK INTER:                  -2.975
REMARK INTRA:                  -0.056
REMARK UNBOUND:                -0.022
REMARK SMILES CC(C)[C@H]([NH3+])C(=O)[O-]
REMARK SMILES IDX 4 1 5 2 6 6 7 7 8 8 2 9 1 10 3 11
REMARK H PARENT 5 3 5 4 5 5
REMARK Flexibility Score: inf
ROOT
ATOM      1  C   UNL     1      10.919  -8.189   5.096  1.00  0.00     0.230 C 
ENDROOT
BRANCH   1   2
ATOM      2  N   UNL     1      11.462  -7.162   5.998  1.00  0.00    -0.350 N 
ATOM      3  H   UNL     1      11.089  -6.220   5.740  1.00  0.00     0.345 HD
ATOM      4  H   UNL     1      11.164  -7.353   6.983  1.00  0.00     0.345 HD
ATOM      5  H   UNL     1      12.508  -7.148   5.957  1.00  0.00     0.345 HD
ENDBRANCH   1   2
BRANCH   1   6
ATOM      6  C   UNL     1      11.487  -7.995   3.713  1.00  0.00     0.099 C 
ATOM      7  O   UNL     1      12.124  -8.924   3.148  1.00  0.00    -0.544 OA
ATOM      8  O   UNL     1      11.318  -6.783   3.056  1.00  0.00    -0.544 OA
ENDBRANCH   1   6
BRANCH   1   9
ATOM      9  C   UNL     1       9.359  -8.169   5.065  1.00  0.00     0.047 C 
ATOM     10  C   UNL     1       8.754  -8.429   6.454  1.00  0.00     0.014 C 
ATOM     11  C   UNL     1       8.809  -9.210   4.073  1.00  0.00     0.014 C 
ENDBRANCH   1   9
TORSDOF 3
ENDMDL
MODEL 7
REMARK VINA RESULT:    -2.602      1.662      2.118
REMARK INTER + INTRA:          -3.004
REMARK INTER:                  -2.963
REMARK INTRA:                  -0.041
REMARK UNBOUND:                -0.022
REMARK SMILES CC(C)[C@H]([NH3+])C(=O)[O-]
REMARK SMILES IDX 4 1 5 2 6 6 7 7 8 8 2 9 1 10 3 11
REMARK H PARENT 5 3 5 4 5 5
REMARK Flexibility Score: inf
ROOT
ATOM      1  C   UNL     1       9.533  -9.408   5.830  1.00  0.00     0.230 C 
ENDROOT
BRANCH   1   2
ATOM      2  N   UNL     1       9.607  -9.128   4.387  1.00  0.00    -0.350 N 
ATOM      3  H   UNL     1       9.316  -9.970   3.840  1.00  0.00     0.345 HD
ATOM      4  H   UNL     1       8.948  -8.354   4.137  1.00  0.00     0.345 HD
ATOM      5  H   UNL     1      10.578  -8.849   4.113  1.00  0.00     0.345 HD
ENDBRANCH   1   2
BRANCH   1   6
ATOM      6  C   UNL     1       8.093  -9.367   6.277  1.00  0.00     0.099 C 
ATOM      7  O   UNL     1       7.180  -9.069   5.461  1.00  0.00    -0.544 OA
ATOM      8  O   UNL     1       7.767  -9.651   7.596  1.00  0.00    -0.544 OA
ENDBRANCH   1   6
BRANCH   1   9
ATOM      9  C   UNL     1      10.402  -8.414   6.660  1.00  0.00     0.047 C 
ATOM     10  C   UNL     1      11.316  -7.563   5.763  1.00  0.00     0.014 C 
ATOM     11  C   UNL     1      11.264  -9.158   7.695  1.00  0.00     0.014 C 
ENDBRANCH   1   9
TORSDOF 3
ENDMDL
MODEL 8
REMARK VINA RESULT:    -2.590      2.061      2.510
REMARK INTER + INTRA:          -2.990
REMARK INTER:                  -2.915
REMARK INTRA:                  -0.076
REMARK UNBOUND:                -0.022
REMARK SMILES CC(C)[C@H]([NH3+])C(=O)[O-]
REMARK SMILES IDX 4 1 5 2 6 6 7 7 8 8 2 9 1 10 3 11
REMARK H PARENT 5 3 5 4 5 5
REMARK Flexibility Score: inf
ROOT
ATOM      1  C   UNL     1       8.810  -8.390   5.402  1.00  0.00     0.230 C 
ENDROOT
BRANCH   1   2
ATOM      2  N   UNL     1       7.478  -9.015   5.399  1.00  0.00    -0.350 N 
ATOM      3  H   UNL     1       6.848  -8.526   6.074  1.00  0.00     0.345 HD
ATOM      4  H   UNL     1       7.043  -8.930   4.452  1.00  0.00     0.345 HD
ATOM      5  H   UNL     1       7.544 -10.029   5.653  1.00  0.00     0.345 HD
ENDBRANCH   1   2
BRANCH   1   6
ATOM      6  C   UNL     1       9.441  -8.545   4.042  1.00  0.00     0.099 C 
ATOM      7  O   UNL     1       9.596  -9.688   3.536  1.00  0.00    -0.544 OA
ATOM      8  O   UNL     1       9.863  -7.423   3.340  1.00  0.00    -0.544 OA
ENDBRANCH   1   6
BRANCH   1   9
ATOM      9  C   UNL     1       9.729  -8.986   6.513  1.00  0.00     0.047 C 
ATOM     10  C   UNL     1       9.043  -8.982   7.889  1.00  0.00     0.014 C 
ATOM     11  C   UNL     1      11.058  -8.215   6.610  1.00  0.00     0.014 C 
ENDBRANCH   1   9
TORSDOF 3
ENDMDL
MODEL 9
REMARK VINA RESULT:    -2.524      2.639      2.946
REMARK INTER + INTRA:          -2.915
REMARK INTER:                  -3.090
REMARK INTRA:                   0.174
REMARK UNBOUND:                -0.022
REMARK SMILES CC(C)[C@H]([NH3+])C(=O)[O-]
REMARK SMILES IDX 4 1 5 2 6 6 7 7 8 8 2 9 1 10 3 11
REMARK H PARENT 5 3 5 4 5 5
REMARK Flexibility Score: inf
ROOT
ATOM      1  C   UNL     1      10.061  -9.075   4.070  1.00  0.00     0.230 C 
ENDROOT
BRANCH   1   2
ATOM      2  N   UNL     1       9.549  -8.934   2.698  1.00  0.00    -0.350 N 
ATOM      3  H   UNL     1       9.786  -9.782   2.135  1.00  0.00     0.345 HD
ATOM      4  H   UNL     1       8.506  -8.853   2.709  1.00  0.00     0.345 HD
ATOM      5  H   UNL     1       9.952  -8.084   2.238  1.00  0.00     0.345 HD
ENDBRANCH   1   2
BRANCH   1   6
ATOM      6  C   UNL     1       8.972  -8.721   5.051  1.00  0.00     0.099 C 
ATOM      7  O   UNL     1       8.353  -7.628   4.950  1.00  0.00    -0.544 OA
ATOM      8  O   UNL     1       8.650  -9.598   6.079  1.00  0.00    -0.544 OA
ENDBRANCH   1   6
BRANCH   1   9
ATOM      9  C   UNL     1      11.331  -8.202   4.310  1.00  0.00     0.047 C 
ATOM     10  C   UNL     1      11.352  -7.594   5.721  1.00  0.00     0.014 C 
ATOM     11  C   UNL     1      11.432  -7.069   3.272  1.00  0.00     0.014 C 
ENDBRANCH   1   9
TORSDOF 3
ENDMDL
