MODEL 1
REMARK VINA RESULT:    -2.074      0.000      0.000
REMARK INTER + INTRA:          -2.348
REMARK INTER:                  -2.316
REMARK INTRA:                  -0.032
REMARK UNBOUND:                -0.032
REMARK SMILES CCCC(=O)[O-]
REMARK SMILES IDX 3 1 4 2 5 3 6 4 2 5 1 6
REMARK H PARENT
REMARK Flexibility Score: inf
ROOT
ATOM      1  C   UNL     1      57.021 -37.017  22.778  1.00  0.00     0.052 C 
ENDROOT
BRANCH   1   2
ATOM      2  C   UNL     1      58.391 -36.423  22.652  1.00  0.00     0.041 C 
ATOM      3  O   UNL     1      58.628 -35.273  23.109  1.00  0.00    -0.550 OA
ATOM      4  O   UNL     1      59.396 -37.125  22.000  1.00  0.00    -0.550 OA
ENDBRANCH   1   2
BRANCH   1   5
ATOM      5  C   UNL     1      55.941 -35.935  22.904  1.00  0.00     0.003 C 
ATOM      6  C   UNL     1      55.113 -35.789  21.627  1.00  0.00     0.004 C 
ENDBRANCH   1   5
TORSDOF 2
ENDMDL
MODEL 2
REMARK VINA RESULT:    -2.011      2.672      3.536
REMARK INTER + INTRA:          -2.278
REMARK INTER:                  -2.246
REMARK INTRA:                  -0.032
REMARK UNBOUND:                -0.032
REMARK SMILES CCCC(=O)[O-]
REMARK SMILES IDX 3 1 4 2 5 3 6 4 2 5 1 6
REMARK H PARENT
REMARK Flexibility Score: inf
ROOT
ATOM      1  C   UNL     1      56.238 -35.724  23.267  1.00  0.00     0.052 C 
ENDROOT
BRANCH   1   2
ATOM      2  C   UNL     1      54.910 -35.677  22.575  1.00  0.00     0.041 C 
ATOM      3  O   UNL     1      53.877 -35.336  23.208  1.00  0.00    -0.550 OA
ATOM      4  O   UNL     1      54.809 -36.043  21.239  1.00  0.00    -0.550 OA
ENDBRANCH   1   2
BRANCH   1   5
ATOM      5  C   UNL     1      57.081 -36.917  22.802  1.00  0.00     0.003 C 
ATOM      6  C   UNL     1      58.463 -36.493  22.303  1.00  0.00     0.004 C 
ENDBRANCH   1   5
TORSDOF 2
ENDMDL
MODEL 3
REMARK VINA RESULT:    -1.952      1.644      1.954
REMARK INTER + INTRA:          -2.212
REMARK INTER:                  -2.149
REMARK INTRA:                  -0.062
REMARK UNBOUND:                -0.032
REMARK SMILES CCCC(=O)[O-]
REMARK SMILES IDX 3 1 4 2 5 3 6 4 2 5 1 6
REMARK H PARENT
REMARK Flexibility Score: inf
ROOT
ATOM      1  C   UNL     1      55.581 -36.144  22.079  1.00  0.00     0.052 C 
ENDROOT
BRANCH   1   2
ATOM      2  C   UNL     1      56.901 -36.469  22.710  1.00  0.00     0.041 C 
ATOM      3  O   UNL     1      56.943 -37.059  23.822  1.00  0.00    -0.550 OA
ATOM      4  O   UNL     1      58.082 -36.091  22.086  1.00  0.00    -0.550 OA
ENDBRANCH   1   2
BRANCH   1   5
ATOM      5  C   UNL     1      54.652 -35.407  23.051  1.00  0.00     0.003 C 
ATOM      6  C   UNL     1      55.067 -33.950  23.261  1.00  0.00     0.004 C 
ENDBRANCH   1   5
TORSDOF 2
ENDMDL
MODEL 4
REMARK VINA RESULT:    -1.947      2.948      3.840
REMARK INTER + INTRA:          -2.206
REMARK INTER:                  -2.134
REMARK INTRA:                  -0.072
REMARK UNBOUND:                -0.032
REMARK SMILES CCCC(=O)[O-]
REMARK SMILES IDX 3 1 4 2 5 3 6 4 2 5 1 6
REMARK H PARENT
REMARK Flexibility Score: inf
ROOT
ATOM      1  C   UNL     1      55.304 -36.010  22.044  1.00  0.00     0.052 C 
ENDROOT
BRANCH   1   2
ATOM      2  C   UNL     1      54.588 -35.109  23.004  1.00  0.00     0.041 C 
ATOM      3  O   UNL     1      53.597 -35.534  23.653  1.00  0.00    -0.550 OA
ATOM      4  O   UNL     1      54.996 -33.790  23.155  1.00  0.00    -0.550 OA
ENDBRANCH   1   2
BRANCH   1   5
ATOM      5  C   UNL     1      56.787 -36.159  22.401  1.00  0.00     0.003 C 
ATOM      6  C   UNL     1      56.994 -36.738  23.800  1.00  0.00     0.004 C 
ENDBRANCH   1   5
TORSDOF 2
ENDMDL
MODEL 5
REMARK VINA RESULT:    -1.935      3.168      3.951
REMARK INTER + INTRA:          -2.193
REMARK INTER:                  -2.126
REMARK INTRA:                  -0.067
REMARK UNBOUND:                -0.032
REMARK SMILES CCCC(=O)[O-]
REMARK SMILES IDX 3 1 4 2 5 3 6 4 2 5 1 6
REMARK H PARENT
REMARK Flexibility Score: inf
ROOT
ATOM      1  C   UNL     1      54.168 -35.285  23.011  1.00  0.00     0.052 C 
ENDROOT
BRANCH   1   2
ATOM      2  C   UNL     1      54.691 -34.057  23.693  1.00  0.00     0.041 C 
ATOM      3  O   UNL     1      55.021 -33.048  23.015  1.00  0.00    -0.550 OA
ATOM      4  O   UNL     1      54.846 -34.041  25.073  1.00  0.00    -0.550 OA
ENDBRANCH   1   2
BRANCH   1   5
ATOM      5  C   UNL     1      55.130 -35.788  21.928  1.00  0.00     0.003 C 
ATOM      6  C   UNL     1      56.405 -36.392  22.517  1.00  0.00     0.004 C 
ENDBRANCH   1   5
TORSDOF 2
ENDMDL
MODEL 6
REMARK VINA RESULT:    -1.909      2.723      3.240
REMARK INTER + INTRA:          -2.164
REMARK INTER:                  -2.134
REMARK INTRA:                  -0.030
REMARK UNBOUND:                -0.032
REMARK SMILES CCCC(=O)[O-]
REMARK SMILES IDX 3 1 4 2 5 3 6 4 2 5 1 6
REMARK H PARENT
REMARK Flexibility Score: inf
ROOT
ATOM      1  C   UNL     1      54.710 -35.616  23.610  1.00  0.00     0.052 C 
ENDROOT
BRANCH   1   2
ATOM      2  C   UNL     1      55.453 -35.872  22.334  1.00  0.00     0.041 C 
ATOM      3  O   UNL     1      54.824 -36.036  21.256  1.00  0.00    -0.550 OA
ATOM      4  O   UNL     1      56.839 -35.962  22.343  1.00  0.00    -0.550 OA
ENDBRANCH   1   2
BRANCH   1   5
ATOM      5  C   UNL     1      53.684 -34.487  23.455  1.00  0.00     0.003 C 
ATOM      6  C   UNL     1      52.248 -35.009  23.403  1.00  0.00     0.004 C 
ENDBRANCH   1   5
TORSDOF 2
ENDMDL
MODEL 7
REMARK VINA RESULT:    -1.907      2.657      3.699
REMARK INTER + INTRA:          -2.162
REMARK INTER:                  -2.123
REMARK INTRA:                  -0.039
REMARK UNBOUND:                -0.032
REMARK SMILES CCCC(=O)[O-]
REMARK SMILES IDX 3 1 4 2 5 3 6 4 2 5 1 6
REMARK H PARENT
REMARK Flexibility Score: inf
ROOT
ATOM      1  C   UNL     1      55.587 -36.002  22.117  1.00  0.00     0.052 C 
ENDROOT
BRANCH   1   2
ATOM      2  C   UNL     1      54.773 -35.278  23.146  1.00  0.00     0.041 C 
ATOM      3  O   UNL     1      55.338 -34.723  24.125  1.00  0.00    -0.550 OA
ATOM      4  O   UNL     1      53.388 -35.247  23.042  1.00  0.00    -0.550 OA
ENDBRANCH   1   2
BRANCH   1   5
ATOM      5  C   UNL     1      56.757 -36.765  22.749  1.00  0.00     0.003 C 
ATOM      6  C   UNL     1      58.114 -36.209  22.318  1.00  0.00     0.004 C 
ENDBRANCH   1   5
TORSDOF 2
ENDMDL
MODEL 8
REMARK VINA RESULT:    -1.707      4.544      5.103
REMARK INTER + INTRA:          -1.939
REMARK INTER:                  -1.905
REMARK INTRA:                  -0.033
REMARK UNBOUND:                -0.032
REMARK SMILES CCCC(=O)[O-]
REMARK SMILES IDX 3 1 4 2 5 3 6 4 2 5 1 6
REMARK H PARENT
REMARK Flexibility Score: inf
ROOT
ATOM      1  C   UNL     1      54.167 -35.476  24.069  1.00  0.00     0.052 C 
ENDROOT
BRANCH   1   2
ATOM      2  C   UNL     1      52.754 -34.979  24.109  1.00  0.00     0.041 C 
ATOM      3  O   UNL     1      52.259 -34.565  25.191  1.00  0.00    -0.550 OA
ATOM      4  O   UNL     1      51.974 -35.005  22.961  1.00  0.00    -0.550 OA
ENDBRANCH   1   2
BRANCH   1   5
ATOM      5  C   UNL     1      54.944 -34.884  22.887  1.00  0.00     0.003 C 
ATOM      6  C   UNL     1      55.173 -35.905  21.771  1.00  0.00     0.004 C 
ENDBRANCH   1   5
TORSDOF 2
ENDMDL
MODEL 9
REMARK VINA RESULT:    -1.643      6.160      7.350
REMARK INTER + INTRA:          -1.867
REMARK INTER:                  -1.832
REMARK INTRA:                  -0.034
REMARK UNBOUND:                -0.032
REMARK SMILES CCCC(=O)[O-]
REMARK SMILES IDX 3 1 4 2 5 3 6 4 2 5 1 6
REMARK H PARENT
REMARK Flexibility Score: inf
ROOT
ATOM      1  C   UNL     1      51.019 -33.609  23.927  1.00  0.00     0.052 C 
ENDROOT
BRANCH   1   2
ATOM      2  C   UNL     1      51.003 -32.348  23.119  1.00  0.00     0.041 C 
ATOM      3  O   UNL     1      51.997 -31.575  23.130  1.00  0.00    -0.550 OA
ATOM      4  O   UNL     1      49.876 -32.009  22.382  1.00  0.00    -0.550 OA
ENDBRANCH   1   2
BRANCH   1   5
ATOM      5  C   UNL     1      51.568 -34.794  23.123  1.00  0.00     0.003 C 
ATOM      6  C   UNL     1      52.971 -35.203  23.572  1.00  0.00     0.004 C 
ENDBRANCH   1   5
TORSDOF 2
ENDMDL
