MODEL 1
REMARK VINA RESULT:    -5.506      0.000      0.000
REMARK INTER + INTRA:          -7.475
REMARK INTER:                  -6.955
REMARK INTRA:                  -0.520
REMARK UNBOUND:                -0.520
REMARK SMILES Oc1ccc(CCc2cc(O)cc(O)c2)cc1
REMARK SMILES IDX 6 1 5 2 4 3 3 4 2 5 16 6 17 7 1 8 7 10 8 11 15 12 9 13 13 14
REMARK SMILES IDX 10 15 12 16 14 17 11 19
REMARK H PARENT 1 9 14 18 11 20
REMARK Flexibility Score: inf
ROOT
ATOM      1  C   UNL     1     -30.824  -9.701   0.998  1.00  0.00     0.040 C 
ENDROOT
BRANCH   1   2
ATOM      2  C   UNL     1     -29.771 -10.253   1.921  1.00  0.00    -0.047 A 
ATOM      3  C   UNL     1     -29.883 -10.074   3.310  1.00  0.00     0.007 A 
ATOM      4  C   UNL     1     -28.888 -10.558   4.165  1.00  0.00     0.046 A 
ATOM      5  C   UNL     1     -27.768 -11.214   3.643  1.00  0.00     0.115 A 
ATOM      6  C   UNL     1     -28.639 -10.899   1.400  1.00  0.00     0.007 A 
ATOM      7  C   UNL     1     -27.645 -11.382   2.257  1.00  0.00     0.046 A 
BRANCH   5   8
ATOM      8  O   UNL     1     -26.784 -11.691   4.506  1.00  0.00    -0.508 OA
ATOM      9  H   UNL     1     -25.799 -11.545   4.319  1.00  0.00     0.293 HD
ENDBRANCH   5   8
ENDBRANCH   1   2
BRANCH   1  10
ATOM     10  C   UNL     1     -31.502  -8.479   1.623  1.00  0.00     0.040 C 
BRANCH  10  11
ATOM     11  C   UNL     1     -32.997  -8.651   1.634  1.00  0.00    -0.040 A 
ATOM     12  C   UNL     1     -33.704  -8.618   2.847  1.00  0.00     0.050 A 
ATOM     13  C   UNL     1     -33.690  -8.903   0.439  1.00  0.00     0.050 A 
ATOM     14  C   UNL     1     -35.089  -8.812   2.865  1.00  0.00     0.119 A 
ATOM     15  C   UNL     1     -35.078  -9.096   0.454  1.00  0.00     0.119 A 
ATOM     16  C   UNL     1     -35.775  -9.047   1.665  1.00  0.00     0.092 A 
BRANCH  14  17
ATOM     17  O   UNL     1     -35.773  -8.769   4.076  1.00  0.00    -0.508 OA
ATOM     18  H   UNL     1     -35.318  -8.475   4.933  1.00  0.00     0.293 HD
ENDBRANCH  14  17
BRANCH  15  19
ATOM     19  O   UNL     1     -35.773  -9.339  -0.729  1.00  0.00    -0.508 OA
ATOM     20  H   UNL     1     -36.498 -10.045  -0.783  1.00  0.00     0.293 HD
ENDBRANCH  15  19
ENDBRANCH  10  11
ENDBRANCH   1  10
TORSDOF 6
ENDMDL
MODEL 2
REMARK VINA RESULT:    -5.495      0.056      2.035
REMARK INTER + INTRA:          -7.460
REMARK INTER:                  -6.946
REMARK INTRA:                  -0.514
REMARK UNBOUND:                -0.520
REMARK SMILES Oc1ccc(CCc2cc(O)cc(O)c2)cc1
REMARK SMILES IDX 6 1 5 2 4 3 3 4 2 5 16 6 17 7 1 8 7 10 8 11 15 12 9 13 13 14
REMARK SMILES IDX 10 15 12 16 14 17 11 19
REMARK H PARENT 1 9 14 18 11 20
REMARK Flexibility Score: inf
ROOT
ATOM      1  C   UNL     1     -30.810  -9.658   1.007  1.00  0.00     0.040 C 
ENDROOT
BRANCH   1   2
ATOM      2  C   UNL     1     -29.771 -10.221   1.939  1.00  0.00    -0.047 A 
ATOM      3  C   UNL     1     -29.898 -10.050   3.327  1.00  0.00     0.007 A 
ATOM      4  C   UNL     1     -28.916 -10.545   4.191  1.00  0.00     0.046 A 
ATOM      5  C   UNL     1     -27.794 -11.204   3.678  1.00  0.00     0.115 A 
ATOM      6  C   UNL     1     -28.637 -10.871   1.427  1.00  0.00     0.007 A 
ATOM      7  C   UNL     1     -27.656 -11.365   2.292  1.00  0.00     0.046 A 
BRANCH   5   8
ATOM      8  O   UNL     1     -26.823 -11.692   4.549  1.00  0.00    -0.508 OA
ATOM      9  H   UNL     1     -25.845 -11.728   4.286  1.00  0.00     0.293 HD
ENDBRANCH   5   8
ENDBRANCH   1   2
BRANCH   1  10
ATOM     10  C   UNL     1     -31.523  -8.466   1.652  1.00  0.00     0.040 C 
BRANCH  10  11
ATOM     11  C   UNL     1     -33.012  -8.683   1.663  1.00  0.00    -0.040 A 
ATOM     12  C   UNL     1     -33.711  -8.859   0.457  1.00  0.00     0.050 A 
ATOM     13  C   UNL     1     -33.723  -8.653   2.874  1.00  0.00     0.050 A 
ATOM     14  C   UNL     1     -35.100  -9.026   0.462  1.00  0.00     0.119 A 
ATOM     15  C   UNL     1     -35.115  -8.821   2.881  1.00  0.00     0.119 A 
ATOM     16  C   UNL     1     -35.800  -9.011   1.676  1.00  0.00     0.092 A 
BRANCH  14  17
ATOM     17  O   UNL     1     -35.774  -9.206  -0.743  1.00  0.00    -0.508 OA
ATOM     18  H   UNL     1     -36.036 -10.129  -1.071  1.00  0.00     0.293 HD
ENDBRANCH  14  17
BRANCH  15  19
ATOM     19  O   UNL     1     -35.825  -8.800   4.079  1.00  0.00    -0.508 OA
ATOM     20  H   UNL     1     -35.353  -8.764   4.975  1.00  0.00     0.293 HD
ENDBRANCH  15  19
ENDBRANCH  10  11
ENDBRANCH   1  10
TORSDOF 6
ENDMDL
MODEL 3
REMARK VINA RESULT:    -5.456      1.351      1.704
REMARK INTER + INTRA:          -7.411
REMARK INTER:                  -6.985
REMARK INTRA:                  -0.426
REMARK UNBOUND:                -0.520
REMARK SMILES Oc1ccc(CCc2cc(O)cc(O)c2)cc1
REMARK SMILES IDX 6 1 5 2 4 3 3 4 2 5 16 6 17 7 1 8 7 10 8 11 15 12 9 13 13 14
REMARK SMILES IDX 10 15 12 16 14 17 11 19
REMARK H PARENT 1 9 14 18 11 20
REMARK Flexibility Score: inf
ROOT
ATOM      1  C   UNL     1     -31.338  -9.107   2.089  1.00  0.00     0.040 C 
ENDROOT
BRANCH   1   2
ATOM      2  C   UNL     1     -30.133  -9.819   2.642  1.00  0.00    -0.047 A 
ATOM      3  C   UNL     1     -29.877  -9.809   4.022  1.00  0.00     0.007 A 
ATOM      4  C   UNL     1     -28.740 -10.443   4.533  1.00  0.00     0.046 A 
ATOM      5  C   UNL     1     -27.843 -11.083   3.670  1.00  0.00     0.115 A 
ATOM      6  C   UNL     1     -29.224 -10.450   1.778  1.00  0.00     0.007 A 
ATOM      7  C   UNL     1     -28.088 -11.083   2.290  1.00  0.00     0.046 A 
BRANCH   5   8
ATOM      8  O   UNL     1     -26.715 -11.710   4.192  1.00  0.00    -0.508 OA
ATOM      9  H   UNL     1     -26.260 -12.473   3.704  1.00  0.00     0.293 HD
ENDBRANCH   5   8
ENDBRANCH   1   2
BRANCH   1  10
ATOM     10  C   UNL     1     -31.364  -9.200   0.561  1.00  0.00     0.040 C 
BRANCH  10  11
ATOM     11  C   UNL     1     -32.775  -9.098   0.048  1.00  0.00    -0.040 A 
ATOM     12  C   UNL     1     -33.803  -8.639   0.888  1.00  0.00     0.050 A 
ATOM     13  C   UNL     1     -33.087  -9.515  -1.257  1.00  0.00     0.050 A 
ATOM     14  C   UNL     1     -35.121  -8.576   0.425  1.00  0.00     0.119 A 
ATOM     15  C   UNL     1     -34.407  -9.451  -1.723  1.00  0.00     0.119 A 
ATOM     16  C   UNL     1     -35.420  -8.979  -0.883  1.00  0.00     0.092 A 
BRANCH  14  17
ATOM     17  O   UNL     1     -36.125  -8.111   1.271  1.00  0.00    -0.508 OA
ATOM     18  H   UNL     1     -36.888  -7.542   0.926  1.00  0.00     0.293 HD
ENDBRANCH  14  17
BRANCH  15  19
ATOM     19  O   UNL     1     -34.721  -9.857  -3.019  1.00  0.00    -0.508 OA
ATOM     20  H   UNL     1     -34.916  -9.185  -3.752  1.00  0.00     0.293 HD
ENDBRANCH  15  19
ENDBRANCH  10  11
ENDBRANCH   1  10
TORSDOF 6
ENDMDL
MODEL 4
REMARK VINA RESULT:    -5.325      1.540      6.826
REMARK INTER + INTRA:          -7.245
REMARK INTER:                  -6.738
REMARK INTRA:                  -0.508
REMARK UNBOUND:                -0.520
REMARK SMILES Oc1ccc(CCc2cc(O)cc(O)c2)cc1
REMARK SMILES IDX 6 1 5 2 4 3 3 4 2 5 16 6 17 7 1 8 7 10 8 11 15 12 9 13 13 14
REMARK SMILES IDX 10 15 12 16 14 17 11 19
REMARK H PARENT 1 9 14 18 11 20
REMARK Flexibility Score: inf
ROOT
ATOM      1  C   UNL     1     -31.253  -8.279   1.966  1.00  0.00     0.040 C 
ENDROOT
BRANCH   1   2
ATOM      2  C   UNL     1     -32.469  -8.676   1.172  1.00  0.00    -0.047 A 
ATOM      3  C   UNL     1     -33.726  -8.755   1.793  1.00  0.00     0.007 A 
ATOM      4  C   UNL     1     -34.849  -9.155   1.063  1.00  0.00     0.046 A 
ATOM      5  C   UNL     1     -34.727  -9.491  -0.290  1.00  0.00     0.115 A 
ATOM      6  C   UNL     1     -32.347  -9.027  -0.182  1.00  0.00     0.007 A 
ATOM      7  C   UNL     1     -33.471  -9.428  -0.911  1.00  0.00     0.046 A 
BRANCH   5   8
ATOM      8  O   UNL     1     -35.853  -9.889  -1.006  1.00  0.00    -0.508 OA
ATOM      9  H   UNL     1     -35.774 -10.397  -1.879  1.00  0.00     0.293 HD
ENDBRANCH   5   8
ENDBRANCH   1   2
BRANCH   1  10
ATOM     10  C   UNL     1     -31.033  -9.246   3.132  1.00  0.00     0.040 C 
BRANCH  10  11
ATOM     11  C   UNL     1     -29.844 -10.131   2.869  1.00  0.00    -0.040 A 
ATOM     12  C   UNL     1     -29.728 -10.815   1.647  1.00  0.00     0.050 A 
ATOM     13  C   UNL     1     -28.872 -10.327   3.863  1.00  0.00     0.050 A 
ATOM     14  C   UNL     1     -28.643 -11.665   1.413  1.00  0.00     0.119 A 
ATOM     15  C   UNL     1     -27.783 -11.177   3.630  1.00  0.00     0.119 A 
ATOM     16  C   UNL     1     -27.669 -11.842   2.405  1.00  0.00     0.092 A 
BRANCH  14  17
ATOM     17  O   UNL     1     -28.541 -12.329   0.193  1.00  0.00    -0.508 OA
ATOM     18  H   UNL     1     -29.173 -12.129  -0.574  1.00  0.00     0.293 HD
ENDBRANCH  14  17
BRANCH  15  19
ATOM     19  O   UNL     1     -26.811 -11.370   4.610  1.00  0.00    -0.508 OA
ATOM     20  H   UNL     1     -25.832 -11.186   4.428  1.00  0.00     0.293 HD
ENDBRANCH  15  19
ENDBRANCH  10  11
ENDBRANCH   1  10
TORSDOF 6
ENDMDL
MODEL 5
REMARK VINA RESULT:    -5.215      2.108      6.585
REMARK INTER + INTRA:          -7.107
REMARK INTER:                  -6.556
REMARK INTRA:                  -0.551
REMARK UNBOUND:                -0.520
REMARK SMILES Oc1ccc(CCc2cc(O)cc(O)c2)cc1
REMARK SMILES IDX 6 1 5 2 4 3 3 4 2 5 16 6 17 7 1 8 7 10 8 11 15 12 9 13 13 14
REMARK SMILES IDX 10 15 12 16 14 17 11 19
REMARK H PARENT 1 9 14 18 11 20
REMARK Flexibility Score: inf
ROOT
ATOM      1  C   UNL     1     -31.991  -8.092   0.937  1.00  0.00     0.040 C 
ENDROOT
BRANCH   1   2
ATOM      2  C   UNL     1     -33.087  -8.852   0.240  1.00  0.00    -0.047 A 
ATOM      3  C   UNL     1     -34.345  -8.999   0.848  1.00  0.00     0.007 A 
ATOM      4  C   UNL     1     -35.353  -9.732   0.215  1.00  0.00     0.046 A 
ATOM      5  C   UNL     1     -35.112 -10.335  -1.025  1.00  0.00     0.115 A 
ATOM      6  C   UNL     1     -32.846  -9.469  -0.998  1.00  0.00     0.007 A 
ATOM      7  C   UNL     1     -33.854 -10.202  -1.630  1.00  0.00     0.046 A 
BRANCH   5   8
ATOM      8  O   UNL     1     -36.125 -11.063  -1.645  1.00  0.00    -0.508 OA
ATOM      9  H   UNL     1     -36.302 -12.032  -1.407  1.00  0.00     0.293 HD
ENDBRANCH   5   8
ENDBRANCH   1   2
BRANCH   1  10
ATOM     10  C   UNL     1     -32.116  -8.239   2.456  1.00  0.00     0.040 C 
BRANCH  10  11
ATOM     11  C   UNL     1     -30.950  -9.013   3.011  1.00  0.00    -0.040 A 
ATOM     12  C   UNL     1     -30.133  -9.771   2.156  1.00  0.00     0.050 A 
ATOM     13  C   UNL     1     -30.706  -9.031   4.394  1.00  0.00     0.050 A 
ATOM     14  C   UNL     1     -29.070 -10.518   2.673  1.00  0.00     0.119 A 
ATOM     15  C   UNL     1     -29.641  -9.779   4.913  1.00  0.00     0.119 A 
ATOM     16  C   UNL     1     -28.823 -10.518   4.052  1.00  0.00     0.092 A 
BRANCH  14  17
ATOM     17  O   UNL     1     -28.266 -11.258   1.809  1.00  0.00    -0.508 OA
ATOM     18  H   UNL     1     -27.969 -10.887   0.914  1.00  0.00     0.293 HD
ENDBRANCH  14  17
BRANCH  15  19
ATOM     19  O   UNL     1     -29.388  -9.795   6.283  1.00  0.00    -0.508 OA
ATOM     20  H   UNL     1     -28.782 -10.492   6.702  1.00  0.00     0.293 HD
ENDBRANCH  15  19
ENDBRANCH  10  11
ENDBRANCH   1  10
TORSDOF 6
ENDMDL
MODEL 6
REMARK VINA RESULT:    -5.210      2.107      6.263
REMARK INTER + INTRA:          -7.101
REMARK INTER:                  -6.548
REMARK INTRA:                  -0.553
REMARK UNBOUND:                -0.520
REMARK SMILES Oc1ccc(CCc2cc(O)cc(O)c2)cc1
REMARK SMILES IDX 6 1 5 2 4 3 3 4 2 5 16 6 17 7 1 8 7 10 8 11 15 12 9 13 13 14
REMARK SMILES IDX 10 15 12 16 14 17 11 19
REMARK H PARENT 1 9 14 18 11 20
REMARK Flexibility Score: inf
ROOT
ATOM      1  C   UNL     1     -31.996  -8.044   0.943  1.00  0.00     0.040 C 
ENDROOT
BRANCH   1   2
ATOM      2  C   UNL     1     -33.092  -8.803   0.243  1.00  0.00    -0.047 A 
ATOM      3  C   UNL     1     -34.332  -8.997   0.872  1.00  0.00     0.007 A 
ATOM      4  C   UNL     1     -35.339  -9.729   0.235  1.00  0.00     0.046 A 
ATOM      5  C   UNL     1     -35.114 -10.284  -1.029  1.00  0.00     0.115 A 
ATOM      6  C   UNL     1     -32.865  -9.372  -1.020  1.00  0.00     0.007 A 
ATOM      7  C   UNL     1     -33.872 -10.104  -1.656  1.00  0.00     0.046 A 
BRANCH   5   8
ATOM      8  O   UNL     1     -36.125 -11.012  -1.652  1.00  0.00    -0.508 OA
ATOM      9  H   UNL     1     -36.490 -10.742  -2.558  1.00  0.00     0.293 HD
ENDBRANCH   5   8
ENDBRANCH   1   2
BRANCH   1  10
ATOM     10  C   UNL     1     -32.117  -8.201   2.461  1.00  0.00     0.040 C 
BRANCH  10  11
ATOM     11  C   UNL     1     -31.003  -9.061   2.994  1.00  0.00    -0.040 A 
ATOM     12  C   UNL     1     -30.725  -9.085   4.371  1.00  0.00     0.050 A 
ATOM     13  C   UNL     1     -30.195  -9.801   2.115  1.00  0.00     0.050 A 
ATOM     14  C   UNL     1     -29.668  -9.856   4.866  1.00  0.00     0.119 A 
ATOM     15  C   UNL     1     -29.137 -10.575   2.609  1.00  0.00     0.119 A 
ATOM     16  C   UNL     1     -28.877 -10.603   3.983  1.00  0.00     0.092 A 
BRANCH  14  17
ATOM     17  O   UNL     1     -29.412  -9.872   6.234  1.00  0.00    -0.508 OA
ATOM     18  H   UNL     1     -29.906 -10.499   6.859  1.00  0.00     0.293 HD
ENDBRANCH  14  17
BRANCH  15  19
ATOM     19  O   UNL     1     -28.336 -11.317   1.743  1.00  0.00    -0.508 OA
ATOM     20  H   UNL     1     -28.681 -11.634   0.844  1.00  0.00     0.293 HD
ENDBRANCH  15  19
ENDBRANCH  10  11
ENDBRANCH   1  10
TORSDOF 6
ENDMDL
MODEL 7
REMARK VINA RESULT:    -4.990      2.753      3.512
REMARK INTER + INTRA:          -6.822
REMARK INTER:                  -6.361
REMARK INTRA:                  -0.461
REMARK UNBOUND:                -0.520
REMARK SMILES Oc1ccc(CCc2cc(O)cc(O)c2)cc1
REMARK SMILES IDX 6 1 5 2 4 3 3 4 2 5 16 6 17 7 1 8 7 10 8 11 15 12 9 13 13 14
REMARK SMILES IDX 10 15 12 16 14 17 11 19
REMARK H PARENT 1 9 14 18 11 20
REMARK Flexibility Score: inf
ROOT
ATOM      1  C   UNL     1     -30.868  -9.751   0.651  1.00  0.00     0.040 C 
ENDROOT
BRANCH   1   2
ATOM      2  C   UNL     1     -30.479  -9.727   2.104  1.00  0.00    -0.047 A 
ATOM      3  C   UNL     1     -29.682 -10.750   2.641  1.00  0.00     0.007 A 
ATOM      4  C   UNL     1     -29.347 -10.745   3.999  1.00  0.00     0.046 A 
ATOM      5  C   UNL     1     -29.814  -9.725   4.835  1.00  0.00     0.115 A 
ATOM      6  C   UNL     1     -30.956  -8.712   2.949  1.00  0.00     0.007 A 
ATOM      7  C   UNL     1     -30.621  -8.708   4.307  1.00  0.00     0.046 A 
BRANCH   5   8
ATOM      8  O   UNL     1     -29.473  -9.731   6.186  1.00  0.00    -0.508 OA
ATOM      9  H   UNL     1     -28.575 -10.075   6.503  1.00  0.00     0.293 HD
ENDBRANCH   5   8
ENDBRANCH   1   2
BRANCH   1  10
ATOM     10  C   UNL     1     -31.944  -8.700   0.364  1.00  0.00     0.040 C 
BRANCH  10  11
ATOM     11  C   UNL     1     -32.926  -9.212  -0.656  1.00  0.00    -0.040 A 
ATOM     12  C   UNL     1     -33.674  -8.311  -1.432  1.00  0.00     0.050 A 
ATOM     13  C   UNL     1     -33.145 -10.592  -0.798  1.00  0.00     0.050 A 
ATOM     14  C   UNL     1     -34.612  -8.783  -2.356  1.00  0.00     0.119 A 
ATOM     15  C   UNL     1     -34.084 -11.067  -1.723  1.00  0.00     0.119 A 
ATOM     16  C   UNL     1     -34.813 -10.163  -2.502  1.00  0.00     0.092 A 
BRANCH  14  17
ATOM     17  O   UNL     1     -35.338  -7.875  -3.122  1.00  0.00    -0.508 OA
ATOM     18  H   UNL     1     -36.342  -7.780  -3.021  1.00  0.00     0.293 HD
ENDBRANCH  14  17
BRANCH  15  19
ATOM     19  O   UNL     1     -34.301 -12.435  -1.874  1.00  0.00    -0.508 OA
ATOM     20  H   UNL     1     -34.155 -13.082  -1.109  1.00  0.00     0.293 HD
ENDBRANCH  15  19
ENDBRANCH  10  11
ENDBRANCH   1  10
TORSDOF 6
ENDMDL
MODEL 8
REMARK VINA RESULT:    -4.954      2.747      3.272
REMARK INTER + INTRA:          -6.777
REMARK INTER:                  -6.310
REMARK INTRA:                  -0.467
REMARK UNBOUND:                -0.520
REMARK SMILES Oc1ccc(CCc2cc(O)cc(O)c2)cc1
REMARK SMILES IDX 6 1 5 2 4 3 3 4 2 5 16 6 17 7 1 8 7 10 8 11 15 12 9 13 13 14
REMARK SMILES IDX 10 15 12 16 14 17 11 19
REMARK H PARENT 1 9 14 18 11 20
REMARK Flexibility Score: inf
ROOT
ATOM      1  C   UNL     1     -30.884  -9.737   0.633  1.00  0.00     0.040 C 
ENDROOT
BRANCH   1   2
ATOM      2  C   UNL     1     -30.509  -9.736   2.090  1.00  0.00    -0.047 A 
ATOM      3  C   UNL     1     -30.959  -8.710   2.937  1.00  0.00     0.007 A 
ATOM      4  C   UNL     1     -30.583  -8.691   4.283  1.00  0.00     0.046 A 
ATOM      5  C   UNL     1     -29.746  -9.689   4.795  1.00  0.00     0.115 A 
ATOM      6  C   UNL     1     -29.658 -10.728   2.604  1.00  0.00     0.007 A 
ATOM      7  C   UNL     1     -29.283 -10.707   3.950  1.00  0.00     0.046 A 
BRANCH   5   8
ATOM      8  O   UNL     1     -29.379  -9.658   6.138  1.00  0.00    -0.508 OA
ATOM      9  H   UNL     1     -30.049  -9.432   6.865  1.00  0.00     0.293 HD
ENDBRANCH   5   8
ENDBRANCH   1   2
BRANCH   1  10
ATOM     10  C   UNL     1     -31.940  -8.665   0.348  1.00  0.00     0.040 C 
BRANCH  10  11
ATOM     11  C   UNL     1     -32.967  -9.178  -0.625  1.00  0.00    -0.040 A 
ATOM     12  C   UNL     1     -33.153 -10.560  -0.794  1.00  0.00     0.050 A 
ATOM     13  C   UNL     1     -33.706  -8.281  -1.414  1.00  0.00     0.050 A 
ATOM     14  C   UNL     1     -34.083 -11.040  -1.723  1.00  0.00     0.119 A 
ATOM     15  C   UNL     1     -34.638  -8.760  -2.344  1.00  0.00     0.119 A 
ATOM     16  C   UNL     1     -34.827 -10.137  -2.495  1.00  0.00     0.092 A 
BRANCH  14  17
ATOM     17  O   UNL     1     -34.259 -12.413  -1.871  1.00  0.00    -0.508 OA
ATOM     18  H   UNL     1     -34.927 -12.926  -1.307  1.00  0.00     0.293 HD
ENDBRANCH  14  17
BRANCH  15  19
ATOM     19  O   UNL     1     -35.380  -7.875  -3.125  1.00  0.00    -0.508 OA
ATOM     20  H   UNL     1     -35.356  -7.913  -4.137  1.00  0.00     0.293 HD
ENDBRANCH  15  19
ENDBRANCH  10  11
ENDBRANCH   1  10
TORSDOF 6
ENDMDL
