MODEL 1
REMARK VINA RESULT:    -2.972      0.000      0.000
REMARK INTER + INTRA:          -6.399
REMARK INTER:                  -5.230
REMARK INTRA:                  -1.169
REMARK UNBOUND:                -1.169
REMARK SMILES CCCCCCCCCCCCCCC(=O)[O-]
REMARK SMILES IDX 9 1 10 2 11 3 12 4 13 5 14 6 15 7 16 8 17 9 8 10 7 11 6 12
REMARK SMILES IDX 5 13 4 14 3 15 2 16 1 17
REMARK H PARENT
REMARK Flexibility Score: inf
ROOT
ATOM      1  C   UNL     1     -23.417   1.895 -33.562  1.00  0.00     0.000 C 
ENDROOT
BRANCH   1   2
ATOM      2  C   UNL     1     -22.421   3.043 -33.800  1.00  0.00     0.000 C 
BRANCH   2   3
ATOM      3  C   UNL     1     -22.508   3.620 -35.223  1.00  0.00     0.000 C 
BRANCH   3   4
ATOM      4  C   UNL     1     -23.799   3.209 -35.950  1.00  0.00     0.000 C 
BRANCH   4   5
ATOM      5  C   UNL     1     -24.413   4.364 -36.757  1.00  0.00     0.006 C 
BRANCH   5   6
ATOM      6  C   UNL     1     -24.427   4.089 -38.266  1.00  0.00     0.053 C 
BRANCH   6   7
ATOM      7  C   UNL     1     -23.116   3.517 -38.705  1.00  0.00     0.041 C 
ATOM      8  O   UNL     1     -23.019   2.291 -38.977  1.00  0.00    -0.550 OA
ATOM      9  O   UNL     1     -22.013   4.345 -38.860  1.00  0.00    -0.550 OA
ENDBRANCH   6   7
ENDBRANCH   5   6
ENDBRANCH   4   5
ENDBRANCH   3   4
ENDBRANCH   2   3
ENDBRANCH   1   2
BRANCH   1  10
ATOM     10  C   UNL     1     -24.769   2.389 -33.027  1.00  0.00     0.000 C 
BRANCH  10  11
ATOM     11  C   UNL     1     -24.684   3.784 -32.391  1.00  0.00    -0.000 C 
BRANCH  11  12
ATOM     12  C   UNL     1     -25.928   4.617 -32.727  1.00  0.00    -0.000 C 
BRANCH  12  13
ATOM     13  C   UNL     1     -26.719   3.987 -33.884  1.00  0.00    -0.000 C 
BRANCH  13  14
ATOM     14  C   UNL     1     -28.203   4.407 -33.872  1.00  0.00    -0.000 C 
BRANCH  14  15
ATOM     15  C   UNL     1     -28.877   4.329 -35.251  1.00  0.00    -0.000 C 
BRANCH  15  16
ATOM     16  C   UNL     1     -28.122   5.118 -36.329  1.00  0.00    -0.003 C 
ATOM     17  C   UNL     1     -28.616   4.753 -37.727  1.00  0.00     0.004 C 
ENDBRANCH  15  16
ENDBRANCH  14  15
ENDBRANCH  13  14
ENDBRANCH  12  13
ENDBRANCH  11  12
ENDBRANCH  10  11
ENDBRANCH   1  10
TORSDOF 13
ENDMDL
MODEL 2
REMARK VINA RESULT:    -2.858      2.431      5.235
REMARK INTER + INTRA:          -6.198
REMARK INTER:                  -5.069
REMARK INTRA:                  -1.129
REMARK UNBOUND:                -1.169
REMARK SMILES CCCCCCCCCCCCCCC(=O)[O-]
REMARK SMILES IDX 9 1 10 2 11 3 12 4 13 5 14 6 15 7 16 8 17 9 8 10 7 11 6 12
REMARK SMILES IDX 5 13 4 14 3 15 2 16 1 17
REMARK H PARENT
REMARK Flexibility Score: inf
ROOT
ATOM      1  C   UNL     1     -23.971   2.272 -33.668  1.00  0.00     0.000 C 
ENDROOT
BRANCH   1   2
ATOM      2  C   UNL     1     -24.980   2.816 -32.643  1.00  0.00     0.000 C 
BRANCH   2   3
ATOM      3  C   UNL     1     -25.008   4.353 -32.595  1.00  0.00     0.000 C 
BRANCH   3   4
ATOM      4  C   UNL     1     -26.379   4.933 -32.978  1.00  0.00     0.000 C 
BRANCH   4   5
ATOM      5  C   UNL     1     -27.211   3.962 -33.833  1.00  0.00     0.006 C 
BRANCH   5   6
ATOM      6  C   UNL     1     -28.372   4.657 -34.556  1.00  0.00     0.053 C 
BRANCH   6   7
ATOM      7  C   UNL     1     -28.087   4.764 -36.020  1.00  0.00     0.041 C 
ATOM      8  O   UNL     1     -26.905   4.927 -36.425  1.00  0.00    -0.550 OA
ATOM      9  O   UNL     1     -29.118   4.634 -36.941  1.00  0.00    -0.550 OA
ENDBRANCH   6   7
ENDBRANCH   5   6
ENDBRANCH   4   5
ENDBRANCH   3   4
ENDBRANCH   2   3
ENDBRANCH   1   2
BRANCH   1  10
ATOM     10  C   UNL     1     -24.046   3.006 -35.016  1.00  0.00     0.000 C 
BRANCH  10  11
ATOM     11  C   UNL     1     -22.701   3.616 -35.438  1.00  0.00    -0.000 C 
BRANCH  11  12
ATOM     12  C   UNL     1     -22.893   5.027 -36.007  1.00  0.00    -0.000 C 
BRANCH  12  13
ATOM     13  C   UNL     1     -23.287   4.976 -37.491  1.00  0.00    -0.000 C 
BRANCH  13  14
ATOM     14  C   UNL     1     -22.398   4.005 -38.296  1.00  0.00    -0.000 C 
BRANCH  14  15
ATOM     15  C   UNL     1     -23.167   2.815 -38.892  1.00  0.00    -0.000 C 
BRANCH  15  16
ATOM     16  C   UNL     1     -22.866   1.491 -38.176  1.00  0.00    -0.003 C 
ATOM     17  C   UNL     1     -23.018   0.305 -39.124  1.00  0.00     0.004 C 
ENDBRANCH  15  16
ENDBRANCH  14  15
ENDBRANCH  13  14
ENDBRANCH  12  13
ENDBRANCH  11  12
ENDBRANCH  10  11
ENDBRANCH   1  10
TORSDOF 13
ENDMDL
MODEL 3
REMARK VINA RESULT:    -2.851     13.459     15.841
REMARK INTER + INTRA:          -6.186
REMARK INTER:                  -5.344
REMARK INTRA:                  -0.842
REMARK UNBOUND:                -1.169
REMARK SMILES CCCCCCCCCCCCCCC(=O)[O-]
REMARK SMILES IDX 9 1 10 2 11 3 12 4 13 5 14 6 15 7 16 8 17 9 8 10 7 11 6 12
REMARK SMILES IDX 5 13 4 14 3 15 2 16 1 17
REMARK H PARENT
REMARK Flexibility Score: inf
ROOT
ATOM      1  C   UNL     1     -10.245   0.800 -35.763  1.00  0.00     0.000 C 
ENDROOT
BRANCH   1   2
ATOM      2  C   UNL     1     -10.337   0.317 -37.221  1.00  0.00     0.000 C 
BRANCH   2   3
ATOM      3  C   UNL     1      -9.021  -0.299 -37.726  1.00  0.00     0.000 C 
BRANCH   3   4
ATOM      4  C   UNL     1      -9.165  -0.948 -39.112  1.00  0.00     0.000 C 
BRANCH   4   5
ATOM      5  C   UNL     1      -9.156  -2.484 -39.047  1.00  0.00     0.006 C 
BRANCH   5   6
ATOM      6  C   UNL     1      -9.936  -3.029 -37.844  1.00  0.00     0.053 C 
BRANCH   6   7
ATOM      7  C   UNL     1     -10.222  -4.487 -38.023  1.00  0.00     0.041 C 
ATOM      8  O   UNL     1     -11.294  -4.981 -37.584  1.00  0.00    -0.550 OA
ATOM      9  O   UNL     1      -9.328  -5.290 -38.718  1.00  0.00    -0.550 OA
ENDBRANCH   6   7
ENDBRANCH   5   6
ENDBRANCH   4   5
ENDBRANCH   3   4
ENDBRANCH   2   3
ENDBRANCH   1   2
BRANCH   1  10
ATOM     10  C   UNL     1      -8.990   1.646 -35.500  1.00  0.00     0.000 C 
BRANCH  10  11
ATOM     11  C   UNL     1      -9.184   2.661 -34.364  1.00  0.00    -0.000 C 
BRANCH  11  12
ATOM     12  C   UNL     1      -8.875   4.086 -34.842  1.00  0.00    -0.000 C 
BRANCH  12  13
ATOM     13  C   UNL     1     -10.099   4.717 -35.523  1.00  0.00    -0.000 C 
BRANCH  13  14
ATOM     14  C   UNL     1     -10.095   4.494 -37.050  1.00  0.00    -0.000 C 
BRANCH  14  15
ATOM     15  C   UNL     1     -11.331   5.071 -37.760  1.00  0.00    -0.000 C 
BRANCH  15  16
ATOM     16  C   UNL     1     -12.022   4.052 -38.677  1.00  0.00    -0.003 C 
ATOM     17  C   UNL     1     -12.633   2.910 -37.870  1.00  0.00     0.004 C 
ENDBRANCH  15  16
ENDBRANCH  14  15
ENDBRANCH  13  14
ENDBRANCH  12  13
ENDBRANCH  11  12
ENDBRANCH  10  11
ENDBRANCH   1  10
TORSDOF 13
ENDMDL
MODEL 4
REMARK VINA RESULT:    -2.726      1.114      1.362
REMARK INTER + INTRA:          -5.967
REMARK INTER:                  -4.918
REMARK INTRA:                  -1.049
REMARK UNBOUND:                -1.169
REMARK SMILES CCCCCCCCCCCCCCC(=O)[O-]
REMARK SMILES IDX 9 1 10 2 11 3 12 4 13 5 14 6 15 7 16 8 17 9 8 10 7 11 6 12
REMARK SMILES IDX 5 13 4 14 3 15 2 16 1 17
REMARK H PARENT
REMARK Flexibility Score: inf
ROOT
ATOM      1  C   UNL     1     -24.097   2.694 -34.297  1.00  0.00     0.000 C 
ENDROOT
BRANCH   1   2
ATOM      2  C   UNL     1     -23.200   3.942 -34.231  1.00  0.00     0.000 C 
BRANCH   2   3
ATOM      3  C   UNL     1     -23.727   5.098 -35.098  1.00  0.00     0.000 C 
BRANCH   3   4
ATOM      4  C   UNL     1     -24.146   4.640 -36.505  1.00  0.00     0.000 C 
BRANCH   4   5
ATOM      5  C   UNL     1     -23.175   5.123 -37.595  1.00  0.00     0.006 C 
BRANCH   5   6
ATOM      6  C   UNL     1     -22.200   4.027 -38.046  1.00  0.00     0.053 C 
BRANCH   6   7
ATOM      7  C   UNL     1     -22.899   2.707 -38.125  1.00  0.00     0.041 C 
ATOM      8  O   UNL     1     -23.648   2.443 -39.103  1.00  0.00    -0.550 OA
ATOM      9  O   UNL     1     -22.685   1.748 -37.144  1.00  0.00    -0.550 OA
ENDBRANCH   6   7
ENDBRANCH   5   6
ENDBRANCH   4   5
ENDBRANCH   3   4
ENDBRANCH   2   3
ENDBRANCH   1   2
BRANCH   1  10
ATOM     10  C   UNL     1     -25.184   2.690 -33.211  1.00  0.00     0.000 C 
BRANCH  10  11
ATOM     11  C   UNL     1     -25.260   4.017 -32.441  1.00  0.00    -0.000 C 
BRANCH  11  12
ATOM     12  C   UNL     1     -26.457   4.855 -32.910  1.00  0.00    -0.000 C 
BRANCH  12  13
ATOM     13  C   UNL     1     -27.325   4.069 -33.905  1.00  0.00    -0.000 C 
BRANCH  13  14
ATOM     14  C   UNL     1     -28.755   4.641 -34.008  1.00  0.00    -0.000 C 
BRANCH  14  15
ATOM     15  C   UNL     1     -29.125   5.124 -35.420  1.00  0.00    -0.000 C 
BRANCH  15  16
ATOM     16  C   UNL     1     -28.054   4.786 -36.466  1.00  0.00    -0.003 C 
ATOM     17  C   UNL     1     -28.668   4.636 -37.855  1.00  0.00     0.004 C 
ENDBRANCH  15  16
ENDBRANCH  14  15
ENDBRANCH  13  14
ENDBRANCH  12  13
ENDBRANCH  11  12
ENDBRANCH  10  11
ENDBRANCH   1  10
TORSDOF 13
ENDMDL
MODEL 5
REMARK VINA RESULT:    -2.712      1.825      2.577
REMARK INTER + INTRA:          -5.942
REMARK INTER:                  -5.073
REMARK INTRA:                  -0.869
REMARK UNBOUND:                -1.169
REMARK SMILES CCCCCCCCCCCCCCC(=O)[O-]
REMARK SMILES IDX 9 1 10 2 11 3 12 4 13 5 14 6 15 7 16 8 17 9 8 10 7 11 6 12
REMARK SMILES IDX 5 13 4 14 3 15 2 16 1 17
REMARK H PARENT
REMARK Flexibility Score: inf
ROOT
ATOM      1  C   UNL     1     -22.808   1.828 -34.820  1.00  0.00     0.000 C 
ENDROOT
BRANCH   1   2
ATOM      2  C   UNL     1     -22.855   1.928 -36.354  1.00  0.00     0.000 C 
BRANCH   2   3
ATOM      3  C   UNL     1     -22.338   3.279 -36.877  1.00  0.00     0.000 C 
BRANCH   3   4
ATOM      4  C   UNL     1     -22.695   3.518 -38.354  1.00  0.00     0.000 C 
BRANCH   4   5
ATOM      5  C   UNL     1     -23.241   4.933 -38.606  1.00  0.00     0.006 C 
BRANCH   5   6
ATOM      6  C   UNL     1     -24.686   4.925 -39.122  1.00  0.00     0.053 C 
BRANCH   6   7
ATOM      7  C   UNL     1     -25.649   4.968 -37.978  1.00  0.00     0.041 C 
ATOM      8  O   UNL     1     -26.890   4.966 -38.195  1.00  0.00    -0.550 OA
ATOM      9  O   UNL     1     -25.179   4.962 -36.672  1.00  0.00    -0.550 OA
ENDBRANCH   6   7
ENDBRANCH   5   6
ENDBRANCH   4   5
ENDBRANCH   3   4
ENDBRANCH   2   3
ENDBRANCH   1   2
BRANCH   1  10
ATOM     10  C   UNL     1     -22.261   3.104 -34.162  1.00  0.00     0.000 C 
BRANCH  10  11
ATOM     11  C   UNL     1     -23.370   4.007 -33.603  1.00  0.00    -0.000 C 
BRANCH  11  12
ATOM     12  C   UNL     1     -24.470   3.174 -32.933  1.00  0.00    -0.000 C 
BRANCH  12  13
ATOM     13  C   UNL     1     -25.442   4.070 -32.150  1.00  0.00    -0.000 C 
BRANCH  13  14
ATOM     14  C   UNL     1     -26.517   4.699 -33.062  1.00  0.00    -0.000 C 
BRANCH  14  15
ATOM     15  C   UNL     1     -27.164   3.699 -34.033  1.00  0.00    -0.000 C 
BRANCH  15  16
ATOM     16  C   UNL     1     -28.664   3.951 -34.236  1.00  0.00    -0.003 C 
ATOM     17  C   UNL     1     -28.932   4.631 -35.576  1.00  0.00     0.004 C 
ENDBRANCH  15  16
ENDBRANCH  14  15
ENDBRANCH  13  14
ENDBRANCH  12  13
ENDBRANCH  11  12
ENDBRANCH  10  11
ENDBRANCH   1  10
TORSDOF 13
ENDMDL
MODEL 6
REMARK VINA RESULT:    -2.682      2.710      4.957
REMARK INTER + INTRA:          -5.889
REMARK INTER:                  -4.721
REMARK INTRA:                  -1.168
REMARK UNBOUND:                -1.169
REMARK SMILES CCCCCCCCCCCCCCC(=O)[O-]
REMARK SMILES IDX 9 1 10 2 11 3 12 4 13 5 14 6 15 7 16 8 17 9 8 10 7 11 6 12
REMARK SMILES IDX 5 13 4 14 3 15 2 16 1 17
REMARK H PARENT
REMARK Flexibility Score: inf
ROOT
ATOM      1  C   UNL     1     -23.716   1.981 -33.392  1.00  0.00     0.000 C 
ENDROOT
BRANCH   1   2
ATOM      2  C   UNL     1     -25.022   2.663 -32.947  1.00  0.00     0.000 C 
BRANCH   2   3
ATOM      3  C   UNL     1     -24.790   3.760 -31.895  1.00  0.00     0.000 C 
BRANCH   3   4
ATOM      4  C   UNL     1     -25.355   5.123 -32.326  1.00  0.00     0.000 C 
BRANCH   4   5
ATOM      5  C   UNL     1     -26.817   5.034 -32.792  1.00  0.00     0.006 C 
BRANCH   5   6
ATOM      6  C   UNL     1     -26.959   5.125 -34.317  1.00  0.00     0.053 C 
BRANCH   6   7
ATOM      7  C   UNL     1     -28.122   4.308 -34.784  1.00  0.00     0.041 C 
ATOM      8  O   UNL     1     -28.748   4.634 -35.826  1.00  0.00    -0.550 OA
ATOM      9  O   UNL     1     -28.484   3.158 -34.095  1.00  0.00    -0.550 OA
ENDBRANCH   6   7
ENDBRANCH   5   6
ENDBRANCH   4   5
ENDBRANCH   3   4
ENDBRANCH   2   3
ENDBRANCH   1   2
BRANCH   1  10
ATOM     10  C   UNL     1     -23.189   2.530 -34.727  1.00  0.00     0.000 C 
BRANCH  10  11
ATOM     11  C   UNL     1     -22.775   4.007 -34.641  1.00  0.00    -0.000 C 
BRANCH  11  12
ATOM     12  C   UNL     1     -23.272   4.788 -35.864  1.00  0.00    -0.000 C 
BRANCH  12  13
ATOM     13  C   UNL     1     -24.585   4.197 -36.401  1.00  0.00    -0.000 C 
BRANCH  13  14
ATOM     14  C   UNL     1     -25.154   5.016 -37.578  1.00  0.00    -0.000 C 
BRANCH  14  15
ATOM     15  C   UNL     1     -24.418   4.777 -38.907  1.00  0.00    -0.000 C 
BRANCH  15  16
ATOM     16  C   UNL     1     -23.568   3.500 -38.897  1.00  0.00    -0.003 C 
ATOM     17  C   UNL     1     -22.092   3.819 -39.117  1.00  0.00     0.004 C 
ENDBRANCH  15  16
ENDBRANCH  14  15
ENDBRANCH  13  14
ENDBRANCH  12  13
ENDBRANCH  11  12
ENDBRANCH  10  11
ENDBRANCH   1  10
TORSDOF 13
ENDMDL
MODEL 7
REMARK VINA RESULT:    -2.227      2.063      4.212
REMARK INTER + INTRA:          -5.089
REMARK INTER:                  -3.930
REMARK INTRA:                  -1.159
REMARK UNBOUND:                -1.169
REMARK SMILES CCCCCCCCCCCCCCC(=O)[O-]
REMARK SMILES IDX 9 1 10 2 11 3 12 4 13 5 14 6 15 7 16 8 17 9 8 10 7 11 6 12
REMARK SMILES IDX 5 13 4 14 3 15 2 16 1 17
REMARK H PARENT
REMARK Flexibility Score: inf
ROOT
ATOM      1  C   UNL     1     -23.906   3.993 -36.117  1.00  0.00     0.000 C 
ENDROOT
BRANCH   1   2
ATOM      2  C   UNL     1     -22.585   4.511 -36.711  1.00  0.00     0.000 C 
BRANCH   2   3
ATOM      3  C   UNL     1     -21.955   3.523 -37.708  1.00  0.00     0.000 C 
BRANCH   3   4
ATOM      4  C   UNL     1     -22.776   3.381 -39.000  1.00  0.00     0.000 C 
BRANCH   4   5
ATOM      5  C   UNL     1     -23.452   2.005 -39.119  1.00  0.00     0.006 C 
BRANCH   5   6
ATOM      6  C   UNL     1     -22.984   1.020 -38.040  1.00  0.00     0.053 C 
BRANCH   6   7
ATOM      7  C   UNL     1     -22.775  -0.339 -38.629  1.00  0.00     0.041 C 
ATOM      8  O   UNL     1     -21.625  -0.853 -38.644  1.00  0.00    -0.550 OA
ATOM      9  O   UNL     1     -23.857  -1.059 -39.117  1.00  0.00    -0.550 OA
ENDBRANCH   6   7
ENDBRANCH   5   6
ENDBRANCH   4   5
ENDBRANCH   3   4
ENDBRANCH   2   3
ENDBRANCH   1   2
BRANCH   1  10
ATOM     10  C   UNL     1     -25.079   4.956 -36.358  1.00  0.00     0.000 C 
BRANCH  10  11
ATOM     11  C   UNL     1     -26.409   4.424 -35.804  1.00  0.00    -0.000 C 
BRANCH  11  12
ATOM     12  C   UNL     1     -26.698   5.010 -34.415  1.00  0.00    -0.000 C 
BRANCH  12  13
ATOM     13  C   UNL     1     -26.474   3.961 -33.316  1.00  0.00    -0.000 C 
BRANCH  13  14
ATOM     14  C   UNL     1     -25.036   4.000 -32.758  1.00  0.00    -0.000 C 
BRANCH  14  15
ATOM     15  C   UNL     1     -24.329   2.635 -32.777  1.00  0.00    -0.000 C 
BRANCH  15  16
ATOM     16  C   UNL     1     -22.897   2.712 -33.321  1.00  0.00    -0.003 C 
ATOM     17  C   UNL     1     -22.570   1.500 -34.189  1.00  0.00     0.004 C 
ENDBRANCH  15  16
ENDBRANCH  14  15
ENDBRANCH  13  14
ENDBRANCH  12  13
ENDBRANCH  11  12
ENDBRANCH  10  11
ENDBRANCH   1  10
TORSDOF 13
ENDMDL
MODEL 8
REMARK VINA RESULT:    -2.138     14.263     16.214
REMARK INTER + INTRA:          -4.932
REMARK INTER:                  -4.257
REMARK INTRA:                  -0.675
REMARK UNBOUND:                -1.169
REMARK SMILES CCCCCCCCCCCCCCC(=O)[O-]
REMARK SMILES IDX 9 1 10 2 11 3 12 4 13 5 14 6 15 7 16 8 17 9 8 10 7 11 6 12
REMARK SMILES IDX 5 13 4 14 3 15 2 16 1 17
REMARK H PARENT
REMARK Flexibility Score: inf
ROOT
ATOM      1  C   UNL     1      -9.669   0.997 -36.604  1.00  0.00     0.000 C 
ENDROOT
BRANCH   1   2
ATOM      2  C   UNL     1      -8.898   1.327 -35.313  1.00  0.00     0.000 C 
BRANCH   2   3
ATOM      3  C   UNL     1      -9.428   2.590 -34.613  1.00  0.00     0.000 C 
BRANCH   3   4
ATOM      4  C   UNL     1      -8.940   3.886 -35.282  1.00  0.00     0.000 C 
BRANCH   4   5
ATOM      5  C   UNL     1     -10.097   4.828 -35.652  1.00  0.00     0.006 C 
BRANCH   5   6
ATOM      6  C   UNL     1     -10.183   5.095 -37.161  1.00  0.00     0.053 C 
BRANCH   6   7
ATOM      7  C   UNL     1     -11.249   4.250 -37.781  1.00  0.00     0.041 C 
ATOM      8  O   UNL     1     -11.894   3.426 -37.079  1.00  0.00    -0.550 OA
ATOM      9  O   UNL     1     -11.566   4.404 -39.124  1.00  0.00    -0.550 OA
ENDBRANCH   6   7
ENDBRANCH   5   6
ENDBRANCH   4   5
ENDBRANCH   3   4
ENDBRANCH   2   3
ENDBRANCH   1   2
BRANCH   1  10
ATOM     10  C   UNL     1      -8.908   1.420 -37.869  1.00  0.00     0.000 C 
BRANCH  10  11
ATOM     11  C   UNL     1      -9.337   0.630 -39.114  1.00  0.00    -0.000 C 
BRANCH  11  12
ATOM     12  C   UNL     1      -8.876  -0.830 -39.023  1.00  0.00    -0.000 C 
BRANCH  12  13
ATOM     13  C   UNL     1     -10.034  -1.751 -38.607  1.00  0.00    -0.000 C 
BRANCH  13  14
ATOM     14  C   UNL     1      -9.963  -2.138 -37.115  1.00  0.00    -0.000 C 
BRANCH  14  15
ATOM     15  C   UNL     1     -10.890  -3.306 -36.737  1.00  0.00    -0.000 C 
BRANCH  15  16
ATOM     16  C   UNL     1     -10.727  -4.520 -37.661  1.00  0.00    -0.003 C 
ATOM     17  C   UNL     1      -9.265  -4.948 -37.756  1.00  0.00     0.004 C 
ENDBRANCH  15  16
ENDBRANCH  14  15
ENDBRANCH  13  14
ENDBRANCH  12  13
ENDBRANCH  11  12
ENDBRANCH  10  11
ENDBRANCH   1  10
TORSDOF 13
ENDMDL
