MODEL 1
REMARK VINA RESULT:    -5.356      0.000      0.000
REMARK INTER + INTRA:          -5.513
REMARK INTER:                  -5.513
REMARK INTRA:                   0.000
REMARK UNBOUND:                 0.000
REMARK SMILES Cc1cccc(O)c1C
REMARK SMILES IDX 1 1 2 2 8 3 6 4 5 5 4 6 3 7 9 8 7 9
REMARK H PARENT 7 10
REMARK Flexibility Score: inf
ROOT
ATOM      1  C   UNL     1     -13.162  59.971  39.190  1.00  0.00     0.045 C 
ATOM      2  C   UNL     1     -14.267  60.898  38.752  1.00  0.00    -0.045 A 
ATOM      3  C   UNL     1     -14.095  62.310  38.704  1.00  0.00    -0.006 A 
ATOM      4  C   UNL     1     -15.179  63.121  38.281  1.00  0.00     0.118 A 
ATOM      5  C   UNL     1     -16.394  62.534  37.920  1.00  0.00     0.046 A 
ATOM      6  C   UNL     1     -16.556  61.153  37.969  1.00  0.00     0.004 A 
ATOM      7  C   UNL     1     -15.502  60.340  38.381  1.00  0.00     0.004 A 
ATOM      8  C   UNL     1     -12.789  62.966  39.091  1.00  0.00     0.048 C 
ENDROOT
BRANCH   4   9
ATOM      9  O   UNL     1     -15.081  64.514  38.210  1.00  0.00    -0.508 OA
ATOM     10  H   UNL     1     -15.874  65.135  38.301  1.00  0.00     0.293 HD
ENDBRANCH   4   9
TORSDOF 1
ENDMDL
MODEL 2
REMARK VINA RESULT:    -5.283     18.851     20.189
REMARK INTER + INTRA:          -5.437
REMARK INTER:                  -5.437
REMARK INTRA:                   0.000
REMARK UNBOUND:                 0.000
REMARK SMILES Cc1cccc(O)c1C
REMARK SMILES IDX 1 1 2 2 8 3 6 4 5 5 4 6 3 7 9 8 7 9
REMARK H PARENT 7 10
REMARK Flexibility Score: inf
ROOT
ATOM      1  C   UNL     1     -11.992  47.489  55.094  1.00  0.00     0.045 C 
ATOM      2  C   UNL     1     -11.425  48.816  54.662  1.00  0.00    -0.045 A 
ATOM      3  C   UNL     1     -12.191  49.761  53.922  1.00  0.00    -0.006 A 
ATOM      4  C   UNL     1     -11.593  50.992  53.551  1.00  0.00     0.118 A 
ATOM      5  C   UNL     1     -10.270  51.264  53.910  1.00  0.00     0.046 A 
ATOM      6  C   UNL     1      -9.527  50.337  54.634  1.00  0.00     0.004 A 
ATOM      7  C   UNL     1     -10.098  49.123  55.008  1.00  0.00     0.004 A 
ATOM      8  C   UNL     1     -13.623  49.486  53.523  1.00  0.00     0.048 C 
ENDROOT
BRANCH   4   9
ATOM      9  O   UNL     1     -12.284  51.965  52.824  1.00  0.00    -0.508 OA
ATOM     10  H   UNL     1     -12.034  52.945  52.823  1.00  0.00     0.293 HD
ENDBRANCH   4   9
TORSDOF 1
ENDMDL
MODEL 3
REMARK VINA RESULT:    -5.227     18.474     19.726
REMARK INTER + INTRA:          -5.380
REMARK INTER:                  -5.380
REMARK INTRA:                   0.000
REMARK UNBOUND:                 0.000
REMARK SMILES Cc1cccc(O)c1C
REMARK SMILES IDX 1 1 2 2 8 3 6 4 5 5 4 6 3 7 9 8 7 9
REMARK H PARENT 7 10
REMARK Flexibility Score: inf
ROOT
ATOM      1  C   UNL     1     -10.413  48.679  55.524  1.00  0.00     0.045 C 
ATOM      2  C   UNL     1     -11.507  49.092  54.573  1.00  0.00    -0.045 A 
ATOM      3  C   UNL     1     -11.478  50.336  53.882  1.00  0.00    -0.006 A 
ATOM      4  C   UNL     1     -12.542  50.658  53.001  1.00  0.00     0.118 A 
ATOM      5  C   UNL     1     -13.599  49.761  52.821  1.00  0.00     0.046 A 
ATOM      6  C   UNL     1     -13.620  48.547  53.500  1.00  0.00     0.004 A 
ATOM      7  C   UNL     1     -12.584  48.213  54.368  1.00  0.00     0.004 A 
ATOM      8  C   UNL     1     -10.345  51.320  54.062  1.00  0.00     0.048 C 
ENDROOT
BRANCH   4   9
ATOM      9  O   UNL     1     -12.580  51.861  52.290  1.00  0.00    -0.508 OA
ATOM     10  H   UNL     1     -13.288  52.569  52.428  1.00  0.00     0.293 HD
ENDBRANCH   4   9
TORSDOF 1
ENDMDL
MODEL 4
REMARK VINA RESULT:    -5.156      2.789      4.649
REMARK INTER + INTRA:          -5.307
REMARK INTER:                  -5.307
REMARK INTRA:                   0.000
REMARK UNBOUND:                 0.000
REMARK SMILES Cc1cccc(O)c1C
REMARK SMILES IDX 1 1 2 2 8 3 6 4 5 5 4 6 3 7 9 8 7 9
REMARK H PARENT 7 10
REMARK Flexibility Score: inf
ROOT
ATOM      1  C   UNL     1     -14.518  61.828  38.849  1.00  0.00     0.045 C 
ATOM      2  C   UNL     1     -13.071  62.048  39.209  1.00  0.00    -0.045 A 
ATOM      3  C   UNL     1     -12.252  61.002  39.720  1.00  0.00    -0.006 A 
ATOM      4  C   UNL     1     -10.898  61.281  40.037  1.00  0.00     0.118 A 
ATOM      5  C   UNL     1     -10.385  62.567  39.848  1.00  0.00     0.046 A 
ATOM      6  C   UNL     1     -11.191  63.585  39.348  1.00  0.00     0.004 A 
ATOM      7  C   UNL     1     -12.523  63.330  39.031  1.00  0.00     0.004 A 
ATOM      8  C   UNL     1     -12.787  59.604  39.932  1.00  0.00     0.048 C 
ENDROOT
BRANCH   4   9
ATOM      9  O   UNL     1     -10.036  60.304  40.542  1.00  0.00    -0.508 OA
ATOM     10  H   UNL     1     -10.114  59.917  41.474  1.00  0.00     0.293 HD
ENDBRANCH   4   9
TORSDOF 1
ENDMDL
MODEL 5
REMARK VINA RESULT:    -5.148     18.884     20.392
REMARK INTER + INTRA:          -5.298
REMARK INTER:                  -5.298
REMARK INTRA:                   0.000
REMARK UNBOUND:                 0.000
REMARK SMILES Cc1cccc(O)c1C
REMARK SMILES IDX 1 1 2 2 8 3 6 4 5 5 4 6 3 7 9 8 7 9
REMARK H PARENT 7 10
REMARK Flexibility Score: inf
ROOT
ATOM      1  C   UNL     1     -13.026  47.606  54.419  1.00  0.00     0.045 C 
ATOM      2  C   UNL     1     -12.310  48.906  54.158  1.00  0.00    -0.045 A 
ATOM      3  C   UNL     1     -11.078  49.232  54.793  1.00  0.00    -0.006 A 
ATOM      4  C   UNL     1     -10.460  50.474  54.499  1.00  0.00     0.118 A 
ATOM      5  C   UNL     1     -11.058  51.358  53.598  1.00  0.00     0.046 A 
ATOM      6  C   UNL     1     -12.262  51.034  52.980  1.00  0.00     0.004 A 
ATOM      7  C   UNL     1     -12.884  49.818  53.256  1.00  0.00     0.004 A 
ATOM      8  C   UNL     1     -10.414  48.290  55.771  1.00  0.00     0.048 C 
ENDROOT
BRANCH   4   9
ATOM      9  O   UNL     1      -9.251  50.860  55.085  1.00  0.00    -0.508 OA
ATOM     10  H   UNL     1      -8.385  50.950  54.571  1.00  0.00     0.293 HD
ENDBRANCH   4   9
TORSDOF 1
ENDMDL
MODEL 6
REMARK VINA RESULT:    -5.047      2.676      3.784
REMARK INTER + INTRA:          -5.195
REMARK INTER:                  -5.195
REMARK INTRA:                   0.000
REMARK UNBOUND:                 0.000
REMARK SMILES Cc1cccc(O)c1C
REMARK SMILES IDX 1 1 2 2 8 3 6 4 5 5 4 6 3 7 9 8 7 9
REMARK H PARENT 7 10
REMARK Flexibility Score: inf
ROOT
ATOM      1  C   UNL     1     -14.057  63.370  38.444  1.00  0.00     0.045 C 
ATOM      2  C   UNL     1     -13.535  62.139  39.139  1.00  0.00    -0.045 A 
ATOM      3  C   UNL     1     -12.151  61.958  39.417  1.00  0.00    -0.006 A 
ATOM      4  C   UNL     1     -11.731  60.774  40.075  1.00  0.00     0.118 A 
ATOM      5  C   UNL     1     -12.669  59.805  40.441  1.00  0.00     0.046 A 
ATOM      6  C   UNL     1     -14.021  59.989  40.167  1.00  0.00     0.004 A 
ATOM      7  C   UNL     1     -14.452  61.145  39.521  1.00  0.00     0.004 A 
ATOM      8  C   UNL     1     -11.119  62.992  39.030  1.00  0.00     0.048 C 
ENDROOT
BRANCH   4   9
ATOM      9  O   UNL     1     -10.389  60.529  40.380  1.00  0.00    -0.508 OA
ATOM     10  H   UNL     1      -9.617  60.986  39.912  1.00  0.00     0.293 HD
ENDBRANCH   4   9
TORSDOF 1
ENDMDL
MODEL 7
REMARK VINA RESULT:    -5.010      1.780      2.819
REMARK INTER + INTRA:          -5.157
REMARK INTER:                  -5.157
REMARK INTRA:                   0.000
REMARK UNBOUND:                 0.000
REMARK SMILES Cc1cccc(O)c1C
REMARK SMILES IDX 1 1 2 2 8 3 6 4 5 5 4 6 3 7 9 8 7 9
REMARK H PARENT 7 10
REMARK Flexibility Score: inf
ROOT
ATOM      1  C   UNL     1      -9.962  61.118  40.220  1.00  0.00     0.045 C 
ATOM      2  C   UNL     1     -11.429  61.246  39.900  1.00  0.00    -0.045 A 
ATOM      3  C   UNL     1     -11.986  62.445  39.372  1.00  0.00    -0.006 A 
ATOM      4  C   UNL     1     -13.375  62.493  39.094  1.00  0.00     0.118 A 
ATOM      5  C   UNL     1     -14.178  61.376  39.337  1.00  0.00     0.046 A 
ATOM      6  C   UNL     1     -13.628  60.207  39.852  1.00  0.00     0.004 A 
ATOM      7  C   UNL     1     -12.265  60.140  40.131  1.00  0.00     0.004 A 
ATOM      8  C   UNL     1     -11.135  63.665  39.103  1.00  0.00     0.048 C 
ENDROOT
BRANCH   4   9
ATOM      9  O   UNL     1     -13.990  63.637  38.576  1.00  0.00    -0.508 OA
ATOM     10  H   UNL     1     -14.841  63.615  38.029  1.00  0.00     0.293 HD
ENDBRANCH   4   9
TORSDOF 1
ENDMDL
MODEL 8
REMARK VINA RESULT:    -4.988      5.181      6.232
REMARK INTER + INTRA:          -5.134
REMARK INTER:                  -5.134
REMARK INTRA:                   0.000
REMARK UNBOUND:                 0.000
REMARK SMILES Cc1cccc(O)c1C
REMARK SMILES IDX 1 1 2 2 8 3 6 4 5 5 4 6 3 7 9 8 7 9
REMARK H PARENT 7 10
REMARK Flexibility Score: inf
ROOT
ATOM      1  C   UNL     1      -9.306  65.059  41.922  1.00  0.00     0.045 C 
ATOM      2  C   UNL     1      -9.606  63.968  40.927  1.00  0.00    -0.045 A 
ATOM      3  C   UNL     1      -9.893  62.634  41.331  1.00  0.00    -0.006 A 
ATOM      4  C   UNL     1     -10.167  61.658  40.339  1.00  0.00     0.118 A 
ATOM      5  C   UNL     1     -10.155  62.011  38.987  1.00  0.00     0.046 A 
ATOM      6  C   UNL     1      -9.875  63.317  38.598  1.00  0.00     0.004 A 
ATOM      7  C   UNL     1      -9.603  64.289  39.559  1.00  0.00     0.004 A 
ATOM      8  C   UNL     1      -9.911  62.231  42.788  1.00  0.00     0.048 C 
ENDROOT
BRANCH   4   9
ATOM      9  O   UNL     1     -10.456  60.329  40.663  1.00  0.00    -0.508 OA
ATOM     10  H   UNL     1      -9.861  59.551  40.411  1.00  0.00     0.293 HD
ENDBRANCH   4   9
TORSDOF 1
ENDMDL
