MODEL 1
REMARK VINA RESULT:    -2.450      0.000      0.000
REMARK INTER + INTRA:          -2.450
REMARK INTER:                  -2.450
REMARK INTRA:                   0.000
REMARK UNBOUND:                 0.000
REMARK SMILES CC(=O)[O-]
REMARK SMILES IDX 1 1 2 2 3 3 4 4
REMARK H PARENT
REMARK Flexibility Score: inf
ROOT
ATOM      1  C   UNL     1       3.646   5.647 -29.512  1.00  0.00     0.063 C 
ATOM      2  C   UNL     1       2.450   4.840 -29.887  1.00  0.00     0.038 C 
ATOM      3  O   UNL     1       2.584   3.643 -30.250  1.00  0.00    -0.550 OA
ATOM      4  O   UNL     1       1.179   5.391 -29.784  1.00  0.00    -0.550 OA
ENDROOT
TORSDOF 0
ENDMDL
MODEL 2
REMARK VINA RESULT:    -2.434      0.274      1.635
REMARK INTER + INTRA:          -2.434
REMARK INTER:                  -2.434
REMARK INTRA:                   0.000
REMARK UNBOUND:                 0.000
REMARK SMILES CC(=O)[O-]
REMARK SMILES IDX 1 1 2 2 3 3 4 4
REMARK H PARENT
REMARK Flexibility Score: inf
ROOT
ATOM      1  C   UNL     1       3.846   5.794 -29.594  1.00  0.00     0.063 C 
ATOM      2  C   UNL     1       2.617   4.970 -29.782  1.00  0.00     0.038 C 
ATOM      3  O   UNL     1       1.484   5.462 -29.542  1.00  0.00    -0.550 OA
ATOM      4  O   UNL     1       2.717   3.676 -30.276  1.00  0.00    -0.550 OA
ENDROOT
TORSDOF 0
ENDMDL
MODEL 3
REMARK VINA RESULT:    -2.431      1.942      2.139
REMARK INTER + INTRA:          -2.431
REMARK INTER:                  -2.431
REMARK INTRA:                   0.000
REMARK UNBOUND:                 0.000
REMARK SMILES CC(=O)[O-]
REMARK SMILES IDX 1 1 2 2 3 3 4 4
REMARK H PARENT
REMARK Flexibility Score: inf
ROOT
ATOM      1  C   UNL     1       2.254   5.204 -29.473  1.00  0.00     0.063 C 
ATOM      2  C   UNL     1       3.688   5.259 -29.878  1.00  0.00     0.038 C 
ATOM      3  O   UNL     1       4.299   4.202 -30.182  1.00  0.00    -0.550 OA
ATOM      4  O   UNL     1       4.337   6.483 -29.973  1.00  0.00    -0.550 OA
ENDROOT
TORSDOF 0
ENDMDL
MODEL 4
REMARK VINA RESULT:    -2.338      1.502      2.080
REMARK INTER + INTRA:          -2.338
REMARK INTER:                  -2.338
REMARK INTRA:                   0.000
REMARK UNBOUND:                 0.000
REMARK SMILES CC(=O)[O-]
REMARK SMILES IDX 1 1 2 2 3 3 4 4
REMARK H PARENT
REMARK Flexibility Score: inf
ROOT
ATOM      1  C   UNL     1       2.918   3.775 -30.454  1.00  0.00     0.063 C 
ATOM      2  C   UNL     1       2.701   5.055 -29.720  1.00  0.00     0.038 C 
ATOM      3  O   UNL     1       1.532   5.467 -29.500  1.00  0.00    -0.550 OA
ATOM      4  O   UNL     1       3.787   5.769 -29.230  1.00  0.00    -0.550 OA
ENDROOT
TORSDOF 0
ENDMDL
MODEL 5
REMARK VINA RESULT:    -2.287      1.738      2.127
REMARK INTER + INTRA:          -2.287
REMARK INTER:                  -2.287
REMARK INTRA:                   0.000
REMARK UNBOUND:                 0.000
REMARK SMILES CC(=O)[O-]
REMARK SMILES IDX 1 1 2 2 3 3 4 4
REMARK H PARENT
REMARK Flexibility Score: inf
ROOT
ATOM      1  C   UNL     1       1.752   5.183 -29.830  1.00  0.00     0.063 C 
ATOM      2  C   UNL     1       3.061   4.554 -30.165  1.00  0.00     0.038 C 
ATOM      3  O   UNL     1       4.132   5.061 -29.742  1.00  0.00    -0.550 OA
ATOM      4  O   UNL     1       3.099   3.376 -30.900  1.00  0.00    -0.550 OA
ENDROOT
TORSDOF 0
ENDMDL
MODEL 6
REMARK VINA RESULT:    -2.102      2.355      2.898
REMARK INTER + INTRA:          -2.102
REMARK INTER:                  -2.102
REMARK INTRA:                   0.000
REMARK UNBOUND:                 0.000
REMARK SMILES CC(=O)[O-]
REMARK SMILES IDX 1 1 2 2 3 3 4 4
REMARK H PARENT
REMARK Flexibility Score: inf
ROOT
ATOM      1  C   UNL     1       5.079   3.581 -31.326  1.00  0.00     0.063 C 
ATOM      2  C   UNL     1       3.609   3.361 -31.445  1.00  0.00     0.038 C 
ATOM      3  O   UNL     1       2.851   3.632 -30.478  1.00  0.00    -0.550 OA
ATOM      4  O   UNL     1       3.068   2.910 -32.641  1.00  0.00    -0.550 OA
ENDROOT
TORSDOF 0
ENDMDL
MODEL 7
REMARK VINA RESULT:    -2.050      2.687      3.150
REMARK INTER + INTRA:          -2.050
REMARK INTER:                  -2.050
REMARK INTRA:                   0.000
REMARK UNBOUND:                 0.000
REMARK SMILES CC(=O)[O-]
REMARK SMILES IDX 1 1 2 2 3 3 4 4
REMARK H PARENT
REMARK Flexibility Score: inf
ROOT
ATOM      1  C   UNL     1       3.360   3.156 -31.994  1.00  0.00     0.063 C 
ATOM      2  C   UNL     1       4.449   3.642 -31.099  1.00  0.00     0.038 C 
ATOM      3  O   UNL     1       5.643   3.312 -31.321  1.00  0.00    -0.550 OA
ATOM      4  O   UNL     1       4.156   4.505 -30.051  1.00  0.00    -0.550 OA
ENDROOT
TORSDOF 0
ENDMDL
MODEL 8
REMARK VINA RESULT:    -1.989     16.123     16.398
REMARK INTER + INTRA:          -1.989
REMARK INTER:                  -1.989
REMARK INTRA:                   0.000
REMARK UNBOUND:                 0.000
REMARK SMILES CC(=O)[O-]
REMARK SMILES IDX 1 1 2 2 3 3 4 4
REMARK H PARENT
REMARK Flexibility Score: inf
ROOT
ATOM      1  C   UNL     1      18.022   3.823 -28.573  1.00  0.00     0.063 C 
ATOM      2  C   UNL     1      18.543   3.702 -27.181  1.00  0.00     0.038 C 
ATOM      3  O   UNL     1      19.048   2.619 -26.788  1.00  0.00    -0.550 OA
ATOM      4  O   UNL     1      18.521   4.801 -26.332  1.00  0.00    -0.550 OA
ENDROOT
TORSDOF 0
ENDMDL
MODEL 9
REMARK VINA RESULT:    -1.956      3.416      3.806
REMARK INTER + INTRA:          -1.956
REMARK INTER:                  -1.956
REMARK INTRA:                   0.000
REMARK UNBOUND:                 0.000
REMARK SMILES CC(=O)[O-]
REMARK SMILES IDX 1 1 2 2 3 3 4 4
REMARK H PARENT
REMARK Flexibility Score: inf
ROOT
ATOM      1  C   UNL     1       5.121   4.626 -31.287  1.00  0.00     0.063 C 
ATOM      2  C   UNL     1       5.224   6.029 -30.796  1.00  0.00     0.038 C 
ATOM      3  O   UNL     1       4.328   6.505 -30.052  1.00  0.00    -0.550 OA
ATOM      4  O   UNL     1       6.337   6.798 -31.113  1.00  0.00    -0.550 OA
ENDROOT
TORSDOF 0
ENDMDL
