MODEL 1
REMARK VINA RESULT:    -4.143      0.000      0.000
REMARK INTER + INTRA:          -5.100
REMARK INTER:                  -4.991
REMARK INTRA:                  -0.109
REMARK UNBOUND:                -0.109
REMARK SMILES CC[C@@H](C)[C@H]([NH3+])C(=O)[O-]
REMARK SMILES IDX 3 1 4 2 5 3 6 4 7 8 8 9 9 10 2 11 1 12
REMARK H PARENT 6 5 6 6 6 7
REMARK Flexibility Score: inf
ROOT
ATOM      1  C   UNL     1     -16.356 -23.262   6.945  1.00  0.00     0.050 C 
ATOM      2  C   UNL     1     -15.111 -23.981   7.499  1.00  0.00     0.014 C 
ENDROOT
BRANCH   1   3
ATOM      3  C   UNL     1     -16.279 -23.012   5.404  1.00  0.00     0.230 C 
BRANCH   3   4
ATOM      4  N   UNL     1     -16.491 -24.233   4.610  1.00  0.00    -0.350 N 
ATOM      5  H   UNL     1     -15.719 -24.913   4.804  1.00  0.00     0.345 HD
ATOM      6  H   UNL     1     -17.401 -24.688   4.845  1.00  0.00     0.345 HD
ATOM      7  H   UNL     1     -16.462 -24.013   3.590  1.00  0.00     0.345 HD
ENDBRANCH   3   4
BRANCH   3   8
ATOM      8  C   UNL     1     -14.979 -22.341   5.029  1.00  0.00     0.099 C 
ATOM      9  O   UNL     1     -14.122 -22.938   4.324  1.00  0.00    -0.544 OA
ATOM     10  O   UNL     1     -14.701 -21.066   5.505  1.00  0.00    -0.544 OA
ENDBRANCH   3   8
ENDBRANCH   1   3
BRANCH   1  11
ATOM     11  C   UNL     1     -17.628 -24.025   7.390  1.00  0.00     0.006 C 
ATOM     12  C   UNL     1     -17.333 -25.384   8.028  1.00  0.00     0.004 C 
ENDBRANCH   1  11
TORSDOF 4
ENDMDL
MODEL 2
REMARK VINA RESULT:    -3.884      3.505      4.201
REMARK INTER + INTRA:          -4.787
REMARK INTER:                  -4.660
REMARK INTRA:                  -0.127
REMARK UNBOUND:                -0.109
REMARK SMILES CC[C@@H](C)[C@H]([NH3+])C(=O)[O-]
REMARK SMILES IDX 3 1 4 2 5 3 6 4 7 8 8 9 9 10 2 11 1 12
REMARK H PARENT 6 5 6 6 6 7
REMARK Flexibility Score: inf
ROOT
ATOM      1  C   UNL     1     -16.705 -23.983   7.883  1.00  0.00     0.050 C 
ATOM      2  C   UNL     1     -17.308 -25.381   8.121  1.00  0.00     0.014 C 
ENDROOT
BRANCH   1   3
ATOM      3  C   UNL     1     -16.839 -23.043   9.125  1.00  0.00     0.230 C 
BRANCH   3   4
ATOM      4  N   UNL     1     -17.248 -23.754  10.345  1.00  0.00    -0.350 N 
ATOM      5  H   UNL     1     -17.735 -23.089  10.990  1.00  0.00     0.345 HD
ATOM      6  H   UNL     1     -17.898 -24.543  10.128  1.00  0.00     0.345 HD
ATOM      7  H   UNL     1     -16.411 -24.120  10.852  1.00  0.00     0.345 HD
ENDBRANCH   3   4
BRANCH   3   8
ATOM      8  C   UNL     1     -17.767 -21.888   8.833  1.00  0.00     0.099 C 
ATOM      9  O   UNL     1     -18.814 -22.056   8.153  1.00  0.00    -0.544 OA
ATOM     10  O   UNL     1     -17.441 -20.613   9.277  1.00  0.00    -0.544 OA
ENDBRANCH   3   8
ENDBRANCH   1   3
BRANCH   1  11
ATOM     11  C   UNL     1     -15.253 -24.134   7.367  1.00  0.00     0.006 C 
ATOM     12  C   UNL     1     -14.325 -23.003   7.814  1.00  0.00     0.004 C 
ENDBRANCH   1  11
TORSDOF 4
ENDMDL
MODEL 3
REMARK VINA RESULT:    -3.865      8.497      9.290
REMARK INTER + INTRA:          -4.765
REMARK INTER:                  -4.849
REMARK INTRA:                   0.084
REMARK UNBOUND:                -0.109
REMARK SMILES CC[C@@H](C)[C@H]([NH3+])C(=O)[O-]
REMARK SMILES IDX 3 1 4 2 5 3 6 4 7 8 8 9 9 10 2 11 1 12
REMARK H PARENT 6 5 6 6 6 7
REMARK Flexibility Score: inf
ROOT
ATOM      1  C   UNL     1     -18.769 -21.591  13.462  1.00  0.00     0.050 C 
ATOM      2  C   UNL     1     -17.852 -20.903  12.432  1.00  0.00     0.014 C 
ENDROOT
BRANCH   1   3
ATOM      3  C   UNL     1     -18.481 -21.139  14.930  1.00  0.00     0.230 C 
BRANCH   3   4
ATOM      4  N   UNL     1     -19.674 -21.183  15.791  1.00  0.00    -0.350 N 
ATOM      5  H   UNL     1     -19.444 -20.771  16.726  1.00  0.00     0.345 HD
ATOM      6  H   UNL     1     -20.465 -20.642  15.375  1.00  0.00     0.345 HD
ATOM      7  H   UNL     1     -19.971 -22.171  15.952  1.00  0.00     0.345 HD
ENDBRANCH   3   4
BRANCH   3   8
ATOM      8  C   UNL     1     -17.840 -19.773  14.960  1.00  0.00     0.099 C 
ATOM      9  O   UNL     1     -18.542 -18.727  14.921  1.00  0.00    -0.544 OA
ATOM     10  O   UNL     1     -16.455 -19.663  14.983  1.00  0.00    -0.544 OA
ENDBRANCH   3   8
ENDBRANCH   1   3
BRANCH   1  11
ATOM     11  C   UNL     1     -20.246 -21.412  13.031  1.00  0.00     0.006 C 
ATOM     12  C   UNL     1     -20.792 -22.588  12.220  1.00  0.00     0.004 C 
ENDBRANCH   1  11
TORSDOF 4
ENDMDL
MODEL 4
REMARK VINA RESULT:    -3.860      6.204      7.018
REMARK INTER + INTRA:          -4.759
REMARK INTER:                  -4.732
REMARK INTRA:                  -0.027
REMARK UNBOUND:                -0.109
REMARK SMILES CC[C@@H](C)[C@H]([NH3+])C(=O)[O-]
REMARK SMILES IDX 3 1 4 2 5 3 6 4 7 8 8 9 9 10 2 11 1 12
REMARK H PARENT 6 5 6 6 6 7
REMARK Flexibility Score: inf
ROOT
ATOM      1  C   UNL     1     -19.151 -22.504  12.750  1.00  0.00     0.050 C 
ATOM      2  C   UNL     1     -20.591 -22.521  12.201  1.00  0.00     0.014 C 
ENDROOT
BRANCH   1   3
ATOM      3  C   UNL     1     -18.093 -22.963  11.695  1.00  0.00     0.230 C 
BRANCH   3   4
ATOM      4  N   UNL     1     -17.108 -23.910  12.241  1.00  0.00    -0.350 N 
ATOM      5  H   UNL     1     -17.094 -24.775  11.653  1.00  0.00     0.345 HD
ATOM      6  H   UNL     1     -16.148 -23.499  12.252  1.00  0.00     0.345 HD
ATOM      7  H   UNL     1     -17.377 -24.197  13.209  1.00  0.00     0.345 HD
ENDBRANCH   3   4
BRANCH   3   8
ATOM      8  C   UNL     1     -17.410 -21.775  11.061  1.00  0.00     0.099 C 
ATOM      9  O   UNL     1     -17.962 -21.135  10.127  1.00  0.00    -0.544 OA
ATOM     10  O   UNL     1     -16.136 -21.410  11.477  1.00  0.00    -0.544 OA
ENDBRANCH   3   8
ENDBRANCH   1   3
BRANCH   1  11
ATOM     11  C   UNL     1     -18.856 -21.114  13.367  1.00  0.00     0.006 C 
ATOM     12  C   UNL     1     -18.806 -21.122  14.895  1.00  0.00     0.004 C 
ENDBRANCH   1  11
TORSDOF 4
ENDMDL
MODEL 5
REMARK VINA RESULT:    -3.805      5.519      6.105
REMARK INTER + INTRA:          -4.692
REMARK INTER:                  -4.556
REMARK INTRA:                  -0.136
REMARK UNBOUND:                -0.109
REMARK SMILES CC[C@@H](C)[C@H]([NH3+])C(=O)[O-]
REMARK SMILES IDX 3 1 4 2 5 3 6 4 7 8 8 9 9 10 2 11 1 12
REMARK H PARENT 6 5 6 6 6 7
REMARK Flexibility Score: inf
ROOT
ATOM      1  C   UNL     1     -18.474 -21.468  11.950  1.00  0.00     0.050 C 
ATOM      2  C   UNL     1     -17.425 -20.985  12.971  1.00  0.00     0.014 C 
ENDROOT
BRANCH   1   3
ATOM      3  C   UNL     1     -18.106 -22.843  11.304  1.00  0.00     0.230 C 
BRANCH   3   4
ATOM      4  N   UNL     1     -17.146 -23.618  12.105  1.00  0.00    -0.350 N 
ATOM      5  H   UNL     1     -17.612 -24.483  12.466  1.00  0.00     0.345 HD
ATOM      6  H   UNL     1     -16.315 -23.900  11.539  1.00  0.00     0.345 HD
ATOM      7  H   UNL     1     -16.834 -23.066  12.934  1.00  0.00     0.345 HD
ENDBRANCH   3   4
BRANCH   3   8
ATOM      8  C   UNL     1     -17.609 -22.662   9.889  1.00  0.00     0.099 C 
ATOM      9  O   UNL     1     -17.205 -23.646   9.214  1.00  0.00    -0.544 OA
ATOM     10  O   UNL     1     -17.551 -21.388   9.339  1.00  0.00    -0.544 OA
ENDBRANCH   3   8
ENDBRANCH   1   3
BRANCH   1  11
ATOM     11  C   UNL     1     -19.876 -21.442  12.606  1.00  0.00     0.006 C 
ATOM     12  C   UNL     1     -20.746 -22.645  12.237  1.00  0.00     0.004 C 
ENDBRANCH   1  11
TORSDOF 4
ENDMDL
MODEL 6
REMARK VINA RESULT:    -3.719      1.727      1.818
REMARK INTER + INTRA:          -4.589
REMARK INTER:                  -4.476
REMARK INTRA:                  -0.113
REMARK UNBOUND:                -0.109
REMARK SMILES CC[C@@H](C)[C@H]([NH3+])C(=O)[O-]
REMARK SMILES IDX 3 1 4 2 5 3 6 4 7 8 8 9 9 10 2 11 1 12
REMARK H PARENT 6 5 6 6 6 7
REMARK Flexibility Score: inf
ROOT
ATOM      1  C   UNL     1     -16.366 -22.677   7.376  1.00  0.00     0.050 C 
ATOM      2  C   UNL     1     -16.194 -22.225   8.839  1.00  0.00     0.014 C 
ENDROOT
BRANCH   1   3
ATOM      3  C   UNL     1     -15.005 -22.986   6.671  1.00  0.00     0.230 C 
BRANCH   3   4
ATOM      4  N   UNL     1     -13.839 -22.541   7.450  1.00  0.00    -0.350 N 
ATOM      5  H   UNL     1     -12.994 -23.084   7.153  1.00  0.00     0.345 HD
ATOM      6  H   UNL     1     -13.648 -21.524   7.305  1.00  0.00     0.345 HD
ATOM      7  H   UNL     1     -13.986 -22.729   8.466  1.00  0.00     0.345 HD
ENDBRANCH   3   4
BRANCH   3   8
ATOM      8  C   UNL     1     -14.976 -22.413   5.275  1.00  0.00     0.099 C 
ATOM      9  O   UNL     1     -14.261 -22.932   4.377  1.00  0.00    -0.544 OA
ATOM     10  O   UNL     1     -15.709 -21.269   4.985  1.00  0.00    -0.544 OA
ENDBRANCH   3   8
ENDBRANCH   1   3
BRANCH   1  11
ATOM     11  C   UNL     1     -17.378 -23.848   7.318  1.00  0.00     0.006 C 
ATOM     12  C   UNL     1     -16.768 -25.202   7.684  1.00  0.00     0.004 C 
ENDBRANCH   1  11
TORSDOF 4
ENDMDL
MODEL 7
REMARK VINA RESULT:    -3.702      2.034      2.576
REMARK INTER + INTRA:          -4.568
REMARK INTER:                  -4.479
REMARK INTRA:                  -0.089
REMARK UNBOUND:                -0.109
REMARK SMILES CC[C@@H](C)[C@H]([NH3+])C(=O)[O-]
REMARK SMILES IDX 3 1 4 2 5 3 6 4 7 8 8 9 9 10 2 11 1 12
REMARK H PARENT 6 5 6 6 6 7
REMARK Flexibility Score: inf
ROOT
ATOM      1  C   UNL     1     -16.863 -24.245   8.266  1.00  0.00     0.050 C 
ATOM      2  C   UNL     1     -17.517 -25.612   7.982  1.00  0.00     0.014 C 
ENDROOT
BRANCH   1   3
ATOM      3  C   UNL     1     -15.601 -23.980   7.383  1.00  0.00     0.230 C 
BRANCH   3   4
ATOM      4  N   UNL     1     -14.480 -23.400   8.138  1.00  0.00    -0.350 N 
ATOM      5  H   UNL     1     -14.495 -23.764   9.119  1.00  0.00     0.345 HD
ATOM      6  H   UNL     1     -13.561 -23.646   7.707  1.00  0.00     0.345 HD
ATOM      7  H   UNL     1     -14.575 -22.362   8.191  1.00  0.00     0.345 HD
ENDBRANCH   3   4
BRANCH   3   8
ATOM      8  C   UNL     1     -15.947 -23.128   6.185  1.00  0.00     0.099 C 
ATOM      9  O   UNL     1     -16.510 -23.629   5.176  1.00  0.00    -0.544 OA
ATOM     10  O   UNL     1     -15.600 -21.783   6.174  1.00  0.00    -0.544 OA
ENDBRANCH   3   8
ENDBRANCH   1   3
BRANCH   1  11
ATOM     11  C   UNL     1     -17.937 -23.134   8.170  1.00  0.00     0.006 C 
ATOM     12  C   UNL     1     -17.906 -22.152   9.341  1.00  0.00     0.004 C 
ENDBRANCH   1  11
TORSDOF 4
ENDMDL
MODEL 8
REMARK VINA RESULT:    -3.674      3.841      4.582
REMARK INTER + INTRA:          -4.534
REMARK INTER:                  -4.394
REMARK INTRA:                  -0.140
REMARK UNBOUND:                -0.109
REMARK SMILES CC[C@@H](C)[C@H]([NH3+])C(=O)[O-]
REMARK SMILES IDX 3 1 4 2 5 3 6 4 7 8 8 9 9 10 2 11 1 12
REMARK H PARENT 6 5 6 6 6 7
REMARK Flexibility Score: inf
ROOT
ATOM      1  C   UNL     1     -16.586 -23.114   8.299  1.00  0.00     0.050 C 
ATOM      2  C   UNL     1     -16.174 -21.947   7.381  1.00  0.00     0.014 C 
ENDROOT
BRANCH   1   3
ATOM      3  C   UNL     1     -18.007 -22.924   8.923  1.00  0.00     0.230 C 
BRANCH   3   4
ATOM      4  N   UNL     1     -18.827 -21.939   8.201  1.00  0.00    -0.350 N 
ATOM      5  H   UNL     1     -19.599 -22.432   7.695  1.00  0.00     0.345 HD
ATOM      6  H   UNL     1     -19.249 -21.242   8.854  1.00  0.00     0.345 HD
ATOM      7  H   UNL     1     -18.253 -21.443   7.483  1.00  0.00     0.345 HD
ENDBRANCH   3   4
BRANCH   3   8
ATOM      8  C   UNL     1     -17.912 -22.581  10.390  1.00  0.00     0.099 C 
ATOM      9  O   UNL     1     -16.803 -22.591  10.987  1.00  0.00    -0.544 OA
ATOM     10  O   UNL     1     -19.068 -22.296  11.106  1.00  0.00    -0.544 OA
ENDBRANCH   3   8
ENDBRANCH   1   3
BRANCH   1  11
ATOM     11  C   UNL     1     -16.413 -24.451   7.535  1.00  0.00     0.006 C 
ATOM     12  C   UNL     1     -17.346 -25.559   8.025  1.00  0.00     0.004 C 
ENDBRANCH   1  11
TORSDOF 4
ENDMDL
MODEL 9
REMARK VINA RESULT:    -3.638      7.013      7.684
REMARK INTER + INTRA:          -4.491
REMARK INTER:                  -4.406
REMARK INTRA:                  -0.085
REMARK UNBOUND:                -0.109
REMARK SMILES CC[C@@H](C)[C@H]([NH3+])C(=O)[O-]
REMARK SMILES IDX 3 1 4 2 5 3 6 4 7 8 8 9 9 10 2 11 1 12
REMARK H PARENT 6 5 6 6 6 7
REMARK Flexibility Score: inf
ROOT
ATOM      1  C   UNL     1     -19.276 -20.875  13.547  1.00  0.00     0.050 C 
ATOM      2  C   UNL     1     -18.691 -21.061  14.960  1.00  0.00     0.014 C 
ENDROOT
BRANCH   1   3
ATOM      3  C   UNL     1     -18.539 -19.769  12.724  1.00  0.00     0.230 C 
BRANCH   3   4
ATOM      4  N   UNL     1     -19.459 -18.895  11.979  1.00  0.00    -0.350 N 
ATOM      5  H   UNL     1     -20.406 -18.927  12.423  1.00  0.00     0.345 HD
ATOM      6  H   UNL     1     -19.126 -17.905  11.974  1.00  0.00     0.345 HD
ATOM      7  H   UNL     1     -19.566 -19.233  10.997  1.00  0.00     0.345 HD
ENDBRANCH   3   4
BRANCH   3   8
ATOM      8  C   UNL     1     -17.504 -20.375  11.807  1.00  0.00     0.099 C 
ATOM      9  O   UNL     1     -16.368 -20.704  12.242  1.00  0.00    -0.544 OA
ATOM     10  O   UNL     1     -17.788 -20.531  10.457  1.00  0.00    -0.544 OA
ENDBRANCH   3   8
ENDBRANCH   1   3
BRANCH   1  11
ATOM     11  C   UNL     1     -19.336 -22.248  12.833  1.00  0.00     0.006 C 
ATOM     12  C   UNL     1     -20.697 -22.550  12.204  1.00  0.00     0.004 C 
ENDBRANCH   1  11
TORSDOF 4
ENDMDL
