MODEL 1
REMARK VINA RESULT:    -3.203      0.000      0.000
REMARK INTER + INTRA:          -5.509
REMARK INTER:                  -4.888
REMARK INTRA:                  -0.622
REMARK UNBOUND:                -0.622
REMARK SMILES CC1=CCC[C@@H](C)C(=O)C[C@@H](C(C)C)C(=O)C1
REMARK SMILES IDX 8 1 9 2 6 3 7 4 5 5 4 6 3 7 2 8 1 9 10 11 11 12 15 13 16 14
REMARK SMILES IDX 17 15 12 17 13 18 14 19
REMARK H PARENT
REMARK Flexibility Score: 70.00
ROOT
ATOM      1  C   UNL     1       7.048  27.238  17.063  1.00  0.00     0.136 C 
ATOM      2  O   UNL     1       7.220  26.428  17.963  1.00  0.00    -0.299 OA
ENDROOT
BRANCH   1   3
ATOM      3  C   UNL     1       6.401  26.791  15.773  1.00  0.00     0.053 C 
ATOM      4  C   UNL     1       5.065  26.095  16.047  1.00  0.00     0.016 C 
BRANCH   3   5
ATOM      5  C   UNL     1       7.374  25.864  15.003  1.00  0.00     0.015 C 
BRANCH   5   6
ATOM      6  C   UNL     1       8.291  26.550  13.969  1.00  0.00     0.028 C 
BRANCH   6   7
ATOM      7  C   UNL     1       9.722  26.826  14.382  1.00  0.00    -0.028 C 
ATOM      8  C   UNL     1      10.284  28.036  14.620  1.00  0.00    -0.070 CG0
ATOM      9  C   UNL     1      11.689  28.052  15.173  1.00  0.00     0.039 C 
ATOM     10  G   UNL     1       9.609  29.368  14.333  1.00  0.00     0.000 G0
ENDBRANCH   6   7
ENDBRANCH   5   6
ENDBRANCH   3   5
ENDBRANCH   1   3
BRANCH   1  11
ATOM     11  C   UNL     1       7.496  28.667  17.255  1.00  0.00     0.087 C 
BRANCH  11  12
ATOM     12  C   UNL     1       7.462  29.543  15.970  1.00  0.00     0.066 C 
BRANCH  12  13
ATOM     13  C   UNL     1       8.880  29.931  15.544  1.00  0.00     0.140 C 
ATOM     14  O   UNL     1       9.476  30.724  16.259  1.00  0.00    -0.299 OA
BRANCH  13  15
ATOM     15  C   UNL     1       9.617  29.377  14.331  1.00  0.00     0.106 CG0
ATOM     16  G   UNL     1      10.263  28.033  14.632  1.00  0.00     0.000 G0
ENDBRANCH  13  15
ENDBRANCH  12  13
BRANCH  12  17
ATOM     17  C   UNL     1       6.411  30.703  15.984  1.00  0.00    -0.006 C 
ATOM     18  C   UNL     1       5.217  30.387  15.063  1.00  0.00     0.008 C 
ATOM     19  C   UNL     1       5.863  30.962  17.400  1.00  0.00     0.008 C 
ENDBRANCH  12  17
ENDBRANCH  11  12
ENDBRANCH   1  11
TORSDOF 1
ENDMDL
MODEL 2
REMARK VINA RESULT:    -3.035      5.213      7.553
REMARK INTER + INTRA:          -5.254
REMARK INTER:                  -4.830
REMARK INTRA:                  -0.424
REMARK UNBOUND:                -0.622
REMARK SMILES CC1=CCC[C@@H](C)C(=O)C[C@@H](C(C)C)C(=O)C1
REMARK SMILES IDX 8 1 9 2 6 3 7 4 5 5 4 6 3 7 2 8 1 9 10 11 11 12 15 13 16 14
REMARK SMILES IDX 17 15 12 17 13 18 14 19
REMARK H PARENT
REMARK Flexibility Score: 70.00
ROOT
ATOM      1  C   UNL     1      15.159  24.500  14.900  1.00  0.00     0.136 C 
ATOM      2  O   UNL     1      15.135  23.295  14.695  1.00  0.00    -0.299 OA
ENDROOT
BRANCH   1   3
ATOM      3  C   UNL     1      16.281  25.332  14.323  1.00  0.00     0.053 C 
ATOM      4  C   UNL     1      17.383  24.436  13.750  1.00  0.00     0.016 C 
BRANCH   3   5
ATOM      5  C   UNL     1      16.834  26.279  15.416  1.00  0.00     0.015 C 
BRANCH   5   6
ATOM      6  C   UNL     1      16.655  27.790  15.161  1.00  0.00     0.028 C 
BRANCH   6   7
ATOM      7  C   UNL     1      15.731  28.202  14.035  1.00  0.00    -0.028 C 
ATOM      8  C   UNL     1      14.392  28.395  14.106  1.00  0.00    -0.070 CG0
ATOM      9  C   UNL     1      13.706  28.957  12.884  1.00  0.00     0.039 C 
ATOM     10  G   UNL     1      13.537  28.050  15.316  1.00  0.00     0.000 G0
ENDBRANCH   6   7
ENDBRANCH   5   6
ENDBRANCH   3   5
ENDBRANCH   1   3
BRANCH   1  11
ATOM     11  C   UNL     1      14.072  25.132  15.735  1.00  0.00     0.087 C 
BRANCH  11  12
ATOM     12  C   UNL     1      12.769  25.483  14.959  1.00  0.00     0.066 C 
BRANCH  12  13
ATOM     13  C   UNL     1      12.491  26.986  15.023  1.00  0.00     0.140 C 
ATOM     14  O   UNL     1      11.335  27.343  14.846  1.00  0.00    -0.299 OA
BRANCH  13  15
ATOM     15  C   UNL     1      13.526  28.061  15.330  1.00  0.00     0.106 CG0
ATOM     16  G   UNL     1      14.385  28.375  14.114  1.00  0.00     0.000 G0
ENDBRANCH  13  15
ENDBRANCH  12  13
BRANCH  12  17
ATOM     17  C   UNL     1      11.549  24.547  15.253  1.00  0.00    -0.006 C 
ATOM     18  C   UNL     1      11.412  23.451  14.179  1.00  0.00     0.008 C 
ATOM     19  C   UNL     1      11.674  23.857  16.624  1.00  0.00     0.008 C 
ENDBRANCH  12  17
ENDBRANCH  11  12
ENDBRANCH   1  11
TORSDOF 1
ENDMDL
MODEL 3
REMARK VINA RESULT:    -2.968      2.547      5.225
REMARK INTER + INTRA:          -5.151
REMARK INTER:                  -4.761
REMARK INTRA:                  -0.389
REMARK UNBOUND:                -0.622
REMARK SMILES CC1=CCC[C@@H](C)C(=O)C[C@@H](C(C)C)C(=O)C1
REMARK SMILES IDX 8 1 9 2 6 3 7 4 5 5 4 6 3 7 2 8 1 9 10 11 11 12 15 13 16 14
REMARK SMILES IDX 17 15 12 17 13 18 14 19
REMARK H PARENT
REMARK Flexibility Score: 70.00
ROOT
ATOM      1  C   UNL     1       7.528  27.013  16.060  1.00  0.00     0.136 C 
ATOM      2  O   UNL     1       8.266  26.072  15.802  1.00  0.00    -0.299 OA
ENDROOT
BRANCH   1   3
ATOM      3  C   UNL     1       7.915  28.405  15.620  1.00  0.00     0.053 C 
ATOM      4  C   UNL     1       8.971  28.352  14.512  1.00  0.00     0.016 C 
BRANCH   3   5
ATOM      5  C   UNL     1       8.418  29.211  16.844  1.00  0.00     0.015 C 
BRANCH   5   6
ATOM      6  C   UNL     1       7.511  30.364  17.319  1.00  0.00     0.028 C 
BRANCH   6   7
ATOM      7  C   UNL     1       6.364  30.766  16.416  1.00  0.00    -0.028 C 
ATOM      8  C   UNL     1       5.076  30.355  16.499  1.00  0.00    -0.070 CG0
ATOM      9  C   UNL     1       4.076  31.014  15.580  1.00  0.00     0.039 C 
ATOM     10  G   UNL     1       4.584  29.253  17.425  1.00  0.00     0.000 G0
ENDBRANCH   6   7
ENDBRANCH   5   6
ENDBRANCH   3   5
ENDBRANCH   1   3
BRANCH   1  11
ATOM     11  C   UNL     1       6.249  26.764  16.824  1.00  0.00     0.087 C 
BRANCH  11  12
ATOM     12  C   UNL     1       4.945  26.958  15.998  1.00  0.00     0.066 C 
BRANCH  12  13
ATOM     13  C   UNL     1       4.065  28.041  16.626  1.00  0.00     0.140 C 
ATOM     14  O   UNL     1       2.855  27.904  16.516  1.00  0.00    -0.299 OA
BRANCH  13  15
ATOM     15  C   UNL     1       4.575  29.246  17.407  1.00  0.00     0.106 CG0
ATOM     16  G   UNL     1       5.072  30.345  16.480  1.00  0.00     0.000 G0
ENDBRANCH  13  15
ENDBRANCH  12  13
BRANCH  12  17
ATOM     17  C   UNL     1       4.215  25.635  15.589  1.00  0.00    -0.006 C 
ATOM     18  C   UNL     1       4.969  24.905  14.461  1.00  0.00     0.008 C 
ATOM     19  C   UNL     1       4.081  24.664  16.777  1.00  0.00     0.008 C 
ENDBRANCH  12  17
ENDBRANCH  11  12
ENDBRANCH   1  11
TORSDOF 1
ENDMDL
MODEL 4
REMARK VINA RESULT:    -2.869      2.066      2.645
REMARK INTER + INTRA:          -5.001
REMARK INTER:                  -4.552
REMARK INTRA:                  -0.449
REMARK UNBOUND:                -0.622
REMARK SMILES CC1=CCC[C@@H](C)C(=O)C[C@@H](C(C)C)C(=O)C1
REMARK SMILES IDX 8 1 9 2 6 3 7 4 5 5 4 6 3 7 2 8 1 9 10 11 11 12 15 13 16 14
REMARK SMILES IDX 17 15 12 17 13 18 14 19
REMARK H PARENT
REMARK Flexibility Score: 70.00
ROOT
ATOM      1  C   UNL     1       4.472  27.319  15.974  1.00  0.00     0.136 C 
ATOM      2  O   UNL     1       3.473  27.199  15.280  1.00  0.00    -0.299 OA
ENDROOT
BRANCH   1   3
ATOM      3  C   UNL     1       5.557  26.269  15.907  1.00  0.00     0.053 C 
ATOM      4  C   UNL     1       6.230  26.093  17.272  1.00  0.00     0.016 C 
BRANCH   3   5
ATOM      5  C   UNL     1       6.584  26.660  14.816  1.00  0.00     0.015 C 
BRANCH   5   6
ATOM      6  C   UNL     1       8.046  26.819  15.284  1.00  0.00     0.028 C 
BRANCH   6   7
ATOM      7  C   UNL     1       8.679  28.187  15.140  1.00  0.00    -0.028 C 
ATOM      8  C   UNL     1       8.664  29.194  16.047  1.00  0.00    -0.070 CG0
ATOM      9  C   UNL     1       9.499  30.414  15.743  1.00  0.00     0.039 C 
ATOM     10  G   UNL     1       7.837  29.188  17.323  1.00  0.00     0.000 G0
ENDBRANCH   6   7
ENDBRANCH   5   6
ENDBRANCH   3   5
ENDBRANCH   1   3
BRANCH   1  11
ATOM     11  C   UNL     1       4.598  28.510  16.893  1.00  0.00     0.087 C 
BRANCH  11  12
ATOM     12  C   UNL     1       5.381  29.717  16.299  1.00  0.00     0.066 C 
BRANCH  12  13
ATOM     13  C   UNL     1       6.584  30.065  17.178  1.00  0.00     0.140 C 
ATOM     14  O   UNL     1       6.511  31.094  17.834  1.00  0.00    -0.299 OA
BRANCH  13  15
ATOM     15  C   UNL     1       7.838  29.214  17.330  1.00  0.00     0.106 CG0
ATOM     16  G   UNL     1       8.668  29.205  16.055  1.00  0.00     0.000 G0
ENDBRANCH  13  15
ENDBRANCH  12  13
BRANCH  12  17
ATOM     17  C   UNL     1       4.494  30.924  15.843  1.00  0.00    -0.006 C 
ATOM     18  C   UNL     1       4.131  30.819  14.349  1.00  0.00     0.008 C 
ATOM     19  C   UNL     1       3.183  31.007  16.646  1.00  0.00     0.008 C 
ENDBRANCH  12  17
ENDBRANCH  11  12
ENDBRANCH   1  11
TORSDOF 1
ENDMDL
MODEL 5
REMARK VINA RESULT:    -2.725      2.127      4.527
REMARK INTER + INTRA:          -4.780
REMARK INTER:                  -4.516
REMARK INTRA:                  -0.264
REMARK UNBOUND:                -0.622
REMARK SMILES CC1=CCC[C@@H](C)C(=O)C[C@@H](C(C)C)C(=O)C1
REMARK SMILES IDX 8 1 9 2 6 3 7 4 5 5 4 6 3 7 2 8 1 9 10 11 11 12 15 13 16 14
REMARK SMILES IDX 17 15 12 17 13 18 14 19
REMARK H PARENT
REMARK Flexibility Score: 70.00
ROOT
ATOM      1  C   UNL     1       4.008  29.331  16.164  1.00  0.00     0.136 C 
ATOM      2  O   UNL     1       3.250  28.972  17.054  1.00  0.00    -0.299 OA
ENDROOT
BRANCH   1   3
ATOM      3  C   UNL     1       4.435  30.778  16.088  1.00  0.00     0.053 C 
ATOM      4  C   UNL     1       5.077  31.086  14.732  1.00  0.00     0.016 C 
BRANCH   3   5
ATOM      5  C   UNL     1       5.403  31.091  17.256  1.00  0.00     0.015 C 
BRANCH   5   6
ATOM      6  C   UNL     1       6.360  29.954  17.670  1.00  0.00     0.028 C 
BRANCH   6   7
ATOM      7  C   UNL     1       7.658  29.822  16.902  1.00  0.00    -0.028 C 
ATOM      8  C   UNL     1       8.171  28.695  16.351  1.00  0.00    -0.070 CG0
ATOM      9  C   UNL     1       9.407  28.840  15.497  1.00  0.00     0.039 C 
ATOM     10  G   UNL     1       7.607  27.299  16.569  1.00  0.00     0.000 G0
ENDBRANCH   6   7
ENDBRANCH   5   6
ENDBRANCH   3   5
ENDBRANCH   1   3
BRANCH   1  11
ATOM     11  C   UNL     1       4.494  28.321  15.152  1.00  0.00     0.087 C 
BRANCH  11  12
ATOM     12  C   UNL     1       5.050  27.001  15.759  1.00  0.00     0.066 C 
BRANCH  12  13
ATOM     13  C   UNL     1       6.562  26.901  15.540  1.00  0.00     0.140 C 
ATOM     14  O   UNL     1       6.937  26.518  14.441  1.00  0.00    -0.299 OA
BRANCH  13  15
ATOM     15  C   UNL     1       7.626  27.279  16.562  1.00  0.00     0.106 CG0
ATOM     16  G   UNL     1       8.160  28.683  16.323  1.00  0.00     0.000 G0
ENDBRANCH  13  15
ENDBRANCH  12  13
BRANCH  12  17
ATOM     17  C   UNL     1       4.223  25.715  15.423  1.00  0.00    -0.006 C 
ATOM     18  C   UNL     1       3.841  24.944  16.701  1.00  0.00     0.008 C 
ATOM     19  C   UNL     1       2.925  26.052  14.665  1.00  0.00     0.008 C 
ENDBRANCH  12  17
ENDBRANCH  11  12
ENDBRANCH   1  11
TORSDOF 1
ENDMDL
MODEL 6
REMARK VINA RESULT:    -2.663      2.482      3.388
REMARK INTER + INTRA:          -4.686
REMARK INTER:                  -4.260
REMARK INTRA:                  -0.425
REMARK UNBOUND:                -0.622
REMARK SMILES CC1=CCC[C@@H](C)C(=O)C[C@@H](C(C)C)C(=O)C1
REMARK SMILES IDX 8 1 9 2 6 3 7 4 5 5 4 6 3 7 2 8 1 9 10 11 11 12 15 13 16 14
REMARK SMILES IDX 17 15 12 17 13 18 14 19
REMARK H PARENT
REMARK Flexibility Score: 70.00
ROOT
ATOM      1  C   UNL     1       3.492  26.980  15.195  1.00  0.00     0.136 C 
ATOM      2  O   UNL     1       2.929  27.346  14.173  1.00  0.00    -0.299 OA
ENDROOT
BRANCH   1   3
ATOM      3  C   UNL     1       4.041  25.576  15.281  1.00  0.00     0.053 C 
ATOM      4  C   UNL     1       4.205  25.143  16.741  1.00  0.00     0.016 C 
BRANCH   3   5
ATOM      5  C   UNL     1       5.385  25.500  14.514  1.00  0.00     0.015 C 
BRANCH   5   6
ATOM      6  C   UNL     1       6.663  25.586  15.373  1.00  0.00     0.028 C 
BRANCH   6   7
ATOM      7  C   UNL     1       7.515  26.830  15.233  1.00  0.00    -0.028 C 
ATOM      8  C   UNL     1       7.644  27.838  16.129  1.00  0.00    -0.070 CG0
ATOM      9  C   UNL     1       8.675  28.901  15.836  1.00  0.00     0.039 C 
ATOM     10  G   UNL     1       6.796  27.985  17.384  1.00  0.00     0.000 G0
ENDBRANCH   6   7
ENDBRANCH   5   6
ENDBRANCH   3   5
ENDBRANCH   1   3
BRANCH   1  11
ATOM     11  C   UNL     1       3.620  27.938  16.355  1.00  0.00     0.087 C 
BRANCH  11  12
ATOM     12  C   UNL     1       4.661  29.077  16.153  1.00  0.00     0.066 C 
BRANCH  12  13
ATOM     13  C   UNL     1       5.723  29.039  17.255  1.00  0.00     0.140 C 
ATOM     14  O   UNL     1       5.667  29.915  18.107  1.00  0.00    -0.299 OA
BRANCH  13  15
ATOM     15  C   UNL     1       6.808  27.979  17.395  1.00  0.00     0.106 CG0
ATOM     16  G   UNL     1       7.635  27.852  16.125  1.00  0.00     0.000 G0
ENDBRANCH  13  15
ENDBRANCH  12  13
BRANCH  12  17
ATOM     17  C   UNL     1       4.053  30.485  15.837  1.00  0.00    -0.006 C 
ATOM     18  C   UNL     1       4.076  30.777  14.324  1.00  0.00     0.008 C 
ATOM     19  C   UNL     1       2.596  30.601  16.321  1.00  0.00     0.008 C 
ENDBRANCH  12  17
ENDBRANCH  11  12
ENDBRANCH   1  11
TORSDOF 1
ENDMDL
MODEL 7
REMARK VINA RESULT:    -2.630      3.401      5.093
REMARK INTER + INTRA:          -4.635
REMARK INTER:                  -4.597
REMARK INTRA:                  -0.038
REMARK UNBOUND:                -0.622
REMARK SMILES CC1=CCC[C@@H](C)C(=O)C[C@@H](C(C)C)C(=O)C1
REMARK SMILES IDX 8 1 9 2 6 3 7 4 5 5 4 6 3 7 2 8 1 9 10 11 11 12 15 13 16 14
REMARK SMILES IDX 17 15 12 17 13 18 14 19
REMARK H PARENT
REMARK Flexibility Score: 70.00
ROOT
ATOM      1  C   UNL     1       4.630  27.655  16.612  1.00  0.00     0.136 C 
ATOM      2  O   UNL     1       4.356  26.508  16.289  1.00  0.00    -0.299 OA
ENDROOT
BRANCH   1   3
ATOM      3  C   UNL     1       6.077  28.062  16.760  1.00  0.00     0.053 C 
ATOM      4  C   UNL     1       6.925  26.886  17.254  1.00  0.00     0.016 C 
BRANCH   3   5
ATOM      5  C   UNL     1       6.175  29.273  17.722  1.00  0.00     0.015 C 
BRANCH   5   6
ATOM      6  C   UNL     1       6.420  30.646  17.063  1.00  0.00     0.028 C 
BRANCH   6   7
ATOM      7  C   UNL     1       6.505  30.689  15.552  1.00  0.00    -0.028 C 
ATOM      8  C   UNL     1       5.503  30.975  14.685  1.00  0.00    -0.070 CG0
ATOM      9  C   UNL     1       5.864  31.110  13.226  1.00  0.00     0.039 C 
ATOM     10  G   UNL     1       4.042  31.129  15.082  1.00  0.00     0.000 G0
ENDBRANCH   6   7
ENDBRANCH   5   6
ENDBRANCH   3   5
ENDBRANCH   1   3
BRANCH   1  11
ATOM     11  C   UNL     1       3.514  28.640  16.867  1.00  0.00     0.087 C 
BRANCH  11  12
ATOM     12  C   UNL     1       2.576  28.897  15.652  1.00  0.00     0.066 C 
BRANCH  12  13
ATOM     13  C   UNL     1       3.214  29.891  14.679  1.00  0.00     0.140 C 
ATOM     14  O   UNL     1       3.015  29.703  13.487  1.00  0.00    -0.299 OA
BRANCH  13  15
ATOM     15  C   UNL     1       4.037  31.109  15.078  1.00  0.00     0.106 CG0
ATOM     16  G   UNL     1       5.492  30.966  14.658  1.00  0.00     0.000 G0
ENDBRANCH  13  15
ENDBRANCH  12  13
BRANCH  12  17
ATOM     17  C   UNL     1       1.076  29.161  16.014  1.00  0.00    -0.006 C 
ATOM     18  C   UNL     1       0.434  27.925  16.673  1.00  0.00     0.008 C 
ATOM     19  C   UNL     1       0.921  30.349  16.982  1.00  0.00     0.008 C 
ENDBRANCH  12  17
ENDBRANCH  11  12
ENDBRANCH   1  11
TORSDOF 1
ENDMDL
MODEL 8
REMARK VINA RESULT:    -2.618      3.619      6.225
REMARK INTER + INTRA:          -4.618
REMARK INTER:                  -4.432
REMARK INTRA:                  -0.186
REMARK UNBOUND:                -0.622
REMARK SMILES CC1=CCC[C@@H](C)C(=O)C[C@@H](C(C)C)C(=O)C1
REMARK SMILES IDX 8 1 9 2 6 3 7 4 5 5 4 6 3 7 2 8 1 9 10 11 11 12 15 13 16 14
REMARK SMILES IDX 17 15 12 17 13 18 14 19
REMARK H PARENT
REMARK Flexibility Score: 70.00
ROOT
ATOM      1  C   UNL     1      13.103  25.860  15.702  1.00  0.00     0.136 C 
ATOM      2  O   UNL     1      13.735  26.208  16.689  1.00  0.00    -0.299 OA
ENDROOT
BRANCH   1   3
ATOM      3  C   UNL     1      11.833  25.061  15.874  1.00  0.00     0.053 C 
ATOM      4  C   UNL     1      12.147  23.632  16.329  1.00  0.00     0.016 C 
BRANCH   3   5
ATOM      5  C   UNL     1      11.035  25.069  14.547  1.00  0.00     0.015 C 
BRANCH   5   6
ATOM      6  C   UNL     1       9.792  25.981  14.506  1.00  0.00     0.028 C 
BRANCH   6   7
ATOM      7  C   UNL     1       9.976  27.429  14.910  1.00  0.00    -0.028 C 
ATOM      8  C   UNL     1      10.708  28.370  14.265  1.00  0.00    -0.070 CG0
ATOM      9  C   UNL     1      10.615  29.789  14.772  1.00  0.00     0.039 C 
ATOM     10  G   UNL     1      11.637  28.083  13.096  1.00  0.00     0.000 G0
ENDBRANCH   6   7
ENDBRANCH   5   6
ENDBRANCH   3   5
ENDBRANCH   1   3
BRANCH   1  11
ATOM     11  C   UNL     1      13.612  26.227  14.328  1.00  0.00     0.087 C 
BRANCH  11  12
ATOM     12  C   UNL     1      14.099  27.698  14.182  1.00  0.00     0.066 C 
BRANCH  12  13
ATOM     13  C   UNL     1      13.082  28.527  13.393  1.00  0.00     0.140 C 
ATOM     14  O   UNL     1      13.468  29.597  12.946  1.00  0.00    -0.299 OA
BRANCH  13  15
ATOM     15  C   UNL     1      11.650  28.106  13.088  1.00  0.00     0.106 CG0
ATOM     16  G   UNL     1      10.726  28.364  14.269  1.00  0.00     0.000 G0
ENDBRANCH  13  15
ENDBRANCH  12  13
BRANCH  12  17
ATOM     17  C   UNL     1      15.595  27.863  13.753  1.00  0.00    -0.006 C 
ATOM     18  C   UNL     1      16.433  28.497  14.880  1.00  0.00     0.008 C 
ATOM     19  C   UNL     1      16.238  26.512  13.387  1.00  0.00     0.008 C 
ENDBRANCH  12  17
ENDBRANCH  11  12
ENDBRANCH   1  11
TORSDOF 1
ENDMDL
MODEL 9
REMARK VINA RESULT:    -2.526      2.792      4.710
REMARK INTER + INTRA:          -4.477
REMARK INTER:                  -4.115
REMARK INTRA:                  -0.362
REMARK UNBOUND:                -0.622
REMARK SMILES CC1=CCC[C@@H](C)C(=O)C[C@@H](C(C)C)C(=O)C1
REMARK SMILES IDX 8 1 9 2 6 3 7 4 5 5 4 6 3 7 2 8 1 9 10 11 11 12 15 13 16 14
REMARK SMILES IDX 17 15 12 17 13 18 14 19
REMARK H PARENT
REMARK Flexibility Score: 70.00
ROOT
ATOM      1  C   UNL     1       6.618  26.793  16.634  1.00  0.00     0.136 C 
ATOM      2  O   UNL     1       7.126  26.856  17.744  1.00  0.00    -0.299 OA
ENDROOT
BRANCH   1   3
ATOM      3  C   UNL     1       5.818  25.570  16.249  1.00  0.00     0.053 C 
ATOM      4  C   UNL     1       6.052  25.207  14.779  1.00  0.00     0.016 C 
BRANCH   3   5
ATOM      5  C   UNL     1       4.318  25.826  16.536  1.00  0.00     0.015 C 
BRANCH   5   6
ATOM      6  C   UNL     1       3.417  26.044  15.303  1.00  0.00     0.028 C 
BRANCH   6   7
ATOM      7  C   UNL     1       2.603  27.320  15.252  1.00  0.00    -0.028 C 
ATOM      8  C   UNL     1       2.961  28.496  14.682  1.00  0.00    -0.070 CG0
ATOM      9  C   UNL     1       1.916  29.584  14.620  1.00  0.00     0.039 C 
ATOM     10  G   UNL     1       4.349  28.799  14.138  1.00  0.00     0.000 G0
ENDBRANCH   6   7
ENDBRANCH   5   6
ENDBRANCH   3   5
ENDBRANCH   1   3
BRANCH   1  11
ATOM     11  C   UNL     1       6.810  27.935  15.665  1.00  0.00     0.087 C 
BRANCH  11  12
ATOM     12  C   UNL     1       6.165  29.281  16.103  1.00  0.00     0.066 C 
BRANCH  12  13
ATOM     13  C   UNL     1       5.123  29.739  15.080  1.00  0.00     0.140 C 
ATOM     14  O   UNL     1       4.923  30.943  14.995  1.00  0.00    -0.299 OA
BRANCH  13  15
ATOM     15  C   UNL     1       4.354  28.823  14.137  1.00  0.00     0.106 CG0
ATOM     16  G   UNL     1       2.962  28.514  14.668  1.00  0.00     0.000 G0
ENDBRANCH  13  15
ENDBRANCH  12  13
BRANCH  12  17
ATOM     17  C   UNL     1       7.175  30.375  16.588  1.00  0.00    -0.006 C 
ATOM     18  C   UNL     1       6.869  30.819  18.031  1.00  0.00     0.008 C 
ATOM     19  C   UNL     1       8.629  29.870  16.545  1.00  0.00     0.008 C 
ENDBRANCH  12  17
ENDBRANCH  11  12
ENDBRANCH   1  11
TORSDOF 1
ENDMDL
