MODEL 1
REMARK VINA RESULT:    -4.082      0.000      0.000
REMARK INTER + INTRA:          -5.441
REMARK INTER:                  -5.275
REMARK INTRA:                  -0.166
REMARK UNBOUND:                -0.166
REMARK SMILES CCCCCCC(=O)[O-]
REMARK SMILES IDX 5 1 6 2 7 3 8 4 9 5 4 6 3 7 2 8 1 9
REMARK H PARENT
REMARK Flexibility Score: inf
ROOT
ATOM      1  C   UNL     1     -31.474 -21.247 -23.122  1.00  0.00     0.006 C 
ENDROOT
BRANCH   1   2
ATOM      2  C   UNL     1     -30.971 -22.269 -22.089  1.00  0.00     0.053 C 
BRANCH   2   3
ATOM      3  C   UNL     1     -29.650 -21.872 -21.506  1.00  0.00     0.041 C 
ATOM      4  O   UNL     1     -29.600 -21.059 -20.545  1.00  0.00    -0.550 OA
ATOM      5  O   UNL     1     -28.477 -22.425 -22.002  1.00  0.00    -0.550 OA
ENDBRANCH   2   3
ENDBRANCH   1   2
BRANCH   1   6
ATOM      6  C   UNL     1     -30.647 -21.204 -24.420  1.00  0.00     0.000 C 
BRANCH   6   7
ATOM      7  C   UNL     1     -31.040 -20.031 -25.335  1.00  0.00    -0.000 C 
BRANCH   7   8
ATOM      8  C   UNL     1     -30.993 -20.406 -26.824  1.00  0.00    -0.003 C 
ATOM      9  C   UNL     1     -30.962 -21.918 -27.051  1.00  0.00     0.004 C 
ENDBRANCH   7   8
ENDBRANCH   6   7
ENDBRANCH   1   6
TORSDOF 5
ENDMDL
MODEL 2
REMARK VINA RESULT:    -4.068      0.880      1.288
REMARK INTER + INTRA:          -5.424
REMARK INTER:                  -5.258
REMARK INTRA:                  -0.165
REMARK UNBOUND:                -0.166
REMARK SMILES CCCCCCC(=O)[O-]
REMARK SMILES IDX 5 1 6 2 7 3 8 4 9 5 4 6 3 7 2 8 1 9
REMARK H PARENT
REMARK Flexibility Score: inf
ROOT
ATOM      1  C   UNL     1     -31.648 -21.248 -21.753  1.00  0.00     0.006 C 
ENDROOT
BRANCH   1   2
ATOM      2  C   UNL     1     -30.611 -22.383 -21.741  1.00  0.00     0.053 C 
BRANCH   2   3
ATOM      3  C   UNL     1     -29.485 -22.103 -20.795  1.00  0.00     0.041 C 
ATOM      4  O   UNL     1     -29.333 -20.949 -20.314  1.00  0.00    -0.550 OA
ATOM      5  O   UNL     1     -28.624 -23.125 -20.417  1.00  0.00    -0.550 OA
ENDBRANCH   2   3
ENDBRANCH   1   2
BRANCH   1   6
ATOM      6  C   UNL     1     -31.998 -20.729 -23.160  1.00  0.00     0.000 C 
BRANCH   6   7
ATOM      7  C   UNL     1     -31.021 -21.228 -24.238  1.00  0.00    -0.000 C 
BRANCH   7   8
ATOM      8  C   UNL     1     -30.981 -20.307 -25.467  1.00  0.00    -0.003 C 
ATOM      9  C   UNL     1     -30.674 -21.063 -26.760  1.00  0.00     0.004 C 
ENDBRANCH   7   8
ENDBRANCH   6   7
ENDBRANCH   1   6
TORSDOF 5
ENDMDL
MODEL 3
REMARK VINA RESULT:    -4.062      0.794      1.537
REMARK INTER + INTRA:          -5.416
REMARK INTER:                  -5.255
REMARK INTRA:                  -0.161
REMARK UNBOUND:                -0.166
REMARK SMILES CCCCCCC(=O)[O-]
REMARK SMILES IDX 5 1 6 2 7 3 8 4 9 5 4 6 3 7 2 8 1 9
REMARK H PARENT
REMARK Flexibility Score: inf
ROOT
ATOM      1  C   UNL     1     -31.641 -21.255 -21.847  1.00  0.00     0.006 C 
ENDROOT
BRANCH   1   2
ATOM      2  C   UNL     1     -30.607 -22.392 -21.887  1.00  0.00     0.053 C 
BRANCH   2   3
ATOM      3  C   UNL     1     -29.467 -22.146 -20.948  1.00  0.00     0.041 C 
ATOM      4  O   UNL     1     -28.570 -23.017 -20.797  1.00  0.00    -0.550 OA
ATOM      5  O   UNL     1     -29.378 -20.941 -20.263  1.00  0.00    -0.550 OA
ENDBRANCH   2   3
ENDBRANCH   1   2
BRANCH   1   6
ATOM      6  C   UNL     1     -31.973 -20.656 -23.226  1.00  0.00     0.000 C 
BRANCH   6   7
ATOM      7  C   UNL     1     -31.074 -21.207 -24.346  1.00  0.00    -0.000 C 
BRANCH   7   8
ATOM      8  C   UNL     1     -31.127 -20.349 -25.619  1.00  0.00    -0.003 C 
ATOM      9  C   UNL     1     -30.757 -21.135 -26.876  1.00  0.00     0.004 C 
ENDBRANCH   7   8
ENDBRANCH   6   7
ENDBRANCH   1   6
TORSDOF 5
ENDMDL
MODEL 4
REMARK VINA RESULT:    -3.886      2.789      4.886
REMARK INTER + INTRA:          -5.189
REMARK INTER:                  -4.961
REMARK INTRA:                  -0.227
REMARK UNBOUND:                -0.166
REMARK SMILES CCCCCCC(=O)[O-]
REMARK SMILES IDX 5 1 6 2 7 3 8 4 9 5 4 6 3 7 2 8 1 9
REMARK H PARENT
REMARK Flexibility Score: inf
ROOT
ATOM      1  C   UNL     1     -31.750 -21.253 -22.991  1.00  0.00     0.006 C 
ENDROOT
BRANCH   1   2
ATOM      2  C   UNL     1     -30.641 -21.270 -24.056  1.00  0.00     0.053 C 
BRANCH   2   3
ATOM      3  C   UNL     1     -31.180 -21.023 -25.430  1.00  0.00     0.041 C 
ATOM      4  O   UNL     1     -31.266 -19.848 -25.876  1.00  0.00    -0.550 OA
ATOM      5  O   UNL     1     -31.557 -22.092 -26.232  1.00  0.00    -0.550 OA
ENDBRANCH   2   3
ENDBRANCH   1   2
BRANCH   1   6
ATOM      6  C   UNL     1     -31.291 -21.714 -21.595  1.00  0.00     0.000 C 
BRANCH   6   7
ATOM      7  C   UNL     1     -30.588 -23.082 -21.622  1.00  0.00    -0.000 C 
BRANCH   7   8
ATOM      8  C   UNL     1     -29.295 -23.095 -20.791  1.00  0.00    -0.003 C 
ATOM      9  C   UNL     1     -29.059 -21.781 -20.048  1.00  0.00     0.004 C 
ENDBRANCH   7   8
ENDBRANCH   6   7
ENDBRANCH   1   6
TORSDOF 5
ENDMDL
MODEL 5
REMARK VINA RESULT:    -3.764      2.795      5.527
REMARK INTER + INTRA:          -5.030
REMARK INTER:                  -4.860
REMARK INTRA:                  -0.170
REMARK UNBOUND:                -0.166
REMARK SMILES CCCCCCC(=O)[O-]
REMARK SMILES IDX 5 1 6 2 7 3 8 4 9 5 4 6 3 7 2 8 1 9
REMARK H PARENT
REMARK Flexibility Score: inf
ROOT
ATOM      1  C   UNL     1     -29.760 -21.772 -21.567  1.00  0.00     0.006 C 
ENDROOT
BRANCH   1   2
ATOM      2  C   UNL     1     -30.981 -22.322 -22.321  1.00  0.00     0.053 C 
BRANCH   2   3
ATOM      3  C   UNL     1     -31.675 -21.258 -23.114  1.00  0.00     0.041 C 
ATOM      4  O   UNL     1     -31.460 -21.147 -24.351  1.00  0.00    -0.550 OA
ATOM      5  O   UNL     1     -32.583 -20.410 -22.495  1.00  0.00    -0.550 OA
ENDBRANCH   2   3
ENDBRANCH   1   2
BRANCH   1   6
ATOM      6  C   UNL     1     -28.525 -22.691 -21.612  1.00  0.00     0.000 C 
BRANCH   6   7
ATOM      7  C   UNL     1     -28.054 -23.122 -20.212  1.00  0.00    -0.000 C 
BRANCH   7   8
ATOM      8  C   UNL     1     -28.748 -22.335 -19.090  1.00  0.00    -0.003 C 
ATOM      9  C   UNL     1     -27.965 -22.364 -17.778  1.00  0.00     0.004 C 
ENDBRANCH   7   8
ENDBRANCH   6   7
ENDBRANCH   1   6
TORSDOF 5
ENDMDL
MODEL 6
REMARK VINA RESULT:    -3.737      2.930      6.054
REMARK INTER + INTRA:          -4.996
REMARK INTER:                  -4.916
REMARK INTRA:                  -0.080
REMARK UNBOUND:                -0.166
REMARK SMILES CCCCCCC(=O)[O-]
REMARK SMILES IDX 5 1 6 2 7 3 8 4 9 5 4 6 3 7 2 8 1 9
REMARK H PARENT
REMARK Flexibility Score: inf
ROOT
ATOM      1  C   UNL     1     -29.226 -22.281 -21.527  1.00  0.00     0.006 C 
ENDROOT
BRANCH   1   2
ATOM      2  C   UNL     1     -30.629 -22.639 -22.042  1.00  0.00     0.053 C 
BRANCH   2   3
ATOM      3  C   UNL     1     -31.198 -21.563 -22.914  1.00  0.00     0.041 C 
ATOM      4  O   UNL     1     -30.667 -21.301 -24.026  1.00  0.00    -0.550 OA
ATOM      5  O   UNL     1     -32.334 -20.871 -22.514  1.00  0.00    -0.550 OA
ENDBRANCH   2   3
ENDBRANCH   1   2
BRANCH   1   6
ATOM      6  C   UNL     1     -28.772 -23.104 -20.308  1.00  0.00     0.000 C 
BRANCH   6   7
ATOM      7  C   UNL     1     -28.672 -22.260 -19.025  1.00  0.00    -0.000 C 
BRANCH   7   8
ATOM      8  C   UNL     1     -28.515 -23.124 -17.764  1.00  0.00    -0.003 C 
ATOM      9  C   UNL     1     -27.205 -22.854 -17.024  1.00  0.00     0.004 C 
ENDBRANCH   7   8
ENDBRANCH   6   7
ENDBRANCH   1   6
TORSDOF 5
ENDMDL
MODEL 7
REMARK VINA RESULT:    -3.724      3.004      4.231
REMARK INTER + INTRA:          -4.979
REMARK INTER:                  -4.826
REMARK INTRA:                  -0.153
REMARK UNBOUND:                -0.166
REMARK SMILES CCCCCCC(=O)[O-]
REMARK SMILES IDX 5 1 6 2 7 3 8 4 9 5 4 6 3 7 2 8 1 9
REMARK H PARENT
REMARK Flexibility Score: inf
ROOT
ATOM      1  C   UNL     1     -29.127 -21.695 -19.963  1.00  0.00     0.006 C 
ENDROOT
BRANCH   1   2
ATOM      2  C   UNL     1     -28.882 -22.978 -19.153  1.00  0.00     0.053 C 
BRANCH   2   3
ATOM      3  C   UNL     1     -28.339 -22.685 -17.789  1.00  0.00     0.041 C 
ATOM      4  O   UNL     1     -27.253 -22.061 -17.660  1.00  0.00    -0.550 OA
ATOM      5  O   UNL     1     -29.049 -23.071 -16.660  1.00  0.00    -0.550 OA
ENDBRANCH   2   3
ENDBRANCH   1   2
BRANCH   1   6
ATOM      6  C   UNL     1     -29.177 -21.912 -21.487  1.00  0.00     0.000 C 
BRANCH   6   7
ATOM      7  C   UNL     1     -30.467 -22.612 -21.945  1.00  0.00    -0.000 C 
BRANCH   7   8
ATOM      8  C   UNL     1     -31.250 -21.785 -22.977  1.00  0.00    -0.003 C 
ATOM      9  C   UNL     1     -32.186 -20.766 -22.329  1.00  0.00     0.004 C 
ENDBRANCH   7   8
ENDBRANCH   6   7
ENDBRANCH   1   6
TORSDOF 5
ENDMDL
