MODEL 1
REMARK VINA RESULT:    -2.869      0.000      0.000
REMARK INTER + INTRA:          -5.864
REMARK INTER:                  -5.049
REMARK INTRA:                  -0.815
REMARK UNBOUND:                -0.815
REMARK SMILES CCCCCCC=CCCCCCCCC(=O)[O-]
REMARK SMILES IDX 10 1 11 2 12 3 13 4 14 5 15 6 16 7 17 8 18 9 9 10 8 11 7 12
REMARK SMILES IDX 6 13 5 14 4 15 3 16 2 17 1 18
REMARK H PARENT
REMARK Flexibility Score: inf
ROOT
ATOM      1  C   UNL     1     125.922 132.432 125.428  1.00  0.00     0.004 C 
ENDROOT
BRANCH   1   2
ATOM      2  C   UNL     1     124.889 131.404 124.916  1.00  0.00     0.000 C 
BRANCH   2   3
ATOM      3  C   UNL     1     124.503 131.557 123.433  1.00  0.00     0.000 C 
BRANCH   3   4
ATOM      4  C   UNL     1     124.058 132.987 123.081  1.00  0.00     0.000 C 
BRANCH   4   5
ATOM      5  C   UNL     1     125.249 133.939 122.885  1.00  0.00     0.006 C 
BRANCH   5   6
ATOM      6  C   UNL     1     124.894 135.394 123.215  1.00  0.00     0.053 C 
BRANCH   6   7
ATOM      7  C   UNL     1     126.126 136.157 123.590  1.00  0.00     0.041 C 
ATOM      8  O   UNL     1     126.456 137.185 122.939  1.00  0.00    -0.550 OA
ATOM      9  O   UNL     1     126.939 135.704 124.621  1.00  0.00    -0.550 OA
ENDBRANCH   6   7
ENDBRANCH   5   6
ENDBRANCH   4   5
ENDBRANCH   3   4
ENDBRANCH   2   3
ENDBRANCH   1   2
BRANCH   1  10
ATOM     10  C   UNL     1     125.489 133.203 126.688  1.00  0.00     0.027 C 
BRANCH  10  11
ATOM     11  C   UNL     1     124.235 132.631 127.304  1.00  0.00    -0.031 C 
ATOM     12  C   UNL     1     123.280 133.354 127.918  1.00  0.00    -0.031 C 
BRANCH  12  13
ATOM     13  C   UNL     1     123.251 134.863 127.981  1.00  0.00     0.027 C 
BRANCH  13  14
ATOM     14  C   UNL     1     122.256 135.374 129.034  1.00  0.00     0.004 C 
BRANCH  14  15
ATOM     15  C   UNL     1     120.936 135.910 128.446  1.00  0.00     0.000 C 
BRANCH  15  16
ATOM     16  C   UNL     1     121.101 137.216 127.638  1.00  0.00    -0.000 C 
BRANCH  16  17
ATOM     17  C   UNL     1     120.886 137.001 126.131  1.00  0.00    -0.003 C 
ATOM     18  C   UNL     1     120.961 138.324 125.370  1.00  0.00     0.004 C 
ENDBRANCH  16  17
ENDBRANCH  15  16
ENDBRANCH  14  15
ENDBRANCH  13  14
ENDBRANCH  12  13
ENDBRANCH  10  11
ENDBRANCH   1  10
TORSDOF 13
ENDMDL
MODEL 2
REMARK VINA RESULT:    -1.816      2.054      2.868
REMARK INTER + INTRA:          -4.011
REMARK INTER:                  -4.298
REMARK INTRA:                   0.286
REMARK UNBOUND:                -0.815
REMARK SMILES CCCCCCC=CCCCCCCCC(=O)[O-]
REMARK SMILES IDX 10 1 11 2 12 3 13 4 14 5 15 6 16 7 17 8 18 9 9 10 8 11 7 12
REMARK SMILES IDX 6 13 5 14 4 15 3 16 2 17 1 18
REMARK H PARENT
REMARK Flexibility Score: inf
ROOT
ATOM      1  C   UNL     1     125.300 132.156 127.104  1.00  0.00     0.004 C 
ENDROOT
BRANCH   1   2
ATOM      2  C   UNL     1     126.075 133.193 126.262  1.00  0.00     0.000 C 
BRANCH   2   3
ATOM      3  C   UNL     1     125.193 134.223 125.531  1.00  0.00     0.000 C 
BRANCH   3   4
ATOM      4  C   UNL     1     125.820 134.711 124.214  1.00  0.00     0.000 C 
BRANCH   4   5
ATOM      5  C   UNL     1     126.324 133.550 123.341  1.00  0.00     0.006 C 
BRANCH   5   6
ATOM      6  C   UNL     1     125.917 132.180 123.899  1.00  0.00     0.053 C 
BRANCH   6   7
ATOM      7  C   UNL     1     124.665 131.699 123.235  1.00  0.00     0.041 C 
ATOM      8  O   UNL     1     124.537 130.483 122.930  1.00  0.00    -0.550 OA
ATOM      9  O   UNL     1     123.663 132.603 122.903  1.00  0.00    -0.550 OA
ENDBRANCH   6   7
ENDBRANCH   5   6
ENDBRANCH   4   5
ENDBRANCH   3   4
ENDBRANCH   2   3
ENDBRANCH   1   2
BRANCH   1  10
ATOM     10  C   UNL     1     123.769 132.323 127.077  1.00  0.00     0.027 C 
BRANCH  10  11
ATOM     11  C   UNL     1     123.184 132.432 128.465  1.00  0.00    -0.031 C 
ATOM     12  C   UNL     1     122.903 133.589 129.092  1.00  0.00    -0.031 C 
BRANCH  12  13
ATOM     13  C   UNL     1     123.013 134.957 128.463  1.00  0.00     0.027 C 
BRANCH  13  14
ATOM     14  C   UNL     1     121.694 135.394 127.806  1.00  0.00     0.004 C 
BRANCH  14  15
ATOM     15  C   UNL     1     121.081 136.672 128.411  1.00  0.00     0.000 C 
BRANCH  15  16
ATOM     16  C   UNL     1     121.068 137.874 127.442  1.00  0.00    -0.000 C 
BRANCH  16  17
ATOM     17  C   UNL     1     120.875 137.443 125.979  1.00  0.00    -0.003 C 
ATOM     18  C   UNL     1     121.079 138.620 125.027  1.00  0.00     0.004 C 
ENDBRANCH  16  17
ENDBRANCH  15  16
ENDBRANCH  14  15
ENDBRANCH  13  14
ENDBRANCH  12  13
ENDBRANCH  10  11
ENDBRANCH   1  10
TORSDOF 13
ENDMDL
MODEL 3
REMARK VINA RESULT:    -1.663      2.424      5.514
REMARK INTER + INTRA:          -3.741
REMARK INTER:                  -3.261
REMARK INTRA:                  -0.480
REMARK UNBOUND:                -0.815
REMARK SMILES CCCCCCC=CCCCCCCCC(=O)[O-]
REMARK SMILES IDX 10 1 11 2 12 3 13 4 14 5 15 6 16 7 17 8 18 9 9 10 8 11 7 12
REMARK SMILES IDX 6 13 5 14 4 15 3 16 2 17 1 18
REMARK H PARENT
REMARK Flexibility Score: inf
ROOT
ATOM      1  C   UNL     1     125.760 132.551 127.371  1.00  0.00     0.004 C 
ENDROOT
BRANCH   1   2
ATOM      2  C   UNL     1     124.373 131.881 127.483  1.00  0.00     0.000 C 
BRANCH   2   3
ATOM      3  C   UNL     1     123.194 132.858 127.646  1.00  0.00     0.000 C 
BRANCH   3   4
ATOM      4  C   UNL     1     123.622 134.330 127.521  1.00  0.00     0.000 C 
BRANCH   4   5
ATOM      5  C   UNL     1     122.910 135.235 128.541  1.00  0.00     0.006 C 
BRANCH   5   6
ATOM      6  C   UNL     1     121.405 135.349 128.269  1.00  0.00     0.053 C 
BRANCH   6   7
ATOM      7  C   UNL     1     121.081 136.692 127.693  1.00  0.00     0.041 C 
ATOM      8  O   UNL     1     120.875 136.817 126.457  1.00  0.00    -0.550 OA
ATOM      9  O   UNL     1     121.063 137.814 128.512  1.00  0.00    -0.550 OA
ENDBRANCH   6   7
ENDBRANCH   5   6
ENDBRANCH   4   5
ENDBRANCH   3   4
ENDBRANCH   2   3
ENDBRANCH   1   2
BRANCH   1  10
ATOM     10  C   UNL     1     126.101 133.092 125.970  1.00  0.00     0.027 C 
BRANCH  10  11
ATOM     11  C   UNL     1     126.341 131.983 124.974  1.00  0.00    -0.031 C 
ATOM     12  C   UNL     1     125.413 131.488 124.135  1.00  0.00    -0.031 C 
BRANCH  12  13
ATOM     13  C   UNL     1     124.020 132.044 123.969  1.00  0.00     0.027 C 
BRANCH  13  14
ATOM     14  C   UNL     1     123.991 133.243 123.008  1.00  0.00     0.004 C 
BRANCH  14  15
ATOM     15  C   UNL     1     125.337 133.984 122.884  1.00  0.00     0.000 C 
BRANCH  15  16
ATOM     16  C   UNL     1     125.224 135.512 123.076  1.00  0.00    -0.000 C 
BRANCH  16  17
ATOM     17  C   UNL     1     126.581 136.163 123.392  1.00  0.00    -0.003 C 
ATOM     18  C   UNL     1     126.636 137.600 122.877  1.00  0.00     0.004 C 
ENDBRANCH  16  17
ENDBRANCH  15  16
ENDBRANCH  14  15
ENDBRANCH  13  14
ENDBRANCH  12  13
ENDBRANCH  10  11
ENDBRANCH   1  10
TORSDOF 13
ENDMDL
MODEL 4
REMARK VINA RESULT:    -1.405      2.875      5.786
REMARK INTER + INTRA:          -3.287
REMARK INTER:                  -2.236
REMARK INTRA:                  -1.050
REMARK UNBOUND:                -0.815
REMARK SMILES CCCCCCC=CCCCCCCCC(=O)[O-]
REMARK SMILES IDX 10 1 11 2 12 3 13 4 14 5 15 6 16 7 17 8 18 9 9 10 8 11 7 12
REMARK SMILES IDX 6 13 5 14 4 15 3 16 2 17 1 18
REMARK H PARENT
REMARK Flexibility Score: inf
ROOT
ATOM      1  C   UNL     1     126.034 132.729 126.273  1.00  0.00     0.004 C 
ENDROOT
BRANCH   1   2
ATOM      2  C   UNL     1     125.380 134.114 126.468  1.00  0.00     0.000 C 
BRANCH   2   3
ATOM      3  C   UNL     1     124.576 134.273 127.773  1.00  0.00     0.000 C 
BRANCH   3   4
ATOM      4  C   UNL     1     123.447 135.309 127.651  1.00  0.00     0.000 C 
BRANCH   4   5
ATOM      5  C   UNL     1     122.300 135.044 128.640  1.00  0.00     0.006 C 
BRANCH   5   6
ATOM      6  C   UNL     1     120.932 135.438 128.068  1.00  0.00     0.053 C 
BRANCH   6   7
ATOM      7  C   UNL     1     120.944 136.869 127.631  1.00  0.00     0.041 C 
ATOM      8  O   UNL     1     120.967 137.793 128.488  1.00  0.00    -0.550 OA
ATOM      9  O   UNL     1     120.875 137.185 126.279  1.00  0.00    -0.550 OA
ENDBRANCH   6   7
ENDBRANCH   5   6
ENDBRANCH   4   5
ENDBRANCH   3   4
ENDBRANCH   2   3
ENDBRANCH   1   2
BRANCH   1  10
ATOM     10  C   UNL     1     126.493 132.434 124.833  1.00  0.00     0.027 C 
BRANCH  10  11
ATOM     11  C   UNL     1     125.470 132.865 123.809  1.00  0.00    -0.031 C 
ATOM     12  C   UNL     1     124.251 132.314 123.661  1.00  0.00    -0.031 C 
BRANCH  12  13
ATOM     13  C   UNL     1     123.666 131.262 124.572  1.00  0.00     0.027 C 
BRANCH  13  14
ATOM     14  C   UNL     1     122.778 131.878 125.664  1.00  0.00     0.004 C 
BRANCH  14  15
ATOM     15  C   UNL     1     122.550 130.962 126.882  1.00  0.00     0.000 C 
BRANCH  15  16
ATOM     16  C   UNL     1     123.473 131.281 128.080  1.00  0.00    -0.000 C 
BRANCH  16  17
ATOM     17  C   UNL     1     123.056 130.529 129.354  1.00  0.00    -0.003 C 
ATOM     18  C   UNL     1     122.113 129.372 129.028  1.00  0.00     0.004 C 
ENDBRANCH  16  17
ENDBRANCH  15  16
ENDBRANCH  14  15
ENDBRANCH  13  14
ENDBRANCH  12  13
ENDBRANCH  10  11
ENDBRANCH   1  10
TORSDOF 13
ENDMDL
MODEL 5
REMARK VINA RESULT:    -0.807      3.574      5.123
REMARK INTER + INTRA:          -2.235
REMARK INTER:                  -0.884
REMARK INTRA:                  -1.351
REMARK UNBOUND:                -0.815
REMARK SMILES CCCCCCC=CCCCCCCCC(=O)[O-]
REMARK SMILES IDX 10 1 11 2 12 3 13 4 14 5 15 6 16 7 17 8 18 9 9 10 8 11 7 12
REMARK SMILES IDX 6 13 5 14 4 15 3 16 2 17 1 18
REMARK H PARENT
REMARK Flexibility Score: inf
ROOT
ATOM      1  C   UNL     1     125.019 132.274 123.608  1.00  0.00     0.004 C 
ENDROOT
BRANCH   1   2
ATOM      2  C   UNL     1     124.088 131.340 124.412  1.00  0.00     0.000 C 
BRANCH   2   3
ATOM      3  C   UNL     1     123.162 132.055 125.413  1.00  0.00     0.000 C 
BRANCH   3   4
ATOM      4  C   UNL     1     122.787 131.167 126.612  1.00  0.00     0.000 C 
BRANCH   4   5
ATOM      5  C   UNL     1     123.726 131.377 127.812  1.00  0.00     0.006 C 
BRANCH   5   6
ATOM      6  C   UNL     1     123.055 131.028 129.147  1.00  0.00     0.053 C 
BRANCH   6   7
ATOM      7  C   UNL     1     122.818 129.553 129.239  1.00  0.00     0.041 C 
ATOM      8  O   UNL     1     121.642 129.101 129.255  1.00  0.00    -0.550 OA
ATOM      9  O   UNL     1     123.893 128.682 129.362  1.00  0.00    -0.550 OA
ENDBRANCH   6   7
ENDBRANCH   5   6
ENDBRANCH   4   5
ENDBRANCH   3   4
ENDBRANCH   2   3
ENDBRANCH   1   2
BRANCH   1  10
ATOM     10  C   UNL     1     126.094 132.988 124.449  1.00  0.00     0.027 C 
BRANCH  10  11
ATOM     11  C   UNL     1     125.740 134.430 124.721  1.00  0.00    -0.031 C 
ATOM     12  C   UNL     1     125.325 134.910 125.907  1.00  0.00    -0.031 C 
BRANCH  12  13
ATOM     13  C   UNL     1     125.263 134.109 127.185  1.00  0.00     0.027 C 
BRANCH  13  14
ATOM     14  C   UNL     1     124.253 134.698 128.183  1.00  0.00     0.004 C 
BRANCH  14  15
ATOM     15  C   UNL     1     122.863 134.982 127.580  1.00  0.00     0.000 C 
BRANCH  15  16
ATOM     16  C   UNL     1     121.798 135.367 128.629  1.00  0.00    -0.000 C 
BRANCH  16  17
ATOM     17  C   UNL     1     120.875 136.495 128.139  1.00  0.00    -0.003 C 
ATOM     18  C   UNL     1     121.103 136.787 126.658  1.00  0.00     0.004 C 
ENDBRANCH  16  17
ENDBRANCH  15  16
ENDBRANCH  14  15
ENDBRANCH  13  14
ENDBRANCH  12  13
ENDBRANCH  10  11
ENDBRANCH   1  10
TORSDOF 13
ENDMDL
MODEL 6
REMARK VINA RESULT:    -0.639      4.994      7.704
REMARK INTER + INTRA:          -1.939
REMARK INTER:                  -2.211
REMARK INTRA:                   0.272
REMARK UNBOUND:                -0.815
REMARK SMILES CCCCCCC=CCCCCCCCC(=O)[O-]
REMARK SMILES IDX 10 1 11 2 12 3 13 4 14 5 15 6 16 7 17 8 18 9 9 10 8 11 7 12
REMARK SMILES IDX 6 13 5 14 4 15 3 16 2 17 1 18
REMARK H PARENT
REMARK Flexibility Score: inf
ROOT
ATOM      1  C   UNL     1     123.176 132.502 128.304  1.00  0.00     0.004 C 
ENDROOT
BRANCH   1   2
ATOM      2  C   UNL     1     123.164 131.585 129.546  1.00  0.00     0.000 C 
BRANCH   2   3
ATOM      3  C   UNL     1     123.147 130.077 129.237  1.00  0.00     0.000 C 
BRANCH   3   4
ATOM      4  C   UNL     1     121.723 129.526 129.049  1.00  0.00     0.000 C 
BRANCH   4   5
ATOM      5  C   UNL     1     121.684 127.989 129.061  1.00  0.00     0.006 C 
BRANCH   5   6
ATOM      6  C   UNL     1     121.104 127.409 127.764  1.00  0.00     0.053 C 
BRANCH   6   7
ATOM      7  C   UNL     1     121.554 125.994 127.581  1.00  0.00     0.041 C 
ATOM      8  O   UNL     1     122.302 125.687 126.615  1.00  0.00    -0.550 OA
ATOM      9  O   UNL     1     121.103 125.003 128.445  1.00  0.00    -0.550 OA
ENDBRANCH   6   7
ENDBRANCH   5   6
ENDBRANCH   4   5
ENDBRANCH   3   4
ENDBRANCH   2   3
ENDBRANCH   1   2
BRANCH   1  10
ATOM     10  C   UNL     1     123.159 134.010 128.620  1.00  0.00     0.027 C 
BRANCH  10  11
ATOM     11  C   UNL     1     124.142 134.780 127.771  1.00  0.00    -0.031 C 
ATOM     12  C   UNL     1     125.179 134.236 127.109  1.00  0.00    -0.031 C 
BRANCH  12  13
ATOM     13  C   UNL     1     125.454 132.755 127.011  1.00  0.00     0.027 C 
BRANCH  13  14
ATOM     14  C   UNL     1     125.973 132.359 125.620  1.00  0.00     0.004 C 
BRANCH  14  15
ATOM     15  C   UNL     1     126.042 133.527 124.617  1.00  0.00     0.000 C 
BRANCH  15  16
ATOM     16  C   UNL     1     125.476 133.183 123.221  1.00  0.00    -0.000 C 
BRANCH  16  17
ATOM     17  C   UNL     1     124.304 132.191 123.295  1.00  0.00    -0.003 C 
ATOM     18  C   UNL     1     124.749 130.782 122.910  1.00  0.00     0.004 C 
ENDBRANCH  16  17
ENDBRANCH  15  16
ENDBRANCH  14  15
ENDBRANCH  13  14
ENDBRANCH  12  13
ENDBRANCH  10  11
ENDBRANCH   1  10
TORSDOF 13
ENDMDL
