MODEL 1
REMARK VINA RESULT:    -5.855      0.000      0.000
REMARK INTER + INTRA:          -9.659
REMARK INTER:                  -8.593
REMARK INTRA:                  -1.067
REMARK UNBOUND:                -1.067
REMARK SMILES Cc1cc2c(C(C)C)c(O)c(O)c(C=O)c2c(O)c1-c1c(C)cc2c(C(C)C)c(O)c(O)c(C=O)c2c1O
REMARK SMILES IDX 1 1 2 2 3 3 4 4 16 5 13 6 11 7 9 8 5 9 17 10 19 11 20 12
REMARK SMILES IDX 37 13 21 14 36 15 23 16 22 17 24 18 33 19 25 20 31 21 29 22
REMARK SMILES IDX 38 23 34 25 35 26 26 27 27 28 28 29 32 30 30 32 18 34 6 36
REMARK SMILES IDX 7 37 8 38 14 39 15 40 10 41 12 43
REMARK H PARENT 38 24 32 31 30 33 18 35 10 42 12 44
REMARK Flexibility Score: inf
ROOT
ATOM      1  C   UNL     1     -21.701 -23.977  40.361  1.00  0.00     0.045 C 
ATOM      2  C   UNL     1     -23.083 -23.379  40.480  1.00  0.00    -0.039 A 
ATOM      3  C   UNL     1     -24.086 -24.103  41.125  1.00  0.00     0.013 A 
ATOM      4  C   UNL     1     -25.405 -23.609  41.244  1.00  0.00    -0.006 A 
ATOM      5  C   UNL     1     -25.695 -22.302  40.749  1.00  0.00     0.039 A 
ATOM      6  C   UNL     1     -27.021 -21.794  40.884  1.00  0.00     0.072 A 
ATOM      7  C   UNL     1     -27.965 -22.493  41.658  1.00  0.00     0.169 A 
ATOM      8  C   UNL     1     -27.636 -23.735  42.228  1.00  0.00     0.162 A 
ATOM      9  C   UNL     1     -26.426 -24.377  41.888  1.00  0.00     0.008 A 
ATOM     10  C   UNL     1     -24.641 -21.529  40.177  1.00  0.00     0.132 A 
ATOM     11  C   UNL     1     -23.353 -22.081  40.018  1.00  0.00     0.031 A 
ENDROOT
BRANCH  11  12
ATOM     12  C   UNL     1     -22.264 -21.280  39.398  1.00  0.00     0.031 A 
ATOM     13  C   UNL     1     -21.542 -20.348  40.173  1.00  0.00     0.132 A 
ATOM     14  C   UNL     1     -21.932 -21.481  38.049  1.00  0.00    -0.039 A 
ATOM     15  C   UNL     1     -20.502 -19.564  39.583  1.00  0.00     0.039 A 
ATOM     16  C   UNL     1     -20.899 -20.740  37.477  1.00  0.00     0.013 A 
ATOM     17  C   UNL     1     -22.627 -22.538  37.223  1.00  0.00     0.045 C 
ATOM     18  C   UNL     1     -20.209 -19.739  38.196  1.00  0.00    -0.006 A 
ATOM     19  C   UNL     1     -19.718 -18.641  40.343  1.00  0.00     0.072 A 
ATOM     20  C   UNL     1     -19.204 -18.942  37.566  1.00  0.00     0.008 A 
ATOM     21  C   UNL     1     -18.630 -17.980  39.737  1.00  0.00     0.169 A 
ATOM     22  C   UNL     1     -18.354 -18.161  38.379  1.00  0.00     0.162 A 
BRANCH  13  23
ATOM     23  O   UNL     1     -21.846 -20.217  41.534  1.00  0.00    -0.507 OA
ATOM     24  H   UNL     1     -22.731 -20.482  41.944  1.00  0.00     0.293 HD
ENDBRANCH  13  23
BRANCH  19  25
ATOM     25  C   UNL     1     -20.005 -18.355  41.762  1.00  0.00     0.264 C 
ATOM     26  O   UNL     1     -20.616 -17.304  42.093  1.00  0.00    -0.298 OA
ENDBRANCH  19  25
BRANCH  20  27
ATOM     27  C   UNL     1     -19.015 -18.932  36.038  1.00  0.00     0.017 C 
ATOM     28  C   UNL     1     -17.741 -19.684  35.641  1.00  0.00     0.012 C 
ATOM     29  C   UNL     1     -19.052 -17.525  35.414  1.00  0.00     0.012 C 
ENDBRANCH  20  27
BRANCH  21  30
ATOM     30  O   UNL     1     -17.812 -17.100  40.458  1.00  0.00    -0.504 OA
ATOM     31  H   UNL     1     -16.804 -17.079  40.392  1.00  0.00     0.293 HD
ENDBRANCH  21  30
BRANCH  22  32
ATOM     32  O   UNL     1     -17.223 -17.555  37.825  1.00  0.00    -0.504 OA
ATOM     33  H   UNL     1     -16.814 -17.850  36.946  1.00  0.00     0.293 HD
ENDBRANCH  22  32
ENDBRANCH  11  12
BRANCH  10  34
ATOM     34  O   UNL     1     -24.863 -20.196  39.809  1.00  0.00    -0.507 OA
ATOM     35  H   UNL     1     -25.765 -19.828  39.537  1.00  0.00     0.293 HD
ENDBRANCH  10  34
BRANCH   9  36
ATOM     36  C   UNL     1     -26.215 -25.855  42.264  1.00  0.00     0.017 C 
ATOM     37  C   UNL     1     -26.412 -26.763  41.045  1.00  0.00     0.012 C 
ATOM     38  C   UNL     1     -24.869 -26.136  42.957  1.00  0.00     0.012 C 
ENDBRANCH   9  36
BRANCH   6  39
ATOM     39  C   UNL     1     -27.479 -20.584  40.158  1.00  0.00     0.264 C 
ATOM     40  O   UNL     1     -27.657 -19.491  40.760  1.00  0.00    -0.298 OA
ENDBRANCH   6  39
BRANCH   8  41
ATOM     41  O   UNL     1     -28.496 -24.344  43.144  1.00  0.00    -0.504 OA
ATOM     42  H   UNL     1     -29.083 -25.139  42.929  1.00  0.00     0.293 HD
ENDBRANCH   8  41
BRANCH   7  43
ATOM     43  O   UNL     1     -29.248 -21.953  41.806  1.00  0.00    -0.504 OA
ATOM     44  H   UNL     1     -30.098 -22.498  41.775  1.00  0.00     0.293 HD
ENDBRANCH   7  43
TORSDOF 11
ENDMDL
MODEL 2
REMARK VINA RESULT:    -5.748      2.454      4.860
REMARK INTER + INTRA:          -9.502
REMARK INTER:                  -8.304
REMARK INTRA:                  -1.198
REMARK UNBOUND:                -1.067
REMARK SMILES Cc1cc2c(C(C)C)c(O)c(O)c(C=O)c2c(O)c1-c1c(C)cc2c(C(C)C)c(O)c(O)c(C=O)c2c1O
REMARK SMILES IDX 1 1 2 2 3 3 4 4 16 5 13 6 11 7 9 8 5 9 17 10 19 11 20 12
REMARK SMILES IDX 37 13 21 14 36 15 23 16 22 17 24 18 33 19 25 20 31 21 29 22
REMARK SMILES IDX 38 23 34 25 35 26 26 27 27 28 28 29 32 30 30 32 18 34 6 36
REMARK SMILES IDX 7 37 8 38 14 39 15 40 10 41 12 43
REMARK H PARENT 38 24 32 31 30 33 18 35 10 42 12 44
REMARK Flexibility Score: inf
ROOT
ATOM      1  C   UNL     1     -23.030 -18.309  38.509  1.00  0.00     0.045 C 
ATOM      2  C   UNL     1     -23.011 -19.700  39.097  1.00  0.00    -0.039 A 
ATOM      3  C   UNL     1     -24.192 -20.241  39.608  1.00  0.00     0.013 A 
ATOM      4  C   UNL     1     -24.232 -21.526  40.196  1.00  0.00    -0.006 A 
ATOM      5  C   UNL     1     -23.043 -22.315  40.201  1.00  0.00     0.039 A 
ATOM      6  C   UNL     1     -23.085 -23.619  40.778  1.00  0.00     0.072 A 
ATOM      7  C   UNL     1     -24.319 -24.179  41.156  1.00  0.00     0.169 A 
ATOM      8  C   UNL     1     -25.502 -23.428  41.051  1.00  0.00     0.162 A 
ATOM      9  C   UNL     1     -25.447 -22.053  40.735  1.00  0.00     0.008 A 
ATOM     10  C   UNL     1     -21.863 -21.793  39.591  1.00  0.00     0.132 A 
ATOM     11  C   UNL     1     -21.846 -20.482  39.072  1.00  0.00     0.031 A 
ENDROOT
BRANCH  11  12
ATOM     12  C   UNL     1     -20.606 -19.934  38.459  1.00  0.00     0.031 A 
ATOM     13  C   UNL     1     -20.413 -20.010  37.063  1.00  0.00     0.132 A 
ATOM     14  C   UNL     1     -19.647 -19.306  39.269  1.00  0.00    -0.039 A 
ATOM     15  C   UNL     1     -19.219 -19.499  36.466  1.00  0.00     0.039 A 
ATOM     16  C   UNL     1     -18.494 -18.778  38.688  1.00  0.00     0.013 A 
ATOM     17  C   UNL     1     -19.872 -19.128  40.752  1.00  0.00     0.045 C 
ATOM     18  C   UNL     1     -18.225 -18.910  37.307  1.00  0.00    -0.006 A 
ATOM     19  C   UNL     1     -19.004 -19.517  35.053  1.00  0.00     0.072 A 
ATOM     20  C   UNL     1     -17.003 -18.425  36.747  1.00  0.00     0.008 A 
ATOM     21  C   UNL     1     -17.862 -18.894  34.509  1.00  0.00     0.169 A 
ATOM     22  C   UNL     1     -16.898 -18.321  35.343  1.00  0.00     0.162 A 
BRANCH  13  23
ATOM     23  O   UNL     1     -21.417 -20.578  36.269  1.00  0.00    -0.507 OA
ATOM     24  H   UNL     1     -22.379 -20.687  36.564  1.00  0.00     0.293 HD
ENDBRANCH  13  23
BRANCH  19  25
ATOM     25  C   UNL     1     -19.951 -20.168  34.127  1.00  0.00     0.264 C 
ATOM     26  O   UNL     1     -20.694 -19.477  33.380  1.00  0.00    -0.298 OA
ENDBRANCH  19  25
BRANCH  20  27
ATOM     27  C   UNL     1     -15.818 -17.999  37.632  1.00  0.00     0.017 C 
ATOM     28  C   UNL     1     -15.207 -19.210  38.345  1.00  0.00     0.012 C 
ATOM     29  C   UNL     1     -16.157 -16.875  38.630  1.00  0.00     0.012 C 
ENDBRANCH  20  27
BRANCH  21  30
ATOM     30  O   UNL     1     -17.637 -18.854  33.127  1.00  0.00    -0.504 OA
ATOM     31  H   UNL     1     -17.177 -19.587  32.605  1.00  0.00     0.293 HD
ENDBRANCH  21  30
BRANCH  22  32
ATOM     32  O   UNL     1     -15.818 -17.642  34.774  1.00  0.00    -0.504 OA
ATOM     33  H   UNL     1     -15.532 -16.716  35.067  1.00  0.00     0.293 HD
ENDBRANCH  22  32
ENDBRANCH  11  12
BRANCH  10  34
ATOM     34  O   UNL     1     -20.723 -22.595  39.459  1.00  0.00    -0.507 OA
ATOM     35  H   UNL     1     -20.618 -23.504  39.890  1.00  0.00     0.293 HD
ENDBRANCH  10  34
BRANCH   9  36
ATOM     36  C   UNL     1     -26.699 -21.177  40.926  1.00  0.00     0.017 C 
ATOM     37  C   UNL     1     -26.332 -19.825  41.547  1.00  0.00     0.012 C 
ATOM     38  C   UNL     1     -27.532 -20.994  39.643  1.00  0.00     0.012 C 
ENDBRANCH   9  36
BRANCH   6  39
ATOM     39  C   UNL     1     -21.852 -24.387  41.081  1.00  0.00     0.264 C 
ATOM     40  O   UNL     1     -21.537 -25.406  40.409  1.00  0.00    -0.298 OA
ENDBRANCH   6  39
BRANCH   8  41
ATOM     41  O   UNL     1     -26.745 -24.033  41.247  1.00  0.00    -0.504 OA
ATOM     42  H   UNL     1     -27.601 -23.726  40.803  1.00  0.00     0.293 HD
ENDBRANCH   8  41
BRANCH   7  43
ATOM     43  O   UNL     1     -24.336 -25.475  41.684  1.00  0.00    -0.504 OA
ATOM     44  H   UNL     1     -24.562 -26.301  41.147  1.00  0.00     0.293 HD
ENDBRANCH   7  43
TORSDOF 11
ENDMDL
MODEL 3
REMARK VINA RESULT:    -5.729      2.478      9.364
REMARK INTER + INTRA:          -9.476
REMARK INTER:                  -8.293
REMARK INTRA:                  -1.183
REMARK UNBOUND:                -1.067
REMARK SMILES Cc1cc2c(C(C)C)c(O)c(O)c(C=O)c2c(O)c1-c1c(C)cc2c(C(C)C)c(O)c(O)c(C=O)c2c1O
REMARK SMILES IDX 1 1 2 2 3 3 4 4 16 5 13 6 11 7 9 8 5 9 17 10 19 11 20 12
REMARK SMILES IDX 37 13 21 14 36 15 23 16 22 17 24 18 33 19 25 20 31 21 29 22
REMARK SMILES IDX 38 23 34 25 35 26 26 27 27 28 28 29 32 30 30 32 18 34 6 36
REMARK SMILES IDX 7 37 8 38 14 39 15 40 10 41 12 43
REMARK H PARENT 38 24 32 31 30 33 18 35 10 42 12 44
REMARK Flexibility Score: inf
ROOT
ATOM      1  C   UNL     1     -19.824 -19.183  40.635  1.00  0.00     0.045 C 
ATOM      2  C   UNL     1     -19.557 -19.285  39.152  1.00  0.00    -0.039 A 
ATOM      3  C   UNL     1     -18.278 -19.008  38.668  1.00  0.00     0.013 A 
ATOM      4  C   UNL     1     -17.973 -19.060  37.289  1.00  0.00    -0.006 A 
ATOM      5  C   UNL     1     -18.989 -19.477  36.377  1.00  0.00     0.039 A 
ATOM      6  C   UNL     1     -18.679 -19.548  34.987  1.00  0.00     0.072 A 
ATOM      7  C   UNL     1     -17.349 -19.393  34.556  1.00  0.00     0.169 A 
ATOM      8  C   UNL     1     -16.336 -19.082  35.478  1.00  0.00     0.162 A 
ATOM      9  C   UNL     1     -16.662 -18.748  36.810  1.00  0.00     0.008 A 
ATOM     10  C   UNL     1     -20.267 -19.852  36.889  1.00  0.00     0.132 A 
ATOM     11  C   UNL     1     -20.552 -19.725  38.265  1.00  0.00     0.031 A 
ENDROOT
BRANCH  11  12
ATOM     12  C   UNL     1     -21.894 -20.094  38.790  1.00  0.00     0.031 A 
ATOM     13  C   UNL     1     -22.128 -21.396  39.283  1.00  0.00     0.132 A 
ATOM     14  C   UNL     1     -22.916 -19.132  38.830  1.00  0.00    -0.039 A 
ATOM     15  C   UNL     1     -23.417 -21.764  39.778  1.00  0.00     0.039 A 
ATOM     16  C   UNL     1     -24.167 -19.478  39.339  1.00  0.00     0.013 A 
ATOM     17  C   UNL     1     -22.664 -17.708  38.395  1.00  0.00     0.045 C 
ATOM     18  C   UNL     1     -24.465 -20.792  39.763  1.00  0.00    -0.006 A 
ATOM     19  C   UNL     1     -23.684 -23.057  40.325  1.00  0.00     0.072 A 
ATOM     20  C   UNL     1     -25.776 -21.140  40.213  1.00  0.00     0.008 A 
ATOM     21  C   UNL     1     -24.940 -23.329  40.906  1.00  0.00     0.169 A 
ATOM     22  C   UNL     1     -25.956 -22.368  40.885  1.00  0.00     0.162 A 
BRANCH  13  23
ATOM     23  O   UNL     1     -21.072 -22.316  39.298  1.00  0.00    -0.507 OA
ATOM     24  H   UNL     1     -21.193 -23.317  39.227  1.00  0.00     0.293 HD
ENDBRANCH  13  23
BRANCH  19  25
ATOM     25  C   UNL     1     -22.675 -24.135  40.313  1.00  0.00     0.264 C 
ATOM     26  O   UNL     1     -22.055 -24.444  41.365  1.00  0.00    -0.298 OA
ENDBRANCH  19  25
BRANCH  20  27
ATOM     27  C   UNL     1     -26.981 -20.205  40.001  1.00  0.00     0.017 C 
ATOM     28  C   UNL     1     -27.219 -19.334  41.239  1.00  0.00     0.012 C 
ATOM     29  C   UNL     1     -28.269 -20.933  39.574  1.00  0.00     0.012 C 
ENDBRANCH  20  27
BRANCH  21  30
ATOM     30  O   UNL     1     -25.226 -24.569  41.490  1.00  0.00    -0.504 OA
ATOM     31  H   UNL     1     -24.595 -25.358  41.487  1.00  0.00     0.293 HD
ENDBRANCH  21  30
BRANCH  22  32
ATOM     32  O   UNL     1     -27.162 -22.636  41.536  1.00  0.00    -0.504 OA
ATOM     33  H   UNL     1     -27.680 -23.497  41.409  1.00  0.00     0.293 HD
ENDBRANCH  22  32
ENDBRANCH  11  12
BRANCH  10  34
ATOM     34  O   UNL     1     -21.238 -20.395  36.038  1.00  0.00    -0.507 OA
ATOM     35  H   UNL     1     -21.991 -19.859  35.627  1.00  0.00     0.293 HD
ENDBRANCH  10  34
BRANCH   9  36
ATOM     36  C   UNL     1     -15.594 -18.114  37.720  1.00  0.00     0.017 C 
ATOM     37  C   UNL     1     -14.562 -19.157  38.163  1.00  0.00     0.012 C 
ATOM     38  C   UNL     1     -14.911 -16.876  37.110  1.00  0.00     0.012 C 
ENDBRANCH   9  36
BRANCH   6  39
ATOM     39  C   UNL     1     -19.732 -19.692  33.951  1.00  0.00     0.264 C 
ATOM     40  O   UNL     1     -20.039 -18.732  33.195  1.00  0.00    -0.298 OA
ENDBRANCH   6  39
BRANCH   8  41
ATOM     41  O   UNL     1     -14.993 -19.111  35.092  1.00  0.00    -0.504 OA
ATOM     42  H   UNL     1     -14.674 -18.987  34.141  1.00  0.00     0.293 HD
ENDBRANCH   8  41
BRANCH   7  43
ATOM     43  O   UNL     1     -17.066 -19.506  33.189  1.00  0.00    -0.504 OA
ATOM     44  H   UNL     1     -16.485 -20.229  32.790  1.00  0.00     0.293 HD
ENDBRANCH   7  43
TORSDOF 11
ENDMDL
MODEL 4
REMARK VINA RESULT:    -5.523      1.662      3.076
REMARK INTER + INTRA:          -9.173
REMARK INTER:                  -8.048
REMARK INTRA:                  -1.125
REMARK UNBOUND:                -1.067
REMARK SMILES Cc1cc2c(C(C)C)c(O)c(O)c(C=O)c2c(O)c1-c1c(C)cc2c(C(C)C)c(O)c(O)c(C=O)c2c1O
REMARK SMILES IDX 1 1 2 2 3 3 4 4 16 5 13 6 11 7 9 8 5 9 17 10 19 11 20 12
REMARK SMILES IDX 37 13 21 14 36 15 23 16 22 17 24 18 33 19 25 20 31 21 29 22
REMARK SMILES IDX 38 23 34 25 35 26 26 27 27 28 28 29 32 30 30 32 18 34 6 36
REMARK SMILES IDX 7 37 8 38 14 39 15 40 10 41 12 43
REMARK H PARENT 38 24 32 31 30 33 18 35 10 42 12 44
REMARK Flexibility Score: inf
ROOT
ATOM      1  C   UNL     1     -24.116 -18.972  39.250  1.00  0.00     0.045 C 
ATOM      2  C   UNL     1     -24.304 -20.362  39.810  1.00  0.00    -0.039 A 
ATOM      3  C   UNL     1     -25.550 -20.730  40.318  1.00  0.00     0.013 A 
ATOM      4  C   UNL     1     -25.781 -22.006  40.880  1.00  0.00    -0.006 A 
ATOM      5  C   UNL     1     -24.724 -22.966  40.860  1.00  0.00     0.039 A 
ATOM      6  C   UNL     1     -24.959 -24.260  41.410  1.00  0.00     0.072 A 
ATOM      7  C   UNL     1     -26.261 -24.636  41.786  1.00  0.00     0.169 A 
ATOM      8  C   UNL     1     -27.318 -23.714  41.706  1.00  0.00     0.162 A 
ATOM      9  C   UNL     1     -27.059 -22.356  41.418  1.00  0.00     0.008 A 
ATOM     10  C   UNL     1     -23.482 -22.614  40.251  1.00  0.00     0.132 A 
ATOM     11  C   UNL     1     -23.270 -21.310  39.759  1.00  0.00     0.031 A 
ENDROOT
BRANCH  11  12
ATOM     12  C   UNL     1     -21.964 -20.941  39.148  1.00  0.00     0.031 A 
ATOM     13  C   UNL     1     -21.001 -20.242  39.906  1.00  0.00     0.132 A 
ATOM     14  C   UNL     1     -21.679 -21.326  37.829  1.00  0.00    -0.039 A 
ATOM     15  C   UNL     1     -19.749 -19.872  39.323  1.00  0.00     0.039 A 
ATOM     16  C   UNL     1     -20.447 -20.994  37.266  1.00  0.00     0.013 A 
ATOM     17  C   UNL     1     -22.656 -22.156  37.029  1.00  0.00     0.045 C 
ATOM     18  C   UNL     1     -19.490 -20.222  37.962  1.00  0.00    -0.006 A 
ATOM     19  C   UNL     1     -18.729 -19.202  40.068  1.00  0.00     0.072 A 
ATOM     20  C   UNL     1     -18.266 -19.832  37.338  1.00  0.00     0.008 A 
ATOM     21  C   UNL     1     -17.470 -18.965  39.479  1.00  0.00     0.169 A 
ATOM     22  C   UNL     1     -17.232 -19.313  38.146  1.00  0.00     0.162 A 
BRANCH  13  23
ATOM     23  O   UNL     1     -21.282 -19.932  41.242  1.00  0.00    -0.507 OA
ATOM     24  H   UNL     1     -21.175 -20.582  42.009  1.00  0.00     0.293 HD
ENDBRANCH  13  23
BRANCH  19  25
ATOM     25  C   UNL     1     -18.945 -18.747  41.456  1.00  0.00     0.264 C 
ATOM     26  O   UNL     1     -19.461 -17.622  41.688  1.00  0.00    -0.298 OA
ENDBRANCH  19  25
BRANCH  20  27
ATOM     27  C   UNL     1     -18.044 -19.983  35.822  1.00  0.00     0.017 C 
ATOM     28  C   UNL     1     -17.081 -21.136  35.524  1.00  0.00     0.012 C 
ATOM     29  C   UNL     1     -17.595 -18.685  35.125  1.00  0.00     0.012 C 
ENDBRANCH  20  27
BRANCH  21  30
ATOM     30  O   UNL     1     -16.431 -18.349  40.189  1.00  0.00    -0.504 OA
ATOM     31  H   UNL     1     -15.478 -18.285  39.859  1.00  0.00     0.293 HD
ENDBRANCH  21  30
BRANCH  22  32
ATOM     32  O   UNL     1     -15.952 -19.139  37.613  1.00  0.00    -0.504 OA
ATOM     33  H   UNL     1     -15.175 -19.752  37.831  1.00  0.00     0.293 HD
ENDBRANCH  22  32
ENDBRANCH  11  12
BRANCH  10  34
ATOM     34  O   UNL     1     -22.476 -23.576  40.094  1.00  0.00    -0.507 OA
ATOM     35  H   UNL     1     -22.542 -24.524  40.439  1.00  0.00     0.293 HD
ENDBRANCH  10  34
BRANCH   9  36
ATOM     36  C   UNL     1     -28.164 -21.306  41.636  1.00  0.00     0.017 C 
ATOM     37  C   UNL     1     -29.209 -21.371  40.518  1.00  0.00     0.012 C 
ATOM     38  C   UNL     1     -28.826 -21.378  43.025  1.00  0.00     0.012 C 
ENDBRANCH   9  36
BRANCH   6  39
ATOM     39  C   UNL     1     -23.855 -25.211  41.687  1.00  0.00     0.264 C 
ATOM     40  O   UNL     1     -23.742 -26.286  41.038  1.00  0.00    -0.298 OA
ENDBRANCH   6  39
BRANCH   8  41
ATOM     41  O   UNL     1     -28.638 -24.129  41.898  1.00  0.00    -0.504 OA
ATOM     42  H   UNL     1     -28.964 -24.618  42.721  1.00  0.00     0.293 HD
ENDBRANCH   8  41
BRANCH   7  43
ATOM     43  O   UNL     1     -26.472 -25.927  42.287  1.00  0.00    -0.504 OA
ATOM     44  H   UNL     1     -25.966 -26.744  41.974  1.00  0.00     0.293 HD
ENDBRANCH   7  43
TORSDOF 11
ENDMDL
MODEL 5
REMARK VINA RESULT:    -5.147      2.238      4.117
REMARK INTER + INTRA:          -8.621
REMARK INTER:                  -7.333
REMARK INTRA:                  -1.288
REMARK UNBOUND:                -1.067
REMARK SMILES Cc1cc2c(C(C)C)c(O)c(O)c(C=O)c2c(O)c1-c1c(C)cc2c(C(C)C)c(O)c(O)c(C=O)c2c1O
REMARK SMILES IDX 1 1 2 2 3 3 4 4 16 5 13 6 11 7 9 8 5 9 17 10 19 11 20 12
REMARK SMILES IDX 37 13 21 14 36 15 23 16 22 17 24 18 33 19 25 20 31 21 29 22
REMARK SMILES IDX 38 23 34 25 35 26 26 27 27 28 28 29 32 30 30 32 18 34 6 36
REMARK SMILES IDX 7 37 8 38 14 39 15 40 10 41 12 43
REMARK H PARENT 38 24 32 31 30 33 18 35 10 42 12 44
REMARK Flexibility Score: inf
ROOT
ATOM      1  C   UNL     1     -22.055 -17.481  38.958  1.00  0.00     0.045 C 
ATOM      2  C   UNL     1     -22.499 -18.861  39.381  1.00  0.00    -0.039 A 
ATOM      3  C   UNL     1     -23.814 -19.054  39.807  1.00  0.00     0.013 A 
ATOM      4  C   UNL     1     -24.281 -20.315  40.241  1.00  0.00    -0.006 A 
ATOM      5  C   UNL     1     -23.397 -21.435  40.174  1.00  0.00     0.039 A 
ATOM      6  C   UNL     1     -23.872 -22.712  40.595  1.00  0.00     0.072 A 
ATOM      7  C   UNL     1     -25.236 -22.892  40.887  1.00  0.00     0.169 A 
ATOM      8  C   UNL     1     -26.120 -21.801  40.851  1.00  0.00     0.162 A 
ATOM      9  C   UNL     1     -25.626 -20.488  40.697  1.00  0.00     0.008 A 
ATOM     10  C   UNL     1     -22.085 -21.249  39.647  1.00  0.00     0.132 A 
ATOM     11  C   UNL     1     -21.634 -19.962  39.284  1.00  0.00     0.031 A 
ENDROOT
BRANCH  11  12
ATOM     12  C   UNL     1     -20.256 -19.771  38.759  1.00  0.00     0.031 A 
ATOM     13  C   UNL     1     -19.189 -19.518  39.647  1.00  0.00     0.132 A 
ATOM     14  C   UNL     1     -20.013 -19.881  37.381  1.00  0.00    -0.039 A 
ATOM     15  C   UNL     1     -17.863 -19.318  39.151  1.00  0.00     0.039 A 
ATOM     16  C   UNL     1     -18.717 -19.718  36.894  1.00  0.00     0.013 A 
ATOM     17  C   UNL     1     -21.121 -20.245  36.420  1.00  0.00     0.045 C 
ATOM     18  C   UNL     1     -17.637 -19.380  37.741  1.00  0.00    -0.006 A 
ATOM     19  C   UNL     1     -16.748 -19.103  40.018  1.00  0.00     0.072 A 
ATOM     20  C   UNL     1     -16.332 -19.146  37.209  1.00  0.00     0.008 A 
ATOM     21  C   UNL     1     -15.445 -19.029  39.483  1.00  0.00     0.169 A 
ATOM     22  C   UNL     1     -15.240 -19.091  38.102  1.00  0.00     0.162 A 
BRANCH  13  23
ATOM     23  O   UNL     1     -19.445 -19.482  41.023  1.00  0.00    -0.507 OA
ATOM     24  H   UNL     1     -18.977 -18.861  41.670  1.00  0.00     0.293 HD
ENDBRANCH  13  23
BRANCH  19  25
ATOM     25  C   UNL     1     -16.910 -18.958  41.479  1.00  0.00     0.264 C 
ATOM     26  O   UNL     1     -16.443 -19.826  42.264  1.00  0.00    -0.298 OA
ENDBRANCH  19  25
BRANCH  20  27
ATOM     27  C   UNL     1     -16.090 -18.974  35.699  1.00  0.00     0.017 C 
ATOM     28  C   UNL     1     -15.364 -20.194  35.121  1.00  0.00     0.012 C 
ATOM     29  C   UNL     1     -15.367 -17.666  35.327  1.00  0.00     0.012 C 
ENDBRANCH  20  27
BRANCH  21  30
ATOM     30  O   UNL     1     -14.323 -18.860  40.303  1.00  0.00    -0.504 OA
ATOM     31  H   UNL     1     -14.014 -19.535  40.990  1.00  0.00     0.293 HD
ENDBRANCH  21  30
BRANCH  22  32
ATOM     32  O   UNL     1     -13.934 -19.096  37.605  1.00  0.00    -0.504 OA
ATOM     33  H   UNL     1     -13.531 -19.886  37.116  1.00  0.00     0.293 HD
ENDBRANCH  22  32
ENDBRANCH  11  12
BRANCH  10  34
ATOM     34  O   UNL     1     -21.244 -22.350  39.442  1.00  0.00    -0.507 OA
ATOM     35  H   UNL     1     -21.032 -22.737  38.531  1.00  0.00     0.293 HD
ENDBRANCH  10  34
BRANCH   9  36
ATOM     36  C   UNL     1     -26.552 -19.288  40.967  1.00  0.00     0.017 C 
ATOM     37  C   UNL     1     -27.651 -19.193  39.903  1.00  0.00     0.012 C 
ATOM     38  C   UNL     1     -27.147 -19.268  42.388  1.00  0.00     0.012 C 
ENDBRANCH   9  36
BRANCH   6  39
ATOM     39  C   UNL     1     -22.956 -23.856  40.827  1.00  0.00     0.264 C 
ATOM     40  O   UNL     1     -22.198 -23.890  41.834  1.00  0.00    -0.298 OA
ENDBRANCH   6  39
BRANCH   8  41
ATOM     41  O   UNL     1     -27.499 -22.002  40.955  1.00  0.00    -0.504 OA
ATOM     42  H   UNL     1     -28.001 -22.041  41.832  1.00  0.00     0.293 HD
ENDBRANCH   8  41
BRANCH   7  43
ATOM     43  O   UNL     1     -25.682 -24.166  41.260  1.00  0.00    -0.504 OA
ATOM     44  H   UNL     1     -26.343 -24.337  42.005  1.00  0.00     0.293 HD
ENDBRANCH   7  43
TORSDOF 11
ENDMDL
MODEL 6
REMARK VINA RESULT:    -5.131      2.112      9.394
REMARK INTER + INTRA:          -8.598
REMARK INTER:                  -7.348
REMARK INTRA:                  -1.250
REMARK UNBOUND:                -1.067
REMARK SMILES Cc1cc2c(C(C)C)c(O)c(O)c(C=O)c2c(O)c1-c1c(C)cc2c(C(C)C)c(O)c(O)c(C=O)c2c1O
REMARK SMILES IDX 1 1 2 2 3 3 4 4 16 5 13 6 11 7 9 8 5 9 17 10 19 11 20 12
REMARK SMILES IDX 37 13 21 14 36 15 23 16 22 17 24 18 33 19 25 20 31 21 29 22
REMARK SMILES IDX 38 23 34 25 35 26 26 27 27 28 28 29 32 30 30 32 18 34 6 36
REMARK SMILES IDX 7 37 8 38 14 39 15 40 10 41 12 43
REMARK H PARENT 38 24 32 31 30 33 18 35 10 42 12 44
REMARK Flexibility Score: inf
ROOT
ATOM      1  C   UNL     1     -21.112 -20.212  36.383  1.00  0.00     0.045 C 
ATOM      2  C   UNL     1     -20.061 -19.875  37.414  1.00  0.00    -0.039 A 
ATOM      3  C   UNL     1     -18.787 -19.496  36.991  1.00  0.00     0.013 A 
ATOM      4  C   UNL     1     -17.754 -19.196  37.907  1.00  0.00    -0.006 A 
ATOM      5  C   UNL     1     -18.048 -19.214  39.304  1.00  0.00     0.039 A 
ATOM      6  C   UNL     1     -17.013 -18.894  40.230  1.00  0.00     0.072 A 
ATOM      7  C   UNL     1     -15.786 -18.387  39.763  1.00  0.00     0.169 A 
ATOM      8  C   UNL     1     -15.542 -18.276  38.384  1.00  0.00     0.162 A 
ATOM      9  C   UNL     1     -16.447 -18.833  37.453  1.00  0.00     0.008 A 
ATOM     10  C   UNL     1     -19.379 -19.509  39.726  1.00  0.00     0.132 A 
ATOM     11  C   UNL     1     -20.367 -19.866  38.784  1.00  0.00     0.031 A 
ENDROOT
BRANCH  11  12
ATOM     12  C   UNL     1     -21.746 -20.196  39.232  1.00  0.00     0.031 A 
ATOM     13  C   UNL     1     -22.069 -21.515  39.615  1.00  0.00     0.132 A 
ATOM     14  C   UNL     1     -22.715 -19.183  39.310  1.00  0.00    -0.039 A 
ATOM     15  C   UNL     1     -23.396 -21.845  40.034  1.00  0.00     0.039 A 
ATOM     16  C   UNL     1     -24.002 -19.494  39.747  1.00  0.00     0.013 A 
ATOM     17  C   UNL     1     -22.370 -17.747  38.995  1.00  0.00     0.045 C 
ATOM     18  C   UNL     1     -24.388 -20.817  40.058  1.00  0.00    -0.006 A 
ATOM     19  C   UNL     1     -23.753 -23.158  40.471  1.00  0.00     0.072 A 
ATOM     20  C   UNL     1     -25.733 -21.122  40.433  1.00  0.00     0.008 A 
ATOM     21  C   UNL     1     -25.044 -23.400  40.985  1.00  0.00     0.169 A 
ATOM     22  C   UNL     1     -26.004 -22.385  41.002  1.00  0.00     0.162 A 
BRANCH  13  23
ATOM     23  O   UNL     1     -21.067 -22.493  39.596  1.00  0.00    -0.507 OA
ATOM     24  H   UNL     1     -20.698 -22.909  38.751  1.00  0.00     0.293 HD
ENDBRANCH  13  23
BRANCH  19  25
ATOM     25  C   UNL     1     -22.805 -24.288  40.412  1.00  0.00     0.264 C 
ATOM     26  O   UNL     1     -22.246 -24.712  41.458  1.00  0.00    -0.298 OA
ENDBRANCH  19  25
BRANCH  20  27
ATOM     27  C   UNL     1     -26.875 -20.107  40.252  1.00  0.00     0.017 C 
ATOM     28  C   UNL     1     -27.154 -19.360  41.561  1.00  0.00     0.012 C 
ATOM     29  C   UNL     1     -28.164 -20.715  39.669  1.00  0.00     0.012 C 
ENDBRANCH  20  27
BRANCH  21  30
ATOM     30  O   UNL     1     -25.420 -24.662  41.462  1.00  0.00    -0.504 OA
ATOM     31  H   UNL     1     -25.568 -25.471  40.874  1.00  0.00     0.293 HD
ENDBRANCH  21  30
BRANCH  22  32
ATOM     32  O   UNL     1     -27.249 -22.631  41.588  1.00  0.00    -0.504 OA
ATOM     33  H   UNL     1     -27.883 -21.892  41.869  1.00  0.00     0.293 HD
ENDBRANCH  22  32
ENDBRANCH  11  12
BRANCH  10  34
ATOM     34  O   UNL     1     -19.732 -19.400  41.077  1.00  0.00    -0.507 OA
ATOM     35  H   UNL     1     -20.601 -19.745  41.463  1.00  0.00     0.293 HD
ENDBRANCH  10  34
BRANCH   9  36
ATOM     36  C   UNL     1     -16.028 -18.983  35.979  1.00  0.00     0.017 C 
ATOM     37  C   UNL     1     -15.989 -17.620  35.280  1.00  0.00     0.012 C 
ATOM     38  C   UNL     1     -14.706 -19.750  35.782  1.00  0.00     0.012 C 
ENDBRANCH   9  36
BRANCH   6  39
ATOM     39  C   UNL     1     -17.145 -19.160  41.683  1.00  0.00     0.264 C 
ATOM     40  O   UNL     1     -16.322 -19.898  42.289  1.00  0.00    -0.298 OA
ENDBRANCH   6  39
BRANCH   8  41
ATOM     41  O   UNL     1     -14.410 -17.606  37.915  1.00  0.00    -0.504 OA
ATOM     42  H   UNL     1     -13.812 -17.951  37.176  1.00  0.00     0.293 HD
ENDBRANCH   8  41
BRANCH   7  43
ATOM     43  O   UNL     1     -14.800 -18.044  40.696  1.00  0.00    -0.504 OA
ATOM     44  H   UNL     1     -14.984 -17.544  41.554  1.00  0.00     0.293 HD
ENDBRANCH   7  43
TORSDOF 11
ENDMDL
MODEL 7
REMARK VINA RESULT:    -5.106      0.670      8.957
REMARK INTER + INTRA:          -8.560
REMARK INTER:                  -7.429
REMARK INTRA:                  -1.132
REMARK UNBOUND:                -1.067
REMARK SMILES Cc1cc2c(C(C)C)c(O)c(O)c(C=O)c2c(O)c1-c1c(C)cc2c(C(C)C)c(O)c(O)c(C=O)c2c1O
REMARK SMILES IDX 1 1 2 2 3 3 4 4 16 5 13 6 11 7 9 8 5 9 17 10 19 11 20 12
REMARK SMILES IDX 37 13 21 14 36 15 23 16 22 17 24 18 33 19 25 20 31 21 29 22
REMARK SMILES IDX 38 23 34 25 35 26 26 27 27 28 28 29 32 30 30 32 18 34 6 36
REMARK SMILES IDX 7 37 8 38 14 39 15 40 10 41 12 43
REMARK H PARENT 38 24 32 31 30 33 18 35 10 42 12 44
REMARK Flexibility Score: inf
ROOT
ATOM      1  C   UNL     1     -22.617 -22.385  36.992  1.00  0.00     0.045 C 
ATOM      2  C   UNL     1     -21.782 -21.427  37.807  1.00  0.00    -0.039 A 
ATOM      3  C   UNL     1     -20.840 -20.624  37.162  1.00  0.00     0.013 A 
ATOM      4  C   UNL     1     -20.011 -19.728  37.873  1.00  0.00    -0.006 A 
ATOM      5  C   UNL     1     -20.194 -19.594  39.283  1.00  0.00     0.039 A 
ATOM      6  C   UNL     1     -19.370 -18.677  39.999  1.00  0.00     0.072 A 
ATOM      7  C   UNL     1     -18.532 -17.792  39.299  1.00  0.00     0.169 A 
ATOM      8  C   UNL     1     -18.434 -17.863  37.899  1.00  0.00     0.162 A 
ATOM      9  C   UNL     1     -19.034 -18.931  37.197  1.00  0.00     0.008 A 
ATOM     10  C   UNL     1     -21.224 -20.347  39.921  1.00  0.00     0.132 A 
ATOM     11  C   UNL     1     -21.989 -21.278  39.188  1.00  0.00     0.031 A 
ENDROOT
BRANCH  11  12
ATOM     12  C   UNL     1     -23.045 -22.079  39.863  1.00  0.00     0.031 A 
ATOM     13  C   UNL     1     -24.326 -21.526  40.074  1.00  0.00     0.132 A 
ATOM     14  C   UNL     1     -22.775 -23.400  40.254  1.00  0.00    -0.039 A 
ATOM     15  C   UNL     1     -25.344 -22.283  40.734  1.00  0.00     0.039 A 
ATOM     16  C   UNL     1     -23.774 -24.153  40.871  1.00  0.00     0.013 A 
ATOM     17  C   UNL     1     -21.443 -24.046  39.955  1.00  0.00     0.045 C 
ATOM     18  C   UNL     1     -25.041 -23.608  41.176  1.00  0.00    -0.006 A 
ATOM     19  C   UNL     1     -26.666 -21.776  40.929  1.00  0.00     0.072 A 
ATOM     20  C   UNL     1     -26.023 -24.376  41.875  1.00  0.00     0.008 A 
ATOM     21  C   UNL     1     -27.663 -22.608  41.481  1.00  0.00     0.169 A 
ATOM     22  C   UNL     1     -27.352 -23.902  41.908  1.00  0.00     0.162 A 
BRANCH  13  23
ATOM     23  O   UNL     1     -24.591 -20.231  39.611  1.00  0.00    -0.507 OA
ATOM     24  H   UNL     1     -25.483 -19.935  39.237  1.00  0.00     0.293 HD
ENDBRANCH  13  23
BRANCH  19  25
ATOM     25  C   UNL     1     -27.036 -20.395  40.563  1.00  0.00     0.264 C 
ATOM     26  O   UNL     1     -27.865 -20.178  39.639  1.00  0.00    -0.298 OA
ENDBRANCH  19  25
BRANCH  20  27
ATOM     27  C   UNL     1     -25.671 -25.705  42.567  1.00  0.00     0.017 C 
ATOM     28  C   UNL     1     -26.033 -26.897  41.674  1.00  0.00     0.012 C 
ATOM     29  C   UNL     1     -26.278 -25.856  43.974  1.00  0.00     0.012 C 
ENDBRANCH  20  27
BRANCH  21  30
ATOM     30  O   UNL     1     -28.980 -22.163  41.649  1.00  0.00    -0.504 OA
ATOM     31  H   UNL     1     -29.424 -21.469  41.064  1.00  0.00     0.293 HD
ENDBRANCH  21  30
BRANCH  22  32
ATOM     32  O   UNL     1     -28.375 -24.730  42.377  1.00  0.00    -0.504 OA
ATOM     33  H   UNL     1     -28.201 -25.612  42.845  1.00  0.00     0.293 HD
ENDBRANCH  22  32
ENDBRANCH  11  12
BRANCH  10  34
ATOM     34  O   UNL     1     -21.519 -20.136  41.273  1.00  0.00    -0.507 OA
ATOM     35  H   UNL     1     -22.455 -20.001  41.633  1.00  0.00     0.293 HD
ENDBRANCH  10  34
BRANCH   9  36
ATOM     36  C   UNL     1     -18.668 -19.174  35.721  1.00  0.00     0.017 C 
ATOM     37  C   UNL     1     -17.872 -20.475  35.562  1.00  0.00     0.012 C 
ATOM     38  C   UNL     1     -19.875 -19.138  34.765  1.00  0.00     0.012 C 
ENDBRANCH   9  36
BRANCH   6  39
ATOM     39  C   UNL     1     -19.295 -18.678  41.481  1.00  0.00     0.264 C 
ATOM     40  O   UNL     1     -19.810 -17.751  42.161  1.00  0.00    -0.298 OA
ENDBRANCH   6  39
BRANCH   8  41
ATOM     41  O   UNL     1     -17.753 -16.875  37.184  1.00  0.00    -0.504 OA
ATOM     42  H   UNL     1     -17.708 -15.904  37.462  1.00  0.00     0.293 HD
ENDBRANCH   8  41
BRANCH   7  43
ATOM     43  O   UNL     1     -17.762 -16.875  40.026  1.00  0.00    -0.504 OA
ATOM     44  H   UNL     1     -18.068 -15.941  40.261  1.00  0.00     0.293 HD
ENDBRANCH   7  43
TORSDOF 11
ENDMDL
MODEL 8
REMARK VINA RESULT:    -5.008      3.436      4.991
REMARK INTER + INTRA:          -8.417
REMARK INTER:                  -6.984
REMARK INTRA:                  -1.433
REMARK UNBOUND:                -1.067
REMARK SMILES Cc1cc2c(C(C)C)c(O)c(O)c(C=O)c2c(O)c1-c1c(C)cc2c(C(C)C)c(O)c(O)c(C=O)c2c1O
REMARK SMILES IDX 1 1 2 2 3 3 4 4 16 5 13 6 11 7 9 8 5 9 17 10 19 11 20 12
REMARK SMILES IDX 37 13 21 14 36 15 23 16 22 17 24 18 33 19 25 20 31 21 29 22
REMARK SMILES IDX 38 23 34 25 35 26 26 27 27 28 28 29 32 30 30 32 18 34 6 36
REMARK SMILES IDX 7 37 8 38 14 39 15 40 10 41 12 43
REMARK H PARENT 38 24 32 31 30 33 18 35 10 42 12 44
REMARK Flexibility Score: inf
ROOT
ATOM      1  C   UNL     1     -26.865 -21.296  39.619  1.00  0.00     0.045 C 
ATOM      2  C   UNL     1     -26.838 -20.411  40.844  1.00  0.00    -0.039 A 
ATOM      3  C   UNL     1     -27.950 -20.377  41.685  1.00  0.00     0.013 A 
ATOM      4  C   UNL     1     -27.996 -19.550  42.830  1.00  0.00    -0.006 A 
ATOM      5  C   UNL     1     -26.840 -18.782  43.168  1.00  0.00     0.039 A 
ATOM      6  C   UNL     1     -26.878 -17.960  44.333  1.00  0.00     0.072 A 
ATOM      7  C   UNL     1     -27.960 -18.056  45.225  1.00  0.00     0.169 A 
ATOM      8  C   UNL     1     -29.049 -18.894  44.933  1.00  0.00     0.162 A 
ATOM      9  C   UNL     1     -29.155 -19.510  43.667  1.00  0.00     0.008 A 
ATOM     10  C   UNL     1     -25.672 -18.896  42.357  1.00  0.00     0.132 A 
ATOM     11  C   UNL     1     -25.688 -19.683  41.186  1.00  0.00     0.031 A 
ENDROOT
BRANCH  11  12
ATOM     12  C   UNL     1     -24.475 -19.778  40.331  1.00  0.00     0.031 A 
ATOM     13  C   UNL     1     -23.579 -20.857  40.490  1.00  0.00     0.132 A 
ATOM     14  C   UNL     1     -24.245 -18.813  39.338  1.00  0.00    -0.039 A 
ATOM     15  C   UNL     1     -22.404 -20.950  39.681  1.00  0.00     0.039 A 
ATOM     16  C   UNL     1     -23.115 -18.916  38.526  1.00  0.00     0.013 A 
ATOM     17  C   UNL     1     -25.236 -17.702  39.084  1.00  0.00     0.045 C 
ATOM     18  C   UNL     1     -22.152 -19.933  38.710  1.00  0.00    -0.006 A 
ATOM     19  C   UNL     1     -21.494 -22.048  39.781  1.00  0.00     0.072 A 
ATOM     20  C   UNL     1     -20.966 -19.975  37.914  1.00  0.00     0.008 A 
ATOM     21  C   UNL     1     -20.415 -22.151  38.880  1.00  0.00     0.169 A 
ATOM     22  C   UNL     1     -20.181 -21.148  37.935  1.00  0.00     0.162 A 
BRANCH  13  23
ATOM     23  O   UNL     1     -23.868 -21.844  41.440  1.00  0.00    -0.507 OA
ATOM     24  H   UNL     1     -24.794 -22.215  41.608  1.00  0.00     0.293 HD
ENDBRANCH  13  23
BRANCH  19  25
ATOM     25  C   UNL     1     -21.649 -23.101  40.805  1.00  0.00     0.264 C 
ATOM     26  O   UNL     1     -22.067 -24.247  40.487  1.00  0.00    -0.298 OA
ENDBRANCH  19  25
BRANCH  20  27
ATOM     27  C   UNL     1     -20.542 -18.790  37.028  1.00  0.00     0.017 C 
ATOM     28  C   UNL     1     -20.756 -19.114  35.545  1.00  0.00     0.012 C 
ATOM     29  C   UNL     1     -19.107 -18.297  37.290  1.00  0.00     0.012 C 
ENDBRANCH  20  27
BRANCH  21  30
ATOM     30  O   UNL     1     -19.526 -23.232  38.918  1.00  0.00    -0.504 OA
ATOM     31  H   UNL     1     -19.158 -23.694  38.098  1.00  0.00     0.293 HD
ENDBRANCH  21  30
BRANCH  22  32
ATOM     32  O   UNL     1     -19.152 -21.313  37.004  1.00  0.00    -0.504 OA
ATOM     33  H   UNL     1     -18.516 -22.102  37.018  1.00  0.00     0.293 HD
ENDBRANCH  22  32
ENDBRANCH  11  12
BRANCH  10  34
ATOM     34  O   UNL     1     -24.483 -18.263  42.739  1.00  0.00    -0.507 OA
ATOM     35  H   UNL     1     -23.607 -18.360  42.242  1.00  0.00     0.293 HD
ENDBRANCH  10  34
BRANCH   9  36
ATOM     36  C   UNL     1     -30.483 -20.164  43.246  1.00  0.00     0.017 C 
ATOM     37  C   UNL     1     -30.718 -21.470  44.013  1.00  0.00     0.012 C 
ATOM     38  C   UNL     1     -31.701 -19.227  43.353  1.00  0.00     0.012 C 
ENDBRANCH   9  36
BRANCH   6  39
ATOM     39  C   UNL     1     -25.847 -16.926  44.601  1.00  0.00     0.264 C 
ATOM     40  O   UNL     1     -24.979 -17.089  45.501  1.00  0.00    -0.298 OA
ENDBRANCH   6  39
BRANCH   8  41
ATOM     41  O   UNL     1     -30.035 -19.137  45.893  1.00  0.00    -0.504 OA
ATOM     42  H   UNL     1     -31.028 -19.064  45.716  1.00  0.00     0.293 HD
ENDBRANCH   8  41
BRANCH   7  43
ATOM     43  O   UNL     1     -27.953 -17.266  46.381  1.00  0.00    -0.504 OA
ATOM     44  H   UNL     1     -28.786 -16.989  46.882  1.00  0.00     0.293 HD
ENDBRANCH   7  43
TORSDOF 11
ENDMDL
MODEL 9
REMARK VINA RESULT:    -4.943      3.373      8.789
REMARK INTER + INTRA:          -8.321
REMARK INTER:                  -7.290
REMARK INTRA:                  -1.031
REMARK UNBOUND:                -1.067
REMARK SMILES Cc1cc2c(C(C)C)c(O)c(O)c(C=O)c2c(O)c1-c1c(C)cc2c(C(C)C)c(O)c(O)c(C=O)c2c1O
REMARK SMILES IDX 1 1 2 2 3 3 4 4 16 5 13 6 11 7 9 8 5 9 17 10 19 11 20 12
REMARK SMILES IDX 37 13 21 14 36 15 23 16 22 17 24 18 33 19 25 20 31 21 29 22
REMARK SMILES IDX 38 23 34 25 35 26 26 27 27 28 28 29 32 30 30 32 18 34 6 36
REMARK SMILES IDX 7 37 8 38 14 39 15 40 10 41 12 43
REMARK H PARENT 38 24 32 31 30 33 18 35 10 42 12 44
REMARK Flexibility Score: inf
ROOT
ATOM      1  C   UNL     1     -25.131 -17.631  39.055  1.00  0.00     0.045 C 
ATOM      2  C   UNL     1     -24.138 -18.761  39.190  1.00  0.00    -0.039 A 
ATOM      3  C   UNL     1     -23.020 -18.791  38.355  1.00  0.00     0.013 A 
ATOM      4  C   UNL     1     -22.070 -19.835  38.414  1.00  0.00    -0.006 A 
ATOM      5  C   UNL     1     -22.227 -20.850  39.407  1.00  0.00     0.039 A 
ATOM      6  C   UNL     1     -21.260 -21.895  39.481  1.00  0.00     0.072 A 
ATOM      7  C   UNL     1     -20.082 -21.816  38.717  1.00  0.00     0.169 A 
ATOM      8  C   UNL     1     -19.890 -20.757  37.815  1.00  0.00     0.162 A 
ATOM      9  C   UNL     1     -20.944 -19.860  37.533  1.00  0.00     0.008 A 
ATOM     10  C   UNL     1     -23.320 -20.761  40.320  1.00  0.00     0.132 A 
ATOM     11  C   UNL     1     -24.282 -19.738  40.188  1.00  0.00     0.031 A 
ENDROOT
BRANCH  11  12
ATOM     12  C   UNL     1     -25.433 -19.665  41.128  1.00  0.00     0.031 A 
ATOM     13  C   UNL     1     -25.375 -18.815  42.253  1.00  0.00     0.132 A 
ATOM     14  C   UNL     1     -26.592 -20.413  40.870  1.00  0.00    -0.039 A 
ATOM     15  C   UNL     1     -26.470 -18.747  43.169  1.00  0.00     0.039 A 
ATOM     16  C   UNL     1     -27.675 -20.328  41.745  1.00  0.00     0.013 A 
ATOM     17  C   UNL     1     -26.716 -21.258  39.624  1.00  0.00     0.045 C 
ATOM     18  C   UNL     1     -27.624 -19.555  42.926  1.00  0.00    -0.006 A 
ATOM     19  C   UNL     1     -26.469 -17.868  44.296  1.00  0.00     0.072 A 
ATOM     20  C   UNL     1     -28.719 -19.541  43.844  1.00  0.00     0.008 A 
ATOM     21  C   UNL     1     -27.622 -17.756  45.100  1.00  0.00     0.169 A 
ATOM     22  C   UNL     1     -28.743 -18.552  44.850  1.00  0.00     0.162 A 
BRANCH  13  23
ATOM     23  O   UNL     1     -24.235 -18.025  42.449  1.00  0.00    -0.507 OA
ATOM     24  H   UNL     1     -23.332 -18.221  42.036  1.00  0.00     0.293 HD
ENDBRANCH  13  23
BRANCH  19  25
ATOM     25  C   UNL     1     -25.289 -17.055  44.652  1.00  0.00     0.264 C 
ATOM     26  O   UNL     1     -24.718 -17.207  45.764  1.00  0.00    -0.298 OA
ENDBRANCH  19  25
BRANCH  20  27
ATOM     27  C   UNL     1     -29.871 -20.557  43.746  1.00  0.00     0.017 C 
ATOM     28  C   UNL     1     -29.353 -21.988  43.923  1.00  0.00     0.012 C 
ATOM     29  C   UNL     1     -30.715 -20.422  42.466  1.00  0.00     0.012 C 
ENDBRANCH  20  27
BRANCH  21  30
ATOM     30  O   UNL     1     -27.675 -16.875  46.188  1.00  0.00    -0.504 OA
ATOM     31  H   UNL     1     -27.466 -15.888  46.131  1.00  0.00     0.293 HD
ENDBRANCH  21  30
BRANCH  22  32
ATOM     32  O   UNL     1     -29.898 -18.363  45.613  1.00  0.00    -0.504 OA
ATOM     33  H   UNL     1     -30.348 -19.110  46.128  1.00  0.00     0.293 HD
ENDBRANCH  22  32
ENDBRANCH  11  12
BRANCH  10  34
ATOM     34  O   UNL     1     -23.423 -21.661  41.388  1.00  0.00    -0.507 OA
ATOM     35  H   UNL     1     -22.846 -21.622  42.218  1.00  0.00     0.293 HD
ENDBRANCH  10  34
BRANCH   9  36
ATOM     36  C   UNL     1     -20.832 -18.906  36.331  1.00  0.00     0.017 C 
ATOM     37  C   UNL     1     -19.728 -17.867  36.558  1.00  0.00     0.012 C 
ATOM     38  C   UNL     1     -20.654 -19.623  34.979  1.00  0.00     0.012 C 
ENDBRANCH   9  36
BRANCH   6  39
ATOM     39  C   UNL     1     -21.490 -23.126  40.277  1.00  0.00     0.264 C 
ATOM     40  O   UNL     1     -21.552 -24.258  39.724  1.00  0.00    -0.298 OA
ENDBRANCH   6  39
BRANCH   8  41
ATOM     41  O   UNL     1     -18.652 -20.569  37.194  1.00  0.00    -0.504 OA
ATOM     42  H   UNL     1     -17.832 -20.210  37.663  1.00  0.00     0.293 HD
ENDBRANCH   8  41
BRANCH   7  43
ATOM     43  O   UNL     1     -19.131 -22.837  38.838  1.00  0.00    -0.504 OA
ATOM     44  H   UNL     1     -19.360 -23.820  38.883  1.00  0.00     0.293 HD
ENDBRANCH   7  43
TORSDOF 11
ENDMDL
