MODEL 1
REMARK VINA RESULT:    -6.540      0.000      0.000
REMARK INTER + INTRA:          -8.147
REMARK INTER:                  -7.878
REMARK INTRA:                  -0.269
REMARK UNBOUND:                -0.269
REMARK SMILES O=c1c(O)c(-c2ccc(O)c(O)c2)oc2cc(O)cc(O)c12
REMARK SMILES IDX 5 1 3 2 2 3 1 4 22 5 20 6 19 7 17 8 16 9 15 10 14 11 6 12
REMARK SMILES IDX 7 13 8 14 9 15 13 16 11 17 10 18 12 20 4 22 21 24 18 26
REMARK H PARENT 10 19 12 21 4 23 21 25 18 27
REMARK Flexibility Score: inf
ROOT
ATOM      1  C   UNL     1       5.248  -0.589  -5.216  1.00  0.00     0.180 A 
ATOM      2  C   UNL     1       5.802  -1.587  -6.036  1.00  0.00     0.208 A 
ATOM      3  C   UNL     1       5.709  -2.929  -5.631  1.00  0.00     0.238 A 
ATOM      4  O   UNL     1       6.271  -3.810  -6.331  1.00  0.00    -0.285 OA
ATOM      5  C   UNL     1       5.016  -3.260  -4.441  1.00  0.00     0.111 A 
ATOM      6  C   UNL     1       4.822  -4.590  -3.958  1.00  0.00     0.134 A 
ATOM      7  C   UNL     1       4.212  -4.790  -2.714  1.00  0.00     0.093 A 
ATOM      8  C   UNL     1       3.731  -3.713  -1.965  1.00  0.00     0.123 A 
ATOM      9  C   UNL     1       3.868  -2.416  -2.453  1.00  0.00     0.094 A 
ATOM     10  C   UNL     1       4.506  -2.181  -3.673  1.00  0.00     0.146 A 
ATOM     11  O   UNL     1       4.633  -0.927  -4.090  1.00  0.00    -0.452 OA
ENDROOT
BRANCH   1  12
ATOM     12  C   UNL     1       5.319   0.848  -5.568  1.00  0.00     0.025 A 
ATOM     13  C   UNL     1       4.453   1.362  -6.546  1.00  0.00     0.016 A 
ATOM     14  C   UNL     1       4.488   2.718  -6.879  1.00  0.00     0.051 A 
ATOM     15  C   UNL     1       5.375   3.584  -6.233  1.00  0.00     0.157 A 
ATOM     16  C   UNL     1       6.196   1.723  -4.904  1.00  0.00     0.062 A 
ATOM     17  C   UNL     1       6.232   3.085  -5.236  1.00  0.00     0.158 A 
BRANCH  15  18
ATOM     18  O   UNL     1       5.389   4.932  -6.588  1.00  0.00    -0.504 OA
ATOM     19  H   UNL     1       6.225   5.389  -6.932  1.00  0.00     0.293 HD
ENDBRANCH  15  18
BRANCH  17  20
ATOM     20  O   UNL     1       7.109   3.945  -4.576  1.00  0.00    -0.504 OA
ATOM     21  H   UNL     1       8.051   4.103  -4.913  1.00  0.00     0.293 HD
ENDBRANCH  17  20
ENDBRANCH   1  12
BRANCH   2  22
ATOM     22  O   UNL     1       6.415  -1.247  -7.244  1.00  0.00    -0.502 OA
ATOM     23  H   UNL     1       7.397  -1.007  -7.307  1.00  0.00     0.293 HD
ENDBRANCH   2  22
BRANCH   6  24
ATOM     24  O   UNL     1       5.181  -5.741  -4.665  1.00  0.00    -0.507 OA
ATOM     25  H   UNL     1       5.488  -6.605  -4.245  1.00  0.00     0.293 HD
ENDBRANCH   6  24
BRANCH   8  26
ATOM     26  O   UNL     1       3.111  -3.922  -0.735  1.00  0.00    -0.508 OA
ATOM     27  H   UNL     1       2.966  -3.165  -0.078  1.00  0.00     0.293 HD
ENDBRANCH   8  26
TORSDOF 6
ENDMDL
MODEL 2
REMARK VINA RESULT:    -6.531      0.598      1.408
REMARK INTER + INTRA:          -8.136
REMARK INTER:                  -8.105
REMARK INTRA:                  -0.031
REMARK UNBOUND:                -0.269
REMARK SMILES O=c1c(O)c(-c2ccc(O)c(O)c2)oc2cc(O)cc(O)c12
REMARK SMILES IDX 5 1 3 2 2 3 1 4 22 5 20 6 19 7 17 8 16 9 15 10 14 11 6 12
REMARK SMILES IDX 7 13 8 14 9 15 13 16 11 17 10 18 12 20 4 22 21 24 18 26
REMARK H PARENT 10 19 12 21 4 23 21 25 18 27
REMARK Flexibility Score: inf
ROOT
ATOM      1  C   UNL     1       5.175  -0.565  -5.068  1.00  0.00     0.180 A 
ATOM      2  C   UNL     1       5.746  -1.534  -5.911  1.00  0.00     0.208 A 
ATOM      3  C   UNL     1       5.667  -2.887  -5.544  1.00  0.00     0.238 A 
ATOM      4  O   UNL     1       6.244  -3.742  -6.264  1.00  0.00    -0.285 OA
ATOM      5  C   UNL     1       4.969  -3.259  -4.369  1.00  0.00     0.111 A 
ATOM      6  C   UNL     1       4.787  -4.604  -3.924  1.00  0.00     0.134 A 
ATOM      7  C   UNL     1       4.170  -4.845  -2.690  1.00  0.00     0.093 A 
ATOM      8  C   UNL     1       3.672  -3.795  -1.915  1.00  0.00     0.123 A 
ATOM      9  C   UNL     1       3.796  -2.484  -2.367  1.00  0.00     0.094 A 
ATOM     10  C   UNL     1       4.441  -2.207  -3.575  1.00  0.00     0.146 A 
ATOM     11  O   UNL     1       4.556  -0.941  -3.956  1.00  0.00    -0.452 OA
ENDROOT
BRANCH   1  12
ATOM     12  C   UNL     1       5.232   0.882  -5.379  1.00  0.00     0.025 A 
ATOM     13  C   UNL     1       5.789   1.767  -4.442  1.00  0.00     0.016 A 
ATOM     14  C   UNL     1       5.872   3.133  -4.722  1.00  0.00     0.051 A 
ATOM     15  C   UNL     1       5.416   3.634  -5.946  1.00  0.00     0.157 A 
ATOM     16  C   UNL     1       4.793   1.383  -6.617  1.00  0.00     0.062 A 
ATOM     17  C   UNL     1       4.878   2.755  -6.901  1.00  0.00     0.158 A 
BRANCH  15  18
ATOM     18  O   UNL     1       5.510   5.002  -6.196  1.00  0.00    -0.504 OA
ATOM     19  H   UNL     1       5.210   5.695  -5.521  1.00  0.00     0.293 HD
ENDBRANCH  15  18
BRANCH  17  20
ATOM     20  O   UNL     1       4.435   3.244  -8.129  1.00  0.00    -0.504 OA
ATOM     21  H   UNL     1       4.906   4.010  -8.597  1.00  0.00     0.293 HD
ENDBRANCH  17  20
ENDBRANCH   1  12
BRANCH   2  22
ATOM     22  O   UNL     1       6.364  -1.153  -7.104  1.00  0.00    -0.502 OA
ATOM     23  H   UNL     1       5.895  -1.202  -8.000  1.00  0.00     0.293 HD
ENDBRANCH   2  22
BRANCH   6  24
ATOM     24  O   UNL     1       5.165  -5.730  -4.659  1.00  0.00    -0.507 OA
ATOM     25  H   UNL     1       4.781  -5.992  -5.555  1.00  0.00     0.293 HD
ENDBRANCH   6  24
BRANCH   8  26
ATOM     26  O   UNL     1       3.045  -4.046  -0.696  1.00  0.00    -0.508 OA
ATOM     27  H   UNL     1       3.108  -3.393   0.076  1.00  0.00     0.293 HD
ENDBRANCH   8  26
TORSDOF 6
ENDMDL
MODEL 3
REMARK VINA RESULT:    -6.188      1.335      6.794
REMARK INTER + INTRA:          -7.723
REMARK INTER:                  -8.051
REMARK INTRA:                   0.328
REMARK UNBOUND:                -0.269
REMARK SMILES O=c1c(O)c(-c2ccc(O)c(O)c2)oc2cc(O)cc(O)c12
REMARK SMILES IDX 5 1 3 2 2 3 1 4 22 5 20 6 19 7 17 8 16 9 15 10 14 11 6 12
REMARK SMILES IDX 7 13 8 14 9 15 13 16 11 17 10 18 12 20 4 22 21 24 18 26
REMARK H PARENT 10 19 12 21 4 23 21 25 18 27
REMARK Flexibility Score: inf
ROOT
ATOM      1  C   UNL     1       4.908  -0.786  -5.013  1.00  0.00     0.180 A 
ATOM      2  C   UNL     1       4.954  -0.684  -6.414  1.00  0.00     0.208 A 
ATOM      3  C   UNL     1       5.124   0.581  -6.999  1.00  0.00     0.238 A 
ATOM      4  O   UNL     1       5.090   0.676  -8.253  1.00  0.00    -0.285 OA
ATOM      5  C   UNL     1       5.303   1.720  -6.176  1.00  0.00     0.111 A 
ATOM      6  C   UNL     1       5.529   3.044  -6.660  1.00  0.00     0.134 A 
ATOM      7  C   UNL     1       5.585   4.110  -5.754  1.00  0.00     0.093 A 
ATOM      8  C   UNL     1       5.489   3.893  -4.377  1.00  0.00     0.123 A 
ATOM      9  C   UNL     1       5.323   2.598  -3.893  1.00  0.00     0.094 A 
ATOM     10  C   UNL     1       5.224   1.518  -4.773  1.00  0.00     0.146 A 
ATOM     11  O   UNL     1       5.045   0.304  -4.268  1.00  0.00    -0.452 OA
ENDROOT
BRANCH   1  12
ATOM     12  C   UNL     1       4.715  -2.082  -4.324  1.00  0.00     0.025 A 
ATOM     13  C   UNL     1       4.109  -2.107  -3.058  1.00  0.00     0.016 A 
ATOM     14  C   UNL     1       3.898  -3.320  -2.397  1.00  0.00     0.051 A 
ATOM     15  C   UNL     1       4.274  -4.526  -2.995  1.00  0.00     0.157 A 
ATOM     16  C   UNL     1       5.073  -3.298  -4.933  1.00  0.00     0.062 A 
ATOM     17  C   UNL     1       4.861  -4.517  -4.273  1.00  0.00     0.158 A 
BRANCH  15  18
ATOM     18  O   UNL     1       4.053  -5.721  -2.312  1.00  0.00    -0.504 OA
ATOM     19  H   UNL     1       4.516  -6.583  -2.571  1.00  0.00     0.293 HD
ENDBRANCH  15  18
BRANCH  17  20
ATOM     20  O   UNL     1       5.225  -5.717  -4.882  1.00  0.00    -0.504 OA
ATOM     21  H   UNL     1       4.874  -6.608  -4.552  1.00  0.00     0.293 HD
ENDBRANCH  17  20
ENDBRANCH   1  12
BRANCH   2  22
ATOM     22  O   UNL     1       4.851  -1.830  -7.207  1.00  0.00    -0.502 OA
ATOM     23  H   UNL     1       4.877  -1.795  -8.219  1.00  0.00     0.293 HD
ENDBRANCH   2  22
BRANCH   6  24
ATOM     24  O   UNL     1       5.729   3.363  -8.006  1.00  0.00    -0.507 OA
ATOM     25  H   UNL     1       5.538   4.262  -8.422  1.00  0.00     0.293 HD
ENDBRANCH   6  24
BRANCH   8  26
ATOM     26  O   UNL     1       5.563   4.958  -3.482  1.00  0.00    -0.508 OA
ATOM     27  H   UNL     1       5.346   5.905  -3.767  1.00  0.00     0.293 HD
ENDBRANCH   8  26
TORSDOF 6
ENDMDL
MODEL 4
REMARK VINA RESULT:    -5.746      1.276      1.835
REMARK INTER + INTRA:          -7.191
REMARK INTER:                  -7.275
REMARK INTRA:                   0.084
REMARK UNBOUND:                -0.269
REMARK SMILES O=c1c(O)c(-c2ccc(O)c(O)c2)oc2cc(O)cc(O)c12
REMARK SMILES IDX 5 1 3 2 2 3 1 4 22 5 20 6 19 7 17 8 16 9 15 10 14 11 6 12
REMARK SMILES IDX 7 13 8 14 9 15 13 16 11 17 10 18 12 20 4 22 21 24 18 26
REMARK H PARENT 10 19 12 21 4 23 21 25 18 27
REMARK Flexibility Score: inf
ROOT
ATOM      1  C   UNL     1       5.381  -0.156  -5.029  1.00  0.00     0.180 A 
ATOM      2  C   UNL     1       6.221  -0.710  -6.010  1.00  0.00     0.208 A 
ATOM      3  C   UNL     1       6.402  -2.102  -6.044  1.00  0.00     0.238 A 
ATOM      4  O   UNL     1       7.213  -2.585  -6.877  1.00  0.00    -0.285 OA
ATOM      5  C   UNL     1       5.696  -2.928  -5.135  1.00  0.00     0.111 A 
ATOM      6  C   UNL     1       5.768  -4.353  -5.109  1.00  0.00     0.134 A 
ATOM      7  C   UNL     1       5.108  -5.059  -4.095  1.00  0.00     0.093 A 
ATOM      8  C   UNL     1       4.327  -4.396  -3.146  1.00  0.00     0.123 A 
ATOM      9  C   UNL     1       4.207  -3.010  -3.196  1.00  0.00     0.094 A 
ATOM     10  C   UNL     1       4.884  -2.274  -4.171  1.00  0.00     0.146 A 
ATOM     11  O   UNL     1       4.759  -0.952  -4.168  1.00  0.00    -0.452 OA
ENDROOT
BRANCH   1  12
ATOM     12  C   UNL     1       5.154   1.303  -4.919  1.00  0.00     0.025 A 
ATOM     13  C   UNL     1       5.239   1.921  -3.661  1.00  0.00     0.016 A 
ATOM     14  C   UNL     1       5.049   3.299  -3.536  1.00  0.00     0.051 A 
ATOM     15  C   UNL     1       4.786   4.083  -4.663  1.00  0.00     0.157 A 
ATOM     16  C   UNL     1       4.910   2.095  -6.054  1.00  0.00     0.062 A 
ATOM     17  C   UNL     1       4.720   3.480  -5.931  1.00  0.00     0.158 A 
BRANCH  15  18
ATOM     18  O   UNL     1       4.598   5.456  -4.507  1.00  0.00    -0.504 OA
ATOM     19  H   UNL     1       4.860   6.120  -5.226  1.00  0.00     0.293 HD
ENDBRANCH  15  18
BRANCH  17  20
ATOM     20  O   UNL     1       4.474   4.257  -7.062  1.00  0.00    -0.504 OA
ATOM     21  H   UNL     1       3.662   4.100  -7.648  1.00  0.00     0.293 HD
ENDBRANCH  17  20
ENDBRANCH   1  12
BRANCH   2  22
ATOM     22  O   UNL     1       6.849   0.115  -6.946  1.00  0.00    -0.502 OA
ATOM     23  H   UNL     1       6.417   0.957  -7.307  1.00  0.00     0.293 HD
ENDBRANCH   2  22
BRANCH   6  24
ATOM     24  O   UNL     1       6.445  -5.122  -6.060  1.00  0.00    -0.507 OA
ATOM     25  H   UNL     1       6.217  -5.158  -7.042  1.00  0.00     0.293 HD
ENDBRANCH   6  24
BRANCH   8  26
ATOM     26  O   UNL     1       3.661  -5.108  -2.150  1.00  0.00    -0.508 OA
ATOM     27  H   UNL     1       3.045  -4.647  -1.491  1.00  0.00     0.293 HD
ENDBRANCH   8  26
TORSDOF 6
ENDMDL
MODEL 5
REMARK VINA RESULT:    -5.628      1.513      6.560
REMARK INTER + INTRA:          -7.049
REMARK INTER:                  -7.459
REMARK INTRA:                   0.411
REMARK UNBOUND:                -0.269
REMARK SMILES O=c1c(O)c(-c2ccc(O)c(O)c2)oc2cc(O)cc(O)c12
REMARK SMILES IDX 5 1 3 2 2 3 1 4 22 5 20 6 19 7 17 8 16 9 15 10 14 11 6 12
REMARK SMILES IDX 7 13 8 14 9 15 13 16 11 17 10 18 12 20 4 22 21 24 18 26
REMARK H PARENT 10 19 12 21 4 23 21 25 18 27
REMARK Flexibility Score: inf
ROOT
ATOM      1  C   UNL     1       4.827  -1.791  -4.750  1.00  0.00     0.180 A 
ATOM      2  C   UNL     1       5.601  -2.512  -5.675  1.00  0.00     0.208 A 
ATOM      3  C   UNL     1       6.054  -1.864  -6.836  1.00  0.00     0.238 A 
ATOM      4  O   UNL     1       6.683  -2.535  -7.694  1.00  0.00    -0.285 OA
ATOM      5  C   UNL     1       5.776  -0.489  -7.029  1.00  0.00     0.111 A 
ATOM      6  C   UNL     1       6.224   0.280  -8.146  1.00  0.00     0.134 A 
ATOM      7  C   UNL     1       5.798   1.607  -8.285  1.00  0.00     0.093 A 
ATOM      8  C   UNL     1       4.994   2.212  -7.316  1.00  0.00     0.123 A 
ATOM      9  C   UNL     1       4.598   1.486  -6.197  1.00  0.00     0.094 A 
ATOM     10  C   UNL     1       4.973   0.149  -6.048  1.00  0.00     0.146 A 
ATOM     11  O   UNL     1       4.554  -0.511  -4.975  1.00  0.00    -0.452 OA
ENDROOT
BRANCH   1  12
ATOM     12  C   UNL     1       4.300  -2.408  -3.512  1.00  0.00     0.025 A 
ATOM     13  C   UNL     1       3.752  -1.589  -2.512  1.00  0.00     0.016 A 
ATOM     14  C   UNL     1       3.230  -2.151  -1.344  1.00  0.00     0.051 A 
ATOM     15  C   UNL     1       3.233  -3.538  -1.163  1.00  0.00     0.157 A 
ATOM     16  C   UNL     1       4.283  -3.803  -3.338  1.00  0.00     0.062 A 
ATOM     17  C   UNL     1       3.757  -4.370  -2.167  1.00  0.00     0.158 A 
BRANCH  15  18
ATOM     18  O   UNL     1       2.707  -4.070   0.013  1.00  0.00    -0.504 OA
ATOM     19  H   UNL     1       3.283  -4.561   0.687  1.00  0.00     0.293 HD
ENDBRANCH  15  18
BRANCH  17  20
ATOM     20  O   UNL     1       3.750  -5.754  -2.001  1.00  0.00    -0.504 OA
ATOM     21  H   UNL     1       3.023  -6.222  -1.471  1.00  0.00     0.293 HD
ENDBRANCH  17  20
ENDBRANCH   1  12
BRANCH   2  22
ATOM     22  O   UNL     1       5.928  -3.848  -5.429  1.00  0.00    -0.502 OA
ATOM     23  H   UNL     1       5.694  -4.593  -6.073  1.00  0.00     0.293 HD
ENDBRANCH   2  22
BRANCH   6  24
ATOM     24  O   UNL     1       7.101  -0.196  -9.125  1.00  0.00    -0.507 OA
ATOM     25  H   UNL     1       7.081  -1.127  -9.514  1.00  0.00     0.293 HD
ENDBRANCH   6  24
BRANCH   8  26
ATOM     26  O   UNL     1       4.589   3.538  -7.455  1.00  0.00    -0.508 OA
ATOM     27  H   UNL     1       4.732   4.216  -6.716  1.00  0.00     0.293 HD
ENDBRANCH   8  26
TORSDOF 6
ENDMDL
MODEL 6
REMARK VINA RESULT:    -5.562      1.847      6.918
REMARK INTER + INTRA:          -6.968
REMARK INTER:                  -6.846
REMARK INTRA:                  -0.122
REMARK UNBOUND:                -0.269
REMARK SMILES O=c1c(O)c(-c2ccc(O)c(O)c2)oc2cc(O)cc(O)c12
REMARK SMILES IDX 5 1 3 2 2 3 1 4 22 5 20 6 19 7 17 8 16 9 15 10 14 11 6 12
REMARK SMILES IDX 7 13 8 14 9 15 13 16 11 17 10 18 12 20 4 22 21 24 18 26
REMARK H PARENT 10 19 12 21 4 23 21 25 18 27
REMARK Flexibility Score: inf
ROOT
ATOM      1  C   UNL     1       5.019   0.088  -6.167  1.00  0.00     0.180 A 
ATOM      2  C   UNL     1       4.976   0.452  -7.524  1.00  0.00     0.208 A 
ATOM      3  C   UNL     1       4.932   1.814  -7.863  1.00  0.00     0.238 A 
ATOM      4  O   UNL     1       4.819   2.130  -9.076  1.00  0.00    -0.285 OA
ATOM      5  C   UNL     1       4.989   2.796  -6.844  1.00  0.00     0.111 A 
ATOM      6  C   UNL     1       4.996   4.205  -7.075  1.00  0.00     0.134 A 
ATOM      7  C   UNL     1       4.946   5.083  -5.985  1.00  0.00     0.093 A 
ATOM      8  C   UNL     1       4.955   4.604  -4.672  1.00  0.00     0.123 A 
ATOM      9  C   UNL     1       5.003   3.233  -4.437  1.00  0.00     0.094 A 
ATOM     10  C   UNL     1       5.013   2.330  -5.503  1.00  0.00     0.146 A 
ATOM     11  O   UNL     1       5.037   1.031  -5.233  1.00  0.00    -0.452 OA
ENDROOT
BRANCH   1  12
ATOM     12  C   UNL     1       5.051  -1.326  -5.731  1.00  0.00     0.025 A 
ATOM     13  C   UNL     1       3.984  -1.839  -4.976  1.00  0.00     0.016 A 
ATOM     14  C   UNL     1       3.982  -3.176  -4.571  1.00  0.00     0.051 A 
ATOM     15  C   UNL     1       5.036  -4.025  -4.925  1.00  0.00     0.157 A 
ATOM     16  C   UNL     1       6.099  -2.186  -6.105  1.00  0.00     0.062 A 
ATOM     17  C   UNL     1       6.098  -3.529  -5.701  1.00  0.00     0.158 A 
BRANCH  15  18
ATOM     18  O   UNL     1       5.008  -5.354  -4.505  1.00  0.00    -0.504 OA
ATOM     19  H   UNL     1       4.875  -6.121  -5.154  1.00  0.00     0.293 HD
ENDBRANCH  15  18
BRANCH  17  20
ATOM     20  O   UNL     1       7.145  -4.373  -6.071  1.00  0.00    -0.504 OA
ATOM     21  H   UNL     1       8.112  -4.075  -6.017  1.00  0.00     0.293 HD
ENDBRANCH  17  20
ENDBRANCH   1  12
BRANCH   2  22
ATOM     22  O   UNL     1       4.998  -0.531  -8.517  1.00  0.00    -0.502 OA
ATOM     23  H   UNL     1       5.843  -1.022  -8.779  1.00  0.00     0.293 HD
ENDBRANCH   2  22
BRANCH   6  24
ATOM     24  O   UNL     1       5.077   4.792  -8.341  1.00  0.00    -0.507 OA
ATOM     25  H   UNL     1       5.735   4.529  -9.058  1.00  0.00     0.293 HD
ENDBRANCH   6  24
BRANCH   8  26
ATOM     26  O   UNL     1       4.922   5.486  -3.594  1.00  0.00    -0.508 OA
ATOM     27  H   UNL     1       4.060   5.928  -3.297  1.00  0.00     0.293 HD
ENDBRANCH   8  26
TORSDOF 6
ENDMDL
MODEL 7
REMARK VINA RESULT:    -5.372      1.727      6.940
REMARK INTER + INTRA:          -6.740
REMARK INTER:                  -6.709
REMARK INTRA:                  -0.031
REMARK UNBOUND:                -0.269
REMARK SMILES O=c1c(O)c(-c2ccc(O)c(O)c2)oc2cc(O)cc(O)c12
REMARK SMILES IDX 5 1 3 2 2 3 1 4 22 5 20 6 19 7 17 8 16 9 15 10 14 11 6 12
REMARK SMILES IDX 7 13 8 14 9 15 13 16 11 17 10 18 12 20 4 22 21 24 18 26
REMARK H PARENT 10 19 12 21 4 23 21 25 18 27
REMARK Flexibility Score: inf
ROOT
ATOM      1  C   UNL     1       4.979   0.092  -6.149  1.00  0.00     0.180 A 
ATOM      2  C   UNL     1       4.957   0.464  -7.504  1.00  0.00     0.208 A 
ATOM      3  C   UNL     1       4.939   1.829  -7.836  1.00  0.00     0.238 A 
ATOM      4  O   UNL     1       4.844   2.154  -9.047  1.00  0.00    -0.285 OA
ATOM      5  C   UNL     1       5.001   2.804  -6.810  1.00  0.00     0.111 A 
ATOM      6  C   UNL     1       5.034   4.214  -7.032  1.00  0.00     0.134 A 
ATOM      7  C   UNL     1       4.987   5.086  -5.937  1.00  0.00     0.093 A 
ATOM      8  C   UNL     1       4.974   4.599  -4.628  1.00  0.00     0.123 A 
ATOM      9  C   UNL     1       4.996   3.226  -4.401  1.00  0.00     0.094 A 
ATOM     10  C   UNL     1       5.004   2.329  -5.472  1.00  0.00     0.146 A 
ATOM     11  O   UNL     1       5.003   1.029  -5.209  1.00  0.00    -0.452 OA
ENDROOT
BRANCH   1  12
ATOM     12  C   UNL     1       4.983  -1.325  -5.722  1.00  0.00     0.025 A 
ATOM     13  C   UNL     1       5.987  -2.186  -6.195  1.00  0.00     0.016 A 
ATOM     14  C   UNL     1       6.023  -3.522  -5.790  1.00  0.00     0.051 A 
ATOM     15  C   UNL     1       5.069  -4.016  -4.894  1.00  0.00     0.157 A 
ATOM     16  C   UNL     1       4.037  -1.818  -4.806  1.00  0.00     0.062 A 
ATOM     17  C   UNL     1       4.073  -3.159  -4.395  1.00  0.00     0.158 A 
BRANCH  15  18
ATOM     18  O   UNL     1       5.129  -5.354  -4.509  1.00  0.00    -0.504 OA
ATOM     19  H   UNL     1       5.560  -5.645  -3.639  1.00  0.00     0.293 HD
ENDBRANCH  15  18
BRANCH  17  20
ATOM     20  O   UNL     1       3.127  -3.640  -3.490  1.00  0.00    -0.504 OA
ATOM     21  H   UNL     1       2.232  -4.001  -3.799  1.00  0.00     0.293 HD
ENDBRANCH  17  20
ENDBRANCH   1  12
BRANCH   2  22
ATOM     22  O   UNL     1       4.972  -0.513  -8.503  1.00  0.00    -0.502 OA
ATOM     23  H   UNL     1       4.183  -0.679  -9.115  1.00  0.00     0.293 HD
ENDBRANCH   2  22
BRANCH   6  24
ATOM     24  O   UNL     1       5.138   4.807  -8.294  1.00  0.00    -0.507 OA
ATOM     25  H   UNL     1       5.984   4.856  -8.841  1.00  0.00     0.293 HD
ENDBRANCH   6  24
BRANCH   8  26
ATOM     26  O   UNL     1       4.944   5.475  -3.544  1.00  0.00    -0.508 OA
ATOM     27  H   UNL     1       4.685   6.448  -3.656  1.00  0.00     0.293 HD
ENDBRANCH   8  26
TORSDOF 6
ENDMDL
MODEL 8
REMARK VINA RESULT:    -5.330      2.140      4.065
REMARK INTER + INTRA:          -6.689
REMARK INTER:                  -6.463
REMARK INTRA:                  -0.226
REMARK UNBOUND:                -0.269
REMARK SMILES O=c1c(O)c(-c2ccc(O)c(O)c2)oc2cc(O)cc(O)c12
REMARK SMILES IDX 5 1 3 2 2 3 1 4 22 5 20 6 19 7 17 8 16 9 15 10 14 11 6 12
REMARK SMILES IDX 7 13 8 14 9 15 13 16 11 17 10 18 12 20 4 22 21 24 18 26
REMARK H PARENT 10 19 12 21 4 23 21 25 18 27
REMARK Flexibility Score: inf
ROOT
ATOM      1  C   UNL     1       5.633  -1.622  -5.762  1.00  0.00     0.180 A 
ATOM      2  C   UNL     1       4.895  -2.560  -5.020  1.00  0.00     0.208 A 
ATOM      3  C   UNL     1       5.285  -3.909  -5.048  1.00  0.00     0.238 A 
ATOM      4  O   UNL     1       4.576  -4.754  -4.442  1.00  0.00    -0.285 OA
ATOM      5  C   UNL     1       6.440  -4.294  -5.770  1.00  0.00     0.111 A 
ATOM      6  C   UNL     1       6.953  -5.625  -5.831  1.00  0.00     0.134 A 
ATOM      7  C   UNL     1       8.042  -5.908  -6.665  1.00  0.00     0.093 A 
ATOM      8  C   UNL     1       8.677  -4.896  -7.389  1.00  0.00     0.123 A 
ATOM      9  C   UNL     1       8.218  -3.586  -7.294  1.00  0.00     0.094 A 
ATOM     10  C   UNL     1       7.109  -3.278  -6.501  1.00  0.00     0.146 A 
ATOM     11  O   UNL     1       6.692  -2.018  -6.457  1.00  0.00    -0.452 OA
ENDROOT
BRANCH   1  12
ATOM     12  C   UNL     1       5.275  -0.186  -5.795  1.00  0.00     0.025 A 
ATOM     13  C   UNL     1       5.512   0.610  -4.663  1.00  0.00     0.016 A 
ATOM     14  C   UNL     1       5.201   1.972  -4.678  1.00  0.00     0.051 A 
ATOM     15  C   UNL     1       4.664   2.563  -5.826  1.00  0.00     0.157 A 
ATOM     16  C   UNL     1       4.755   0.414  -6.956  1.00  0.00     0.062 A 
ATOM     17  C   UNL     1       4.444   1.782  -6.973  1.00  0.00     0.158 A 
BRANCH  15  18
ATOM     18  O   UNL     1       4.362   3.924  -5.811  1.00  0.00    -0.504 OA
ATOM     19  H   UNL     1       4.420   4.479  -4.965  1.00  0.00     0.293 HD
ENDBRANCH  15  18
BRANCH  17  20
ATOM     20  O   UNL     1       3.923   2.367  -8.127  1.00  0.00    -0.504 OA
ATOM     21  H   UNL     1       4.313   2.174  -9.042  1.00  0.00     0.293 HD
ENDBRANCH  17  20
ENDBRANCH   1  12
BRANCH   2  22
ATOM     22  O   UNL     1       3.803  -2.148  -4.252  1.00  0.00    -0.502 OA
ATOM     23  H   UNL     1       3.813  -2.161  -3.239  1.00  0.00     0.293 HD
ENDBRANCH   2  22
BRANCH   6  24
ATOM     24  O   UNL     1       6.453  -6.693  -5.081  1.00  0.00    -0.507 OA
ATOM     25  H   UNL     1       5.920  -6.602  -4.230  1.00  0.00     0.293 HD
ENDBRANCH   6  24
BRANCH   8  26
ATOM     26  O   UNL     1       9.771  -5.183  -8.203  1.00  0.00    -0.508 OA
ATOM     27  H   UNL     1       9.725  -5.076  -9.210  1.00  0.00     0.293 HD
ENDBRANCH   8  26
TORSDOF 6
ENDMDL
MODEL 9
REMARK VINA RESULT:    -5.206      8.606     10.998
REMARK INTER + INTRA:          -6.540
REMARK INTER:                  -6.225
REMARK INTRA:                  -0.315
REMARK UNBOUND:                -0.269
REMARK SMILES O=c1c(O)c(-c2ccc(O)c(O)c2)oc2cc(O)cc(O)c12
REMARK SMILES IDX 5 1 3 2 2 3 1 4 22 5 20 6 19 7 17 8 16 9 15 10 14 11 6 12
REMARK SMILES IDX 7 13 8 14 9 15 13 16 11 17 10 18 12 20 4 22 21 24 18 26
REMARK H PARENT 10 19 12 21 4 23 21 25 18 27
REMARK Flexibility Score: inf
ROOT
ATOM      1  C   UNL     1       6.208   7.514   0.436  1.00  0.00     0.180 A 
ATOM      2  C   UNL     1       6.566   6.240   0.909  1.00  0.00     0.208 A 
ATOM      3  C   UNL     1       7.526   5.497   0.202  1.00  0.00     0.238 A 
ATOM      4  O   UNL     1       7.787   4.328   0.587  1.00  0.00    -0.285 OA
ATOM      5  C   UNL     1       8.157   6.060  -0.934  1.00  0.00     0.111 A 
ATOM      6  C   UNL     1       9.176   5.416  -1.699  1.00  0.00     0.134 A 
ATOM      7  C   UNL     1       9.651   6.026  -2.867  1.00  0.00     0.093 A 
ATOM      8  C   UNL     1       9.192   7.285  -3.261  1.00  0.00     0.123 A 
ATOM      9  C   UNL     1       8.239   7.945  -2.491  1.00  0.00     0.094 A 
ATOM     10  C   UNL     1       7.715   7.346  -1.343  1.00  0.00     0.146 A 
ATOM     11  O   UNL     1       6.792   8.003  -0.651  1.00  0.00    -0.452 OA
ENDROOT
BRANCH   1  12
ATOM     12  C   UNL     1       5.193   8.350   1.117  1.00  0.00     0.025 A 
ATOM     13  C   UNL     1       5.611   9.403   1.947  1.00  0.00     0.016 A 
ATOM     14  C   UNL     1       4.671  10.218   2.584  1.00  0.00     0.051 A 
ATOM     15  C   UNL     1       3.303  10.005   2.391  1.00  0.00     0.157 A 
ATOM     16  C   UNL     1       3.817   8.151   0.907  1.00  0.00     0.062 A 
ATOM     17  C   UNL     1       2.872   8.969   1.544  1.00  0.00     0.158 A 
BRANCH  15  18
ATOM     18  O   UNL     1       2.389  10.833   3.040  1.00  0.00    -0.504 OA
ATOM     19  H   UNL     1       1.865  10.525   3.851  1.00  0.00     0.293 HD
ENDBRANCH  15  18
BRANCH  17  20
ATOM     20  O   UNL     1       1.510   8.760   1.334  1.00  0.00    -0.504 OA
ATOM     21  H   UNL     1       1.143   7.846   1.096  1.00  0.00     0.293 HD
ENDBRANCH  17  20
ENDBRANCH   1  12
BRANCH   2  22
ATOM     22  O   UNL     1       5.987   5.733   2.075  1.00  0.00    -0.502 OA
ATOM     23  H   UNL     1       5.606   6.331   2.798  1.00  0.00     0.293 HD
ENDBRANCH   2  22
BRANCH   6  24
ATOM     24  O   UNL     1       9.769   4.201  -1.348  1.00  0.00    -0.507 OA
ATOM     25  H   UNL     1       9.291   3.430  -0.908  1.00  0.00     0.293 HD
ENDBRANCH   6  24
BRANCH   8  26
ATOM     26  O   UNL     1       9.684   7.892  -4.416  1.00  0.00    -0.508 OA
ATOM     27  H   UNL     1       9.068   8.354  -5.074  1.00  0.00     0.293 HD
ENDBRANCH   8  26
TORSDOF 6
ENDMDL
