MODEL 1
REMARK VINA RESULT:    -4.769      0.000      0.000
REMARK INTER + INTRA:          -7.372
REMARK INTER:                  -7.278
REMARK INTRA:                  -0.094
REMARK UNBOUND:                -0.094
REMARK SMILES CC1=CCC[C@@H](C)C(=O)C[C@H](C(C)C)C(=O)C1
REMARK SMILES IDX 8 1 9 2 6 3 7 4 5 5 4 6 3 7 2 8 1 9 10 11 11 12 15 13 16 14
REMARK SMILES IDX 17 15 12 17 13 18 14 19
REMARK H PARENT
REMARK Flexibility Score: 70.00
ROOT
ATOM      1  C   UNL     1     -19.373 -39.501  -6.515  1.00  0.00     0.136 C 
ATOM      2  O   UNL     1     -19.119 -39.293  -7.693  1.00  0.00    -0.299 OA
ENDROOT
BRANCH   1   3
ATOM      3  C   UNL     1     -20.811 -39.354  -6.046  1.00  0.00     0.053 C 
ATOM      4  C   UNL     1     -21.746 -40.285  -6.827  1.00  0.00     0.016 C 
BRANCH   3   5
ATOM      5  C   UNL     1     -21.293 -37.891  -6.125  1.00  0.00     0.015 C 
BRANCH   5   6
ATOM      6  C   UNL     1     -21.415 -37.235  -4.732  1.00  0.00     0.028 C 
BRANCH   6   7
ATOM      7  C   UNL     1     -20.422 -36.109  -4.576  1.00  0.00    -0.028 C 
ATOM      8  C   UNL     1     -19.142 -36.244  -4.153  1.00  0.00    -0.070 CG0
ATOM      9  C   UNL     1     -18.274 -35.012  -4.130  1.00  0.00     0.039 C 
ATOM     10  G   UNL     1     -18.554 -37.564  -3.676  1.00  0.00     0.000 G0
ENDBRANCH   6   7
ENDBRANCH   5   6
ENDBRANCH   3   5
ENDBRANCH   1   3
BRANCH   1  11
ATOM     11  C   UNL     1     -18.239 -39.882  -5.585  1.00  0.00     0.087 C 
BRANCH  11  12
ATOM     12  C   UNL     1     -17.086 -38.840  -5.520  1.00  0.00     0.066 C 
BRANCH  12  13
ATOM     13  C   UNL     1     -17.216 -37.957  -4.282  1.00  0.00     0.140 C 
ATOM     14  O   UNL     1     -16.194 -37.520  -3.772  1.00  0.00    -0.299 OA
BRANCH  13  15
ATOM     15  C   UNL     1     -18.539 -37.553  -3.656  1.00  0.00     0.106 CG0
ATOM     16  G   UNL     1     -19.138 -36.249  -4.159  1.00  0.00     0.000 G0
ENDBRANCH  13  15
ENDBRANCH  12  13
BRANCH  12  17
ATOM     17  C   UNL     1     -15.686 -39.532  -5.543  1.00  0.00    -0.006 C 
ATOM     18  C   UNL     1     -15.794 -41.066  -5.459  1.00  0.00     0.008 C 
ATOM     19  C   UNL     1     -14.895 -39.161  -6.811  1.00  0.00     0.008 C 
ENDBRANCH  12  17
ENDBRANCH  11  12
ENDBRANCH   1  11
TORSDOF 1
ENDMDL
MODEL 2
REMARK VINA RESULT:    -4.737      2.107      5.504
REMARK INTER + INTRA:          -7.324
REMARK INTER:                  -7.079
REMARK INTRA:                  -0.245
REMARK UNBOUND:                -0.094
REMARK SMILES CC1=CCC[C@@H](C)C(=O)C[C@H](C(C)C)C(=O)C1
REMARK SMILES IDX 8 1 9 2 6 3 7 4 5 5 4 6 3 7 2 8 1 9 10 11 11 12 15 13 16 14
REMARK SMILES IDX 17 15 12 17 13 18 14 19
REMARK H PARENT
REMARK Flexibility Score: 70.00
ROOT
ATOM      1  C   UNL     1     -18.595 -37.038  -4.141  1.00  0.00     0.136 C 
ATOM      2  O   UNL     1     -18.861 -35.846  -4.199  1.00  0.00    -0.299 OA
ENDROOT
BRANCH   1   3
ATOM      3  C   UNL     1     -17.143 -37.449  -3.966  1.00  0.00     0.053 C 
ATOM      4  C   UNL     1     -16.256 -36.234  -3.666  1.00  0.00     0.016 C 
BRANCH   3   5
ATOM      5  C   UNL     1     -16.617 -38.232  -5.185  1.00  0.00     0.015 C 
BRANCH   5   6
ATOM      6  C   UNL     1     -16.809 -39.757  -5.034  1.00  0.00     0.028 C 
BRANCH   6   7
ATOM      7  C   UNL     1     -17.171 -40.391  -6.356  1.00  0.00    -0.028 C 
ATOM      8  C   UNL     1     -18.420 -40.753  -6.737  1.00  0.00    -0.070 CG0
ATOM      9  C   UNL     1     -18.598 -41.304  -8.128  1.00  0.00     0.039 C 
ATOM     10  G   UNL     1     -19.633 -40.656  -5.824  1.00  0.00     0.000 G0
ENDBRANCH   6   7
ENDBRANCH   5   6
ENDBRANCH   3   5
ENDBRANCH   1   3
BRANCH   1  11
ATOM     11  C   UNL     1     -19.725 -38.040  -4.261  1.00  0.00     0.087 C 
BRANCH  11  12
ATOM     12  C   UNL     1     -20.398 -38.084  -5.663  1.00  0.00     0.066 C 
BRANCH  12  13
ATOM     13  C   UNL     1     -20.605 -39.523  -6.124  1.00  0.00     0.140 C 
ATOM     14  O   UNL     1     -21.592 -39.779  -6.800  1.00  0.00    -0.299 OA
BRANCH  13  15
ATOM     15  C   UNL     1     -19.645 -40.661  -5.829  1.00  0.00     0.106 CG0
ATOM     16  G   UNL     1     -18.420 -40.744  -6.726  1.00  0.00     0.000 G0
ENDBRANCH  13  15
ENDBRANCH  12  13
BRANCH  12  17
ATOM     17  C   UNL     1     -21.757 -37.314  -5.671  1.00  0.00    -0.006 C 
ATOM     18  C   UNL     1     -22.192 -36.887  -4.257  1.00  0.00     0.008 C 
ATOM     19  C   UNL     1     -21.690 -36.064  -6.567  1.00  0.00     0.008 C 
ENDBRANCH  12  17
ENDBRANCH  11  12
ENDBRANCH   1  11
TORSDOF 1
ENDMDL
MODEL 3
REMARK VINA RESULT:    -4.599      2.381      5.671
REMARK INTER + INTRA:          -7.113
REMARK INTER:                  -6.929
REMARK INTRA:                  -0.184
REMARK UNBOUND:                -0.094
REMARK SMILES CC1=CCC[C@@H](C)C(=O)C[C@H](C(C)C)C(=O)C1
REMARK SMILES IDX 8 1 9 2 6 3 7 4 5 5 4 6 3 7 2 8 1 9 10 11 11 12 15 13 16 14
REMARK SMILES IDX 17 15 12 17 13 18 14 19
REMARK H PARENT
REMARK Flexibility Score: 70.00
ROOT
ATOM      1  C   UNL     1     -17.539 -38.246  -4.528  1.00  0.00     0.136 C 
ATOM      2  O   UNL     1     -17.424 -37.055  -4.278  1.00  0.00    -0.299 OA
ENDROOT
BRANCH   1   3
ATOM      3  C   UNL     1     -16.279 -39.072  -4.718  1.00  0.00     0.053 C 
ATOM      4  C   UNL     1     -15.191 -38.265  -5.436  1.00  0.00     0.016 C 
BRANCH   3   5
ATOM      5  C   UNL     1     -16.566 -40.395  -5.455  1.00  0.00     0.015 C 
BRANCH   5   6
ATOM      6  C   UNL     1     -16.435 -40.256  -6.989  1.00  0.00     0.028 C 
BRANCH   6   7
ATOM      7  C   UNL     1     -17.330 -41.241  -7.700  1.00  0.00    -0.028 C 
ATOM      8  C   UNL     1     -18.537 -40.953  -8.244  1.00  0.00    -0.070 CG0
ATOM      9  C   UNL     1     -19.257 -42.053  -8.981  1.00  0.00     0.039 C 
ATOM     10  G   UNL     1     -19.206 -39.592  -8.122  1.00  0.00     0.000 G0
ENDBRANCH   6   7
ENDBRANCH   5   6
ENDBRANCH   3   5
ENDBRANCH   1   3
BRANCH   1  11
ATOM     11  C   UNL     1     -18.932 -38.830  -4.648  1.00  0.00     0.087 C 
BRANCH  11  12
ATOM     12  C   UNL     1     -19.767 -38.260  -5.831  1.00  0.00     0.066 C 
BRANCH  12  13
ATOM     13  C   UNL     1     -20.049 -39.340  -6.871  1.00  0.00     0.140 C 
ATOM     14  O   UNL     1     -21.034 -40.049  -6.719  1.00  0.00    -0.299 OA
BRANCH  13  15
ATOM     15  C   UNL     1     -19.203 -39.574  -8.109  1.00  0.00     0.106 CG0
ATOM     16  G   UNL     1     -18.549 -40.943  -8.216  1.00  0.00     0.000 G0
ENDBRANCH  13  15
ENDBRANCH  12  13
BRANCH  12  17
ATOM     17  C   UNL     1     -21.106 -37.627  -5.334  1.00  0.00    -0.006 C 
ATOM     18  C   UNL     1     -20.947 -36.919  -3.976  1.00  0.00     0.008 C 
ATOM     19  C   UNL     1     -21.665 -36.619  -6.355  1.00  0.00     0.008 C 
ENDBRANCH  12  17
ENDBRANCH  11  12
ENDBRANCH   1  11
TORSDOF 1
ENDMDL
MODEL 4
REMARK VINA RESULT:    -4.597      1.896      4.061
REMARK INTER + INTRA:          -7.110
REMARK INTER:                  -6.838
REMARK INTRA:                  -0.271
REMARK UNBOUND:                -0.094
REMARK SMILES CC1=CCC[C@@H](C)C(=O)C[C@H](C(C)C)C(=O)C1
REMARK SMILES IDX 8 1 9 2 6 3 7 4 5 5 4 6 3 7 2 8 1 9 10 11 11 12 15 13 16 14
REMARK SMILES IDX 17 15 12 17 13 18 14 19
REMARK H PARENT
REMARK Flexibility Score: 70.00
ROOT
ATOM      1  C   UNL     1     -16.668 -40.052  -7.792  1.00  0.00     0.136 C 
ATOM      2  O   UNL     1     -16.411 -40.447  -8.920  1.00  0.00    -0.299 OA
ENDROOT
BRANCH   1   3
ATOM      3  C   UNL     1     -15.583 -40.130  -6.731  1.00  0.00     0.053 C 
ATOM      4  C   UNL     1     -15.889 -41.229  -5.707  1.00  0.00     0.016 C 
BRANCH   3   5
ATOM      5  C   UNL     1     -15.361 -38.772  -6.037  1.00  0.00     0.015 C 
BRANCH   5   6
ATOM      6  C   UNL     1     -15.961 -38.732  -4.613  1.00  0.00     0.028 C 
BRANCH   6   7
ATOM      7  C   UNL     1     -16.906 -37.565  -4.456  1.00  0.00    -0.028 C 
ATOM      8  C   UNL     1     -18.235 -37.659  -4.215  1.00  0.00    -0.070 CG0
ATOM      9  C   UNL     1     -19.006 -36.379  -4.014  1.00  0.00     0.039 C 
ATOM     10  G   UNL     1     -18.985 -38.981  -4.166  1.00  0.00     0.000 G0
ENDBRANCH   6   7
ENDBRANCH   5   6
ENDBRANCH   3   5
ENDBRANCH   1   3
BRANCH   1  11
ATOM     11  C   UNL     1     -18.059 -39.519  -7.509  1.00  0.00     0.087 C 
BRANCH  11  12
ATOM     12  C   UNL     1     -18.875 -40.366  -6.491  1.00  0.00     0.066 C 
BRANCH  12  13
ATOM     13  C   UNL     1     -19.597 -39.469  -5.489  1.00  0.00     0.140 C 
ATOM     14  O   UNL     1     -20.747 -39.134  -5.735  1.00  0.00    -0.299 OA
BRANCH  13  15
ATOM     15  C   UNL     1     -18.992 -38.990  -4.182  1.00  0.00     0.106 CG0
ATOM     16  G   UNL     1     -18.240 -37.669  -4.245  1.00  0.00     0.000 G0
ENDBRANCH  13  15
ENDBRANCH  12  13
BRANCH  12  17
ATOM     17  C   UNL     1     -19.898 -41.300  -7.212  1.00  0.00    -0.006 C 
ATOM     18  C   UNL     1     -20.057 -40.948  -8.703  1.00  0.00     0.008 C 
ATOM     19  C   UNL     1     -19.490 -42.780  -7.094  1.00  0.00     0.008 C 
ENDBRANCH  12  17
ENDBRANCH  11  12
ENDBRANCH   1  11
TORSDOF 1
ENDMDL
MODEL 5
REMARK VINA RESULT:    -4.593      1.466      1.909
REMARK INTER + INTRA:          -7.104
REMARK INTER:                  -6.798
REMARK INTRA:                  -0.306
REMARK UNBOUND:                -0.094
REMARK SMILES CC1=CCC[C@@H](C)C(=O)C[C@H](C(C)C)C(=O)C1
REMARK SMILES IDX 8 1 9 2 6 3 7 4 5 5 4 6 3 7 2 8 1 9 10 11 11 12 15 13 16 14
REMARK SMILES IDX 17 15 12 17 13 18 14 19
REMARK H PARENT
REMARK Flexibility Score: 70.00
ROOT
ATOM      1  C   UNL     1     -17.552 -40.326  -7.611  1.00  0.00     0.136 C 
ATOM      2  O   UNL     1     -16.913 -40.095  -8.626  1.00  0.00    -0.299 OA
ENDROOT
BRANCH   1   3
ATOM      3  C   UNL     1     -19.039 -40.611  -7.739  1.00  0.00     0.053 C 
ATOM      4  C   UNL     1     -19.392 -41.079  -9.156  1.00  0.00     0.016 C 
BRANCH   3   5
ATOM      5  C   UNL     1     -19.894 -39.396  -7.327  1.00  0.00     0.015 C 
BRANCH   5   6
ATOM      6  C   UNL     1     -20.322 -39.453  -5.843  1.00  0.00     0.028 C 
BRANCH   6   7
ATOM      7  C   UNL     1     -20.161 -38.105  -5.183  1.00  0.00    -0.028 C 
ATOM      8  C   UNL     1     -19.105 -37.723  -4.425  1.00  0.00    -0.070 CG0
ATOM      9  C   UNL     1     -19.086 -36.308  -3.907  1.00  0.00     0.039 C 
ATOM     10  G   UNL     1     -17.964 -38.657  -4.051  1.00  0.00     0.000 G0
ENDBRANCH   6   7
ENDBRANCH   5   6
ENDBRANCH   3   5
ENDBRANCH   1   3
BRANCH   1  11
ATOM     11  C   UNL     1     -16.831 -40.302  -6.278  1.00  0.00     0.087 C 
BRANCH  11  12
ATOM     12  C   UNL     1     -16.102 -38.963  -5.967  1.00  0.00     0.066 C 
BRANCH  12  13
ATOM     13  C   UNL     1     -16.599 -38.363  -4.655  1.00  0.00     0.140 C 
ATOM     14  O   UNL     1     -15.875 -37.568  -4.072  1.00  0.00    -0.299 OA
BRANCH  13  15
ATOM     15  C   UNL     1     -17.953 -38.660  -4.039  1.00  0.00     0.106 CG0
ATOM     16  G   UNL     1     -19.084 -37.725  -4.441  1.00  0.00     0.000 G0
ENDBRANCH  13  15
ENDBRANCH  12  13
BRANCH  12  17
ATOM     17  C   UNL     1     -14.552 -39.152  -5.921  1.00  0.00    -0.006 C 
ATOM     18  C   UNL     1     -14.151 -40.628  -5.748  1.00  0.00     0.008 C 
ATOM     19  C   UNL     1     -13.880 -38.603  -7.193  1.00  0.00     0.008 C 
ENDBRANCH  12  17
ENDBRANCH  11  12
ENDBRANCH   1  11
TORSDOF 1
ENDMDL
MODEL 6
REMARK VINA RESULT:    -4.563      1.757      4.389
REMARK INTER + INTRA:          -7.058
REMARK INTER:                  -6.767
REMARK INTRA:                  -0.291
REMARK UNBOUND:                -0.094
REMARK SMILES CC1=CCC[C@@H](C)C(=O)C[C@H](C(C)C)C(=O)C1
REMARK SMILES IDX 8 1 9 2 6 3 7 4 5 5 4 6 3 7 2 8 1 9 10 11 11 12 15 13 16 14
REMARK SMILES IDX 17 15 12 17 13 18 14 19
REMARK H PARENT
REMARK Flexibility Score: 70.00
ROOT
ATOM      1  C   UNL     1     -18.384 -39.447  -5.935  1.00  0.00     0.136 C 
ATOM      2  O   UNL     1     -18.054 -40.616  -5.795  1.00  0.00    -0.299 OA
ENDROOT
BRANCH   1   3
ATOM      3  C   UNL     1     -17.597 -38.377  -5.197  1.00  0.00     0.053 C 
ATOM      4  C   UNL     1     -16.213 -38.895  -4.785  1.00  0.00     0.016 C 
BRANCH   3   5
ATOM      5  C   UNL     1     -18.370 -37.832  -3.980  1.00  0.00     0.015 C 
BRANCH   5   6
ATOM      6  C   UNL     1     -18.895 -36.397  -4.211  1.00  0.00     0.028 C 
BRANCH   6   7
ATOM      7  C   UNL     1     -20.310 -36.251  -3.704  1.00  0.00    -0.028 C 
ATOM      8  C   UNL     1     -21.430 -36.517  -4.418  1.00  0.00    -0.070 CG0
ATOM      9  C   UNL     1     -22.758 -36.383  -3.718  1.00  0.00     0.039 C 
ATOM     10  G   UNL     1     -21.411 -36.914  -5.887  1.00  0.00     0.000 G0
ENDBRANCH   6   7
ENDBRANCH   5   6
ENDBRANCH   3   5
ENDBRANCH   1   3
BRANCH   1  11
ATOM     11  C   UNL     1     -19.570 -39.130  -6.824  1.00  0.00     0.087 C 
BRANCH  11  12
ATOM     12  C   UNL     1     -20.947 -39.534  -6.225  1.00  0.00     0.066 C 
BRANCH  12  13
ATOM     13  C   UNL     1     -21.891 -38.337  -6.169  1.00  0.00     0.140 C 
ATOM     14  O   UNL     1     -23.087 -38.533  -6.336  1.00  0.00    -0.299 OA
BRANCH  13  15
ATOM     15  C   UNL     1     -21.449 -36.913  -5.883  1.00  0.00     0.106 CG0
ATOM     16  G   UNL     1     -21.429 -36.508  -4.417  1.00  0.00     0.000 G0
ENDBRANCH  13  15
ENDBRANCH  12  13
BRANCH  12  17
ATOM     17  C   UNL     1     -21.603 -40.700  -7.032  1.00  0.00    -0.006 C 
ATOM     18  C   UNL     1     -20.719 -41.167  -8.202  1.00  0.00     0.008 C 
ATOM     19  C   UNL     1     -21.906 -41.909  -6.128  1.00  0.00     0.008 C 
ENDBRANCH  12  17
ENDBRANCH  11  12
ENDBRANCH   1  11
TORSDOF 1
ENDMDL
MODEL 7
REMARK VINA RESULT:    -4.361      2.228      4.395
REMARK INTER + INTRA:          -6.749
REMARK INTER:                  -6.559
REMARK INTRA:                  -0.190
REMARK UNBOUND:                -0.094
REMARK SMILES CC1=CCC[C@@H](C)C(=O)C[C@H](C(C)C)C(=O)C1
REMARK SMILES IDX 8 1 9 2 6 3 7 4 5 5 4 6 3 7 2 8 1 9 10 11 11 12 15 13 16 14
REMARK SMILES IDX 17 15 12 17 13 18 14 19
REMARK H PARENT
REMARK Flexibility Score: 70.00
ROOT
ATOM      1  C   UNL     1     -16.304 -40.081  -6.117  1.00  0.00     0.136 C 
ATOM      2  O   UNL     1     -15.186 -39.810  -6.530  1.00  0.00    -0.299 OA
ENDROOT
BRANCH   1   3
ATOM      3  C   UNL     1     -17.177 -41.011  -6.942  1.00  0.00     0.053 C 
ATOM      4  C   UNL     1     -16.620 -42.440  -6.937  1.00  0.00     0.016 C 
BRANCH   3   5
ATOM      5  C   UNL     1     -17.365 -40.494  -8.382  1.00  0.00     0.015 C 
BRANCH   5   6
ATOM      6  C   UNL     1     -18.625 -39.612  -8.531  1.00  0.00     0.028 C 
BRANCH   6   7
ATOM      7  C   UNL     1     -19.843 -40.311  -7.979  1.00  0.00    -0.028 C 
ATOM      8  C   UNL     1     -20.583 -39.885  -6.928  1.00  0.00    -0.070 CG0
ATOM      9  C   UNL     1     -21.813 -40.678  -6.565  1.00  0.00     0.039 C 
ATOM     10  G   UNL     1     -20.219 -38.671  -6.086  1.00  0.00     0.000 G0
ENDBRANCH   6   7
ENDBRANCH   5   6
ENDBRANCH   3   5
ENDBRANCH   1   3
BRANCH   1  11
ATOM     11  C   UNL     1     -16.763 -39.464  -4.811  1.00  0.00     0.087 C 
BRANCH  11  12
ATOM     12  C   UNL     1     -17.804 -38.319  -4.973  1.00  0.00     0.066 C 
BRANCH  12  13
ATOM     13  C   UNL     1     -19.227 -38.868  -4.964  1.00  0.00     0.140 C 
ATOM     14  O   UNL     1     -19.600 -39.495  -3.982  1.00  0.00    -0.299 OA
BRANCH  13  15
ATOM     15  C   UNL     1     -20.230 -38.659  -6.084  1.00  0.00     0.106 CG0
ATOM     16  G   UNL     1     -20.570 -39.891  -6.908  1.00  0.00     0.000 G0
ENDBRANCH  13  15
ENDBRANCH  12  13
BRANCH  12  17
ATOM     17  C   UNL     1     -17.638 -37.232  -3.864  1.00  0.00    -0.006 C 
ATOM     18  C   UNL     1     -16.245 -36.577  -3.895  1.00  0.00     0.008 C 
ATOM     19  C   UNL     1     -18.706 -36.131  -3.990  1.00  0.00     0.008 C 
ENDBRANCH  12  17
ENDBRANCH  11  12
ENDBRANCH   1  11
TORSDOF 1
ENDMDL
MODEL 8
REMARK VINA RESULT:    -4.323      2.441      5.602
REMARK INTER + INTRA:          -6.691
REMARK INTER:                  -6.501
REMARK INTRA:                  -0.190
REMARK UNBOUND:                -0.094
REMARK SMILES CC1=CCC[C@@H](C)C(=O)C[C@H](C(C)C)C(=O)C1
REMARK SMILES IDX 8 1 9 2 6 3 7 4 5 5 4 6 3 7 2 8 1 9 10 11 11 12 15 13 16 14
REMARK SMILES IDX 17 15 12 17 13 18 14 19
REMARK H PARENT
REMARK Flexibility Score: 70.00
ROOT
ATOM      1  C   UNL     1     -18.588 -38.341  -4.933  1.00  0.00     0.136 C 
ATOM      2  O   UNL     1     -17.915 -37.368  -4.622  1.00  0.00    -0.299 OA
ENDROOT
BRANCH   1   3
ATOM      3  C   UNL     1     -17.913 -39.484  -5.672  1.00  0.00     0.053 C 
ATOM      4  C   UNL     1     -16.441 -39.615  -5.260  1.00  0.00     0.016 C 
BRANCH   3   5
ATOM      5  C   UNL     1     -18.050 -39.340  -7.200  1.00  0.00     0.015 C 
BRANCH   5   6
ATOM      6  C   UNL     1     -18.733 -40.565  -7.849  1.00  0.00     0.028 C 
BRANCH   6   7
ATOM      7  C   UNL     1     -19.346 -41.461  -6.800  1.00  0.00    -0.028 C 
ATOM      8  C   UNL     1     -20.644 -41.443  -6.414  1.00  0.00    -0.070 CG0
ATOM      9  C   UNL     1     -21.091 -42.466  -5.401  1.00  0.00     0.039 C 
ATOM     10  G   UNL     1     -21.655 -40.429  -6.927  1.00  0.00     0.000 G0
ENDBRANCH   6   7
ENDBRANCH   5   6
ENDBRANCH   3   5
ENDBRANCH   1   3
BRANCH   1  11
ATOM     11  C   UNL     1     -20.061 -38.347  -4.577  1.00  0.00     0.087 C 
BRANCH  11  12
ATOM     12  C   UNL     1     -21.013 -38.082  -5.778  1.00  0.00     0.066 C 
BRANCH  12  13
ATOM     13  C   UNL     1     -21.959 -39.260  -5.997  1.00  0.00     0.140 C 
ATOM     14  O   UNL     1     -23.035 -39.254  -5.415  1.00  0.00    -0.299 OA
BRANCH  13  15
ATOM     15  C   UNL     1     -21.668 -40.429  -6.919  1.00  0.00     0.106 CG0
ATOM     16  G   UNL     1     -20.650 -41.438  -6.410  1.00  0.00     0.000 G0
ENDBRANCH  13  15
ENDBRANCH  12  13
BRANCH  12  17
ATOM     17  C   UNL     1     -21.828 -36.765  -5.584  1.00  0.00    -0.006 C 
ATOM     18  C   UNL     1     -20.954 -35.611  -5.058  1.00  0.00     0.008 C 
ATOM     19  C   UNL     1     -22.498 -36.318  -6.896  1.00  0.00     0.008 C 
ENDBRANCH  12  17
ENDBRANCH  11  12
ENDBRANCH   1  11
TORSDOF 1
ENDMDL
MODEL 9
REMARK VINA RESULT:    -4.253      1.739      4.182
REMARK INTER + INTRA:          -6.584
REMARK INTER:                  -6.560
REMARK INTRA:                  -0.024
REMARK UNBOUND:                -0.094
REMARK SMILES CC1=CCC[C@@H](C)C(=O)C[C@H](C(C)C)C(=O)C1
REMARK SMILES IDX 8 1 9 2 6 3 7 4 5 5 4 6 3 7 2 8 1 9 10 11 11 12 15 13 16 14
REMARK SMILES IDX 17 15 12 17 13 18 14 19
REMARK H PARENT
REMARK Flexibility Score: 70.00
ROOT
ATOM      1  C   UNL     1     -18.847 -39.903  -7.510  1.00  0.00     0.136 C 
ATOM      2  O   UNL     1     -19.372 -40.937  -7.898  1.00  0.00    -0.299 OA
ENDROOT
BRANCH   1   3
ATOM      3  C   UNL     1     -17.336 -39.776  -7.607  1.00  0.00     0.053 C 
ATOM      4  C   UNL     1     -16.841 -40.127  -9.015  1.00  0.00     0.016 C 
BRANCH   3   5
ATOM      5  C   UNL     1     -16.619 -40.625  -6.539  1.00  0.00     0.015 C 
BRANCH   5   6
ATOM      6  C   UNL     1     -16.898 -40.125  -5.103  1.00  0.00     0.028 C 
BRANCH   6   7
ATOM      7  C   UNL     1     -16.494 -38.680  -4.945  1.00  0.00    -0.028 C 
ATOM      8  C   UNL     1     -17.191 -37.740  -4.263  1.00  0.00    -0.070 CG0
ATOM      9  C   UNL     1     -16.591 -36.361  -4.152  1.00  0.00     0.039 C 
ATOM     10  G   UNL     1     -18.552 -38.000  -3.636  1.00  0.00     0.000 G0
ENDBRANCH   6   7
ENDBRANCH   5   6
ENDBRANCH   3   5
ENDBRANCH   1   3
BRANCH   1  11
ATOM     11  C   UNL     1     -19.730 -38.811  -6.941  1.00  0.00     0.087 C 
BRANCH  11  12
ATOM     12  C   UNL     1     -20.201 -39.063  -5.479  1.00  0.00     0.066 C 
BRANCH  12  13
ATOM     13  C   UNL     1     -19.758 -37.929  -4.559  1.00  0.00     0.140 C 
ATOM     14  O   UNL     1     -20.416 -36.899  -4.551  1.00  0.00    -0.299 OA
BRANCH  13  15
ATOM     15  C   UNL     1     -18.566 -38.006  -3.622  1.00  0.00     0.106 CG0
ATOM     16  G   UNL     1     -17.208 -37.745  -4.255  1.00  0.00     0.000 G0
ENDBRANCH  13  15
ENDBRANCH  12  13
BRANCH  12  17
ATOM     17  C   UNL     1     -21.750 -39.247  -5.400  1.00  0.00    -0.006 C 
ATOM     18  C   UNL     1     -22.497 -38.315  -6.371  1.00  0.00     0.008 C 
ATOM     19  C   UNL     1     -22.160 -40.701  -5.696  1.00  0.00     0.008 C 
ENDBRANCH  12  17
ENDBRANCH  11  12
ENDBRANCH   1  11
TORSDOF 1
ENDMDL
