MODEL 1
REMARK VINA RESULT:    -6.586      0.000      0.000
REMARK INTER + INTRA:          -6.586
REMARK INTER:                  -6.586
REMARK INTRA:                   0.000
REMARK UNBOUND:                 0.000
REMARK SMILES C[C@H]1C(=O)CC[C@@H]2[C@]1(C)CC[C@@H]1[C@]2(C)CC[C@@]2(C)[C@@H]3CC(C)(C)CC[C@@]3(C)CC[C@]12C
REMARK SMILES IDX 1 1 2 2 3 3 4 4 5 5 6 6 7 7 8 8 10 9 11 10 12 11 13 12 15 13
REMARK SMILES IDX 16 14 17 15 30 16 29 17 28 18 26 19 19 20 20 21 21 22 24 23
REMARK SMILES IDX 25 24 22 25 23 26 27 27 31 28 18 29 14 30 9 31
REMARK H PARENT
REMARK Flexibility Score: inf
ROOT
ATOM      1  C   UNL     1      10.291  -8.508  -3.875  1.00  0.00     0.016 C 
ATOM      2  C   UNL     1      10.112  -6.993  -3.645  1.00  0.00     0.059 C 
ATOM      3  C   UNL     1       9.317  -6.327  -4.773  1.00  0.00     0.136 C 
ATOM      4  O   UNL     1       9.129  -6.923  -5.827  1.00  0.00    -0.299 OA
ATOM      5  C   UNL     1       8.839  -4.888  -4.659  1.00  0.00     0.076 C 
ATOM      6  C   UNL     1       8.492  -4.428  -3.219  1.00  0.00     0.012 C 
ATOM      7  C   UNL     1       9.490  -5.029  -2.203  1.00  0.00     0.002 C 
ATOM      8  C   UNL     1       9.450  -6.622  -2.268  1.00  0.00    -0.020 C 
ATOM      9  C   UNL     1      10.262  -7.186  -1.050  1.00  0.00     0.008 C 
ATOM     10  C   UNL     1       9.716  -6.744   0.345  1.00  0.00     0.005 C 
ATOM     11  C   UNL     1       8.945  -5.399   0.286  1.00  0.00     0.002 C 
ATOM     12  C   UNL     1       9.616  -4.400  -0.724  1.00  0.00    -0.026 C 
ATOM     13  C   UNL     1       8.910  -3.014  -0.587  1.00  0.00     0.008 C 
ATOM     14  C   UNL     1       8.797  -2.421   0.857  1.00  0.00     0.008 C 
ATOM     15  C   UNL     1       8.935  -3.425   2.066  1.00  0.00    -0.024 C 
ATOM     16  C   UNL     1       8.274  -4.809   1.627  1.00  0.00    -0.024 C 
ATOM     17  C   UNL     1       8.328  -5.812   2.822  1.00  0.00     0.008 C 
ATOM     18  C   UNL     1       7.606  -5.297   4.093  1.00  0.00     0.007 C 
ATOM     19  C   UNL     1       8.074  -3.889   4.579  1.00  0.00    -0.029 C 
ATOM     20  C   UNL     1       8.169  -2.881   3.353  1.00  0.00     0.002 C 
ATOM     21  C   UNL     1       8.566  -1.457   3.836  1.00  0.00     0.011 C 
ATOM     22  C   UNL     1       7.593  -0.887   4.932  1.00  0.00    -0.035 C 
ATOM     23  C   UNL     1       6.500  -1.916   5.354  1.00  0.00     0.007 C 
ATOM     24  C   UNL     1       7.041  -3.331   5.637  1.00  0.00     0.007 C 
ATOM     25  C   UNL     1       8.394  -0.451   6.183  1.00  0.00     0.011 C 
ATOM     26  C   UNL     1       6.875   0.364   4.375  1.00  0.00     0.011 C 
ATOM     27  C   UNL     1       9.419  -4.106   5.337  1.00  0.00     0.011 C 
ATOM     28  C   UNL     1       6.728  -4.634   1.300  1.00  0.00     0.012 C 
ATOM     29  C   UNL     1      10.456  -3.541   2.435  1.00  0.00     0.012 C 
ATOM     30  C   UNL     1      11.160  -4.202  -0.447  1.00  0.00     0.012 C 
ATOM     31  C   UNL     1       8.000  -7.250  -2.248  1.00  0.00     0.012 C 
ENDROOT
TORSDOF 0
ENDMDL
MODEL 2
REMARK VINA RESULT:    -6.291      9.950     12.991
REMARK INTER + INTRA:          -6.291
REMARK INTER:                  -6.291
REMARK INTRA:                   0.000
REMARK UNBOUND:                 0.000
REMARK SMILES C[C@H]1C(=O)CC[C@@H]2[C@]1(C)CC[C@@H]1[C@]2(C)CC[C@@]2(C)[C@@H]3CC(C)(C)CC[C@@]3(C)CC[C@]12C
REMARK SMILES IDX 1 1 2 2 3 3 4 4 5 5 6 6 7 7 8 8 10 9 11 10 12 11 13 12 15 13
REMARK SMILES IDX 16 14 17 15 30 16 29 17 28 18 26 19 19 20 20 21 21 22 24 23
REMARK SMILES IDX 25 24 22 25 23 26 27 27 31 28 18 29 14 30 9 31
REMARK H PARENT
REMARK Flexibility Score: inf
ROOT
ATOM      1  C   UNL     1      10.149   1.996 -10.552  1.00  0.00     0.016 C 
ATOM      2  C   UNL     1       9.597   1.060  -9.457  1.00  0.00     0.059 C 
ATOM      3  C   UNL     1       9.560   1.738  -8.083  1.00  0.00     0.136 C 
ATOM      4  O   UNL     1      10.169   2.783  -7.896  1.00  0.00    -0.299 OA
ATOM      5  C   UNL     1       8.863   1.084  -6.899  1.00  0.00     0.076 C 
ATOM      6  C   UNL     1       7.629   0.218  -7.265  1.00  0.00     0.012 C 
ATOM      7  C   UNL     1       7.880  -0.554  -8.580  1.00  0.00     0.002 C 
ATOM      8  C   UNL     1       8.176   0.465  -9.770  1.00  0.00    -0.020 C 
ATOM      9  C   UNL     1       8.154  -0.332 -11.121  1.00  0.00     0.008 C 
ATOM     10  C   UNL     1       6.797  -1.047 -11.422  1.00  0.00     0.005 C 
ATOM     11  C   UNL     1       5.998  -1.380 -10.133  1.00  0.00     0.002 C 
ATOM     12  C   UNL     1       6.954  -1.817  -8.966  1.00  0.00    -0.026 C 
ATOM     13  C   UNL     1       6.078  -2.318  -7.775  1.00  0.00     0.008 C 
ATOM     14  C   UNL     1       4.997  -3.403  -8.103  1.00  0.00     0.008 C 
ATOM     15  C   UNL     1       4.542  -3.540  -9.607  1.00  0.00    -0.024 C 
ATOM     16  C   UNL     1       4.554  -2.081 -10.254  1.00  0.00    -0.024 C 
ATOM     17  C   UNL     1       4.041  -2.163 -11.727  1.00  0.00     0.008 C 
ATOM     18  C   UNL     1       2.613  -2.751 -11.852  1.00  0.00     0.007 C 
ATOM     19  C   UNL     1       2.420  -4.138 -11.161  1.00  0.00    -0.029 C 
ATOM     20  C   UNL     1       3.065  -4.129  -9.707  1.00  0.00     0.002 C 
ATOM     21  C   UNL     1       2.817  -5.483  -8.983  1.00  0.00     0.011 C 
ATOM     22  C   UNL     1       1.293  -5.863  -8.898  1.00  0.00    -0.035 C 
ATOM     23  C   UNL     1       0.379  -4.840  -9.640  1.00  0.00     0.007 C 
ATOM     24  C   UNL     1       0.876  -4.455 -11.047  1.00  0.00     0.007 C 
ATOM     25  C   UNL     1       1.061  -7.275  -9.487  1.00  0.00     0.011 C 
ATOM     26  C   UNL     1       0.858  -5.896  -7.414  1.00  0.00     0.011 C 
ATOM     27  C   UNL     1       3.027  -5.202 -12.125  1.00  0.00     0.011 C 
ATOM     28  C   UNL     1       3.535  -1.112  -9.512  1.00  0.00     0.012 C 
ATOM     29  C   UNL     1       5.504  -4.553 -10.320  1.00  0.00     0.012 C 
ATOM     30  C   UNL     1       7.935  -2.983  -9.389  1.00  0.00     0.012 C 
ATOM     31  C   UNL     1       7.163   1.673  -9.876  1.00  0.00     0.012 C 
ENDROOT
TORSDOF 0
ENDMDL
MODEL 3
REMARK VINA RESULT:    -6.263      9.724     11.973
REMARK INTER + INTRA:          -6.263
REMARK INTER:                  -6.263
REMARK INTRA:                   0.000
REMARK UNBOUND:                 0.000
REMARK SMILES C[C@H]1C(=O)CC[C@@H]2[C@]1(C)CC[C@@H]1[C@]2(C)CC[C@@]2(C)[C@@H]3CC(C)(C)CC[C@@]3(C)CC[C@]12C
REMARK SMILES IDX 1 1 2 2 3 3 4 4 5 5 6 6 7 7 8 8 10 9 11 10 12 11 13 12 15 13
REMARK SMILES IDX 16 14 17 15 30 16 29 17 28 18 26 19 19 20 20 21 21 22 24 23
REMARK SMILES IDX 25 24 22 25 23 26 27 27 31 28 18 29 14 30 9 31
REMARK H PARENT
REMARK Flexibility Score: inf
ROOT
ATOM      1  C   UNL     1       1.835  -4.983 -10.514  1.00  0.00     0.016 C 
ATOM      2  C   UNL     1       2.090  -3.542 -10.024  1.00  0.00     0.059 C 
ATOM      3  C   UNL     1       1.175  -3.158  -8.856  1.00  0.00     0.136 C 
ATOM      4  O   UNL     1       0.200  -3.848  -8.587  1.00  0.00    -0.299 OA
ATOM      5  C   UNL     1       1.388  -1.869  -8.077  1.00  0.00     0.076 C 
ATOM      6  C   UNL     1       2.866  -1.412  -7.963  1.00  0.00     0.012 C 
ATOM      7  C   UNL     1       3.623  -1.693  -9.281  1.00  0.00     0.002 C 
ATOM      8  C   UNL     1       3.581  -3.250  -9.621  1.00  0.00    -0.020 C 
ATOM      9  C   UNL     1       4.578  -3.526 -10.800  1.00  0.00     0.008 C 
ATOM     10  C   UNL     1       6.060  -3.138 -10.493  1.00  0.00     0.005 C 
ATOM     11  C   UNL     1       6.174  -2.020  -9.421  1.00  0.00     0.002 C 
ATOM     12  C   UNL     1       5.027  -0.958  -9.580  1.00  0.00    -0.026 C 
ATOM     13  C   UNL     1       5.316   0.226  -8.604  1.00  0.00     0.008 C 
ATOM     14  C   UNL     1       6.743   0.868  -8.679  1.00  0.00     0.008 C 
ATOM     15  C   UNL     1       7.892   0.005  -9.329  1.00  0.00    -0.024 C 
ATOM     16  C   UNL     1       7.630  -1.521  -8.947  1.00  0.00    -0.024 C 
ATOM     17  C   UNL     1       8.787  -2.404  -9.515  1.00  0.00     0.008 C 
ATOM     18  C   UNL     1      10.188  -1.994  -8.995  1.00  0.00     0.007 C 
ATOM     19  C   UNL     1      10.540  -0.487  -9.199  1.00  0.00    -0.029 C 
ATOM     20  C   UNL     1       9.319   0.434  -8.764  1.00  0.00     0.002 C 
ATOM     21  C   UNL     1       9.685   1.940  -8.897  1.00  0.00     0.011 C 
ATOM     22  C   UNL     1      10.975   2.332  -8.088  1.00  0.00    -0.035 C 
ATOM     23  C   UNL     1      11.649   1.102  -7.406  1.00  0.00     0.007 C 
ATOM     24  C   UNL     1      11.807  -0.123  -8.327  1.00  0.00     0.007 C 
ATOM     25  C   UNL     1      11.999   3.025  -9.018  1.00  0.00     0.011 C 
ATOM     26  C   UNL     1      10.594   3.338  -6.977  1.00  0.00     0.011 C 
ATOM     27  C   UNL     1      10.963  -0.329 -10.692  1.00  0.00     0.011 C 
ATOM     28  C   UNL     1       7.675  -1.740  -7.373  1.00  0.00     0.012 C 
ATOM     29  C   UNL     1       7.894   0.277 -10.874  1.00  0.00     0.012 C 
ATOM     30  C   UNL     1       4.932  -0.382 -11.049  1.00  0.00     0.012 C 
ATOM     31  C   UNL     1       3.946  -4.202  -8.413  1.00  0.00     0.012 C 
ENDROOT
TORSDOF 0
ENDMDL
MODEL 4
REMARK VINA RESULT:    -6.180      9.449     12.454
REMARK INTER + INTRA:          -6.180
REMARK INTER:                  -6.180
REMARK INTRA:                   0.000
REMARK UNBOUND:                 0.000
REMARK SMILES C[C@H]1C(=O)CC[C@@H]2[C@]1(C)CC[C@@H]1[C@]2(C)CC[C@@]2(C)[C@@H]3CC(C)(C)CC[C@@]3(C)CC[C@]12C
REMARK SMILES IDX 1 1 2 2 3 3 4 4 5 5 6 6 7 7 8 8 10 9 11 10 12 11 13 12 15 13
REMARK SMILES IDX 16 14 17 15 30 16 29 17 28 18 26 19 19 20 20 21 21 22 24 23
REMARK SMILES IDX 25 24 22 25 23 26 27 27 31 28 18 29 14 30 9 31
REMARK H PARENT
REMARK Flexibility Score: inf
ROOT
ATOM      1  C   UNL     1       0.029  -4.640 -12.004  1.00  0.00     0.016 C 
ATOM      2  C   UNL     1       0.763  -4.495 -10.654  1.00  0.00     0.059 C 
ATOM      3  C   UNL     1       0.884  -5.832  -9.915  1.00  0.00     0.136 C 
ATOM      4  O   UNL     1       0.214  -6.793 -10.270  1.00  0.00    -0.299 OA
ATOM      5  C   UNL     1       1.747  -5.971  -8.670  1.00  0.00     0.076 C 
ATOM      6  C   UNL     1       3.004  -5.062  -8.643  1.00  0.00     0.012 C 
ATOM      7  C   UNL     1       2.685  -3.678  -9.253  1.00  0.00     0.002 C 
ATOM      8  C   UNL     1       2.188  -3.841 -10.760  1.00  0.00    -0.020 C 
ATOM      9  C   UNL     1       2.139  -2.419 -11.420  1.00  0.00     0.008 C 
ATOM     10  C   UNL     1       3.512  -1.672 -11.440  1.00  0.00     0.005 C 
ATOM     11  C   UNL     1       4.461  -2.136 -10.303  1.00  0.00     0.002 C 
ATOM     12  C   UNL     1       3.666  -2.428  -8.980  1.00  0.00    -0.026 C 
ATOM     13  C   UNL     1       4.695  -2.698  -7.838  1.00  0.00     0.008 C 
ATOM     14  C   UNL     1       5.822  -1.628  -7.637  1.00  0.00     0.008 C 
ATOM     15  C   UNL     1       6.133  -0.668  -8.850  1.00  0.00    -0.024 C 
ATOM     16  C   UNL     1       5.938  -1.504 -10.195  1.00  0.00    -0.024 C 
ATOM     17  C   UNL     1       6.304  -0.607 -11.420  1.00  0.00     0.008 C 
ATOM     18  C   UNL     1       7.755  -0.065 -11.377  1.00  0.00     0.007 C 
ATOM     19  C   UNL     1       8.129   0.684 -10.058  1.00  0.00    -0.029 C 
ATOM     20  C   UNL     1       7.635  -0.141  -8.791  1.00  0.00     0.002 C 
ATOM     21  C   UNL     1       8.064   0.562  -7.472  1.00  0.00     0.011 C 
ATOM     22  C   UNL     1       9.614   0.813  -7.386  1.00  0.00    -0.035 C 
ATOM     23  C   UNL     1      10.362   0.382  -8.684  1.00  0.00     0.007 C 
ATOM     24  C   UNL     1       9.696   0.866  -9.987  1.00  0.00     0.007 C 
ATOM     25  C   UNL     1       9.899   2.308  -7.105  1.00  0.00     0.011 C 
ATOM     26  C   UNL     1      10.198  -0.005  -6.210  1.00  0.00     0.011 C 
ATOM     27  C   UNL     1       7.516   2.113 -10.172  1.00  0.00     0.011 C 
ATOM     28  C   UNL     1       6.944  -2.733 -10.263  1.00  0.00     0.012 C 
ATOM     29  C   UNL     1       5.189   0.580  -8.740  1.00  0.00     0.012 C 
ATOM     30  C   UNL     1       2.746  -1.218  -8.546  1.00  0.00     0.012 C 
ATOM     31  C   UNL     1       3.085  -4.786 -11.655  1.00  0.00     0.012 C 
ENDROOT
TORSDOF 0
ENDMDL
MODEL 5
REMARK VINA RESULT:    -6.096      3.003      8.163
REMARK INTER + INTRA:          -6.096
REMARK INTER:                  -6.096
REMARK INTRA:                   0.000
REMARK UNBOUND:                 0.000
REMARK SMILES C[C@H]1C(=O)CC[C@@H]2[C@]1(C)CC[C@@H]1[C@]2(C)CC[C@@]2(C)[C@@H]3CC(C)(C)CC[C@@]3(C)CC[C@]12C
REMARK SMILES IDX 1 1 2 2 3 3 4 4 5 5 6 6 7 7 8 8 10 9 11 10 12 11 13 12 15 13
REMARK SMILES IDX 16 14 17 15 30 16 29 17 28 18 26 19 19 20 20 21 21 22 24 23
REMARK SMILES IDX 25 24 22 25 23 26 27 27 31 28 18 29 14 30 9 31
REMARK H PARENT
REMARK Flexibility Score: inf
ROOT
ATOM      1  C   UNL     1       9.020  -1.667   7.595  1.00  0.00     0.016 C 
ATOM      2  C   UNL     1       8.091  -1.705   6.363  1.00  0.00     0.059 C 
ATOM      3  C   UNL     1       7.299  -0.404   6.196  1.00  0.00     0.136 C 
ATOM      4  O   UNL     1       7.244   0.404   7.115  1.00  0.00    -0.299 OA
ATOM      5  C   UNL     1       6.482  -0.132   4.942  1.00  0.00     0.076 C 
ATOM      6  C   UNL     1       7.058  -0.750   3.642  1.00  0.00     0.012 C 
ATOM      7  C   UNL     1       7.661  -2.145   3.925  1.00  0.00     0.002 C 
ATOM      8  C   UNL     1       8.824  -2.032   5.011  1.00  0.00    -0.020 C 
ATOM      9  C   UNL     1       9.582  -3.404   5.067  1.00  0.00     0.008 C 
ATOM     10  C   UNL     1      10.227  -3.837   3.710  1.00  0.00     0.005 C 
ATOM     11  C   UNL     1       9.501  -3.225   2.482  1.00  0.00     0.002 C 
ATOM     12  C   UNL     1       7.948  -3.164   2.709  1.00  0.00    -0.026 C 
ATOM     13  C   UNL     1       7.272  -2.725   1.372  1.00  0.00     0.008 C 
ATOM     14  C   UNL     1       7.659  -3.534   0.088  1.00  0.00     0.008 C 
ATOM     15  C   UNL     1       9.006  -4.356   0.128  1.00  0.00    -0.024 C 
ATOM     16  C   UNL     1      10.055  -3.528   1.001  1.00  0.00    -0.024 C 
ATOM     17  C   UNL     1      11.426  -4.276   1.008  1.00  0.00     0.008 C 
ATOM     18  C   UNL     1      12.018  -4.495  -0.407  1.00  0.00     0.007 C 
ATOM     19  C   UNL     1      11.052  -5.198  -1.412  1.00  0.00    -0.029 C 
ATOM     20  C   UNL     1       9.602  -4.550  -1.336  1.00  0.00     0.002 C 
ATOM     21  C   UNL     1       8.651  -5.197  -2.383  1.00  0.00     0.011 C 
ATOM     22  C   UNL     1       9.206  -5.111  -3.852  1.00  0.00    -0.035 C 
ATOM     23  C   UNL     1      10.630  -4.477  -3.917  1.00  0.00     0.007 C 
ATOM     24  C   UNL     1      11.619  -5.041  -2.879  1.00  0.00     0.007 C 
ATOM     25  C   UNL     1       9.245  -6.519  -4.491  1.00  0.00     0.011 C 
ATOM     26  C   UNL     1       8.260  -4.235  -4.705  1.00  0.00     0.011 C 
ATOM     27  C   UNL     1      11.093  -6.720  -1.076  1.00  0.00     0.011 C 
ATOM     28  C   UNL     1      10.358  -2.111   0.349  1.00  0.00     0.012 C 
ATOM     29  C   UNL     1       8.692  -5.781   0.704  1.00  0.00     0.012 C 
ATOM     30  C   UNL     1       7.342  -4.560   3.138  1.00  0.00     0.012 C 
ATOM     31  C   UNL     1       9.873  -0.881   4.743  1.00  0.00     0.012 C 
ENDROOT
TORSDOF 0
ENDMDL
MODEL 6
REMARK VINA RESULT:    -6.062     10.180     12.970
REMARK INTER + INTRA:          -6.062
REMARK INTER:                  -6.062
REMARK INTRA:                   0.000
REMARK UNBOUND:                 0.000
REMARK SMILES C[C@H]1C(=O)CC[C@@H]2[C@]1(C)CC[C@@H]1[C@]2(C)CC[C@@]2(C)[C@@H]3CC(C)(C)CC[C@@]3(C)CC[C@]12C
REMARK SMILES IDX 1 1 2 2 3 3 4 4 5 5 6 6 7 7 8 8 10 9 11 10 12 11 13 12 15 13
REMARK SMILES IDX 16 14 17 15 30 16 29 17 28 18 26 19 19 20 20 21 21 22 24 23
REMARK SMILES IDX 25 24 22 25 23 26 27 27 31 28 18 29 14 30 9 31
REMARK H PARENT
REMARK Flexibility Score: inf
ROOT
ATOM      1  C   UNL     1      -0.119  -3.325  -8.223  1.00  0.00     0.016 C 
ATOM      2  C   UNL     1       1.237  -3.950  -8.612  1.00  0.00     0.059 C 
ATOM      3  C   UNL     1       1.080  -5.086  -9.627  1.00  0.00     0.136 C 
ATOM      4  O   UNL     1      -0.024  -5.572  -9.840  1.00  0.00    -0.299 OA
ATOM      5  C   UNL     1       2.289  -5.708 -10.310  1.00  0.00     0.076 C 
ATOM      6  C   UNL     1       3.471  -4.735 -10.556  1.00  0.00     0.012 C 
ATOM      7  C   UNL     1       3.629  -3.762  -9.365  1.00  0.00     0.002 C 
ATOM      8  C   UNL     1       2.291  -2.919  -9.159  1.00  0.00    -0.020 C 
ATOM      9  C   UNL     1       2.583  -1.770  -8.133  1.00  0.00     0.008 C 
ATOM     10  C   UNL     1       3.713  -0.785  -8.576  1.00  0.00     0.005 C 
ATOM     11  C   UNL     1       4.727  -1.440  -9.552  1.00  0.00     0.002 C 
ATOM     12  C   UNL     1       5.002  -2.939  -9.169  1.00  0.00    -0.026 C 
ATOM     13  C   UNL     1       6.165  -3.470 -10.065  1.00  0.00     0.008 C 
ATOM     14  C   UNL     1       7.474  -2.611 -10.101  1.00  0.00     0.008 C 
ATOM     15  C   UNL     1       7.360  -1.098  -9.667  1.00  0.00    -0.024 C 
ATOM     16  C   UNL     1       5.937  -0.560 -10.148  1.00  0.00    -0.024 C 
ATOM     17  C   UNL     1       5.812   0.957  -9.798  1.00  0.00     0.008 C 
ATOM     18  C   UNL     1       6.917   1.833 -10.439  1.00  0.00     0.007 C 
ATOM     19  C   UNL     1       8.375   1.354 -10.147  1.00  0.00    -0.029 C 
ATOM     20  C   UNL     1       8.496  -0.218 -10.355  1.00  0.00     0.002 C 
ATOM     21  C   UNL     1       9.960  -0.695 -10.135  1.00  0.00     0.011 C 
ATOM     22  C   UNL     1      10.994   0.055 -11.052  1.00  0.00    -0.035 C 
ATOM     23  C   UNL     1      10.330   1.173 -11.913  1.00  0.00     0.007 C 
ATOM     24  C   UNL     1       9.373   2.090 -11.126  1.00  0.00     0.007 C 
ATOM     25  C   UNL     1      12.120   0.676 -10.191  1.00  0.00     0.011 C 
ATOM     26  C   UNL     1      11.648  -0.960 -12.019  1.00  0.00     0.011 C 
ATOM     27  C   UNL     1       8.720   1.838  -8.706  1.00  0.00     0.011 C 
ATOM     28  C   UNL     1       5.794  -0.635 -11.729  1.00  0.00     0.012 C 
ATOM     29  C   UNL     1       7.574  -1.017  -8.115  1.00  0.00     0.012 C 
ATOM     30  C   UNL     1       5.420  -3.112  -7.654  1.00  0.00     0.012 C 
ATOM     31  C   UNL     1       1.699  -2.284 -10.480  1.00  0.00     0.012 C 
ENDROOT
TORSDOF 0
ENDMDL
MODEL 7
REMARK VINA RESULT:    -6.034     10.177     12.585
REMARK INTER + INTRA:          -6.034
REMARK INTER:                  -6.034
REMARK INTRA:                   0.000
REMARK UNBOUND:                 0.000
REMARK SMILES C[C@H]1C(=O)CC[C@@H]2[C@]1(C)CC[C@@H]1[C@]2(C)CC[C@@]2(C)[C@@H]3CC(C)(C)CC[C@@]3(C)CC[C@]12C
REMARK SMILES IDX 1 1 2 2 3 3 4 4 5 5 6 6 7 7 8 8 10 9 11 10 12 11 13 12 15 13
REMARK SMILES IDX 16 14 17 15 30 16 29 17 28 18 26 19 19 20 20 21 21 22 24 23
REMARK SMILES IDX 25 24 22 25 23 26 27 27 31 28 18 29 14 30 9 31
REMARK H PARENT
REMARK Flexibility Score: inf
ROOT
ATOM      1  C   UNL     1      11.577  -1.676 -11.228  1.00  0.00     0.016 C 
ATOM      2  C   UNL     1      10.688  -0.774 -10.346  1.00  0.00     0.059 C 
ATOM      3  C   UNL     1      11.065   0.706 -10.469  1.00  0.00     0.136 C 
ATOM      4  O   UNL     1      12.124   1.029 -10.992  1.00  0.00    -0.299 OA
ATOM      5  C   UNL     1      10.197   1.796  -9.857  1.00  0.00     0.076 C 
ATOM      6  C   UNL     1       8.679   1.480  -9.828  1.00  0.00     0.012 C 
ATOM      7  C   UNL     1       8.442  -0.014  -9.509  1.00  0.00     0.002 C 
ATOM      8  C   UNL     1       9.146  -0.930 -10.608  1.00  0.00    -0.020 C 
ATOM      9  C   UNL     1       8.658  -2.407 -10.405  1.00  0.00     0.008 C 
ATOM     10  C   UNL     1       7.113  -2.597 -10.535  1.00  0.00     0.005 C 
ATOM     11  C   UNL     1       6.323  -1.303 -10.201  1.00  0.00     0.002 C 
ATOM     12  C   UNL     1       6.990  -0.516  -9.017  1.00  0.00    -0.026 C 
ATOM     13  C   UNL     1       6.044   0.658  -8.611  1.00  0.00     0.008 C 
ATOM     14  C   UNL     1       4.551   0.288  -8.318  1.00  0.00     0.008 C 
ATOM     15  C   UNL     1       4.011  -1.071  -8.910  1.00  0.00    -0.024 C 
ATOM     16  C   UNL     1       4.717  -1.301 -10.323  1.00  0.00    -0.024 C 
ATOM     17  C   UNL     1       4.157  -2.604 -10.976  1.00  0.00     0.008 C 
ATOM     18  C   UNL     1       2.622  -2.580 -11.185  1.00  0.00     0.007 C 
ATOM     19  C   UNL     1       1.797  -2.251  -9.900  1.00  0.00    -0.029 C 
ATOM     20  C   UNL     1       2.434  -1.012  -9.132  1.00  0.00     0.002 C 
ATOM     21  C   UNL     1       1.580  -0.633  -7.889  1.00  0.00     0.011 C 
ATOM     22  C   UNL     1       0.077  -0.336  -8.244  1.00  0.00    -0.035 C 
ATOM     23  C   UNL     1      -0.240  -0.578  -9.751  1.00  0.00     0.007 C 
ATOM     24  C   UNL     1       0.310  -1.907 -10.307  1.00  0.00     0.007 C 
ATOM     25  C   UNL     1      -0.859  -1.213  -7.378  1.00  0.00     0.011 C 
ATOM     26  C   UNL     1      -0.239   1.144  -7.926  1.00  0.00     0.011 C 
ATOM     27  C   UNL     1       1.740  -3.565  -9.061  1.00  0.00     0.011 C 
ATOM     28  C   UNL     1       4.358  -0.137 -11.344  1.00  0.00     0.012 C 
ATOM     29  C   UNL     1       4.300  -2.207  -7.868  1.00  0.00     0.012 C 
ATOM     30  C   UNL     1       7.234  -1.423  -7.745  1.00  0.00     0.012 C 
ATOM     31  C   UNL     1       8.868  -0.503 -12.104  1.00  0.00     0.012 C 
ENDROOT
TORSDOF 0
ENDMDL
MODEL 8
REMARK VINA RESULT:    -6.018      3.179      8.283
REMARK INTER + INTRA:          -6.018
REMARK INTER:                  -6.018
REMARK INTRA:                   0.000
REMARK UNBOUND:                 0.000
REMARK SMILES C[C@H]1C(=O)CC[C@@H]2[C@]1(C)CC[C@@H]1[C@]2(C)CC[C@@]2(C)[C@@H]3CC(C)(C)CC[C@@]3(C)CC[C@]12C
REMARK SMILES IDX 1 1 2 2 3 3 4 4 5 5 6 6 7 7 8 8 10 9 11 10 12 11 13 12 15 13
REMARK SMILES IDX 16 14 17 15 30 16 29 17 28 18 26 19 19 20 20 21 21 22 24 23
REMARK SMILES IDX 25 24 22 25 23 26 27 27 31 28 18 29 14 30 9 31
REMARK H PARENT
REMARK Flexibility Score: inf
ROOT
ATOM      1  C   UNL     1       6.315  -0.973   8.125  1.00  0.00     0.016 C 
ATOM      2  C   UNL     1       6.965  -0.610   6.773  1.00  0.00     0.059 C 
ATOM      3  C   UNL     1       8.084   0.425   6.931  1.00  0.00     0.136 C 
ATOM      4  O   UNL     1       8.200   1.051   7.978  1.00  0.00    -0.299 OA
ATOM      5  C   UNL     1       9.004   0.777   5.771  1.00  0.00     0.076 C 
ATOM      6  C   UNL     1       9.287  -0.388   4.787  1.00  0.00     0.012 C 
ATOM      7  C   UNL     1       8.016  -1.242   4.579  1.00  0.00     0.002 C 
ATOM      8  C   UNL     1       7.520  -1.842   5.971  1.00  0.00    -0.020 C 
ATOM      9  C   UNL     1       6.407  -2.909   5.681  1.00  0.00     0.008 C 
ATOM     10  C   UNL     1       6.876  -4.097   4.781  1.00  0.00     0.005 C 
ATOM     11  C   UNL     1       8.059  -3.713   3.853  1.00  0.00     0.002 C 
ATOM     12  C   UNL     1       7.912  -2.243   3.319  1.00  0.00    -0.026 C 
ATOM     13  C   UNL     1       9.022  -1.996   2.249  1.00  0.00     0.008 C 
ATOM     14  C   UNL     1       9.132  -3.046   1.092  1.00  0.00     0.008 C 
ATOM     15  C   UNL     1       8.498  -4.469   1.343  1.00  0.00    -0.024 C 
ATOM     16  C   UNL     1       8.702  -4.828   2.884  1.00  0.00    -0.024 C 
ATOM     17  C   UNL     1       8.149  -6.262   3.160  1.00  0.00     0.008 C 
ATOM     18  C   UNL     1       8.823  -7.360   2.300  1.00  0.00     0.007 C 
ATOM     19  C   UNL     1       8.801  -7.085   0.763  1.00  0.00    -0.029 C 
ATOM     20  C   UNL     1       9.221  -5.581   0.461  1.00  0.00     0.002 C 
ATOM     21  C   UNL     1       9.270  -5.317  -1.071  1.00  0.00     0.011 C 
ATOM     22  C   UNL     1      10.221  -6.310  -1.835  1.00  0.00    -0.035 C 
ATOM     23  C   UNL     1      10.831  -7.395  -0.896  1.00  0.00     0.007 C 
ATOM     24  C   UNL     1       9.808  -8.065   0.042  1.00  0.00     0.007 C 
ATOM     25  C   UNL     1       9.455  -7.003  -2.986  1.00  0.00     0.011 C 
ATOM     26  C   UNL     1      11.390  -5.515  -2.461  1.00  0.00     0.011 C 
ATOM     27  C   UNL     1       7.372  -7.463   0.266  1.00  0.00     0.011 C 
ATOM     28  C   UNL     1      10.244  -4.897   3.263  1.00  0.00     0.012 C 
ATOM     29  C   UNL     1       6.994  -4.419   0.901  1.00  0.00     0.012 C 
ATOM     30  C   UNL     1       6.505  -1.980   2.648  1.00  0.00     0.012 C 
ATOM     31  C   UNL     1       8.653  -2.513   6.845  1.00  0.00     0.012 C 
ENDROOT
TORSDOF 0
ENDMDL
MODEL 9
REMARK VINA RESULT:    -5.994      1.386      2.532
REMARK INTER + INTRA:          -5.994
REMARK INTER:                  -5.994
REMARK INTRA:                   0.000
REMARK UNBOUND:                 0.000
REMARK SMILES C[C@H]1C(=O)CC[C@@H]2[C@]1(C)CC[C@@H]1[C@]2(C)CC[C@@]2(C)[C@@H]3CC(C)(C)CC[C@@]3(C)CC[C@]12C
REMARK SMILES IDX 1 1 2 2 3 3 4 4 5 5 6 6 7 7 8 8 10 9 11 10 12 11 13 12 15 13
REMARK SMILES IDX 16 14 17 15 30 16 29 17 28 18 26 19 19 20 20 21 21 22 24 23
REMARK SMILES IDX 25 24 22 25 23 26 27 27 31 28 18 29 14 30 9 31
REMARK H PARENT
REMARK Flexibility Score: inf
ROOT
ATOM      1  C   UNL     1       8.546  -8.113  -4.150  1.00  0.00     0.016 C 
ATOM      2  C   UNL     1       9.667  -7.623  -3.210  1.00  0.00     0.059 C 
ATOM      3  C   UNL     1      10.921  -7.195  -3.980  1.00  0.00     0.136 C 
ATOM      4  O   UNL     1      11.052  -7.498  -5.159  1.00  0.00    -0.299 OA
ATOM      5  C   UNL     1      12.071  -6.483  -3.282  1.00  0.00     0.076 C 
ATOM      6  C   UNL     1      11.653  -5.570  -2.101  1.00  0.00     0.012 C 
ATOM      7  C   UNL     1      10.499  -6.215  -1.299  1.00  0.00     0.002 C 
ATOM      8  C   UNL     1       9.238  -6.457  -2.246  1.00  0.00    -0.020 C 
ATOM      9  C   UNL     1       8.014  -6.853  -1.347  1.00  0.00     0.008 C 
ATOM     10  C   UNL     1       7.623  -5.775  -0.285  1.00  0.00     0.005 C 
ATOM     11  C   UNL     1       8.820  -4.873   0.119  1.00  0.00     0.002 C 
ATOM     12  C   UNL     1      10.157  -5.694   0.188  1.00  0.00    -0.026 C 
ATOM     13  C   UNL     1      11.269  -4.774   0.783  1.00  0.00     0.008 C 
ATOM     14  C   UNL     1      10.938  -4.053   2.133  1.00  0.00     0.008 C 
ATOM     15  C   UNL     1       9.415  -3.903   2.520  1.00  0.00    -0.024 C 
ATOM     16  C   UNL     1       8.591  -3.677   1.173  1.00  0.00    -0.024 C 
ATOM     17  C   UNL     1       7.085  -3.454   1.519  1.00  0.00     0.008 C 
ATOM     18  C   UNL     1       6.838  -2.249   2.461  1.00  0.00     0.007 C 
ATOM     19  C   UNL     1       7.673  -2.276   3.781  1.00  0.00    -0.029 C 
ATOM     20  C   UNL     1       9.188  -2.646   3.473  1.00  0.00     0.002 C 
ATOM     21  C   UNL     1      10.042  -2.608   4.773  1.00  0.00     0.011 C 
ATOM     22  C   UNL     1       9.962  -1.226   5.519  1.00  0.00    -0.035 C 
ATOM     23  C   UNL     1       8.971  -0.234   4.836  1.00  0.00     0.007 C 
ATOM     24  C   UNL     1       7.609  -0.856   4.469  1.00  0.00     0.007 C 
ATOM     25  C   UNL     1       9.538  -1.439   6.992  1.00  0.00     0.011 C 
ATOM     26  C   UNL     1      11.361  -0.568   5.524  1.00  0.00     0.011 C 
ATOM     27  C   UNL     1       6.951  -3.272   4.740  1.00  0.00     0.011 C 
ATOM     28  C   UNL     1       9.048  -2.347   0.431  1.00  0.00     0.012 C 
ATOM     29  C   UNL     1       8.984  -5.184   3.316  1.00  0.00     0.012 C 
ATOM     30  C   UNL     1      10.033  -6.980   1.099  1.00  0.00     0.012 C 
ATOM     31  C   UNL     1       8.833  -5.219  -3.141  1.00  0.00     0.012 C 
ENDROOT
TORSDOF 0
ENDMDL
