MODEL 1
REMARK VINA RESULT:    -4.224      0.000      0.000
REMARK INTER + INTRA:         -15.632
REMARK INTER:                 -11.137
REMARK INTRA:                  -4.495
REMARK UNBOUND:                -4.495
REMARK SMILES CCCCCCCCCCCCCCCCCCCCCCCCCCCCCC(=O)[O-]
REMARK SMILES IDX 16 1 17 2 18 3 19 4 20 5 21 6 22 7 23 8 24 9 25 10 26 11
REMARK SMILES IDX 27 12 28 13 29 14 30 15 31 16 32 17 15 18 14 19 13 20 12 21
REMARK SMILES IDX 11 22 10 23 9 24 8 25 7 26 6 27 5 28 4 29 3 30 2 31 1 32
REMARK H PARENT
REMARK Flexibility Score: inf
ROOT
ATOM      1  C   UNL     1      34.373   8.843  43.923  1.00  0.00     0.000 C 
ENDROOT
BRANCH   1   2
ATOM      2  C   UNL     1      34.546  10.367  44.028  1.00  0.00     0.000 C 
BRANCH   2   3
ATOM      3  C   UNL     1      34.889  10.832  45.455  1.00  0.00     0.000 C 
BRANCH   3   4
ATOM      4  C   UNL     1      35.296  12.318  45.542  1.00  0.00     0.000 C 
BRANCH   4   5
ATOM      5  C   UNL     1      35.923  12.669  46.901  1.00  0.00     0.000 C 
BRANCH   5   6
ATOM      6  C   UNL     1      37.205  11.865  47.142  1.00  0.00     0.000 C 
BRANCH   6   7
ATOM      7  C   UNL     1      38.420  12.793  47.302  1.00  0.00     0.000 C 
BRANCH   7   8
ATOM      8  C   UNL     1      38.809  13.481  45.976  1.00  0.00     0.000 C 
BRANCH   8   9
ATOM      9  C   UNL     1      38.948  15.010  46.095  1.00  0.00     0.000 C 
BRANCH   9  10
ATOM     10  C   UNL     1      38.194  15.811  45.018  1.00  0.00     0.000 C 
BRANCH  10  11
ATOM     11  C   UNL     1      36.656  15.730  45.105  1.00  0.00     0.000 C 
BRANCH  11  12
ATOM     12  C   UNL     1      35.971  16.966  45.718  1.00  0.00     0.000 C 
BRANCH  12  13
ATOM     13  C   UNL     1      35.089  16.620  46.931  1.00  0.00     0.006 C 
BRANCH  13  14
ATOM     14  C   UNL     1      35.534  17.352  48.205  1.00  0.00     0.053 C 
BRANCH  14  15
ATOM     15  C   UNL     1      36.911  16.947  48.632  1.00  0.00     0.041 C 
ATOM     16  O   UNL     1      37.139  15.762  48.997  1.00  0.00    -0.550 OA
ATOM     17  O   UNL     1      37.937  17.884  48.655  1.00  0.00    -0.550 OA
ENDBRANCH  14  15
ENDBRANCH  13  14
ENDBRANCH  12  13
ENDBRANCH  11  12
ENDBRANCH  10  11
ENDBRANCH   9  10
ENDBRANCH   8   9
ENDBRANCH   7   8
ENDBRANCH   6   7
ENDBRANCH   5   6
ENDBRANCH   4   5
ENDBRANCH   3   4
ENDBRANCH   2   3
ENDBRANCH   1   2
BRANCH   1  18
ATOM     18  C   UNL     1      34.216   8.155  45.292  1.00  0.00     0.000 C 
BRANCH  18  19
ATOM     19  C   UNL     1      33.963   6.636  45.245  1.00  0.00     0.000 C 
BRANCH  19  20
ATOM     20  C   UNL     1      33.602   6.045  46.616  1.00  0.00     0.000 C 
BRANCH  20  21
ATOM     21  C   UNL     1      34.779   5.250  47.201  1.00  0.00     0.000 C 
BRANCH  21  22
ATOM     22  C   UNL     1      35.088   5.624  48.661  1.00  0.00     0.000 C 
BRANCH  22  23
ATOM     23  C   UNL     1      33.989   6.432  49.380  1.00  0.00     0.000 C 
BRANCH  23  24
ATOM     24  C   UNL     1      34.478   7.770  49.978  1.00  0.00    -0.000 C 
BRANCH  24  25
ATOM     25  C   UNL     1      34.769   8.831  48.899  1.00  0.00    -0.000 C 
BRANCH  25  26
ATOM     26  C   UNL     1      33.728   9.963  48.881  1.00  0.00    -0.000 C 
BRANCH  26  27
ATOM     27  C   UNL     1      32.426   9.562  48.165  1.00  0.00    -0.000 C 
BRANCH  27  28
ATOM     28  C   UNL     1      31.193   9.696  49.073  1.00  0.00    -0.000 C 
BRANCH  28  29
ATOM     29  C   UNL     1      30.499   8.347  49.325  1.00  0.00    -0.000 C 
BRANCH  29  30
ATOM     30  C   UNL     1      30.710   7.354  48.168  1.00  0.00    -0.000 C 
BRANCH  30  31
ATOM     31  C   UNL     1      30.310   5.920  48.545  1.00  0.00    -0.003 C 
ATOM     32  C   UNL     1      28.819   5.686  48.312  1.00  0.00     0.004 C 
ENDBRANCH  30  31
ENDBRANCH  29  30
ENDBRANCH  28  29
ENDBRANCH  27  28
ENDBRANCH  26  27
ENDBRANCH  25  26
ENDBRANCH  24  25
ENDBRANCH  23  24
ENDBRANCH  22  23
ENDBRANCH  21  22
ENDBRANCH  20  21
ENDBRANCH  19  20
ENDBRANCH  18  19
ENDBRANCH   1  18
TORSDOF 28
ENDMDL
MODEL 2
REMARK VINA RESULT:    -4.191      1.474      2.361
REMARK INTER + INTRA:         -15.546
REMARK INTER:                 -11.221
REMARK INTRA:                  -4.326
REMARK UNBOUND:                -4.495
REMARK SMILES CCCCCCCCCCCCCCCCCCCCCCCCCCCCCC(=O)[O-]
REMARK SMILES IDX 16 1 17 2 18 3 19 4 20 5 21 6 22 7 23 8 24 9 25 10 26 11
REMARK SMILES IDX 27 12 28 13 29 14 30 15 31 16 32 17 15 18 14 19 13 20 12 21
REMARK SMILES IDX 11 22 10 23 9 24 8 25 7 26 6 27 5 28 4 29 3 30 2 31 1 32
REMARK H PARENT
REMARK Flexibility Score: inf
ROOT
ATOM      1  C   UNL     1      34.250   7.946  44.251  1.00  0.00     0.000 C 
ENDROOT
BRANCH   1   2
ATOM      2  C   UNL     1      34.972   9.229  43.806  1.00  0.00     0.000 C 
BRANCH   2   3
ATOM      3  C   UNL     1      34.038  10.451  43.745  1.00  0.00     0.000 C 
BRANCH   3   4
ATOM      4  C   UNL     1      34.623  11.713  44.412  1.00  0.00     0.000 C 
BRANCH   4   5
ATOM      5  C   UNL     1      35.151  11.429  45.828  1.00  0.00     0.000 C 
BRANCH   5   6
ATOM      6  C   UNL     1      36.121  12.524  46.286  1.00  0.00     0.000 C 
BRANCH   6   7
ATOM      7  C   UNL     1      37.084  11.998  47.362  1.00  0.00     0.000 C 
BRANCH   7   8
ATOM      8  C   UNL     1      36.670  12.439  48.783  1.00  0.00     0.000 C 
BRANCH   8   9
ATOM      9  C   UNL     1      35.724  13.654  48.797  1.00  0.00     0.000 C 
BRANCH   9  10
ATOM     10  C   UNL     1      36.346  14.948  49.355  1.00  0.00     0.000 C 
BRANCH  10  11
ATOM     11  C   UNL     1      36.384  16.131  48.366  1.00  0.00     0.000 C 
BRANCH  11  12
ATOM     12  C   UNL     1      35.358  16.056  47.219  1.00  0.00     0.000 C 
BRANCH  12  13
ATOM     13  C   UNL     1      35.847  16.745  45.934  1.00  0.00     0.006 C 
BRANCH  13  14
ATOM     14  C   UNL     1      36.835  15.876  45.144  1.00  0.00     0.053 C 
BRANCH  14  15
ATOM     15  C   UNL     1      38.064  16.637  44.754  1.00  0.00     0.041 C 
ATOM     16  O   UNL     1      38.529  17.526  45.517  1.00  0.00    -0.550 OA
ATOM     17  O   UNL     1      38.680  16.386  43.534  1.00  0.00    -0.550 OA
ENDBRANCH  14  15
ENDBRANCH  13  14
ENDBRANCH  12  13
ENDBRANCH  11  12
ENDBRANCH  10  11
ENDBRANCH   9  10
ENDBRANCH   8   9
ENDBRANCH   7   8
ENDBRANCH   6   7
ENDBRANCH   5   6
ENDBRANCH   4   5
ENDBRANCH   3   4
ENDBRANCH   2   3
ENDBRANCH   1   2
BRANCH   1  18
ATOM     18  C   UNL     1      33.886   7.946  45.747  1.00  0.00     0.000 C 
BRANCH  18  19
ATOM     19  C   UNL     1      33.538   6.568  46.343  1.00  0.00     0.000 C 
BRANCH  19  20
ATOM     20  C   UNL     1      34.620   5.509  46.077  1.00  0.00     0.000 C 
BRANCH  20  21
ATOM     21  C   UNL     1      35.129   4.899  47.391  1.00  0.00     0.000 C 
BRANCH  21  22
ATOM     22  C   UNL     1      34.551   5.592  48.637  1.00  0.00     0.000 C 
BRANCH  22  23
ATOM     23  C   UNL     1      35.585   5.992  49.708  1.00  0.00     0.000 C 
BRANCH  23  24
ATOM     24  C   UNL     1      35.679   7.513  49.959  1.00  0.00    -0.000 C 
BRANCH  24  25
ATOM     25  C   UNL     1      34.318   8.222  49.822  1.00  0.00    -0.000 C 
BRANCH  25  26
ATOM     26  C   UNL     1      34.400   9.512  48.988  1.00  0.00    -0.000 C 
BRANCH  26  27
ATOM     27  C   UNL     1      33.023   9.987  48.489  1.00  0.00    -0.000 C 
BRANCH  27  28
ATOM     28  C   UNL     1      31.869   9.437  49.343  1.00  0.00    -0.000 C 
BRANCH  28  29
ATOM     29  C   UNL     1      31.025   8.395  48.589  1.00  0.00    -0.000 C 
BRANCH  29  30
ATOM     30  C   UNL     1      30.975   7.041  49.318  1.00  0.00    -0.000 C 
BRANCH  30  31
ATOM     31  C   UNL     1      30.536   5.893  48.397  1.00  0.00    -0.003 C 
ATOM     32  C   UNL     1      29.024   5.905  48.185  1.00  0.00     0.004 C 
ENDBRANCH  30  31
ENDBRANCH  29  30
ENDBRANCH  28  29
ENDBRANCH  27  28
ENDBRANCH  26  27
ENDBRANCH  25  26
ENDBRANCH  24  25
ENDBRANCH  23  24
ENDBRANCH  22  23
ENDBRANCH  21  22
ENDBRANCH  20  21
ENDBRANCH  19  20
ENDBRANCH  18  19
ENDBRANCH   1  18
TORSDOF 28
ENDMDL
MODEL 3
REMARK VINA RESULT:    -4.158      1.565      2.445
REMARK INTER + INTRA:         -15.458
REMARK INTER:                 -10.381
REMARK INTRA:                  -5.077
REMARK UNBOUND:                -4.495
REMARK SMILES CCCCCCCCCCCCCCCCCCCCCCCCCCCCCC(=O)[O-]
REMARK SMILES IDX 16 1 17 2 18 3 19 4 20 5 21 6 22 7 23 8 24 9 25 10 26 11
REMARK SMILES IDX 27 12 28 13 29 14 30 15 31 16 32 17 15 18 14 19 13 20 12 21
REMARK SMILES IDX 11 22 10 23 9 24 8 25 7 26 6 27 5 28 4 29 3 30 2 31 1 32
REMARK H PARENT
REMARK Flexibility Score: inf
ROOT
ATOM      1  C   UNL     1      34.260   9.307  43.870  1.00  0.00     0.000 C 
ENDROOT
BRANCH   1   2
ATOM      2  C   UNL     1      34.531  10.807  44.076  1.00  0.00     0.000 C 
BRANCH   2   3
ATOM      3  C   UNL     1      35.014  11.137  45.500  1.00  0.00     0.000 C 
BRANCH   3   4
ATOM      4  C   UNL     1      35.449  12.606  45.682  1.00  0.00     0.000 C 
BRANCH   4   5
ATOM      5  C   UNL     1      36.632  12.744  46.653  1.00  0.00     0.000 C 
BRANCH   5   6
ATOM      6  C   UNL     1      36.738  11.521  47.571  1.00  0.00     0.000 C 
BRANCH   6   7
ATOM      7  C   UNL     1      36.994  11.940  49.028  1.00  0.00     0.000 C 
BRANCH   7   8
ATOM      8  C   UNL     1      36.340  13.297  49.369  1.00  0.00     0.000 C 
BRANCH   8   9
ATOM      9  C   UNL     1      34.878  13.173  49.835  1.00  0.00     0.000 C 
BRANCH   9  10
ATOM     10  C   UNL     1      34.114  14.507  49.919  1.00  0.00     0.000 C 
BRANCH  10  11
ATOM     11  C   UNL     1      34.990  15.768  49.778  1.00  0.00     0.000 C 
BRANCH  11  12
ATOM     12  C   UNL     1      34.385  16.891  48.914  1.00  0.00     0.000 C 
BRANCH  12  13
ATOM     13  C   UNL     1      34.687  16.720  47.414  1.00  0.00     0.006 C 
BRANCH  13  14
ATOM     14  C   UNL     1      36.159  16.371  47.151  1.00  0.00     0.053 C 
BRANCH  14  15
ATOM     15  C   UNL     1      36.555  16.645  45.734  1.00  0.00     0.041 C 
ATOM     16  O   UNL     1      36.413  15.757  44.851  1.00  0.00    -0.550 OA
ATOM     17  O   UNL     1      37.108  17.873  45.390  1.00  0.00    -0.550 OA
ENDBRANCH  14  15
ENDBRANCH  13  14
ENDBRANCH  12  13
ENDBRANCH  11  12
ENDBRANCH  10  11
ENDBRANCH   9  10
ENDBRANCH   8   9
ENDBRANCH   7   8
ENDBRANCH   6   7
ENDBRANCH   5   6
ENDBRANCH   4   5
ENDBRANCH   3   4
ENDBRANCH   2   3
ENDBRANCH   1   2
BRANCH   1  18
ATOM     18  C   UNL     1      34.254   8.507  45.186  1.00  0.00     0.000 C 
BRANCH  18  19
ATOM     19  C   UNL     1      33.955   7.002  45.043  1.00  0.00     0.000 C 
BRANCH  19  20
ATOM     20  C   UNL     1      33.566   6.339  46.374  1.00  0.00     0.000 C 
BRANCH  20  21
ATOM     21  C   UNL     1      34.626   5.317  46.811  1.00  0.00     0.000 C 
BRANCH  21  22
ATOM     22  C   UNL     1      34.871   5.319  48.330  1.00  0.00     0.000 C 
BRANCH  22  23
ATOM     23  C   UNL     1      33.977   6.280  49.139  1.00  0.00     0.000 C 
BRANCH  23  24
ATOM     24  C   UNL     1      34.757   7.250  50.054  1.00  0.00    -0.000 C 
BRANCH  24  25
ATOM     25  C   UNL     1      35.052   8.601  49.373  1.00  0.00    -0.000 C 
BRANCH  25  26
ATOM     26  C   UNL     1      34.008   9.678  49.711  1.00  0.00    -0.000 C 
BRANCH  26  27
ATOM     27  C   UNL     1      33.242  10.174  48.471  1.00  0.00    -0.000 C 
BRANCH  27  28
ATOM     28  C   UNL     1      32.015   9.304  48.153  1.00  0.00    -0.000 C 
BRANCH  28  29
ATOM     29  C   UNL     1      31.238   8.900  49.418  1.00  0.00    -0.000 C 
BRANCH  29  30
ATOM     30  C   UNL     1      30.080   7.933  49.111  1.00  0.00    -0.000 C 
BRANCH  30  31
ATOM     31  C   UNL     1      30.414   6.961  47.970  1.00  0.00    -0.003 C 
ATOM     32  C   UNL     1      30.458   5.519  48.471  1.00  0.00     0.004 C 
ENDBRANCH  30  31
ENDBRANCH  29  30
ENDBRANCH  28  29
ENDBRANCH  27  28
ENDBRANCH  26  27
ENDBRANCH  25  26
ENDBRANCH  24  25
ENDBRANCH  23  24
ENDBRANCH  22  23
ENDBRANCH  21  22
ENDBRANCH  20  21
ENDBRANCH  19  20
ENDBRANCH  18  19
ENDBRANCH   1  18
TORSDOF 28
ENDMDL
MODEL 4
REMARK VINA RESULT:    -4.074      3.628      8.610
REMARK INTER + INTRA:         -15.236
REMARK INTER:                 -10.791
REMARK INTRA:                  -4.445
REMARK UNBOUND:                -4.495
REMARK SMILES CCCCCCCCCCCCCCCCCCCCCCCCCCCCCC(=O)[O-]
REMARK SMILES IDX 16 1 17 2 18 3 19 4 20 5 21 6 22 7 23 8 24 9 25 10 26 11
REMARK SMILES IDX 27 12 28 13 29 14 30 15 31 16 32 17 15 18 14 19 13 20 12 21
REMARK SMILES IDX 11 22 10 23 9 24 8 25 7 26 6 27 5 28 4 29 3 30 2 31 1 32
REMARK H PARENT
REMARK Flexibility Score: inf
ROOT
ATOM      1  C   UNL     1      33.578   7.730  44.454  1.00  0.00     0.000 C 
ENDROOT
BRANCH   1   2
ATOM      2  C   UNL     1      34.096   6.605  45.366  1.00  0.00     0.000 C 
BRANCH   2   3
ATOM      3  C   UNL     1      33.439   6.614  46.758  1.00  0.00     0.000 C 
BRANCH   3   4
ATOM      4  C   UNL     1      33.988   7.709  47.696  1.00  0.00     0.000 C 
BRANCH   4   5
ATOM      5  C   UNL     1      34.169   7.202  49.136  1.00  0.00     0.000 C 
BRANCH   5   6
ATOM      6  C   UNL     1      34.756   8.295  50.037  1.00  0.00     0.000 C 
BRANCH   6   7
ATOM      7  C   UNL     1      35.357   9.438  49.203  1.00  0.00     0.000 C 
BRANCH   7   8
ATOM      8  C   UNL     1      35.076  10.824  49.823  1.00  0.00     0.000 C 
BRANCH   8   9
ATOM      9  C   UNL     1      33.983  11.616  49.083  1.00  0.00     0.000 C 
BRANCH   9  10
ATOM     10  C   UNL     1      32.549  11.349  49.577  1.00  0.00     0.000 C 
BRANCH  10  11
ATOM     11  C   UNL     1      31.731  10.377  48.703  1.00  0.00     0.000 C 
BRANCH  11  12
ATOM     12  C   UNL     1      30.937   9.310  49.481  1.00  0.00     0.000 C 
BRANCH  12  13
ATOM     13  C   UNL     1      30.606   8.072  48.629  1.00  0.00     0.006 C 
BRANCH  13  14
ATOM     14  C   UNL     1      30.552   6.785  49.465  1.00  0.00     0.053 C 
BRANCH  14  15
ATOM     15  C   UNL     1      29.975   5.640  48.693  1.00  0.00     0.041 C 
ATOM     16  O   UNL     1      30.717   4.700  48.300  1.00  0.00    -0.550 OA
ATOM     17  O   UNL     1      28.620   5.622  48.382  1.00  0.00    -0.550 OA
ENDBRANCH  14  15
ENDBRANCH  13  14
ENDBRANCH  12  13
ENDBRANCH  11  12
ENDBRANCH  10  11
ENDBRANCH   9  10
ENDBRANCH   8   9
ENDBRANCH   7   8
ENDBRANCH   6   7
ENDBRANCH   5   6
ENDBRANCH   4   5
ENDBRANCH   3   4
ENDBRANCH   2   3
ENDBRANCH   1   2
BRANCH   1  18
ATOM     18  C   UNL     1      34.655   8.776  44.112  1.00  0.00     0.000 C 
BRANCH  18  19
ATOM     19  C   UNL     1      34.278  10.238  44.417  1.00  0.00     0.000 C 
BRANCH  19  20
ATOM     20  C   UNL     1      35.022  10.809  45.634  1.00  0.00     0.000 C 
BRANCH  20  21
ATOM     21  C   UNL     1      35.363  12.292  45.426  1.00  0.00     0.000 C 
BRANCH  21  22
ATOM     22  C   UNL     1      36.130  12.903  46.611  1.00  0.00     0.000 C 
BRANCH  22  23
ATOM     23  C   UNL     1      37.527  12.303  46.871  1.00  0.00     0.000 C 
BRANCH  23  24
ATOM     24  C   UNL     1      38.664  13.347  46.915  1.00  0.00    -0.000 C 
BRANCH  24  25
ATOM     25  C   UNL     1      38.997  13.923  45.525  1.00  0.00    -0.000 C 
BRANCH  25  26
ATOM     26  C   UNL     1      38.912  15.458  45.481  1.00  0.00    -0.000 C 
BRANCH  26  27
ATOM     27  C   UNL     1      37.580  15.963  44.899  1.00  0.00    -0.000 C 
BRANCH  27  28
ATOM     28  C   UNL     1      37.351  17.459  45.171  1.00  0.00    -0.000 C 
BRANCH  28  29
ATOM     29  C   UNL     1      36.058  17.722  45.961  1.00  0.00    -0.000 C 
BRANCH  29  30
ATOM     30  C   UNL     1      35.446  16.429  46.530  1.00  0.00    -0.000 C 
BRANCH  30  31
ATOM     31  C   UNL     1      34.618  16.681  47.799  1.00  0.00    -0.003 C 
ATOM     32  C   UNL     1      34.849  15.582  48.834  1.00  0.00     0.004 C 
ENDBRANCH  30  31
ENDBRANCH  29  30
ENDBRANCH  28  29
ENDBRANCH  27  28
ENDBRANCH  26  27
ENDBRANCH  25  26
ENDBRANCH  24  25
ENDBRANCH  23  24
ENDBRANCH  22  23
ENDBRANCH  21  22
ENDBRANCH  20  21
ENDBRANCH  19  20
ENDBRANCH  18  19
ENDBRANCH   1  18
TORSDOF 28
ENDMDL
MODEL 5
REMARK VINA RESULT:    -4.057      3.702      8.820
REMARK INTER + INTRA:         -15.193
REMARK INTER:                 -11.046
REMARK INTRA:                  -4.146
REMARK UNBOUND:                -4.495
REMARK SMILES CCCCCCCCCCCCCCCCCCCCCCCCCCCCCC(=O)[O-]
REMARK SMILES IDX 16 1 17 2 18 3 19 4 20 5 21 6 22 7 23 8 24 9 25 10 26 11
REMARK SMILES IDX 27 12 28 13 29 14 30 15 31 16 32 17 15 18 14 19 13 20 12 21
REMARK SMILES IDX 11 22 10 23 9 24 8 25 7 26 6 27 5 28 4 29 3 30 2 31 1 32
REMARK H PARENT
REMARK Flexibility Score: inf
ROOT
ATOM      1  C   UNL     1      34.130   7.258  44.904  1.00  0.00     0.000 C 
ENDROOT
BRANCH   1   2
ATOM      2  C   UNL     1      33.569   7.590  46.297  1.00  0.00     0.000 C 
BRANCH   2   3
ATOM      3  C   UNL     1      33.348   6.340  47.166  1.00  0.00     0.000 C 
BRANCH   3   4
ATOM      4  C   UNL     1      34.637   5.531  47.429  1.00  0.00     0.000 C 
BRANCH   4   5
ATOM      5  C   UNL     1      35.041   5.550  48.912  1.00  0.00     0.000 C 
BRANCH   5   6
ATOM      6  C   UNL     1      34.391   6.729  49.646  1.00  0.00     0.000 C 
BRANCH   6   7
ATOM      7  C   UNL     1      35.449   7.739  50.118  1.00  0.00     0.000 C 
BRANCH   7   8
ATOM      8  C   UNL     1      35.303   9.108  49.419  1.00  0.00     0.000 C 
BRANCH   8   9
ATOM      9  C   UNL     1      34.026   9.870  49.821  1.00  0.00     0.000 C 
BRANCH   9  10
ATOM     10  C   UNL     1      33.196  10.403  48.638  1.00  0.00     0.000 C 
BRANCH  10  11
ATOM     11  C   UNL     1      31.751   9.868  48.565  1.00  0.00     0.000 C 
BRANCH  11  12
ATOM     12  C   UNL     1      31.418   8.750  49.570  1.00  0.00     0.000 C 
BRANCH  12  13
ATOM     13  C   UNL     1      29.997   8.186  49.387  1.00  0.00     0.006 C 
BRANCH  13  14
ATOM     14  C   UNL     1      29.945   7.061  48.345  1.00  0.00     0.053 C 
BRANCH  14  15
ATOM     15  C   UNL     1      29.088   5.919  48.796  1.00  0.00     0.041 C 
ATOM     16  O   UNL     1      29.209   5.456  49.962  1.00  0.00    -0.550 OA
ATOM     17  O   UNL     1      28.176   5.344  47.920  1.00  0.00    -0.550 OA
ENDBRANCH  14  15
ENDBRANCH  13  14
ENDBRANCH  12  13
ENDBRANCH  11  12
ENDBRANCH  10  11
ENDBRANCH   9  10
ENDBRANCH   8   9
ENDBRANCH   7   8
ENDBRANCH   6   7
ENDBRANCH   5   6
ENDBRANCH   4   5
ENDBRANCH   3   4
ENDBRANCH   2   3
ENDBRANCH   1   2
BRANCH   1  18
ATOM     18  C   UNL     1      33.975   8.414  43.898  1.00  0.00     0.000 C 
BRANCH  18  19
ATOM     19  C   UNL     1      34.918   9.612  44.118  1.00  0.00     0.000 C 
BRANCH  19  20
ATOM     20  C   UNL     1      34.221  10.968  43.919  1.00  0.00     0.000 C 
BRANCH  20  21
ATOM     21  C   UNL     1      34.955  12.082  44.680  1.00  0.00     0.000 C 
BRANCH  21  22
ATOM     22  C   UNL     1      35.208  11.731  46.157  1.00  0.00     0.000 C 
BRANCH  22  23
ATOM     23  C   UNL     1      36.611  12.087  46.687  1.00  0.00     0.000 C 
BRANCH  23  24
ATOM     24  C   UNL     1      36.662  12.359  48.206  1.00  0.00    -0.000 C 
BRANCH  24  25
ATOM     25  C   UNL     1      35.664  13.446  48.650  1.00  0.00    -0.000 C 
BRANCH  25  26
ATOM     26  C   UNL     1      36.359  14.707  49.191  1.00  0.00    -0.000 C 
BRANCH  26  27
ATOM     27  C   UNL     1      36.294  15.890  48.208  1.00  0.00    -0.000 C 
BRANCH  27  28
ATOM     28  C   UNL     1      35.620  15.511  46.879  1.00  0.00    -0.000 C 
BRANCH  28  29
ATOM     29  C   UNL     1      36.117  16.369  45.703  1.00  0.00    -0.000 C 
BRANCH  29  30
ATOM     30  C   UNL     1      37.365  15.773  45.027  1.00  0.00    -0.000 C 
BRANCH  30  31
ATOM     31  C   UNL     1      38.399  16.845  44.654  1.00  0.00    -0.003 C 
ATOM     32  C   UNL     1      38.961  16.604  43.255  1.00  0.00     0.004 C 
ENDBRANCH  30  31
ENDBRANCH  29  30
ENDBRANCH  28  29
ENDBRANCH  27  28
ENDBRANCH  26  27
ENDBRANCH  25  26
ENDBRANCH  24  25
ENDBRANCH  23  24
ENDBRANCH  22  23
ENDBRANCH  21  22
ENDBRANCH  20  21
ENDBRANCH  19  20
ENDBRANCH  18  19
ENDBRANCH   1  18
TORSDOF 28
ENDMDL
MODEL 6
REMARK VINA RESULT:    -4.037      1.936      2.567
REMARK INTER + INTRA:         -15.139
REMARK INTER:                 -11.705
REMARK INTRA:                  -3.434
REMARK UNBOUND:                -4.495
REMARK SMILES CCCCCCCCCCCCCCCCCCCCCCCCCCCCCC(=O)[O-]
REMARK SMILES IDX 16 1 17 2 18 3 19 4 20 5 21 6 22 7 23 8 24 9 25 10 26 11
REMARK SMILES IDX 27 12 28 13 29 14 30 15 31 16 32 17 15 18 14 19 13 20 12 21
REMARK SMILES IDX 11 22 10 23 9 24 8 25 7 26 6 27 5 28 4 29 3 30 2 31 1 32
REMARK H PARENT
REMARK Flexibility Score: inf
ROOT
ATOM      1  C   UNL     1      33.908  10.202  43.817  1.00  0.00     0.000 C 
ENDROOT
BRANCH   1   2
ATOM      2  C   UNL     1      34.624  11.498  44.235  1.00  0.00     0.000 C 
BRANCH   2   3
ATOM      3  C   UNL     1      35.235  11.415  45.646  1.00  0.00     0.000 C 
BRANCH   3   4
ATOM      4  C   UNL     1      35.622  12.788  46.235  1.00  0.00     0.000 C 
BRANCH   4   5
ATOM      5  C   UNL     1      37.100  12.840  46.658  1.00  0.00     0.000 C 
BRANCH   5   6
ATOM      6  C   UNL     1      37.875  13.870  45.828  1.00  0.00     0.000 C 
BRANCH   6   7
ATOM      7  C   UNL     1      38.403  15.011  46.713  1.00  0.00     0.000 C 
BRANCH   7   8
ATOM      8  C   UNL     1      38.290  16.387  46.021  1.00  0.00     0.000 C 
BRANCH   8   9
ATOM      9  C   UNL     1      36.899  16.658  45.417  1.00  0.00     0.000 C 
BRANCH   9  10
ATOM     10  C   UNL     1      35.902  17.336  46.376  1.00  0.00     0.000 C 
BRANCH  10  11
ATOM     11  C   UNL     1      34.908  16.378  47.063  1.00  0.00     0.000 C 
BRANCH  11  12
ATOM     12  C   UNL     1      35.197  16.093  48.549  1.00  0.00     0.000 C 
BRANCH  12  13
ATOM     13  C   UNL     1      34.237  16.833  49.497  1.00  0.00     0.006 C 
BRANCH  13  14
ATOM     14  C   UNL     1      32.972  17.325  48.781  1.00  0.00     0.053 C 
BRANCH  14  15
ATOM     15  C   UNL     1      31.736  16.665  49.309  1.00  0.00     0.041 C 
ATOM     16  O   UNL     1      30.616  17.233  49.200  1.00  0.00    -0.550 OA
ATOM     17  O   UNL     1      31.824  15.433  49.947  1.00  0.00    -0.550 OA
ENDBRANCH  14  15
ENDBRANCH  13  14
ENDBRANCH  12  13
ENDBRANCH  11  12
ENDBRANCH  10  11
ENDBRANCH   9  10
ENDBRANCH   8   9
ENDBRANCH   7   8
ENDBRANCH   6   7
ENDBRANCH   5   6
ENDBRANCH   4   5
ENDBRANCH   3   4
ENDBRANCH   2   3
ENDBRANCH   1   2
BRANCH   1  18
ATOM     18  C   UNL     1      34.642   8.930  44.280  1.00  0.00     0.000 C 
BRANCH  18  19
ATOM     19  C   UNL     1      33.925   8.113  45.371  1.00  0.00     0.000 C 
BRANCH  19  20
ATOM     20  C   UNL     1      34.065   6.595  45.175  1.00  0.00     0.000 C 
BRANCH  20  21
ATOM     21  C   UNL     1      34.267   5.881  46.520  1.00  0.00     0.000 C 
BRANCH  21  22
ATOM     22  C   UNL     1      33.532   6.573  47.681  1.00  0.00     0.000 C 
BRANCH  22  23
ATOM     23  C   UNL     1      34.334   6.688  48.993  1.00  0.00     0.000 C 
BRANCH  23  24
ATOM     24  C   UNL     1      34.307   8.095  49.629  1.00  0.00    -0.000 C 
BRANCH  24  25
ATOM     25  C   UNL     1      34.433   9.222  48.585  1.00  0.00    -0.000 C 
BRANCH  25  26
ATOM     26  C   UNL     1      33.354  10.306  48.746  1.00  0.00    -0.000 C 
BRANCH  26  27
ATOM     27  C   UNL     1      31.969   9.843  48.259  1.00  0.00    -0.000 C 
BRANCH  27  28
ATOM     28  C   UNL     1      31.180   9.106  49.353  1.00  0.00    -0.000 C 
BRANCH  28  29
ATOM     29  C   UNL     1      30.250   8.023  48.779  1.00  0.00    -0.000 C 
BRANCH  29  30
ATOM     30  C   UNL     1      29.786   7.020  49.849  1.00  0.00    -0.000 C 
BRANCH  30  31
ATOM     31  C   UNL     1      29.485   5.633  49.263  1.00  0.00    -0.003 C 
ATOM     32  C   UNL     1      28.656   5.743  47.985  1.00  0.00     0.004 C 
ENDBRANCH  30  31
ENDBRANCH  29  30
ENDBRANCH  28  29
ENDBRANCH  27  28
ENDBRANCH  26  27
ENDBRANCH  25  26
ENDBRANCH  24  25
ENDBRANCH  23  24
ENDBRANCH  22  23
ENDBRANCH  21  22
ENDBRANCH  20  21
ENDBRANCH  19  20
ENDBRANCH  18  19
ENDBRANCH   1  18
TORSDOF 28
ENDMDL
MODEL 7
REMARK VINA RESULT:    -3.893      3.440      9.176
REMARK INTER + INTRA:         -14.761
REMARK INTER:                 -10.659
REMARK INTRA:                  -4.102
REMARK UNBOUND:                -4.495
REMARK SMILES CCCCCCCCCCCCCCCCCCCCCCCCCCCCCC(=O)[O-]
REMARK SMILES IDX 16 1 17 2 18 3 19 4 20 5 21 6 22 7 23 8 24 9 25 10 26 11
REMARK SMILES IDX 27 12 28 13 29 14 30 15 31 16 32 17 15 18 14 19 13 20 12 21
REMARK SMILES IDX 11 22 10 23 9 24 8 25 7 26 6 27 5 28 4 29 3 30 2 31 1 32
REMARK H PARENT
REMARK Flexibility Score: inf
ROOT
ATOM      1  C   UNL     1      34.602  11.288  44.632  1.00  0.00     0.000 C 
ENDROOT
BRANCH   1   2
ATOM      2  C   UNL     1      34.317   9.939  43.950  1.00  0.00     0.000 C 
BRANCH   2   3
ATOM      3  C   UNL     1      34.629   8.734  44.855  1.00  0.00     0.000 C 
BRANCH   3   4
ATOM      4  C   UNL     1      33.872   7.448  44.459  1.00  0.00     0.000 C 
BRANCH   4   5
ATOM      5  C   UNL     1      33.653   6.512  45.659  1.00  0.00     0.000 C 
BRANCH   5   6
ATOM      6  C   UNL     1      34.684   5.378  45.669  1.00  0.00     0.000 C 
BRANCH   6   7
ATOM      7  C   UNL     1      34.935   4.870  47.098  1.00  0.00     0.000 C 
BRANCH   7   8
ATOM      8  C   UNL     1      34.023   5.562  48.134  1.00  0.00     0.000 C 
BRANCH   8   9
ATOM      9  C   UNL     1      34.799   6.340  49.213  1.00  0.00     0.000 C 
BRANCH   9  10
ATOM     10  C   UNL     1      34.142   7.662  49.651  1.00  0.00     0.000 C 
BRANCH  10  11
ATOM     11  C   UNL     1      33.852   8.654  48.506  1.00  0.00     0.000 C 
BRANCH  11  12
ATOM     12  C   UNL     1      32.409   9.191  48.458  1.00  0.00     0.000 C 
BRANCH  12  13
ATOM     13  C   UNL     1      31.495   8.546  49.515  1.00  0.00     0.006 C 
BRANCH  13  14
ATOM     14  C   UNL     1      30.141   8.117  48.934  1.00  0.00     0.053 C 
BRANCH  14  15
ATOM     15  C   UNL     1      29.988   6.628  48.908  1.00  0.00     0.041 C 
ATOM     16  O   UNL     1      29.387   6.035  49.844  1.00  0.00    -0.550 OA
ATOM     17  O   UNL     1      30.535   5.890  47.866  1.00  0.00    -0.550 OA
ENDBRANCH  14  15
ENDBRANCH  13  14
ENDBRANCH  12  13
ENDBRANCH  11  12
ENDBRANCH  10  11
ENDBRANCH   9  10
ENDBRANCH   8   9
ENDBRANCH   7   8
ENDBRANCH   6   7
ENDBRANCH   5   6
ENDBRANCH   4   5
ENDBRANCH   3   4
ENDBRANCH   2   3
ENDBRANCH   1   2
BRANCH   1  18
ATOM     18  C   UNL     1      35.275  11.139  46.010  1.00  0.00     0.000 C 
BRANCH  18  19
ATOM     19  C   UNL     1      35.712  12.456  46.678  1.00  0.00     0.000 C 
BRANCH  19  20
ATOM     20  C   UNL     1      35.978  13.583  45.667  1.00  0.00     0.000 C 
BRANCH  20  21
ATOM     21  C   UNL     1      37.438  14.055  45.740  1.00  0.00     0.000 C 
BRANCH  21  22
ATOM     22  C   UNL     1      38.142  13.626  47.039  1.00  0.00     0.000 C 
BRANCH  22  23
ATOM     23  C   UNL     1      38.925  14.740  47.763  1.00  0.00     0.000 C 
BRANCH  23  24
ATOM     24  C   UNL     1      38.445  15.013  49.205  1.00  0.00    -0.000 C 
BRANCH  24  25
ATOM     25  C   UNL     1      36.937  14.751  49.390  1.00  0.00    -0.000 C 
BRANCH  25  26
ATOM     26  C   UNL     1      36.137  16.037  49.653  1.00  0.00    -0.000 C 
BRANCH  26  27
ATOM     27  C   UNL     1      34.751  16.023  48.984  1.00  0.00    -0.000 C 
BRANCH  27  28
ATOM     28  C   UNL     1      34.604  17.119  47.916  1.00  0.00    -0.000 C 
BRANCH  28  29
ATOM     29  C   UNL     1      35.348  16.776  46.615  1.00  0.00    -0.000 C 
BRANCH  29  30
ATOM     30  C   UNL     1      36.143  17.971  46.060  1.00  0.00    -0.000 C 
BRANCH  30  31
ATOM     31  C   UNL     1      37.661  17.758  46.149  1.00  0.00    -0.003 C 
ATOM     32  C   UNL     1      38.265  17.519  44.767  1.00  0.00     0.004 C 
ENDBRANCH  30  31
ENDBRANCH  29  30
ENDBRANCH  28  29
ENDBRANCH  27  28
ENDBRANCH  26  27
ENDBRANCH  25  26
ENDBRANCH  24  25
ENDBRANCH  23  24
ENDBRANCH  22  23
ENDBRANCH  21  22
ENDBRANCH  20  21
ENDBRANCH  19  20
ENDBRANCH  18  19
ENDBRANCH   1  18
TORSDOF 28
ENDMDL
MODEL 8
REMARK VINA RESULT:    -3.878      1.337      2.506
REMARK INTER + INTRA:         -14.721
REMARK INTER:                 -10.269
REMARK INTRA:                  -4.452
REMARK UNBOUND:                -4.495
REMARK SMILES CCCCCCCCCCCCCCCCCCCCCCCCCCCCCC(=O)[O-]
REMARK SMILES IDX 16 1 17 2 18 3 19 4 20 5 21 6 22 7 23 8 24 9 25 10 26 11
REMARK SMILES IDX 27 12 28 13 29 14 30 15 31 16 32 17 15 18 14 19 13 20 12 21
REMARK SMILES IDX 11 22 10 23 9 24 8 25 7 26 6 27 5 28 4 29 3 30 2 31 1 32
REMARK H PARENT
REMARK Flexibility Score: inf
ROOT
ATOM      1  C   UNL     1      34.278   6.607  45.490  1.00  0.00     0.000 C 
ENDROOT
BRANCH   1   2
ATOM      2  C   UNL     1      33.610   7.619  44.545  1.00  0.00     0.000 C 
BRANCH   2   3
ATOM      3  C   UNL     1      34.586   8.692  44.030  1.00  0.00     0.000 C 
BRANCH   3   4
ATOM      4  C   UNL     1      34.674   9.937  44.938  1.00  0.00     0.000 C 
BRANCH   4   5
ATOM      5  C   UNL     1      34.455  11.242  44.155  1.00  0.00     0.000 C 
BRANCH   5   6
ATOM      6  C   UNL     1      35.025  12.445  44.915  1.00  0.00     0.000 C 
BRANCH   6   7
ATOM      7  C   UNL     1      35.566  12.025  46.292  1.00  0.00     0.000 C 
BRANCH   7   8
ATOM      8  C   UNL     1      37.006  12.528  46.532  1.00  0.00     0.000 C 
BRANCH   8   9
ATOM      9  C   UNL     1      37.236  13.073  47.953  1.00  0.00     0.000 C 
BRANCH   9  10
ATOM     10  C   UNL     1      36.039  13.835  48.553  1.00  0.00     0.000 C 
BRANCH  10  11
ATOM     11  C   UNL     1      35.972  15.331  48.185  1.00  0.00     0.000 C 
BRANCH  11  12
ATOM     12  C   UNL     1      35.356  15.637  46.806  1.00  0.00     0.000 C 
BRANCH  12  13
ATOM     13  C   UNL     1      36.339  16.344  45.857  1.00  0.00     0.006 C 
BRANCH  13  14
ATOM     14  C   UNL     1      36.293  17.872  46.000  1.00  0.00     0.053 C 
BRANCH  14  15
ATOM     15  C   UNL     1      37.364  18.383  46.913  1.00  0.00     0.041 C 
ATOM     16  O   UNL     1      38.545  17.952  46.810  1.00  0.00    -0.550 OA
ATOM     17  O   UNL     1      37.055  19.313  47.897  1.00  0.00    -0.550 OA
ENDBRANCH  14  15
ENDBRANCH  13  14
ENDBRANCH  12  13
ENDBRANCH  11  12
ENDBRANCH  10  11
ENDBRANCH   9  10
ENDBRANCH   8   9
ENDBRANCH   7   8
ENDBRANCH   6   7
ENDBRANCH   5   6
ENDBRANCH   4   5
ENDBRANCH   3   4
ENDBRANCH   2   3
ENDBRANCH   1   2
BRANCH   1  18
ATOM     18  C   UNL     1      33.486   6.379  46.790  1.00  0.00     0.000 C 
BRANCH  18  19
ATOM     19  C   UNL     1      33.970   5.206  47.663  1.00  0.00     0.000 C 
BRANCH  19  20
ATOM     20  C   UNL     1      34.968   5.638  48.750  1.00  0.00     0.000 C 
BRANCH  20  21
ATOM     21  C   UNL     1      34.316   6.616  49.739  1.00  0.00     0.000 C 
BRANCH  21  22
ATOM     22  C   UNL     1      35.239   7.785  50.121  1.00  0.00     0.000 C 
BRANCH  22  23
ATOM     23  C   UNL     1      35.296   8.941  49.102  1.00  0.00     0.000 C 
BRANCH  23  24
ATOM     24  C   UNL     1      35.183  10.346  49.732  1.00  0.00    -0.000 C 
BRANCH  24  25
ATOM     25  C   UNL     1      33.853  11.045  49.390  1.00  0.00    -0.000 C 
BRANCH  25  26
ATOM     26  C   UNL     1      33.065  10.319  48.286  1.00  0.00    -0.000 C 
BRANCH  26  27
ATOM     27  C   UNL     1      31.622   9.987  48.706  1.00  0.00    -0.000 C 
BRANCH  27  28
ATOM     28  C   UNL     1      31.564   9.165  50.004  1.00  0.00    -0.000 C 
BRANCH  28  29
ATOM     29  C   UNL     1      31.122   7.712  49.759  1.00  0.00    -0.000 C 
BRANCH  29  30
ATOM     30  C   UNL     1      30.560   7.500  48.342  1.00  0.00    -0.000 C 
BRANCH  30  31
ATOM     31  C   UNL     1      30.097   6.055  48.104  1.00  0.00    -0.003 C 
ATOM     32  C   UNL     1      29.032   5.644  49.117  1.00  0.00     0.004 C 
ENDBRANCH  30  31
ENDBRANCH  29  30
ENDBRANCH  28  29
ENDBRANCH  27  28
ENDBRANCH  26  27
ENDBRANCH  25  26
ENDBRANCH  24  25
ENDBRANCH  23  24
ENDBRANCH  22  23
ENDBRANCH  21  22
ENDBRANCH  20  21
ENDBRANCH  19  20
ENDBRANCH  18  19
ENDBRANCH   1  18
TORSDOF 28
ENDMDL
MODEL 9
REMARK VINA RESULT:    -3.849      3.255      9.889
REMARK INTER + INTRA:         -14.643
REMARK INTER:                 -10.723
REMARK INTRA:                  -3.919
REMARK UNBOUND:                -4.495
REMARK SMILES CCCCCCCCCCCCCCCCCCCCCCCCCCCCCC(=O)[O-]
REMARK SMILES IDX 16 1 17 2 18 3 19 4 20 5 21 6 22 7 23 8 24 9 25 10 26 11
REMARK SMILES IDX 27 12 28 13 29 14 30 15 31 16 32 17 15 18 14 19 13 20 12 21
REMARK SMILES IDX 11 22 10 23 9 24 8 25 7 26 6 27 5 28 4 29 3 30 2 31 1 32
REMARK H PARENT
REMARK Flexibility Score: inf
ROOT
ATOM      1  C   UNL     1      35.717  12.924  46.852  1.00  0.00     0.000 C 
ENDROOT
BRANCH   1   2
ATOM      2  C   UNL     1      35.959  11.486  46.363  1.00  0.00     0.000 C 
BRANCH   2   3
ATOM      3  C   UNL     1      34.744  10.891  45.629  1.00  0.00     0.000 C 
BRANCH   3   4
ATOM      4  C   UNL     1      34.113   9.682  46.353  1.00  0.00     0.000 C 
BRANCH   4   5
ATOM      5  C   UNL     1      33.924   9.941  47.856  1.00  0.00     0.000 C 
BRANCH   5   6
ATOM      6  C   UNL     1      32.442   9.884  48.244  1.00  0.00     0.000 C 
BRANCH   6   7
ATOM      7  C   UNL     1      32.272   9.678  49.758  1.00  0.00     0.000 C 
BRANCH   7   8
ATOM      8  C   UNL     1      31.308   8.517  50.086  1.00  0.00     0.000 C 
BRANCH   8   9
ATOM      9  C   UNL     1      30.224   8.299  49.014  1.00  0.00     0.000 C 
BRANCH   9  10
ATOM     10  C   UNL     1      30.091   6.846  48.519  1.00  0.00     0.000 C 
BRANCH  10  11
ATOM     11  C   UNL     1      31.188   6.392  47.535  1.00  0.00     0.000 C 
BRANCH  11  12
ATOM     12  C   UNL     1      32.319   5.553  48.159  1.00  0.00     0.000 C 
BRANCH  12  13
ATOM     13  C   UNL     1      33.710   6.176  47.952  1.00  0.00     0.006 C 
BRANCH  13  14
ATOM     14  C   UNL     1      34.744   5.151  47.466  1.00  0.00     0.053 C 
BRANCH  14  15
ATOM     15  C   UNL     1      34.886   5.163  45.975  1.00  0.00     0.041 C 
ATOM     16  O   UNL     1      34.354   6.080  45.294  1.00  0.00    -0.550 OA
ATOM     17  O   UNL     1      35.582   4.145  45.334  1.00  0.00    -0.550 OA
ENDBRANCH  14  15
ENDBRANCH  13  14
ENDBRANCH  12  13
ENDBRANCH  11  12
ENDBRANCH  10  11
ENDBRANCH   9  10
ENDBRANCH   8   9
ENDBRANCH   7   8
ENDBRANCH   6   7
ENDBRANCH   5   6
ENDBRANCH   4   5
ENDBRANCH   3   4
ENDBRANCH   2   3
ENDBRANCH   1   2
BRANCH   1  18
ATOM     18  C   UNL     1      36.635  13.957  46.172  1.00  0.00     0.000 C 
BRANCH  18  19
ATOM     19  C   UNL     1      38.146  13.700  46.325  1.00  0.00     0.000 C 
BRANCH  19  20
ATOM     20  C   UNL     1      39.007  14.689  45.522  1.00  0.00     0.000 C 
BRANCH  20  21
ATOM     21  C   UNL     1      38.139  15.532  44.575  1.00  0.00     0.000 C 
BRANCH  21  22
ATOM     22  C   UNL     1      38.621  16.989  44.459  1.00  0.00     0.000 C 
BRANCH  22  23
ATOM     23  C   UNL     1      38.307  17.885  45.674  1.00  0.00     0.000 C 
BRANCH  23  24
ATOM     24  C   UNL     1      36.830  17.848  46.122  1.00  0.00    -0.000 C 
BRANCH  24  25
ATOM     25  C   UNL     1      36.604  18.533  47.484  1.00  0.00    -0.000 C 
BRANCH  25  26
ATOM     26  C   UNL     1      37.367  17.846  48.629  1.00  0.00    -0.000 C 
BRANCH  26  27
ATOM     27  C   UNL     1      37.020  16.353  48.763  1.00  0.00    -0.000 C 
BRANCH  27  28
ATOM     28  C   UNL     1      36.002  16.085  49.884  1.00  0.00    -0.000 C 
BRANCH  28  29
ATOM     29  C   UNL     1      34.669  15.537  49.348  1.00  0.00    -0.000 C 
BRANCH  29  30
ATOM     30  C   UNL     1      33.789  16.638  48.729  1.00  0.00    -0.000 C 
BRANCH  30  31
ATOM     31  C   UNL     1      33.116  17.519  49.792  1.00  0.00    -0.003 C 
ATOM     32  C   UNL     1      33.597  18.965  49.691  1.00  0.00     0.004 C 
ENDBRANCH  30  31
ENDBRANCH  29  30
ENDBRANCH  28  29
ENDBRANCH  27  28
ENDBRANCH  26  27
ENDBRANCH  25  26
ENDBRANCH  24  25
ENDBRANCH  23  24
ENDBRANCH  22  23
ENDBRANCH  21  22
ENDBRANCH  20  21
ENDBRANCH  19  20
ENDBRANCH  18  19
ENDBRANCH   1  18
TORSDOF 28
ENDMDL
