MODEL 1
REMARK VINA RESULT:    -3.384      0.000      0.000
REMARK INTER + INTRA:          -4.044
REMARK INTER:                  -3.977
REMARK INTRA:                  -0.067
REMARK UNBOUND:                -0.067
REMARK SMILES O=C([O-])CCC(=O)[O-]
REMARK SMILES IDX 4 1 2 2 1 3 3 4 5 5 6 6 7 7 8 8
REMARK H PARENT
REMARK Flexibility Score: inf
ROOT
ATOM      1  C   UNL     1       7.379  -5.796 -31.504  1.00  0.00     0.059 C 
ENDROOT
BRANCH   1   2
ATOM      2  C   UNL     1       6.345  -6.860 -31.700  1.00  0.00     0.042 C 
ATOM      3  O   UNL     1       6.371  -7.906 -30.997  1.00  0.00    -0.550 OA
ATOM      4  O   UNL     1       5.323  -6.676 -32.623  1.00  0.00    -0.550 OA
ENDBRANCH   1   2
BRANCH   1   5
ATOM      5  C   UNL     1       7.196  -4.678 -32.531  1.00  0.00     0.059 C 
BRANCH   5   6
ATOM      6  C   UNL     1       8.224  -4.787 -33.612  1.00  0.00     0.042 C 
ATOM      7  O   UNL     1       8.724  -5.907 -33.901  1.00  0.00    -0.550 OA
ATOM      8  O   UNL     1       8.668  -3.646 -34.268  1.00  0.00    -0.550 OA
ENDBRANCH   5   6
ENDBRANCH   1   5
TORSDOF 3
ENDMDL
MODEL 2
REMARK VINA RESULT:    -3.330      0.857      3.734
REMARK INTER + INTRA:          -3.981
REMARK INTER:                  -3.861
REMARK INTRA:                  -0.120
REMARK UNBOUND:                -0.067
REMARK SMILES O=C([O-])CCC(=O)[O-]
REMARK SMILES IDX 4 1 2 2 1 3 3 4 5 5 6 6 7 7 8 8
REMARK H PARENT
REMARK Flexibility Score: inf
ROOT
ATOM      1  C   UNL     1       8.330  -5.754 -32.892  1.00  0.00     0.059 C 
ENDROOT
BRANCH   1   2
ATOM      2  C   UNL     1       8.039  -4.809 -34.015  1.00  0.00     0.042 C 
ATOM      3  O   UNL     1       8.460  -3.622 -33.970  1.00  0.00    -0.550 OA
ATOM      4  O   UNL     1       7.343  -5.251 -35.133  1.00  0.00    -0.550 OA
ENDBRANCH   1   2
BRANCH   1   5
ATOM      5  C   UNL     1       7.312  -5.578 -31.766  1.00  0.00     0.059 C 
BRANCH   5   6
ATOM      6  C   UNL     1       6.331  -6.708 -31.766  1.00  0.00     0.042 C 
ATOM      7  O   UNL     1       6.458  -7.658 -30.948  1.00  0.00    -0.550 OA
ATOM      8  O   UNL     1       5.304  -6.737 -32.702  1.00  0.00    -0.550 OA
ENDBRANCH   5   6
ENDBRANCH   1   5
TORSDOF 3
ENDMDL
MODEL 3
REMARK VINA RESULT:    -3.323      1.129      1.369
REMARK INTER + INTRA:          -3.972
REMARK INTER:                  -3.869
REMARK INTRA:                  -0.103
REMARK UNBOUND:                -0.067
REMARK SMILES O=C([O-])CCC(=O)[O-]
REMARK SMILES IDX 4 1 2 2 1 3 3 4 5 5 6 6 7 7 8 8
REMARK H PARENT
REMARK Flexibility Score: inf
ROOT
ATOM      1  C   UNL     1       7.416  -5.488 -31.756  1.00  0.00     0.059 C 
ENDROOT
BRANCH   1   2
ATOM      2  C   UNL     1       6.420  -6.605 -31.789  1.00  0.00     0.042 C 
ATOM      3  O   UNL     1       6.453  -7.510 -30.913  1.00  0.00    -0.550 OA
ATOM      4  O   UNL     1       5.425  -6.621 -32.759  1.00  0.00    -0.550 OA
ENDBRANCH   1   2
BRANCH   1   5
ATOM      5  C   UNL     1       7.978  -5.231 -33.154  1.00  0.00     0.059 C 
BRANCH   5   6
ATOM      6  C   UNL     1       7.829  -3.787 -33.520  1.00  0.00     0.042 C 
ATOM      7  O   UNL     1       6.790  -3.154 -33.193  1.00  0.00    -0.550 OA
ATOM      8  O   UNL     1       8.814  -3.154 -34.266  1.00  0.00    -0.550 OA
ENDBRANCH   5   6
ENDBRANCH   1   5
TORSDOF 3
ENDMDL
MODEL 4
REMARK VINA RESULT:    -3.301     11.880     12.644
REMARK INTER + INTRA:          -3.947
REMARK INTER:                  -3.859
REMARK INTRA:                  -0.088
REMARK UNBOUND:                -0.067
REMARK SMILES O=C([O-])CCC(=O)[O-]
REMARK SMILES IDX 4 1 2 2 1 3 3 4 5 5 6 6 7 7 8 8
REMARK H PARENT
REMARK Flexibility Score: inf
ROOT
ATOM      1  C   UNL     1      13.606  -4.981 -22.203  1.00  0.00     0.059 C 
ENDROOT
BRANCH   1   2
ATOM      2  C   UNL     1      13.454  -3.547 -21.801  1.00  0.00     0.042 C 
ATOM      3  O   UNL     1      14.368  -2.718 -22.054  1.00  0.00    -0.550 OA
ATOM      4  O   UNL     1      12.283  -3.117 -21.191  1.00  0.00    -0.550 OA
ENDBRANCH   1   2
BRANCH   1   5
ATOM      5  C   UNL     1      14.338  -5.086 -23.540  1.00  0.00     0.059 C 
BRANCH   5   6
ATOM      6  C   UNL     1      15.424  -6.112 -23.463  1.00  0.00     0.042 C 
ATOM      7  O   UNL     1      16.397  -5.948 -22.679  1.00  0.00    -0.550 OA
ATOM      8  O   UNL     1      15.389  -7.227 -24.291  1.00  0.00    -0.550 OA
ENDBRANCH   5   6
ENDBRANCH   1   5
TORSDOF 3
ENDMDL
MODEL 5
REMARK VINA RESULT:    -3.299     11.891     12.717
REMARK INTER + INTRA:          -3.945
REMARK INTER:                  -3.874
REMARK INTRA:                  -0.071
REMARK UNBOUND:                -0.067
REMARK SMILES O=C([O-])CCC(=O)[O-]
REMARK SMILES IDX 4 1 2 2 1 3 3 4 5 5 6 6 7 7 8 8
REMARK H PARENT
REMARK Flexibility Score: inf
ROOT
ATOM      1  C   UNL     1      14.330  -5.065 -23.536  1.00  0.00     0.059 C 
ENDROOT
BRANCH   1   2
ATOM      2  C   UNL     1      15.387  -6.124 -23.512  1.00  0.00     0.042 C 
ATOM      3  O   UNL     1      15.340  -7.084 -24.327  1.00  0.00    -0.550 OA
ATOM      4  O   UNL     1      16.451  -6.026 -22.624  1.00  0.00    -0.550 OA
ENDBRANCH   1   2
BRANCH   1   5
ATOM      5  C   UNL     1      13.631  -4.977 -22.179  1.00  0.00     0.059 C 
BRANCH   5   6
ATOM      6  C   UNL     1      13.444  -3.547 -21.778  1.00  0.00     0.042 C 
ATOM      7  O   UNL     1      12.375  -3.179 -21.222  1.00  0.00    -0.550 OA
ATOM      8  O   UNL     1      14.430  -2.611 -22.063  1.00  0.00    -0.550 OA
ENDBRANCH   5   6
ENDBRANCH   1   5
TORSDOF 3
ENDMDL
MODEL 6
REMARK VINA RESULT:    -3.274      1.850      2.838
REMARK INTER + INTRA:          -3.915
REMARK INTER:                  -3.789
REMARK INTRA:                  -0.126
REMARK UNBOUND:                -0.067
REMARK SMILES O=C([O-])CCC(=O)[O-]
REMARK SMILES IDX 4 1 2 2 1 3 3 4 5 5 6 6 7 7 8 8
REMARK H PARENT
REMARK Flexibility Score: inf
ROOT
ATOM      1  C   UNL     1       6.649  -4.599 -33.717  1.00  0.00     0.059 C 
ENDROOT
BRANCH   1   2
ATOM      2  C   UNL     1       7.607  -5.337 -32.835  1.00  0.00     0.042 C 
ATOM      3  O   UNL     1       8.680  -5.797 -33.309  1.00  0.00    -0.550 OA
ATOM      4  O   UNL     1       7.339  -5.474 -31.478  1.00  0.00    -0.550 OA
ENDBRANCH   1   2
BRANCH   1   5
ATOM      5  C   UNL     1       6.823  -3.089 -33.550  1.00  0.00     0.059 C 
BRANCH   5   6
ATOM      6  C   UNL     1       7.727  -2.546 -34.612  1.00  0.00     0.042 C 
ATOM      7  O   UNL     1       7.273  -2.286 -35.758  1.00  0.00    -0.550 OA
ATOM      8  O   UNL     1       9.080  -2.373 -34.351  1.00  0.00    -0.550 OA
ENDBRANCH   5   6
ENDBRANCH   1   5
TORSDOF 3
ENDMDL
MODEL 7
REMARK VINA RESULT:    -3.242      1.801      4.173
REMARK INTER + INTRA:          -3.878
REMARK INTER:                  -3.754
REMARK INTRA:                  -0.123
REMARK UNBOUND:                -0.067
REMARK SMILES O=C([O-])CCC(=O)[O-]
REMARK SMILES IDX 4 1 2 2 1 3 3 4 5 5 6 6 7 7 8 8
REMARK H PARENT
REMARK Flexibility Score: inf
ROOT
ATOM      1  C   UNL     1       6.877  -3.104 -33.590  1.00  0.00     0.059 C 
ENDROOT
BRANCH   1   2
ATOM      2  C   UNL     1       7.840  -2.619 -34.627  1.00  0.00     0.042 C 
ATOM      3  O   UNL     1       9.066  -2.514 -34.355  1.00  0.00    -0.550 OA
ATOM      4  O   UNL     1       7.392  -2.329 -35.910  1.00  0.00    -0.550 OA
ENDBRANCH   1   2
BRANCH   1   5
ATOM      5  C   UNL     1       6.661  -4.611 -33.724  1.00  0.00     0.059 C 
BRANCH   5   6
ATOM      6  C   UNL     1       7.589  -5.356 -32.816  1.00  0.00     0.042 C 
ATOM      7  O   UNL     1       8.683  -5.801 -33.255  1.00  0.00    -0.550 OA
ATOM      8  O   UNL     1       7.225  -5.601 -31.498  1.00  0.00    -0.550 OA
ENDBRANCH   5   6
ENDBRANCH   1   5
TORSDOF 3
ENDMDL
MODEL 8
REMARK VINA RESULT:    -3.164     13.277     14.047
REMARK INTER + INTRA:          -3.786
REMARK INTER:                  -3.665
REMARK INTRA:                  -0.121
REMARK UNBOUND:                -0.067
REMARK SMILES O=C([O-])CCC(=O)[O-]
REMARK SMILES IDX 4 1 2 2 1 3 3 4 5 5 6 6 7 7 8 8
REMARK H PARENT
REMARK Flexibility Score: inf
ROOT
ATOM      1  C   UNL     1      15.145  -2.787 -20.792  1.00  0.00     0.059 C 
ENDROOT
BRANCH   1   2
ATOM      2  C   UNL     1      14.448  -2.221 -19.596  1.00  0.00     0.042 C 
ATOM      3  O   UNL     1      15.116  -1.749 -18.637  1.00  0.00    -0.550 OA
ATOM      4  O   UNL     1      13.060  -2.168 -19.560  1.00  0.00    -0.550 OA
ENDBRANCH   1   2
BRANCH   1   5
ATOM      5  C   UNL     1      14.212  -2.790 -22.003  1.00  0.00     0.059 C 
BRANCH   5   6
ATOM      6  C   UNL     1      13.839  -4.192 -22.372  1.00  0.00     0.042 C 
ATOM      7  O   UNL     1      12.950  -4.803 -21.722  1.00  0.00    -0.550 OA
ATOM      8  O   UNL     1      14.508  -4.841 -23.403  1.00  0.00    -0.550 OA
ENDBRANCH   5   6
ENDBRANCH   1   5
TORSDOF 3
ENDMDL
MODEL 9
REMARK VINA RESULT:    -3.119     12.631     13.469
REMARK INTER + INTRA:          -3.733
REMARK INTER:                  -3.598
REMARK INTRA:                  -0.135
REMARK UNBOUND:                -0.067
REMARK SMILES O=C([O-])CCC(=O)[O-]
REMARK SMILES IDX 4 1 2 2 1 3 3 4 5 5 6 6 7 7 8 8
REMARK H PARENT
REMARK Flexibility Score: inf
ROOT
ATOM      1  C   UNL     1      14.801  -3.930 -21.261  1.00  0.00     0.059 C 
ENDROOT
BRANCH   1   2
ATOM      2  C   UNL     1      13.971  -4.645 -22.280  1.00  0.00     0.042 C 
ATOM      3  O   UNL     1      14.313  -4.641 -23.492  1.00  0.00    -0.550 OA
ATOM      4  O   UNL     1      12.847  -5.359 -21.884  1.00  0.00    -0.550 OA
ENDBRANCH   1   2
BRANCH   1   5
ATOM      5  C   UNL     1      14.415  -2.452 -21.199  1.00  0.00     0.059 C 
BRANCH   5   6
ATOM      6  C   UNL     1      13.179  -2.268 -20.376  1.00  0.00     0.042 C 
ATOM      7  O   UNL     1      13.224  -2.410 -19.124  1.00  0.00    -0.550 OA
ATOM      8  O   UNL     1      11.967  -1.988 -20.994  1.00  0.00    -0.550 OA
ENDBRANCH   5   6
ENDBRANCH   1   5
TORSDOF 3
ENDMDL
