MODEL 1
REMARK VINA RESULT:    -4.238      0.000      0.000
REMARK INTER + INTRA:          -5.882
REMARK INTER:                  -5.724
REMARK INTRA:                  -0.158
REMARK UNBOUND:                -0.158
REMARK SMILES [NH3+]CCCC[C@@H]([NH3+])C(=O)[O-]
REMARK SMILES IDX 4 1 3 2 2 3 1 4 5 8 6 9 7 10 8 14 9 15 10 16
REMARK H PARENT 1 5 1 6 1 7 7 11 7 12 7 13
REMARK Flexibility Score: inf
ROOT
ATOM      1  C   UNL     1      76.710  61.636  87.634  1.00  0.00     0.012 C 
ENDROOT
BRANCH   1   2
ATOM      2  C   UNL     1      77.539  61.879  88.903  1.00  0.00     0.061 C 
BRANCH   2   3
ATOM      3  C   UNL     1      76.632  62.184  90.103  1.00  0.00     0.258 C 
BRANCH   3   4
ATOM      4  N   UNL     1      76.061  63.527  89.999  1.00  0.00    -0.358 N 
ATOM      5  H   UNL     1      76.057  63.990  90.937  1.00  0.00     0.344 HD
ATOM      6  H   UNL     1      76.615  64.101  89.324  1.00  0.00     0.344 HD
ATOM      7  H   UNL     1      75.076  63.454  89.654  1.00  0.00     0.344 HD
ENDBRANCH   3   4
ENDBRANCH   2   3
ENDBRANCH   1   2
BRANCH   1   8
ATOM      8  C   UNL     1      77.562  61.212  86.422  1.00  0.00     0.072 C 
BRANCH   8   9
ATOM      9  C   UNL     1      77.587  62.251  85.272  1.00  0.00     0.227 C 
BRANCH   9  10
ATOM     10  N   UNL     1      76.747  63.407  85.611  1.00  0.00    -0.350 N 
ATOM     11  H   UNL     1      77.015  64.229  85.020  1.00  0.00     0.345 HD
ATOM     12  H   UNL     1      75.742  63.186  85.422  1.00  0.00     0.345 HD
ATOM     13  H   UNL     1      76.859  63.659  86.621  1.00  0.00     0.345 HD
ENDBRANCH   9  10
BRANCH   9  14
ATOM     14  C   UNL     1      78.988  62.719  84.977  1.00  0.00     0.099 C 
ATOM     15  O   UNL     1      79.308  63.051  83.806  1.00  0.00    -0.544 OA
ATOM     16  O   UNL     1      79.922  62.831  85.999  1.00  0.00    -0.544 OA
ENDBRANCH   9  14
ENDBRANCH   8   9
ENDBRANCH   1   8
TORSDOF 7
ENDMDL
MODEL 2
REMARK VINA RESULT:    -4.170      1.776      2.448
REMARK INTER + INTRA:          -5.790
REMARK INTER:                  -5.629
REMARK INTRA:                  -0.161
REMARK UNBOUND:                -0.158
REMARK SMILES [NH3+]CCCC[C@@H]([NH3+])C(=O)[O-]
REMARK SMILES IDX 4 1 3 2 2 3 1 4 5 8 6 9 7 10 8 14 9 15 10 16
REMARK H PARENT 1 5 1 6 1 7 7 11 7 12 7 13
REMARK Flexibility Score: inf
ROOT
ATOM      1  C   UNL     1      76.362  61.827  87.744  1.00  0.00     0.012 C 
ENDROOT
BRANCH   1   2
ATOM      2  C   UNL     1      76.068  60.519  88.492  1.00  0.00     0.061 C 
BRANCH   2   3
ATOM      3  C   UNL     1      75.927  59.344  87.514  1.00  0.00     0.258 C 
BRANCH   3   4
ATOM      4  N   UNL     1      74.879  59.607  86.528  1.00  0.00    -0.358 N 
ATOM      5  H   UNL     1      73.950  59.685  87.002  1.00  0.00     0.344 HD
ATOM      6  H   UNL     1      75.088  60.491  86.010  1.00  0.00     0.344 HD
ATOM      7  H   UNL     1      74.846  58.815  85.846  1.00  0.00     0.344 HD
ENDBRANCH   3   4
ENDBRANCH   2   3
ENDBRANCH   1   2
BRANCH   1   8
ATOM      8  C   UNL     1      77.748  61.845  87.070  1.00  0.00     0.072 C 
BRANCH   8   9
ATOM      9  C   UNL     1      77.722  62.271  85.581  1.00  0.00     0.227 C 
BRANCH   9  10
ATOM     10  N   UNL     1      76.758  63.360  85.379  1.00  0.00    -0.350 N 
ATOM     11  H   UNL     1      76.197  63.506  86.251  1.00  0.00     0.345 HD
ATOM     12  H   UNL     1      77.265  64.250  85.166  1.00  0.00     0.345 HD
ATOM     13  H   UNL     1      76.111  63.135  84.587  1.00  0.00     0.345 HD
ENDBRANCH   9  10
BRANCH   9  14
ATOM     14  C   UNL     1      79.082  62.710  85.105  1.00  0.00     0.099 C 
ATOM     15  O   UNL     1      80.059  62.709  85.900  1.00  0.00    -0.544 OA
ATOM     16  O   UNL     1      79.280  63.075  83.779  1.00  0.00    -0.544 OA
ENDBRANCH   9  14
ENDBRANCH   8   9
ENDBRANCH   1   8
TORSDOF 7
ENDMDL
MODEL 3
REMARK VINA RESULT:    -4.022     13.963     15.571
REMARK INTER + INTRA:          -5.590
REMARK INTER:                  -5.116
REMARK INTRA:                  -0.474
REMARK UNBOUND:                -0.158
REMARK SMILES [NH3+]CCCC[C@@H]([NH3+])C(=O)[O-]
REMARK SMILES IDX 4 1 3 2 2 3 1 4 5 8 6 9 7 10 8 14 9 15 10 16
REMARK H PARENT 1 5 1 6 1 7 7 11 7 12 7 13
REMARK Flexibility Score: inf
ROOT
ATOM      1  C   UNL     1      72.141  61.616  73.174  1.00  0.00     0.012 C 
ENDROOT
BRANCH   1   2
ATOM      2  C   UNL     1      72.926  60.624  74.044  1.00  0.00     0.061 C 
BRANCH   2   3
ATOM      3  C   UNL     1      74.342  61.145  74.332  1.00  0.00     0.258 C 
BRANCH   3   4
ATOM      4  N   UNL     1      74.492  62.529  73.882  1.00  0.00    -0.358 N 
ATOM      5  H   UNL     1      74.154  62.625  72.897  1.00  0.00     0.344 HD
ATOM      6  H   UNL     1      73.951  63.170  74.506  1.00  0.00     0.344 HD
ATOM      7  H   UNL     1      75.504  62.792  73.919  1.00  0.00     0.344 HD
ENDBRANCH   3   4
ENDBRANCH   2   3
ENDBRANCH   1   2
BRANCH   1   8
ATOM      8  C   UNL     1      71.815  61.070  71.771  1.00  0.00     0.072 C 
BRANCH   8   9
ATOM      9  C   UNL     1      72.466  61.869  70.614  1.00  0.00     0.227 C 
BRANCH   9  10
ATOM     10  N   UNL     1      72.120  63.292  70.719  1.00  0.00    -0.350 N 
ATOM     11  H   UNL     1      72.130  63.588  71.724  1.00  0.00     0.345 HD
ATOM     12  H   UNL     1      72.825  63.869  70.205  1.00  0.00     0.345 HD
ATOM     13  H   UNL     1      71.170  63.470  70.318  1.00  0.00     0.345 HD
ENDBRANCH   9  10
BRANCH   9  14
ATOM     14  C   UNL     1      73.965  61.716  70.609  1.00  0.00     0.099 C 
ATOM     15  O   UNL     1      74.482  60.570  70.545  1.00  0.00    -0.544 OA
ATOM     16  O   UNL     1      74.786  62.837  70.630  1.00  0.00    -0.544 OA
ENDBRANCH   9  14
ENDBRANCH   8   9
ENDBRANCH   1   8
TORSDOF 7
ENDMDL
MODEL 4
REMARK VINA RESULT:    -3.964      2.719      3.966
REMARK INTER + INTRA:          -5.512
REMARK INTER:                  -5.260
REMARK INTRA:                  -0.252
REMARK UNBOUND:                -0.158
REMARK SMILES [NH3+]CCCC[C@@H]([NH3+])C(=O)[O-]
REMARK SMILES IDX 4 1 3 2 2 3 1 4 5 8 6 9 7 10 8 14 9 15 10 16
REMARK H PARENT 1 5 1 6 1 7 7 11 7 12 7 13
REMARK Flexibility Score: inf
ROOT
ATOM      1  C   UNL     1      75.410  63.797  84.938  1.00  0.00     0.012 C 
ENDROOT
BRANCH   1   2
ATOM      2  C   UNL     1      75.115  64.782  83.798  1.00  0.00     0.061 C 
BRANCH   2   3
ATOM      3  C   UNL     1      76.248  65.806  83.647  1.00  0.00     0.258 C 
BRANCH   3   4
ATOM      4  N   UNL     1      76.655  66.332  84.950  1.00  0.00    -0.358 N 
ATOM      5  H   UNL     1      77.228  67.198  84.825  1.00  0.00     0.344 HD
ATOM      6  H   UNL     1      75.811  66.546  85.530  1.00  0.00     0.344 HD
ATOM      7  H   UNL     1      77.232  65.613  85.444  1.00  0.00     0.344 HD
ENDBRANCH   3   4
ENDBRANCH   2   3
ENDBRANCH   1   2
BRANCH   1   8
ATOM      8  C   UNL     1      76.354  62.651  84.524  1.00  0.00     0.072 C 
BRANCH   8   9
ATOM      9  C   UNL     1      77.557  62.447  85.479  1.00  0.00     0.227 C 
BRANCH   9  10
ATOM     10  N   UNL     1      77.525  61.097  86.057  1.00  0.00    -0.350 N 
ATOM     11  H   UNL     1      76.692  60.997  86.682  1.00  0.00     0.345 HD
ATOM     12  H   UNL     1      77.447  60.385  85.296  1.00  0.00     0.345 HD
ATOM     13  H   UNL     1      78.395  60.915  86.612  1.00  0.00     0.345 HD
ENDBRANCH   9  10
BRANCH   9  14
ATOM     14  C   UNL     1      78.870  62.658  84.771  1.00  0.00     0.099 C 
ATOM     15  O   UNL     1      78.915  63.349  83.719  1.00  0.00    -0.544 OA
ATOM     16  O   UNL     1      80.044  62.133  85.295  1.00  0.00    -0.544 OA
ENDBRANCH   9  14
ENDBRANCH   8   9
ENDBRANCH   1   8
TORSDOF 7
ENDMDL
MODEL 5
REMARK VINA RESULT:    -3.930      2.244      2.498
REMARK INTER + INTRA:          -5.466
REMARK INTER:                  -5.102
REMARK INTRA:                  -0.364
REMARK UNBOUND:                -0.158
REMARK SMILES [NH3+]CCCC[C@@H]([NH3+])C(=O)[O-]
REMARK SMILES IDX 4 1 3 2 2 3 1 4 5 8 6 9 7 10 8 14 9 15 10 16
REMARK H PARENT 1 5 1 6 1 7 7 11 7 12 7 13
REMARK Flexibility Score: inf
ROOT
ATOM      1  C   UNL     1      75.232  62.834  85.976  1.00  0.00     0.012 C 
ENDROOT
BRANCH   1   2
ATOM      2  C   UNL     1      75.656  62.068  87.237  1.00  0.00     0.061 C 
BRANCH   2   3
ATOM      3  C   UNL     1      75.609  60.552  87.001  1.00  0.00     0.258 C 
BRANCH   3   4
ATOM      4  N   UNL     1      76.959  59.998  86.885  1.00  0.00    -0.358 N 
ATOM      5  H   UNL     1      77.650  60.640  87.337  1.00  0.00     0.344 HD
ATOM      6  H   UNL     1      77.000  59.057  87.337  1.00  0.00     0.344 HD
ATOM      7  H   UNL     1      77.201  59.899  85.872  1.00  0.00     0.344 HD
ENDBRANCH   3   4
ENDBRANCH   2   3
ENDBRANCH   1   2
BRANCH   1   8
ATOM      8  C   UNL     1      76.023  62.425  84.719  1.00  0.00     0.072 C 
BRANCH   8   9
ATOM      9  C   UNL     1      77.124  63.435  84.308  1.00  0.00     0.227 C 
BRANCH   9  10
ATOM     10  N   UNL     1      76.907  64.725  84.975  1.00  0.00    -0.350 N 
ATOM     11  H   UNL     1      77.808  65.073  85.380  1.00  0.00     0.345 HD
ATOM     12  H   UNL     1      76.568  65.432  84.283  1.00  0.00     0.345 HD
ATOM     13  H   UNL     1      76.201  64.628  85.742  1.00  0.00     0.345 HD
ENDBRANCH   9  10
BRANCH   9  14
ATOM     14  C   UNL     1      78.501  62.923  84.643  1.00  0.00     0.099 C 
ATOM     15  O   UNL     1      79.428  63.008  83.796  1.00  0.00    -0.544 OA
ATOM     16  O   UNL     1      78.768  62.395  85.900  1.00  0.00    -0.544 OA
ENDBRANCH   9  14
ENDBRANCH   8   9
ENDBRANCH   1   8
TORSDOF 7
ENDMDL
MODEL 6
REMARK VINA RESULT:    -3.895     13.520     15.347
REMARK INTER + INTRA:          -5.418
REMARK INTER:                  -4.907
REMARK INTRA:                  -0.512
REMARK UNBOUND:                -0.158
REMARK SMILES [NH3+]CCCC[C@@H]([NH3+])C(=O)[O-]
REMARK SMILES IDX 4 1 3 2 2 3 1 4 5 8 6 9 7 10 8 14 9 15 10 16
REMARK H PARENT 1 5 1 6 1 7 7 11 7 12 7 13
REMARK Flexibility Score: inf
ROOT
ATOM      1  C   UNL     1      71.803  60.739  71.900  1.00  0.00     0.012 C 
ENDROOT
BRANCH   1   2
ATOM      2  C   UNL     1      72.060  61.976  71.028  1.00  0.00     0.061 C 
BRANCH   2   3
ATOM      3  C   UNL     1      73.390  61.850  70.272  1.00  0.00     0.258 C 
BRANCH   3   4
ATOM      4  N   UNL     1      74.169  63.085  70.372  1.00  0.00    -0.358 N 
ATOM      5  H   UNL     1      73.547  63.914  70.230  1.00  0.00     0.344 HD
ATOM      6  H   UNL     1      74.629  63.144  71.309  1.00  0.00     0.344 HD
ATOM      7  H   UNL     1      74.907  63.085  69.631  1.00  0.00     0.344 HD
ENDBRANCH   3   4
ENDBRANCH   2   3
ENDBRANCH   1   2
BRANCH   1   8
ATOM      8  C   UNL     1      71.855  61.038  73.411  1.00  0.00     0.072 C 
BRANCH   8   9
ATOM      9  C   UNL     1      73.222  60.728  74.071  1.00  0.00     0.227 C 
BRANCH   9  10
ATOM     10  N   UNL     1      73.978  59.772  73.252  1.00  0.00    -0.350 N 
ATOM     11  H   UNL     1      73.569  58.814  73.353  1.00  0.00     0.345 HD
ATOM     12  H   UNL     1      73.922  60.043  72.244  1.00  0.00     0.345 HD
ATOM     13  H   UNL     1      74.983  59.749  73.547  1.00  0.00     0.345 HD
ENDBRANCH   9  10
BRANCH   9  14
ATOM     14  C   UNL     1      74.041  61.978  74.266  1.00  0.00     0.099 C 
ATOM     15  O   UNL     1      74.893  62.315  73.403  1.00  0.00    -0.544 OA
ATOM     16  O   UNL     1      73.831  62.790  75.374  1.00  0.00    -0.544 OA
ENDBRANCH   9  14
ENDBRANCH   8   9
ENDBRANCH   1   8
TORSDOF 7
ENDMDL
MODEL 7
REMARK VINA RESULT:    -3.857     15.338     16.425
REMARK INTER + INTRA:          -5.368
REMARK INTER:                  -5.263
REMARK INTRA:                  -0.105
REMARK UNBOUND:                -0.158
REMARK SMILES [NH3+]CCCC[C@@H]([NH3+])C(=O)[O-]
REMARK SMILES IDX 4 1 3 2 2 3 1 4 5 8 6 9 7 10 8 14 9 15 10 16
REMARK H PARENT 1 5 1 6 1 7 7 11 7 12 7 13
REMARK Flexibility Score: inf
ROOT
ATOM      1  C   UNL     1      74.534  60.517  69.996  1.00  0.00     0.012 C 
ENDROOT
BRANCH   1   2
ATOM      2  C   UNL     1      73.934  61.927  70.071  1.00  0.00     0.061 C 
BRANCH   2   3
ATOM      3  C   UNL     1      72.621  61.926  70.866  1.00  0.00     0.258 C 
BRANCH   3   4
ATOM      4  N   UNL     1      71.881  63.170  70.657  1.00  0.00    -0.358 N 
ATOM      5  H   UNL     1      72.075  63.548  69.701  1.00  0.00     0.344 HD
ATOM      6  H   UNL     1      70.855  63.001  70.769  1.00  0.00     0.344 HD
ATOM      7  H   UNL     1      72.187  63.874  71.367  1.00  0.00     0.344 HD
ENDBRANCH   3   4
ENDBRANCH   2   3
ENDBRANCH   1   2
BRANCH   1   8
ATOM      8  C   UNL     1      74.162  59.631  71.201  1.00  0.00     0.072 C 
BRANCH   8   9
ATOM      9  C   UNL     1      75.086  58.402  71.392  1.00  0.00     0.227 C 
BRANCH   9  10
ATOM     10  N   UNL     1      76.084  58.342  70.316  1.00  0.00    -0.350 N 
ATOM     11  H   UNL     1      76.157  59.274  69.845  1.00  0.00     0.345 HD
ATOM     12  H   UNL     1      77.022  58.105  70.712  1.00  0.00     0.345 HD
ATOM     13  H   UNL     1      75.816  57.620  69.607  1.00  0.00     0.345 HD
ENDBRANCH   9  10
BRANCH   9  14
ATOM     14  C   UNL     1      75.788  58.437  72.725  1.00  0.00     0.099 C 
ATOM     15  O   UNL     1      76.965  58.877  72.807  1.00  0.00    -0.544 OA
ATOM     16  O   UNL     1      75.129  58.028  73.878  1.00  0.00    -0.544 OA
ENDBRANCH   9  14
ENDBRANCH   8   9
ENDBRANCH   1   8
TORSDOF 7
ENDMDL
MODEL 8
REMARK VINA RESULT:    -3.825     14.029     15.535
REMARK INTER + INTRA:          -5.324
REMARK INTER:                  -5.192
REMARK INTRA:                  -0.133
REMARK UNBOUND:                -0.158
REMARK SMILES [NH3+]CCCC[C@@H]([NH3+])C(=O)[O-]
REMARK SMILES IDX 4 1 3 2 2 3 1 4 5 8 6 9 7 10 8 14 9 15 10 16
REMARK H PARENT 1 5 1 6 1 7 7 11 7 12 7 13
REMARK Flexibility Score: inf
ROOT
ATOM      1  C   UNL     1      72.575  61.353  73.137  1.00  0.00     0.012 C 
ENDROOT
BRANCH   1   2
ATOM      2  C   UNL     1      71.650  61.014  74.314  1.00  0.00     0.061 C 
BRANCH   2   3
ATOM      3  C   UNL     1      71.460  62.230  75.233  1.00  0.00     0.258 C 
BRANCH   3   4
ATOM      4  N   UNL     1      72.183  63.393  74.717  1.00  0.00    -0.358 N 
ATOM      5  H   UNL     1      71.913  64.250  75.253  1.00  0.00     0.344 HD
ATOM      6  H   UNL     1      73.214  63.237  74.793  1.00  0.00     0.344 HD
ATOM      7  H   UNL     1      71.934  63.531  73.711  1.00  0.00     0.344 HD
ENDBRANCH   3   4
ENDBRANCH   2   3
ENDBRANCH   1   2
BRANCH   1   8
ATOM      8  C   UNL     1      71.971  60.996  71.765  1.00  0.00     0.072 C 
BRANCH   8   9
ATOM      9  C   UNL     1      72.517  61.851  70.593  1.00  0.00     0.227 C 
BRANCH   9  10
ATOM     10  N   UNL     1      72.117  63.254  70.755  1.00  0.00    -0.350 N 
ATOM     11  H   UNL     1      72.956  63.841  70.974  1.00  0.00     0.345 HD
ATOM     12  H   UNL     1      71.695  63.610  69.867  1.00  0.00     0.345 HD
ATOM     13  H   UNL     1      71.419  63.350  71.530  1.00  0.00     0.345 HD
ENDBRANCH   9  10
BRANCH   9  14
ATOM     14  C   UNL     1      74.018  61.765  70.496  1.00  0.00     0.099 C 
ATOM     15  O   UNL     1      74.587  60.642  70.505  1.00  0.00    -0.544 OA
ATOM     16  O   UNL     1      74.780  62.918  70.350  1.00  0.00    -0.544 OA
ENDBRANCH   9  14
ENDBRANCH   8   9
ENDBRANCH   1   8
TORSDOF 7
ENDMDL
MODEL 9
REMARK VINA RESULT:    -3.782      2.968      3.482
REMARK INTER + INTRA:          -5.266
REMARK INTER:                  -4.961
REMARK INTRA:                  -0.305
REMARK UNBOUND:                -0.158
REMARK SMILES [NH3+]CCCC[C@@H]([NH3+])C(=O)[O-]
REMARK SMILES IDX 4 1 3 2 2 3 1 4 5 8 6 9 7 10 8 14 9 15 10 16
REMARK H PARENT 1 5 1 6 1 7 7 11 7 12 7 13
REMARK Flexibility Score: inf
ROOT
ATOM      1  C   UNL     1      76.006  59.969  88.976  1.00  0.00     0.012 C 
ENDROOT
BRANCH   1   2
ATOM      2  C   UNL     1      77.343  59.342  89.396  1.00  0.00     0.061 C 
BRANCH   2   3
ATOM      3  C   UNL     1      77.887  58.418  88.297  1.00  0.00     0.258 C 
BRANCH   3   4
ATOM      4  N   UNL     1      77.682  57.012  88.646  1.00  0.00    -0.358 N 
ATOM      5  H   UNL     1      77.604  56.434  87.778  1.00  0.00     0.344 HD
ATOM      6  H   UNL     1      78.477  56.668  89.231  1.00  0.00     0.344 HD
ATOM      7  H   UNL     1      76.795  56.922  89.192  1.00  0.00     0.344 HD
ENDBRANCH   3   4
ENDBRANCH   2   3
ENDBRANCH   1   2
BRANCH   1   8
ATOM      8  C   UNL     1      75.891  60.199  87.456  1.00  0.00     0.072 C 
BRANCH   8   9
ATOM      9  C   UNL     1      76.106  61.671  87.022  1.00  0.00     0.227 C 
BRANCH   9  10
ATOM     10  N   UNL     1      75.962  62.569  88.175  1.00  0.00    -0.350 N 
ATOM     11  H   UNL     1      75.461  63.442  87.886  1.00  0.00     0.345 HD
ATOM     12  H   UNL     1      75.397  62.103  88.921  1.00  0.00     0.345 HD
ATOM     13  H   UNL     1      76.900  62.824  88.562  1.00  0.00     0.345 HD
ENDBRANCH   9  10
BRANCH   9  14
ATOM     14  C   UNL     1      77.461  61.873  86.396  1.00  0.00     0.099 C 
ATOM     15  O   UNL     1      78.488  61.940  87.122  1.00  0.00    -0.544 OA
ATOM     16  O   UNL     1      77.595  61.941  85.014  1.00  0.00    -0.544 OA
ENDBRANCH   9  14
ENDBRANCH   8   9
ENDBRANCH   1   8
TORSDOF 7
ENDMDL
