MODEL 1
REMARK VINA RESULT:    -3.096      0.000      0.000
REMARK INTER + INTRA:          -3.959
REMARK INTER:                  -3.910
REMARK INTRA:                  -0.048
REMARK UNBOUND:                -0.048
REMARK SMILES CSCC[C@@H]([NH3+])C(=O)[O-]
REMARK SMILES IDX 4 1 5 2 6 3 7 7 8 8 9 9 3 10 2 11 1 12
REMARK H PARENT 6 4 6 5 6 6
REMARK Flexibility Score: inf
ROOT
ATOM      1  C   UNL     1      32.984  23.506 -21.041  1.00  0.00     0.082 C 
ENDROOT
BRANCH   1   2
ATOM      2  C   UNL     1      32.967  22.400 -22.117  1.00  0.00     0.228 C 
BRANCH   2   3
ATOM      3  N   UNL     1      34.337  22.011 -22.474  1.00  0.00    -0.350 N 
ATOM      4  H   UNL     1      34.394  21.809 -23.499  1.00  0.00     0.345 HD
ATOM      5  H   UNL     1      34.996  22.794 -22.259  1.00  0.00     0.345 HD
ATOM      6  H   UNL     1      34.631  21.161 -21.939  1.00  0.00     0.345 HD
ENDBRANCH   2   3
BRANCH   2   7
ATOM      7  C   UNL     1      32.198  21.194 -21.643  1.00  0.00     0.099 C 
ATOM      8  O   UNL     1      31.466  20.556 -22.444  1.00  0.00    -0.544 OA
ATOM      9  O   UNL     1      32.287  20.781 -20.319  1.00  0.00    -0.544 OA
ENDBRANCH   2   7
ENDBRANCH   1   2
BRANCH   1  10
ATOM     10  C   UNL     1      33.609  24.806 -21.555  1.00  0.00     0.076 C 
BRANCH  10  11
ATOM     11  S   UNL     1      34.372  25.716 -20.170  1.00  0.00    -0.165 SA
ATOM     12  C   UNL     1      35.878  26.154 -21.092  1.00  0.00     0.085 C 
ENDBRANCH  10  11
ENDBRANCH   1  10
TORSDOF 5
ENDMDL
MODEL 2
REMARK VINA RESULT:    -3.088      2.233      2.784
REMARK INTER + INTRA:          -3.949
REMARK INTER:                  -3.882
REMARK INTRA:                  -0.067
REMARK UNBOUND:                -0.048
REMARK SMILES CSCC[C@@H]([NH3+])C(=O)[O-]
REMARK SMILES IDX 4 1 5 2 6 3 7 7 8 8 9 9 3 10 2 11 1 12
REMARK H PARENT 6 4 6 5 6 6
REMARK Flexibility Score: inf
ROOT
ATOM      1  C   UNL     1      32.824  21.337 -22.276  1.00  0.00     0.082 C 
ENDROOT
BRANCH   1   2
ATOM      2  C   UNL     1      31.991  20.195 -21.655  1.00  0.00     0.228 C 
BRANCH   2   3
ATOM      3  N   UNL     1      31.652  20.508 -20.261  1.00  0.00    -0.350 N 
ATOM      4  H   UNL     1      30.962  19.810 -19.898  1.00  0.00     0.345 HD
ATOM      5  H   UNL     1      32.511  20.456 -19.667  1.00  0.00     0.345 HD
ATOM      6  H   UNL     1      31.242  21.468 -20.187  1.00  0.00     0.345 HD
ENDBRANCH   2   3
BRANCH   2   7
ATOM      7  C   UNL     1      30.733  19.951 -22.447  1.00  0.00     0.099 C 
ATOM      8  O   UNL     1      29.803  19.255 -21.959  1.00  0.00    -0.544 OA
ATOM      9  O   UNL     1      30.590  20.487 -23.721  1.00  0.00    -0.544 OA
ENDBRANCH   2   7
ENDBRANCH   1   2
BRANCH   1  10
ATOM     10  C   UNL     1      32.852  22.584 -21.387  1.00  0.00     0.076 C 
BRANCH  10  11
ATOM     11  S   UNL     1      33.491  24.005 -22.336  1.00  0.00    -0.165 SA
ATOM     12  C   UNL     1      33.807  25.034 -20.869  1.00  0.00     0.085 C 
ENDBRANCH  10  11
ENDBRANCH   1  10
TORSDOF 5
ENDMDL
MODEL 3
REMARK VINA RESULT:    -3.014      4.378      5.369
REMARK INTER + INTRA:          -3.855
REMARK INTER:                  -3.685
REMARK INTRA:                  -0.170
REMARK UNBOUND:                -0.048
REMARK SMILES CSCC[C@@H]([NH3+])C(=O)[O-]
REMARK SMILES IDX 4 1 5 2 6 3 7 7 8 8 9 9 3 10 2 11 1 12
REMARK H PARENT 6 4 6 5 6 6
REMARK Flexibility Score: inf
ROOT
ATOM      1  C   UNL     1      32.194  19.212 -23.054  1.00  0.00     0.082 C 
ENDROOT
BRANCH   1   2
ATOM      2  C   UNL     1      31.572  20.509 -22.496  1.00  0.00     0.228 C 
BRANCH   2   3
ATOM      3  N   UNL     1      30.113  20.376 -22.396  1.00  0.00    -0.350 N 
ATOM      4  H   UNL     1      29.779  19.625 -23.043  1.00  0.00     0.345 HD
ATOM      5  H   UNL     1      29.847  20.109 -21.421  1.00  0.00     0.345 HD
ATOM      6  H   UNL     1      29.643  21.278 -22.643  1.00  0.00     0.345 HD
ENDBRANCH   2   3
BRANCH   2   7
ATOM      7  C   UNL     1      32.150  20.850 -21.147  1.00  0.00     0.099 C 
ATOM      8  O   UNL     1      32.026  20.047 -20.185  1.00  0.00    -0.544 OA
ATOM      9  O   UNL     1      32.820  22.052 -20.954  1.00  0.00    -0.544 OA
ENDBRANCH   2   7
ENDBRANCH   1   2
BRANCH   1  10
ATOM     10  C   UNL     1      33.700  19.347 -23.295  1.00  0.00     0.076 C 
BRANCH  10  11
ATOM     11  S   UNL     1      34.488  17.702 -23.230  1.00  0.00    -0.165 SA
ATOM     12  C   UNL     1      33.076  16.894 -22.414  1.00  0.00     0.085 C 
ENDBRANCH  10  11
ENDBRANCH   1  10
TORSDOF 5
ENDMDL
MODEL 4
REMARK VINA RESULT:    -2.979      3.084      3.855
REMARK INTER + INTRA:          -3.811
REMARK INTER:                  -3.656
REMARK INTRA:                  -0.154
REMARK UNBOUND:                -0.048
REMARK SMILES CSCC[C@@H]([NH3+])C(=O)[O-]
REMARK SMILES IDX 4 1 5 2 6 3 7 7 8 8 9 9 3 10 2 11 1 12
REMARK H PARENT 6 4 6 5 6 6
REMARK Flexibility Score: inf
ROOT
ATOM      1  C   UNL     1      32.872  19.722 -22.779  1.00  0.00     0.082 C 
ENDROOT
BRANCH   1   2
ATOM      2  C   UNL     1      31.881  18.761 -22.088  1.00  0.00     0.228 C 
BRANCH   2   3
ATOM      3  N   UNL     1      32.545  17.496 -21.751  1.00  0.00    -0.350 N 
ATOM      4  H   UNL     1      32.763  16.965 -22.625  1.00  0.00     0.345 HD
ATOM      5  H   UNL     1      33.445  17.689 -21.254  1.00  0.00     0.345 HD
ATOM      6  H   UNL     1      31.934  16.911 -21.135  1.00  0.00     0.345 HD
ENDBRANCH   2   3
BRANCH   2   7
ATOM      7  C   UNL     1      31.300  19.384 -20.845  1.00  0.00     0.099 C 
ATOM      8  O   UNL     1      30.062  19.318 -20.623  1.00  0.00    -0.544 OA
ATOM      9  O   UNL     1      32.124  20.039 -19.937  1.00  0.00    -0.544 OA
ENDBRANCH   2   7
ENDBRANCH   1   2
BRANCH   1  10
ATOM     10  C   UNL     1      32.160  20.873 -23.496  1.00  0.00     0.076 C 
BRANCH  10  11
ATOM     11  S   UNL     1      33.276  22.312 -23.617  1.00  0.00    -0.165 SA
ATOM     12  C   UNL     1      33.230  22.686 -21.837  1.00  0.00     0.085 C 
ENDBRANCH  10  11
ENDBRANCH   1  10
TORSDOF 5
ENDMDL
MODEL 5
REMARK VINA RESULT:    -2.977      3.338      4.703
REMARK INTER + INTRA:          -3.808
REMARK INTER:                  -3.643
REMARK INTRA:                  -0.165
REMARK UNBOUND:                -0.048
REMARK SMILES CSCC[C@@H]([NH3+])C(=O)[O-]
REMARK SMILES IDX 4 1 5 2 6 3 7 7 8 8 9 9 3 10 2 11 1 12
REMARK H PARENT 6 4 6 5 6 6
REMARK Flexibility Score: inf
ROOT
ATOM      1  C   UNL     1      32.405  21.315 -23.271  1.00  0.00     0.082 C 
ENDROOT
BRANCH   1   2
ATOM      2  C   UNL     1      33.425  21.726 -22.188  1.00  0.00     0.228 C 
BRANCH   2   3
ATOM      3  N   UNL     1      34.665  22.207 -22.810  1.00  0.00    -0.350 N 
ATOM      4  H   UNL     1      34.499  22.412 -23.823  1.00  0.00     0.345 HD
ATOM      5  H   UNL     1      34.974  23.092 -22.345  1.00  0.00     0.345 HD
ATOM      6  H   UNL     1      35.424  21.492 -22.722  1.00  0.00     0.345 HD
ENDBRANCH   2   3
BRANCH   2   7
ATOM      7  C   UNL     1      32.857  22.789 -21.285  1.00  0.00     0.099 C 
ATOM      8  O   UNL     1      32.407  22.480 -20.150  1.00  0.00    -0.544 OA
ATOM      9  O   UNL     1      32.821  24.116 -21.697  1.00  0.00    -0.544 OA
ENDBRANCH   2   7
ENDBRANCH   1   2
BRANCH   1  10
ATOM     10  C   UNL     1      32.028  19.833 -23.181  1.00  0.00     0.076 C 
BRANCH  10  11
ATOM     11  S   UNL     1      30.324  19.665 -22.551  1.00  0.00    -0.165 SA
ATOM     12  C   UNL     1      30.832  19.246 -20.855  1.00  0.00     0.085 C 
ENDBRANCH  10  11
ENDBRANCH   1  10
TORSDOF 5
ENDMDL
MODEL 6
REMARK VINA RESULT:    -2.968     12.846     13.398
REMARK INTER + INTRA:          -3.797
REMARK INTER:                  -3.675
REMARK INTRA:                  -0.122
REMARK UNBOUND:                -0.048
REMARK SMILES CSCC[C@@H]([NH3+])C(=O)[O-]
REMARK SMILES IDX 4 1 5 2 6 3 7 7 8 8 9 9 3 10 2 11 1 12
REMARK H PARENT 6 4 6 5 6 6
REMARK Flexibility Score: inf
ROOT
ATOM      1  C   UNL     1      36.002  18.841  -9.036  1.00  0.00     0.082 C 
ENDROOT
BRANCH   1   2
ATOM      2  C   UNL     1      34.821  19.758  -9.418  1.00  0.00     0.228 C 
BRANCH   2   3
ATOM      3  N   UNL     1      33.583  19.289  -8.784  1.00  0.00    -0.350 N 
ATOM      4  H   UNL     1      33.293  18.374  -9.202  1.00  0.00     0.345 HD
ATOM      5  H   UNL     1      33.741  19.144  -7.761  1.00  0.00     0.345 HD
ATOM      6  H   UNL     1      32.813  19.986  -8.916  1.00  0.00     0.345 HD
ENDBRANCH   2   3
BRANCH   2   7
ATOM      7  C   UNL     1      35.093  21.185  -9.021  1.00  0.00     0.099 C 
ATOM      8  O   UNL     1      35.912  21.439  -8.098  1.00  0.00    -0.544 OA
ATOM      9  O   UNL     1      34.441  22.230  -9.664  1.00  0.00    -0.544 OA
ENDBRANCH   2   7
ENDBRANCH   1   2
BRANCH   1  10
ATOM     10  C   UNL     1      36.310  17.808 -10.124  1.00  0.00     0.076 C 
BRANCH  10  11
ATOM     11  S   UNL     1      38.089  17.850 -10.531  1.00  0.00    -0.165 SA
ATOM     12  C   UNL     1      38.543  18.884  -9.105  1.00  0.00     0.085 C 
ENDBRANCH  10  11
ENDBRANCH   1  10
TORSDOF 5
ENDMDL
MODEL 7
REMARK VINA RESULT:    -2.962      3.111      3.598
REMARK INTER + INTRA:          -3.789
REMARK INTER:                  -3.551
REMARK INTRA:                  -0.239
REMARK UNBOUND:                -0.048
REMARK SMILES CSCC[C@@H]([NH3+])C(=O)[O-]
REMARK SMILES IDX 4 1 5 2 6 3 7 7 8 8 9 9 3 10 2 11 1 12
REMARK H PARENT 6 4 6 5 6 6
REMARK Flexibility Score: inf
ROOT
ATOM      1  C   UNL     1      33.099  19.974 -23.101  1.00  0.00     0.082 C 
ENDROOT
BRANCH   1   2
ATOM      2  C   UNL     1      32.125  21.052 -22.580  1.00  0.00     0.228 C 
BRANCH   2   3
ATOM      3  N   UNL     1      30.736  20.593 -22.709  1.00  0.00    -0.350 N 
ATOM      4  H   UNL     1      30.589  19.738 -22.124  1.00  0.00     0.345 HD
ATOM      5  H   UNL     1      30.084  21.336 -22.370  1.00  0.00     0.345 HD
ATOM      6  H   UNL     1      30.512  20.370 -23.707  1.00  0.00     0.345 HD
ENDBRANCH   2   3
BRANCH   2   7
ATOM      7  C   UNL     1      32.420  21.400 -21.144  1.00  0.00     0.099 C 
ATOM      8  O   UNL     1      32.951  22.505 -20.857  1.00  0.00    -0.544 OA
ATOM      9  O   UNL     1      32.113  20.504 -20.127  1.00  0.00    -0.544 OA
ENDBRANCH   2   7
ENDBRANCH   1   2
BRANCH   1  10
ATOM     10  C   UNL     1      34.284  20.580 -23.858  1.00  0.00     0.076 C 
BRANCH  10  11
ATOM     11  S   UNL     1      33.789  22.164 -24.617  1.00  0.00    -0.165 SA
ATOM     12  C   UNL     1      35.026  23.152 -23.720  1.00  0.00     0.085 C 
ENDBRANCH  10  11
ENDBRANCH   1  10
TORSDOF 5
ENDMDL
MODEL 8
REMARK VINA RESULT:    -2.934     11.933     12.539
REMARK INTER + INTRA:          -3.754
REMARK INTER:                  -3.620
REMARK INTRA:                  -0.134
REMARK UNBOUND:                -0.048
REMARK SMILES CSCC[C@@H]([NH3+])C(=O)[O-]
REMARK SMILES IDX 4 1 5 2 6 3 7 7 8 8 9 9 3 10 2 11 1 12
REMARK H PARENT 6 4 6 5 6 6
REMARK Flexibility Score: inf
ROOT
ATOM      1  C   UNL     1      25.660  14.321 -16.074  1.00  0.00     0.082 C 
ENDROOT
BRANCH   1   2
ATOM      2  C   UNL     1      26.942  15.178 -16.154  1.00  0.00     0.228 C 
BRANCH   2   3
ATOM      3  N   UNL     1      26.608  16.606 -16.097  1.00  0.00    -0.350 N 
ATOM      4  H   UNL     1      27.438  17.177 -16.378  1.00  0.00     0.345 HD
ATOM      5  H   UNL     1      25.829  16.815 -16.763  1.00  0.00     0.345 HD
ATOM      6  H   UNL     1      26.313  16.878 -15.131  1.00  0.00     0.345 HD
ENDBRANCH   2   3
BRANCH   2   7
ATOM      7  C   UNL     1      27.896  14.829 -15.042  1.00  0.00     0.099 C 
ATOM      8  O   UNL     1      27.613  15.123 -13.850  1.00  0.00    -0.544 OA
ATOM      9  O   UNL     1      29.095  14.184 -15.322  1.00  0.00    -0.544 OA
ENDBRANCH   2   7
ENDBRANCH   1   2
BRANCH   1  10
ATOM     10  C   UNL     1      24.389  15.174 -16.124  1.00  0.00     0.076 C 
BRANCH  10  11
ATOM     11  S   UNL     1      23.578  14.981 -17.748  1.00  0.00    -0.165 SA
ATOM     12  C   UNL     1      23.361  16.767 -18.019  1.00  0.00     0.085 C 
ENDBRANCH  10  11
ENDBRANCH   1  10
TORSDOF 5
ENDMDL
MODEL 9
REMARK VINA RESULT:    -2.895     11.998     12.585
REMARK INTER + INTRA:          -3.704
REMARK INTER:                  -3.557
REMARK INTRA:                  -0.147
REMARK UNBOUND:                -0.048
REMARK SMILES CSCC[C@@H]([NH3+])C(=O)[O-]
REMARK SMILES IDX 4 1 5 2 6 3 7 7 8 8 9 9 3 10 2 11 1 12
REMARK H PARENT 6 4 6 5 6 6
REMARK Flexibility Score: inf
ROOT
ATOM      1  C   UNL     1      24.010  14.831 -17.147  1.00  0.00     0.082 C 
ENDROOT
BRANCH   1   2
ATOM      2  C   UNL     1      23.047  16.038 -17.134  1.00  0.00     0.228 C 
BRANCH   2   3
ATOM      3  N   UNL     1      23.216  16.815 -15.900  1.00  0.00    -0.350 N 
ATOM      4  H   UNL     1      24.055  17.435 -15.982  1.00  0.00     0.345 HD
ATOM      5  H   UNL     1      22.378  17.420 -15.744  1.00  0.00     0.345 HD
ATOM      6  H   UNL     1      23.337  16.180 -15.077  1.00  0.00     0.345 HD
ENDBRANCH   2   3
BRANCH   2   7
ATOM      7  C   UNL     1      23.272  16.922 -18.333  1.00  0.00     0.099 C 
ATOM      8  O   UNL     1      22.847  18.108 -18.332  1.00  0.00    -0.544 OA
ATOM      9  O   UNL     1      23.944  16.437 -19.448  1.00  0.00    -0.544 OA
ENDBRANCH   2   7
ENDBRANCH   1   2
BRANCH   1  10
ATOM     10  C   UNL     1      25.059  14.914 -16.034  1.00  0.00     0.076 C 
BRANCH  10  11
ATOM     11  S   UNL     1      26.652  15.474 -16.727  1.00  0.00    -0.165 SA
ATOM     12  C   UNL     1      27.591  15.180 -15.196  1.00  0.00     0.085 C 
ENDBRANCH  10  11
ENDBRANCH   1  10
TORSDOF 5
ENDMDL
