MODEL 1
REMARK VINA RESULT:    -5.394      0.000      0.000
REMARK INTER + INTRA:          -5.394
REMARK INTER:                  -5.394
REMARK INTRA:                   0.000
REMARK UNBOUND:                 0.000
REMARK SMILES c1ccc2ccccc2c1
REMARK SMILES IDX 2 1 1 2 10 3 9 4 8 5 7 6 6 7 5 8 4 9 3 10
REMARK H PARENT
REMARK Flexibility Score: inf
ROOT
ATOM      1  C   UNL     1      26.006   6.378  23.965  1.00  0.00     0.001 A 
ATOM      2  C   UNL     1      25.299   6.707  25.125  1.00  0.00     0.001 A 
ATOM      3  C   UNL     1      24.046   6.135  25.372  1.00  0.00     0.009 A 
ATOM      4  C   UNL     1      23.493   5.229  24.454  1.00  0.00    -0.018 A 
ATOM      5  C   UNL     1      22.236   4.649  24.689  1.00  0.00     0.009 A 
ATOM      6  C   UNL     1      21.697   3.748  23.767  1.00  0.00     0.001 A 
ATOM      7  C   UNL     1      22.404   3.419  22.607  1.00  0.00     0.001 A 
ATOM      8  C   UNL     1      23.657   3.991  22.360  1.00  0.00     0.009 A 
ATOM      9  C   UNL     1      24.210   4.897  23.278  1.00  0.00    -0.018 A 
ATOM     10  C   UNL     1      25.466   5.476  23.043  1.00  0.00     0.009 A 
ENDROOT
TORSDOF 0
ENDMDL
MODEL 2
REMARK VINA RESULT:    -5.390      0.079      2.083
REMARK INTER + INTRA:          -5.390
REMARK INTER:                  -5.390
REMARK INTRA:                   0.000
REMARK UNBOUND:                 0.000
REMARK SMILES c1ccc2ccccc2c1
REMARK SMILES IDX 2 1 1 2 10 3 9 4 8 5 7 6 6 7 5 8 4 9 3 10
REMARK H PARENT
REMARK Flexibility Score: inf
ROOT
ATOM      1  C   UNL     1      25.205   6.728  25.099  1.00  0.00     0.001 A 
ATOM      2  C   UNL     1      25.947   6.397  23.960  1.00  0.00     0.001 A 
ATOM      3  C   UNL     1      25.444   5.477  23.035  1.00  0.00     0.009 A 
ATOM      4  C   UNL     1      24.191   4.880  23.245  1.00  0.00    -0.018 A 
ATOM      5  C   UNL     1      23.675   3.955  22.324  1.00  0.00     0.009 A 
ATOM      6  C   UNL     1      22.425   3.369  22.545  1.00  0.00     0.001 A 
ATOM      7  C   UNL     1      21.683   3.700  23.684  1.00  0.00     0.001 A 
ATOM      8  C   UNL     1      22.186   4.619  24.609  1.00  0.00     0.009 A 
ATOM      9  C   UNL     1      23.439   5.216  24.399  1.00  0.00    -0.018 A 
ATOM     10  C   UNL     1      23.955   6.141  25.320  1.00  0.00     0.009 A 
ENDROOT
TORSDOF 0
ENDMDL
MODEL 3
REMARK VINA RESULT:    -5.386      4.710      6.362
REMARK INTER + INTRA:          -5.386
REMARK INTER:                  -5.386
REMARK INTRA:                   0.000
REMARK UNBOUND:                 0.000
REMARK SMILES c1ccc2ccccc2c1
REMARK SMILES IDX 2 1 1 2 10 3 9 4 8 5 7 6 6 7 5 8 4 9 3 10
REMARK H PARENT
REMARK Flexibility Score: inf
ROOT
ATOM      1  C   UNL     1      22.580   8.638  19.467  1.00  0.00     0.001 A 
ATOM      2  C   UNL     1      22.745   8.300  18.121  1.00  0.00     0.001 A 
ATOM      3  C   UNL     1      23.903   7.641  17.697  1.00  0.00     0.009 A 
ATOM      4  C   UNL     1      24.907   7.316  18.623  1.00  0.00    -0.018 A 
ATOM      5  C   UNL     1      26.075   6.656  18.210  1.00  0.00     0.009 A 
ATOM      6  C   UNL     1      27.067   6.337  19.143  1.00  0.00     0.001 A 
ATOM      7  C   UNL     1      26.901   6.675  20.490  1.00  0.00     0.001 A 
ATOM      8  C   UNL     1      25.743   7.334  20.913  1.00  0.00     0.009 A 
ATOM      9  C   UNL     1      24.739   7.659  19.988  1.00  0.00    -0.018 A 
ATOM     10  C   UNL     1      23.572   8.320  20.400  1.00  0.00     0.009 A 
ENDROOT
TORSDOF 0
ENDMDL
MODEL 4
REMARK VINA RESULT:    -5.376      0.062      4.018
REMARK INTER + INTRA:          -5.376
REMARK INTER:                  -5.376
REMARK INTRA:                   0.000
REMARK UNBOUND:                 0.000
REMARK SMILES c1ccc2ccccc2c1
REMARK SMILES IDX 2 1 1 2 10 3 9 4 8 5 7 6 6 7 5 8 4 9 3 10
REMARK H PARENT
REMARK Flexibility Score: inf
ROOT
ATOM      1  C   UNL     1      21.727   3.717  23.689  1.00  0.00     0.001 A 
ATOM      2  C   UNL     1      22.456   3.390  22.541  1.00  0.00     0.001 A 
ATOM      3  C   UNL     1      23.709   3.969  22.314  1.00  0.00     0.009 A 
ATOM      4  C   UNL     1      24.240   4.883  23.238  1.00  0.00    -0.018 A 
ATOM      5  C   UNL     1      25.495   5.471  23.021  1.00  0.00     0.009 A 
ATOM      6  C   UNL     1      26.014   6.380  23.949  1.00  0.00     0.001 A 
ATOM      7  C   UNL     1      25.285   6.706  25.097  1.00  0.00     0.001 A 
ATOM      8  C   UNL     1      24.032   6.128  25.324  1.00  0.00     0.009 A 
ATOM      9  C   UNL     1      23.501   5.214  24.401  1.00  0.00    -0.018 A 
ATOM     10  C   UNL     1      22.245   4.626  24.617  1.00  0.00     0.009 A 
ENDROOT
TORSDOF 0
ENDMDL
MODEL 5
REMARK VINA RESULT:    -5.361      0.109      3.437
REMARK INTER + INTRA:          -5.361
REMARK INTER:                  -5.361
REMARK INTRA:                   0.000
REMARK UNBOUND:                 0.000
REMARK SMILES c1ccc2ccccc2c1
REMARK SMILES IDX 2 1 1 2 10 3 9 4 8 5 7 6 6 7 5 8 4 9 3 10
REMARK H PARENT
REMARK Flexibility Score: inf
ROOT
ATOM      1  C   UNL     1      22.491   3.363  22.488  1.00  0.00     0.001 A 
ATOM      2  C   UNL     1      21.755   3.667  23.638  1.00  0.00     0.001 A 
ATOM      3  C   UNL     1      22.256   4.576  24.575  1.00  0.00     0.009 A 
ATOM      4  C   UNL     1      23.502   5.188  24.366  1.00  0.00    -0.018 A 
ATOM      5  C   UNL     1      24.016   6.102  25.299  1.00  0.00     0.009 A 
ATOM      6  C   UNL     1      25.258   6.705  25.078  1.00  0.00     0.001 A 
ATOM      7  C   UNL     1      25.993   6.402  23.928  1.00  0.00     0.001 A 
ATOM      8  C   UNL     1      25.493   5.492  22.991  1.00  0.00     0.009 A 
ATOM      9  C   UNL     1      24.247   4.880  23.200  1.00  0.00    -0.018 A 
ATOM     10  C   UNL     1      23.733   3.967  22.267  1.00  0.00     0.009 A 
ENDROOT
TORSDOF 0
ENDMDL
MODEL 6
REMARK VINA RESULT:    -5.339      3.805      5.308
REMARK INTER + INTRA:          -5.339
REMARK INTER:                  -5.339
REMARK INTRA:                   0.000
REMARK UNBOUND:                 0.000
REMARK SMILES c1ccc2ccccc2c1
REMARK SMILES IDX 2 1 1 2 10 3 9 4 8 5 7 6 6 7 5 8 4 9 3 10
REMARK H PARENT
REMARK Flexibility Score: inf
ROOT
ATOM      1  C   UNL     1      20.992   8.774  22.643  1.00  0.00     0.001 A 
ATOM      2  C   UNL     1      21.358   7.493  23.066  1.00  0.00     0.001 A 
ATOM      3  C   UNL     1      22.706   7.123  23.106  1.00  0.00     0.009 A 
ATOM      4  C   UNL     1      23.699   8.037  22.719  1.00  0.00    -0.018 A 
ATOM      5  C   UNL     1      25.055   7.678  22.754  1.00  0.00     0.009 A 
ATOM      6  C   UNL     1      26.034   8.599  22.367  1.00  0.00     0.001 A 
ATOM      7  C   UNL     1      25.668   9.880  21.944  1.00  0.00     0.001 A 
ATOM      8  C   UNL     1      24.319  10.250  21.904  1.00  0.00     0.009 A 
ATOM      9  C   UNL     1      23.327   9.336  22.291  1.00  0.00    -0.018 A 
ATOM     10  C   UNL     1      21.971   9.695  22.256  1.00  0.00     0.009 A 
ENDROOT
TORSDOF 0
ENDMDL
MODEL 7
REMARK VINA RESULT:    -5.339      3.737      4.257
REMARK INTER + INTRA:          -5.339
REMARK INTER:                  -5.339
REMARK INTRA:                   0.000
REMARK UNBOUND:                 0.000
REMARK SMILES c1ccc2ccccc2c1
REMARK SMILES IDX 2 1 1 2 10 3 9 4 8 5 7 6 6 7 5 8 4 9 3 10
REMARK H PARENT
REMARK Flexibility Score: inf
ROOT
ATOM      1  C   UNL     1      25.731   9.768  21.886  1.00  0.00     0.001 A 
ATOM      2  C   UNL     1      26.084   8.475  22.285  1.00  0.00     0.001 A 
ATOM      3  C   UNL     1      25.098   7.565  22.678  1.00  0.00     0.009 A 
ATOM      4  C   UNL     1      23.747   7.947  22.676  1.00  0.00    -0.018 A 
ATOM      5  C   UNL     1      22.747   7.044  23.070  1.00  0.00     0.009 A 
ATOM      6  C   UNL     1      21.405   7.436  23.062  1.00  0.00     0.001 A 
ATOM      7  C   UNL     1      21.052   8.729  22.664  1.00  0.00     0.001 A 
ATOM      8  C   UNL     1      22.038   9.639  22.270  1.00  0.00     0.009 A 
ATOM      9  C   UNL     1      23.389   9.257  22.272  1.00  0.00    -0.018 A 
ATOM     10  C   UNL     1      24.389  10.161  21.879  1.00  0.00     0.009 A 
ENDROOT
TORSDOF 0
ENDMDL
MODEL 8
REMARK VINA RESULT:    -5.315      3.765      5.218
REMARK INTER + INTRA:          -5.315
REMARK INTER:                  -5.315
REMARK INTRA:                   0.000
REMARK UNBOUND:                 0.000
REMARK SMILES c1ccc2ccccc2c1
REMARK SMILES IDX 2 1 1 2 10 3 9 4 8 5 7 6 6 7 5 8 4 9 3 10
REMARK H PARENT
REMARK Flexibility Score: inf
ROOT
ATOM      1  C   UNL     1      21.344   7.454  23.002  1.00  0.00     0.001 A 
ATOM      2  C   UNL     1      21.008   8.759  22.629  1.00  0.00     0.001 A 
ATOM      3  C   UNL     1      22.007   9.667  22.264  1.00  0.00     0.009 A 
ATOM      4  C   UNL     1      23.354   9.272  22.272  1.00  0.00    -0.018 A 
ATOM      5  C   UNL     1      24.366  10.174  21.909  1.00  0.00     0.009 A 
ATOM      6  C   UNL     1      25.704   9.768  21.921  1.00  0.00     0.001 A 
ATOM      7  C   UNL     1      26.040   8.463  22.294  1.00  0.00     0.001 A 
ATOM      8  C   UNL     1      25.041   7.555  22.659  1.00  0.00     0.009 A 
ATOM      9  C   UNL     1      23.694   7.949  22.651  1.00  0.00    -0.018 A 
ATOM     10  C   UNL     1      22.682   7.048  23.014  1.00  0.00     0.009 A 
ENDROOT
TORSDOF 0
ENDMDL
MODEL 9
REMARK VINA RESULT:    -5.313      3.736      4.203
REMARK INTER + INTRA:          -5.313
REMARK INTER:                  -5.313
REMARK INTRA:                   0.000
REMARK UNBOUND:                 0.000
REMARK SMILES c1ccc2ccccc2c1
REMARK SMILES IDX 2 1 1 2 10 3 9 4 8 5 7 6 6 7 5 8 4 9 3 10
REMARK H PARENT
REMARK Flexibility Score: inf
ROOT
ATOM      1  C   UNL     1      26.080   8.429  22.274  1.00  0.00     0.001 A 
ATOM      2  C   UNL     1      25.741   9.720  21.857  1.00  0.00     0.001 A 
ATOM      3  C   UNL     1      24.403  10.128  21.845  1.00  0.00     0.009 A 
ATOM      4  C   UNL     1      23.393   9.242  22.249  1.00  0.00    -0.018 A 
ATOM      5  C   UNL     1      22.047   9.638  22.241  1.00  0.00     0.009 A 
ATOM      6  C   UNL     1      21.050   8.746  22.647  1.00  0.00     0.001 A 
ATOM      7  C   UNL     1      21.389   7.455  23.064  1.00  0.00     0.001 A 
ATOM      8  C   UNL     1      22.727   7.047  23.077  1.00  0.00     0.009 A 
ATOM      9  C   UNL     1      23.737   7.933  22.672  1.00  0.00    -0.018 A 
ATOM     10  C   UNL     1      25.083   7.537  22.681  1.00  0.00     0.009 A 
ENDROOT
TORSDOF 0
ENDMDL
