MODEL 1
REMARK VINA RESULT:    -4.036      0.000      0.000
REMARK INTER + INTRA:          -6.501
REMARK INTER:                  -5.687
REMARK INTRA:                  -0.814
REMARK UNBOUND:                -0.814
REMARK SMILES CCCCCCCCC(=O)[O-]
REMARK SMILES IDX 6 1 7 2 8 3 9 4 10 5 11 6 5 7 4 8 3 9 2 10 1 11
REMARK H PARENT
REMARK Flexibility Score: inf
ROOT
ATOM      1  C   UNL     1     161.199 167.814 160.777  1.00  0.00     0.000 C 
ENDROOT
BRANCH   1   2
ATOM      2  C   UNL     1     159.987 167.465 159.896  1.00  0.00     0.006 C 
BRANCH   2   3
ATOM      3  C   UNL     1     159.265 166.200 160.378  1.00  0.00     0.053 C 
BRANCH   3   4
ATOM      4  C   UNL     1     160.049 164.962 160.066  1.00  0.00     0.041 C 
ATOM      5  O   UNL     1     160.115 164.534 158.884  1.00  0.00    -0.550 OA
ATOM      6  O   UNL     1     160.734 164.301 161.078  1.00  0.00    -0.550 OA
ENDBRANCH   3   4
ENDBRANCH   2   3
ENDBRANCH   1   2
BRANCH   1   7
ATOM      7  C   UNL     1     162.498 167.950 159.967  1.00  0.00     0.000 C 
BRANCH   7   8
ATOM      8  C   UNL     1     163.309 166.643 159.929  1.00  0.00    -0.000 C 
BRANCH   8   9
ATOM      9  C   UNL     1     163.575 166.156 158.495  1.00  0.00    -0.000 C 
BRANCH   9  10
ATOM     10  C   UNL     1     163.091 167.155 157.435  1.00  0.00    -0.003 C 
ATOM     11  C   UNL     1     161.962 166.561 156.595  1.00  0.00     0.004 C 
ENDBRANCH   9  10
ENDBRANCH   8   9
ENDBRANCH   7   8
ENDBRANCH   1   7
TORSDOF 7
ENDMDL
MODEL 2
REMARK VINA RESULT:    -4.023      1.537      3.887
REMARK INTER + INTRA:          -6.483
REMARK INTER:                  -5.667
REMARK INTRA:                  -0.816
REMARK UNBOUND:                -0.814
REMARK SMILES CCCCCCCCC(=O)[O-]
REMARK SMILES IDX 6 1 7 2 8 3 9 4 10 5 11 6 5 7 4 8 3 9 2 10 1 11
REMARK H PARENT
REMARK Flexibility Score: inf
ROOT
ATOM      1  C   UNL     1     162.368 167.887 159.731  1.00  0.00     0.000 C 
ENDROOT
BRANCH   1   2
ATOM      2  C   UNL     1     163.344 166.772 160.148  1.00  0.00     0.006 C 
BRANCH   2   3
ATOM      3  C   UNL     1     163.671 165.825 158.986  1.00  0.00     0.053 C 
BRANCH   3   4
ATOM      4  C   UNL     1     162.475 165.026 158.569  1.00  0.00     0.041 C 
ATOM      5  O   UNL     1     161.942 165.221 157.445  1.00  0.00    -0.550 OA
ATOM      6  O   UNL     1     161.971 164.041 159.408  1.00  0.00    -0.550 OA
ENDBRANCH   3   4
ENDBRANCH   2   3
ENDBRANCH   1   2
BRANCH   1   7
ATOM      7  C   UNL     1     161.163 168.000 160.678  1.00  0.00     0.000 C 
BRANCH   7   8
ATOM      8  C   UNL     1     159.921 167.268 160.141  1.00  0.00    -0.000 C 
BRANCH   8   9
ATOM      9  C   UNL     1     159.478 166.110 161.051  1.00  0.00    -0.000 C 
BRANCH   9  10
ATOM     10  C   UNL     1     160.183 166.131 162.415  1.00  0.00    -0.003 C 
ATOM     11  C   UNL     1     161.003 164.862 162.629  1.00  0.00     0.004 C 
ENDBRANCH   9  10
ENDBRANCH   8   9
ENDBRANCH   7   8
ENDBRANCH   1   7
TORSDOF 7
ENDMDL
MODEL 3
REMARK VINA RESULT:    -3.993      1.299      2.107
REMARK INTER + INTRA:          -6.442
REMARK INTER:                  -5.670
REMARK INTRA:                  -0.771
REMARK UNBOUND:                -0.814
REMARK SMILES CCCCCCCCC(=O)[O-]
REMARK SMILES IDX 6 1 7 2 8 3 9 4 10 5 11 6 5 7 4 8 3 9 2 10 1 11
REMARK H PARENT
REMARK Flexibility Score: inf
ROOT
ATOM      1  C   UNL     1     160.065 167.597 160.058  1.00  0.00     0.000 C 
ENDROOT
BRANCH   1   2
ATOM      2  C   UNL     1     159.725 166.207 160.624  1.00  0.00     0.006 C 
BRANCH   2   3
ATOM      3  C   UNL     1     160.246 166.021 162.055  1.00  0.00     0.053 C 
BRANCH   3   4
ATOM      4  C   UNL     1     161.099 164.796 162.180  1.00  0.00     0.041 C 
ATOM      5  O   UNL     1     161.456 164.384 163.316  1.00  0.00    -0.550 OA
ATOM      6  O   UNL     1     161.470 164.089 161.044  1.00  0.00    -0.550 OA
ENDBRANCH   3   4
ENDBRANCH   2   3
ENDBRANCH   1   2
BRANCH   1   7
ATOM      7  C   UNL     1     161.446 168.097 160.511  1.00  0.00     0.000 C 
BRANCH   7   8
ATOM      8  C   UNL     1     162.548 167.800 159.478  1.00  0.00    -0.000 C 
BRANCH   8   9
ATOM      9  C   UNL     1     163.468 166.647 159.912  1.00  0.00    -0.000 C 
BRANCH   9  10
ATOM     10  C   UNL     1     163.791 165.687 158.758  1.00  0.00    -0.003 C 
ATOM     11  C   UNL     1     162.575 165.480 157.859  1.00  0.00     0.004 C 
ENDBRANCH   9  10
ENDBRANCH   8   9
ENDBRANCH   7   8
ENDBRANCH   1   7
TORSDOF 7
ENDMDL
MODEL 4
REMARK VINA RESULT:    -3.936      2.258      4.457
REMARK INTER + INTRA:          -6.360
REMARK INTER:                  -5.564
REMARK INTRA:                  -0.796
REMARK UNBOUND:                -0.814
REMARK SMILES CCCCCCCCC(=O)[O-]
REMARK SMILES IDX 6 1 7 2 8 3 9 4 10 5 11 6 5 7 4 8 3 9 2 10 1 11
REMARK H PARENT
REMARK Flexibility Score: inf
ROOT
ATOM      1  C   UNL     1     161.392 163.806 159.574  1.00  0.00     0.000 C 
ENDROOT
BRANCH   1   2
ATOM      2  C   UNL     1     161.945 164.257 158.211  1.00  0.00     0.006 C 
BRANCH   2   3
ATOM      3  C   UNL     1     162.368 165.731 158.216  1.00  0.00     0.053 C 
BRANCH   3   4
ATOM      4  C   UNL     1     163.559 165.964 159.094  1.00  0.00     0.041 C 
ATOM      5  O   UNL     1     163.453 166.664 160.135  1.00  0.00    -0.550 OA
ATOM      6  O   UNL     1     164.779 165.376 158.780  1.00  0.00    -0.550 OA
ENDBRANCH   3   4
ENDBRANCH   2   3
ENDBRANCH   1   2
BRANCH   1   7
ATOM      7  C   UNL     1     159.872 163.580 159.548  1.00  0.00     0.000 C 
BRANCH   7   8
ATOM      8  C   UNL     1     159.106 164.629 160.373  1.00  0.00    -0.000 C 
BRANCH   8   9
ATOM      9  C   UNL     1     159.933 165.176 161.548  1.00  0.00    -0.000 C 
BRANCH   9  10
ATOM     10  C   UNL     1     160.110 166.700 161.485  1.00  0.00    -0.003 C 
ATOM     11  C   UNL     1     159.701 167.243 160.118  1.00  0.00     0.004 C 
ENDBRANCH   9  10
ENDBRANCH   8   9
ENDBRANCH   7   8
ENDBRANCH   1   7
TORSDOF 7
ENDMDL
MODEL 5
REMARK VINA RESULT:    -3.895      1.890      3.048
REMARK INTER + INTRA:          -6.303
REMARK INTER:                  -5.530
REMARK INTRA:                  -0.773
REMARK UNBOUND:                -0.814
REMARK SMILES CCCCCCCCC(=O)[O-]
REMARK SMILES IDX 6 1 7 2 8 3 9 4 10 5 11 6 5 7 4 8 3 9 2 10 1 11
REMARK H PARENT
REMARK Flexibility Score: inf
ROOT
ATOM      1  C   UNL     1     160.464 164.354 158.799  1.00  0.00     0.000 C 
ENDROOT
BRANCH   1   2
ATOM      2  C   UNL     1     160.272 164.191 160.317  1.00  0.00     0.006 C 
BRANCH   2   3
ATOM      3  C   UNL     1     160.293 165.537 161.052  1.00  0.00     0.053 C 
BRANCH   3   4
ATOM      4  C   UNL     1     159.345 166.520 160.437  1.00  0.00     0.041 C 
ATOM      5  O   UNL     1     158.103 166.320 160.489  1.00  0.00    -0.550 OA
ATOM      6  O   UNL     1     159.832 167.674 159.836  1.00  0.00    -0.550 OA
ENDBRANCH   3   4
ENDBRANCH   2   3
ENDBRANCH   1   2
BRANCH   1   7
ATOM      7  C   UNL     1     161.658 163.547 158.265  1.00  0.00     0.000 C 
BRANCH   7   8
ATOM      8  C   UNL     1     162.963 164.362 158.254  1.00  0.00    -0.000 C 
BRANCH   8   9
ATOM      9  C   UNL     1     162.832 165.677 157.468  1.00  0.00    -0.000 C 
BRANCH   9  10
ATOM     10  C   UNL     1     163.050 166.915 158.350  1.00  0.00    -0.003 C 
ATOM     11  C   UNL     1     163.516 166.517 159.748  1.00  0.00     0.004 C 
ENDBRANCH   9  10
ENDBRANCH   8   9
ENDBRANCH   7   8
ENDBRANCH   1   7
TORSDOF 7
ENDMDL
MODEL 6
REMARK VINA RESULT:    -3.863      2.500      4.230
REMARK INTER + INTRA:          -6.258
REMARK INTER:                  -5.651
REMARK INTRA:                  -0.607
REMARK UNBOUND:                -0.814
REMARK SMILES CCCCCCCCC(=O)[O-]
REMARK SMILES IDX 6 1 7 2 8 3 9 4 10 5 11 6 5 7 4 8 3 9 2 10 1 11
REMARK H PARENT
REMARK Flexibility Score: inf
ROOT
ATOM      1  C   UNL     1     159.380 166.152 161.221  1.00  0.00     0.000 C 
ENDROOT
BRANCH   1   2
ATOM      2  C   UNL     1     159.806 167.034 160.034  1.00  0.00     0.006 C 
BRANCH   2   3
ATOM      3  C   UNL     1     161.184 166.639 159.485  1.00  0.00     0.053 C 
BRANCH   3   4
ATOM      4  C   UNL     1     162.281 167.449 160.105  1.00  0.00     0.041 C 
ATOM      5  O   UNL     1     163.437 166.965 160.224  1.00  0.00    -0.550 OA
ATOM      6  O   UNL     1     162.033 168.752 160.520  1.00  0.00    -0.550 OA
ENDBRANCH   3   4
ENDBRANCH   2   3
ENDBRANCH   1   2
BRANCH   1   7
ATOM      7  C   UNL     1     159.440 164.652 160.893  1.00  0.00     0.000 C 
BRANCH   7   8
ATOM      8  C   UNL     1     158.240 164.185 160.050  1.00  0.00    -0.000 C 
BRANCH   8   9
ATOM      9  C   UNL     1     158.608 163.053 159.076  1.00  0.00    -0.000 C 
BRANCH   9  10
ATOM     10  C   UNL     1     159.774 163.429 158.151  1.00  0.00    -0.003 C 
ATOM     11  C   UNL     1     160.915 162.421 158.268  1.00  0.00     0.004 C 
ENDBRANCH   9  10
ENDBRANCH   8   9
ENDBRANCH   7   8
ENDBRANCH   1   7
TORSDOF 7
ENDMDL
MODEL 7
REMARK VINA RESULT:    -3.862      1.899      2.607
REMARK INTER + INTRA:          -6.256
REMARK INTER:                  -5.571
REMARK INTRA:                  -0.685
REMARK UNBOUND:                -0.814
REMARK SMILES CCCCCCCCC(=O)[O-]
REMARK SMILES IDX 6 1 7 2 8 3 9 4 10 5 11 6 5 7 4 8 3 9 2 10 1 11
REMARK H PARENT
REMARK Flexibility Score: inf
ROOT
ATOM      1  C   UNL     1     161.332 164.121 160.325  1.00  0.00     0.000 C 
ENDROOT
BRANCH   1   2
ATOM      2  C   UNL     1     161.542 165.315 161.272  1.00  0.00     0.006 C 
BRANCH   2   3
ATOM      3  C   UNL     1     160.217 165.856 161.824  1.00  0.00     0.053 C 
BRANCH   3   4
ATOM      4  C   UNL     1     159.393 166.504 160.754  1.00  0.00     0.041 C 
ATOM      5  O   UNL     1     158.232 166.087 160.507  1.00  0.00    -0.550 OA
ATOM      6  O   UNL     1     159.897 167.593 160.053  1.00  0.00    -0.550 OA
ENDBRANCH   3   4
ENDBRANCH   2   3
ENDBRANCH   1   2
BRANCH   1   7
ATOM      7  C   UNL     1     161.964 164.346 158.942  1.00  0.00     0.000 C 
BRANCH   7   8
ATOM      8  C   UNL     1     162.902 165.566 158.915  1.00  0.00    -0.000 C 
BRANCH   8   9
ATOM      9  C   UNL     1     162.525 166.576 157.819  1.00  0.00    -0.000 C 
BRANCH   9  10
ATOM     10  C   UNL     1     161.186 166.243 157.147  1.00  0.00    -0.003 C 
ATOM     11  C   UNL     1     161.232 166.544 155.651  1.00  0.00     0.004 C 
ENDBRANCH   9  10
ENDBRANCH   8   9
ENDBRANCH   7   8
ENDBRANCH   1   7
TORSDOF 7
ENDMDL
MODEL 8
REMARK VINA RESULT:    -3.858      2.544      3.921
REMARK INTER + INTRA:          -6.251
REMARK INTER:                  -5.623
REMARK INTRA:                  -0.628
REMARK UNBOUND:                -0.814
REMARK SMILES CCCCCCCCC(=O)[O-]
REMARK SMILES IDX 6 1 7 2 8 3 9 4 10 5 11 6 5 7 4 8 3 9 2 10 1 11
REMARK H PARENT
REMARK Flexibility Score: inf
ROOT
ATOM      1  C   UNL     1     163.210 166.409 158.104  1.00  0.00     0.000 C 
ENDROOT
BRANCH   1   2
ATOM      2  C   UNL     1     163.488 166.433 159.617  1.00  0.00     0.006 C 
BRANCH   2   3
ATOM      3  C   UNL     1     162.197 166.382 160.444  1.00  0.00     0.053 C 
BRANCH   3   4
ATOM      4  C   UNL     1     161.408 167.650 160.318  1.00  0.00     0.041 C 
ATOM      5  O   UNL     1     161.954 168.762 160.541  1.00  0.00    -0.550 OA
ATOM      6  O   UNL     1     160.078 167.603 159.921  1.00  0.00    -0.550 OA
ENDBRANCH   3   4
ENDBRANCH   2   3
ENDBRANCH   1   2
BRANCH   1   7
ATOM      7  C   UNL     1     162.509 165.118 157.653  1.00  0.00     0.000 C 
BRANCH   7   8
ATOM      8  C   UNL     1     163.368 163.865 157.896  1.00  0.00    -0.000 C 
BRANCH   8   9
ATOM      9  C   UNL     1     162.523 162.626 158.234  1.00  0.00    -0.000 C 
BRANCH   9  10
ATOM     10  C   UNL     1     161.456 162.915 159.300  1.00  0.00    -0.003 C 
ATOM     11  C   UNL     1     160.071 162.485 158.821  1.00  0.00     0.004 C 
ENDBRANCH   9  10
ENDBRANCH   8   9
ENDBRANCH   7   8
ENDBRANCH   1   7
TORSDOF 7
ENDMDL
MODEL 9
REMARK VINA RESULT:    -3.833      2.368      4.533
REMARK INTER + INTRA:          -6.215
REMARK INTER:                  -5.458
REMARK INTRA:                  -0.757
REMARK UNBOUND:                -0.814
REMARK SMILES CCCCCCCCC(=O)[O-]
REMARK SMILES IDX 6 1 7 2 8 3 9 4 10 5 11 6 5 7 4 8 3 9 2 10 1 11
REMARK H PARENT
REMARK Flexibility Score: inf
ROOT
ATOM      1  C   UNL     1     161.601 164.297 158.915  1.00  0.00     0.000 C 
ENDROOT
BRANCH   1   2
ATOM      2  C   UNL     1     162.268 165.468 158.171  1.00  0.00     0.006 C 
BRANCH   2   3
ATOM      3  C   UNL     1     161.769 166.830 158.669  1.00  0.00     0.053 C 
BRANCH   3   4
ATOM      4  C   UNL     1     162.589 167.335 159.817  1.00  0.00     0.041 C 
ATOM      5  O   UNL     1     163.644 166.738 160.154  1.00  0.00    -0.550 OA
ATOM      6  O   UNL     1     162.204 168.487 160.491  1.00  0.00    -0.550 OA
ENDBRANCH   3   4
ENDBRANCH   2   3
ENDBRANCH   1   2
BRANCH   1   7
ATOM      7  C   UNL     1     160.079 164.468 159.039  1.00  0.00     0.000 C 
BRANCH   7   8
ATOM      8  C   UNL     1     159.589 164.348 160.493  1.00  0.00    -0.000 C 
BRANCH   8   9
ATOM      9  C   UNL     1     159.422 165.716 161.175  1.00  0.00    -0.000 C 
BRANCH   9  10
ATOM     10  C   UNL     1     160.278 165.849 162.442  1.00  0.00    -0.003 C 
ATOM     11  C   UNL     1     161.262 164.688 162.566  1.00  0.00     0.004 C 
ENDBRANCH   9  10
ENDBRANCH   8   9
ENDBRANCH   7   8
ENDBRANCH   1   7
TORSDOF 7
ENDMDL
