MODEL 1
REMARK VINA RESULT:    -5.909      0.000      0.000
REMARK INTER + INTRA:         -12.752
REMARK INTER:                 -11.091
REMARK INTRA:                  -1.661
REMARK UNBOUND:                -1.661
REMARK SMILES CCCCCCCCC=CCCCCCCCC(=O)[O-]
REMARK SMILES IDX 10 1 9 2 11 3 12 4 13 5 14 6 15 7 16 8 17 9 18 10 19 11
REMARK SMILES IDX 20 12 8 13 7 14 6 15 5 16 4 17 3 18 2 19 1 20
REMARK H PARENT
REMARK Flexibility Score: inf
ROOT
ATOM      1  C   UNL     1      11.571  -2.575  14.905  1.00  0.00    -0.031 C 
ATOM      2  C   UNL     1      12.825  -3.011  14.677  1.00  0.00    -0.031 C 
ENDROOT
BRANCH   1   3
ATOM      3  C   UNL     1      10.357  -2.947  14.088  1.00  0.00     0.027 C 
BRANCH   3   4
ATOM      4  C   UNL     1       9.055  -2.589  14.816  1.00  0.00     0.004 C 
BRANCH   4   5
ATOM      5  C   UNL     1       8.157  -3.824  14.973  1.00  0.00     0.000 C 
BRANCH   5   6
ATOM      6  C   UNL     1       8.820  -5.110  14.453  1.00  0.00     0.000 C 
BRANCH   6   7
ATOM      7  C   UNL     1       9.104  -6.125  15.570  1.00  0.00     0.000 C 
BRANCH   7   8
ATOM      8  C   UNL     1      10.573  -6.053  16.016  1.00  0.00     0.006 C 
BRANCH   8   9
ATOM      9  C   UNL     1      10.771  -5.111  17.210  1.00  0.00     0.053 C 
BRANCH   9  10
ATOM     10  C   UNL     1      12.052  -5.394  17.934  1.00  0.00     0.041 C 
ATOM     11  O   UNL     1      12.137  -5.194  19.174  1.00  0.00    -0.550 OA
ATOM     12  O   UNL     1      13.160  -5.850  17.232  1.00  0.00    -0.550 OA
ENDBRANCH   9  10
ENDBRANCH   8   9
ENDBRANCH   7   8
ENDBRANCH   6   7
ENDBRANCH   5   6
ENDBRANCH   4   5
ENDBRANCH   3   4
ENDBRANCH   1   3
BRANCH   2  13
ATOM     13  C   UNL     1      13.235  -3.972  13.585  1.00  0.00     0.027 C 
BRANCH  13  14
ATOM     14  C   UNL     1      14.744  -3.900  13.291  1.00  0.00     0.004 C 
BRANCH  14  15
ATOM     15  C   UNL     1      15.131  -4.194  11.830  1.00  0.00     0.000 C 
BRANCH  15  16
ATOM     16  C   UNL     1      13.975  -3.963  10.843  1.00  0.00     0.000 C 
BRANCH  16  17
ATOM     17  C   UNL     1      14.030  -4.931   9.641  1.00  0.00    -0.000 C 
BRANCH  17  18
ATOM     18  C   UNL     1      14.144  -4.219   8.280  1.00  0.00    -0.000 C 
BRANCH  18  19
ATOM     19  C   UNL     1      13.545  -2.803   8.245  1.00  0.00    -0.003 C 
ATOM     20  C   UNL     1      14.596  -1.722   7.990  1.00  0.00     0.004 C 
ENDBRANCH  18  19
ENDBRANCH  17  18
ENDBRANCH  16  17
ENDBRANCH  15  16
ENDBRANCH  14  15
ENDBRANCH  13  14
ENDBRANCH   2  13
TORSDOF 15
ENDMDL
MODEL 2
REMARK VINA RESULT:    -5.598      3.621      7.551
REMARK INTER + INTRA:         -12.167
REMARK INTER:                 -10.778
REMARK INTRA:                  -1.390
REMARK UNBOUND:                -1.661
REMARK SMILES CCCCCCCCC=CCCCCCCCC(=O)[O-]
REMARK SMILES IDX 10 1 9 2 11 3 12 4 13 5 14 6 15 7 16 8 17 9 18 10 19 11
REMARK SMILES IDX 20 12 8 13 7 14 6 15 5 16 4 17 3 18 2 19 1 20
REMARK H PARENT
REMARK Flexibility Score: inf
ROOT
ATOM      1  C   UNL     1      14.543  -3.424  14.000  1.00  0.00    -0.031 C 
ATOM      2  C   UNL     1      13.430  -3.850  14.628  1.00  0.00    -0.031 C 
ENDROOT
BRANCH   1   3
ATOM      3  C   UNL     1      15.694  -4.301  13.572  1.00  0.00     0.027 C 
BRANCH   3   4
ATOM      4  C   UNL     1      15.571  -4.717  12.101  1.00  0.00     0.004 C 
BRANCH   4   5
ATOM      5  C   UNL     1      14.634  -3.769  11.339  1.00  0.00     0.000 C 
BRANCH   5   6
ATOM      6  C   UNL     1      13.459  -4.505  10.675  1.00  0.00     0.000 C 
BRANCH   6   7
ATOM      7  C   UNL     1      13.873  -5.254   9.400  1.00  0.00     0.000 C 
BRANCH   7   8
ATOM      8  C   UNL     1      14.255  -4.269   8.285  1.00  0.00     0.006 C 
BRANCH   8   9
ATOM      9  C   UNL     1      13.141  -3.254   8.001  1.00  0.00     0.053 C 
BRANCH   9  10
ATOM     10  C   UNL     1      13.635  -1.843   8.107  1.00  0.00     0.041 C 
ATOM     11  O   UNL     1      12.820  -0.895   8.253  1.00  0.00    -0.550 OA
ATOM     12  O   UNL     1      14.994  -1.574   8.014  1.00  0.00    -0.550 OA
ENDBRANCH   9  10
ENDBRANCH   8   9
ENDBRANCH   7   8
ENDBRANCH   6   7
ENDBRANCH   5   6
ENDBRANCH   4   5
ENDBRANCH   3   4
ENDBRANCH   1   3
BRANCH   2  13
ATOM     13  C   UNL     1      13.121  -5.285  14.987  1.00  0.00     0.027 C 
BRANCH  13  14
ATOM     14  C   UNL     1      12.255  -5.387  16.255  1.00  0.00     0.004 C 
BRANCH  14  15
ATOM     15  C   UNL     1      10.794  -5.805  16.007  1.00  0.00     0.000 C 
BRANCH  15  16
ATOM     16  C   UNL     1      10.433  -5.870  14.514  1.00  0.00     0.000 C 
BRANCH  16  17
ATOM     17  C   UNL     1       8.952  -5.517  14.254  1.00  0.00    -0.000 C 
BRANCH  17  18
ATOM     18  C   UNL     1       8.329  -4.631  15.350  1.00  0.00    -0.000 C 
BRANCH  18  19
ATOM     19  C   UNL     1       8.251  -3.136  14.999  1.00  0.00    -0.003 C 
ATOM     20  C   UNL     1       9.610  -2.545  14.622  1.00  0.00     0.004 C 
ENDBRANCH  18  19
ENDBRANCH  17  18
ENDBRANCH  16  17
ENDBRANCH  15  16
ENDBRANCH  14  15
ENDBRANCH  13  14
ENDBRANCH   2  13
TORSDOF 15
ENDMDL
MODEL 3
REMARK VINA RESULT:    -5.554      1.390      2.092
REMARK INTER + INTRA:         -12.084
REMARK INTER:                 -10.195
REMARK INTRA:                  -1.889
REMARK UNBOUND:                -1.661
REMARK SMILES CCCCCCCCC=CCCCCCCCC(=O)[O-]
REMARK SMILES IDX 10 1 9 2 11 3 12 4 13 5 14 6 15 7 16 8 17 9 18 10 19 11
REMARK SMILES IDX 20 12 8 13 7 14 6 15 5 16 4 17 3 18 2 19 1 20
REMARK H PARENT
REMARK Flexibility Score: inf
ROOT
ATOM      1  C   UNL     1      13.200  -3.456  14.249  1.00  0.00    -0.031 C 
ATOM      2  C   UNL     1      14.541  -3.365  14.153  1.00  0.00    -0.031 C 
ENDROOT
BRANCH   1   3
ATOM      3  C   UNL     1      12.403  -4.734  14.159  1.00  0.00     0.027 C 
BRANCH   3   4
ATOM      4  C   UNL     1      11.206  -4.589  13.210  1.00  0.00     0.004 C 
BRANCH   4   5
ATOM      5  C   UNL     1      10.362  -5.871  13.191  1.00  0.00     0.000 C 
BRANCH   5   6
ATOM      6  C   UNL     1       9.125  -5.779  14.100  1.00  0.00     0.000 C 
BRANCH   6   7
ATOM      7  C   UNL     1       8.735  -4.331  14.427  1.00  0.00     0.000 C 
BRANCH   7   8
ATOM      8  C   UNL     1       8.746  -4.089  15.944  1.00  0.00     0.006 C 
BRANCH   8   9
ATOM      9  C   UNL     1       9.645  -5.089  16.684  1.00  0.00     0.053 C 
BRANCH   9  10
ATOM     10  C   UNL     1      10.653  -4.394  17.549  1.00  0.00     0.041 C 
ATOM     11  O   UNL     1      11.282  -3.396  17.113  1.00  0.00    -0.550 OA
ATOM     12  O   UNL     1      10.919  -4.871  18.826  1.00  0.00    -0.550 OA
ENDBRANCH   9  10
ENDBRANCH   8   9
ENDBRANCH   7   8
ENDBRANCH   6   7
ENDBRANCH   5   6
ENDBRANCH   4   5
ENDBRANCH   3   4
ENDBRANCH   1   3
BRANCH   2  13
ATOM     13  C   UNL     1      15.486  -4.530  13.969  1.00  0.00     0.027 C 
BRANCH  13  14
ATOM     14  C   UNL     1      15.854  -4.745  12.490  1.00  0.00     0.004 C 
BRANCH  14  15
ATOM     15  C   UNL     1      15.165  -3.779  11.507  1.00  0.00     0.000 C 
BRANCH  15  16
ATOM     16  C   UNL     1      14.105  -4.468  10.632  1.00  0.00     0.000 C 
BRANCH  16  17
ATOM     17  C   UNL     1      13.000  -3.491  10.174  1.00  0.00    -0.000 C 
BRANCH  17  18
ATOM     18  C   UNL     1      12.945  -3.294   8.647  1.00  0.00    -0.000 C 
BRANCH  18  19
ATOM     19  C   UNL     1      13.263  -1.867   8.172  1.00  0.00    -0.003 C 
ATOM     20  C   UNL     1      14.755  -1.646   7.921  1.00  0.00     0.004 C 
ENDBRANCH  18  19
ENDBRANCH  17  18
ENDBRANCH  16  17
ENDBRANCH  15  16
ENDBRANCH  14  15
ENDBRANCH  13  14
ENDBRANCH   2  13
TORSDOF 15
ENDMDL
MODEL 4
REMARK VINA RESULT:    -5.482      1.692      2.603
REMARK INTER + INTRA:         -11.950
REMARK INTER:                 -10.525
REMARK INTRA:                  -1.425
REMARK UNBOUND:                -1.661
REMARK SMILES CCCCCCCCC=CCCCCCCCC(=O)[O-]
REMARK SMILES IDX 10 1 9 2 11 3 12 4 13 5 14 6 15 7 16 8 17 9 18 10 19 11
REMARK SMILES IDX 20 12 8 13 7 14 6 15 5 16 4 17 3 18 2 19 1 20
REMARK H PARENT
REMARK Flexibility Score: inf
ROOT
ATOM      1  C   UNL     1      10.805  -2.968  14.512  1.00  0.00    -0.031 C 
ATOM      2  C   UNL     1      12.138  -2.804  14.621  1.00  0.00    -0.031 C 
ENDROOT
BRANCH   1   3
ATOM      3  C   UNL     1      10.105  -4.282  14.267  1.00  0.00     0.027 C 
BRANCH   3   4
ATOM      4  C   UNL     1       9.336  -4.753  15.507  1.00  0.00     0.004 C 
BRANCH   4   5
ATOM      5  C   UNL     1      10.284  -5.401  16.527  1.00  0.00     0.000 C 
BRANCH   5   6
ATOM      6  C   UNL     1      10.495  -4.530  17.776  1.00  0.00     0.000 C 
BRANCH   6   7
ATOM      7  C   UNL     1      11.979  -4.272  18.076  1.00  0.00     0.000 C 
BRANCH   7   8
ATOM      8  C   UNL     1      12.460  -5.137  19.251  1.00  0.00     0.006 C 
BRANCH   8   9
ATOM      9  C   UNL     1      11.442  -5.174  20.399  1.00  0.00     0.053 C 
BRANCH   9  10
ATOM     10  C   UNL     1      11.923  -4.404  21.592  1.00  0.00     0.041 C 
ATOM     11  O   UNL     1      11.543  -4.724  22.748  1.00  0.00    -0.550 OA
ATOM     12  O   UNL     1      12.767  -3.314  21.421  1.00  0.00    -0.550 OA
ENDBRANCH   9  10
ENDBRANCH   8   9
ENDBRANCH   7   8
ENDBRANCH   6   7
ENDBRANCH   5   6
ENDBRANCH   4   5
ENDBRANCH   3   4
ENDBRANCH   1   3
BRANCH   2  13
ATOM     13  C   UNL     1      13.166  -3.910  14.548  1.00  0.00     0.027 C 
BRANCH  13  14
ATOM     14  C   UNL     1      14.112  -3.738  13.346  1.00  0.00     0.004 C 
BRANCH  14  15
ATOM     15  C   UNL     1      13.434  -3.855  11.968  1.00  0.00     0.000 C 
BRANCH  15  16
ATOM     16  C   UNL     1      14.439  -3.894  10.805  1.00  0.00     0.000 C 
BRANCH  16  17
ATOM     17  C   UNL     1      13.898  -4.683   9.592  1.00  0.00    -0.000 C 
BRANCH  17  18
ATOM     18  C   UNL     1      14.405  -4.154   8.238  1.00  0.00    -0.000 C 
BRANCH  18  19
ATOM     19  C   UNL     1      14.460  -2.621   8.127  1.00  0.00    -0.003 C 
ATOM     20  C   UNL     1      13.072  -1.983   8.054  1.00  0.00     0.004 C 
ENDBRANCH  18  19
ENDBRANCH  17  18
ENDBRANCH  16  17
ENDBRANCH  15  16
ENDBRANCH  14  15
ENDBRANCH  13  14
ENDBRANCH   2  13
TORSDOF 15
ENDMDL
MODEL 5
REMARK VINA RESULT:    -5.354      1.623      3.358
REMARK INTER + INTRA:         -11.709
REMARK INTER:                 -10.061
REMARK INTRA:                  -1.648
REMARK UNBOUND:                -1.661
REMARK SMILES CCCCCCCCC=CCCCCCCCC(=O)[O-]
REMARK SMILES IDX 10 1 9 2 11 3 12 4 13 5 14 6 15 7 16 8 17 9 18 10 19 11
REMARK SMILES IDX 20 12 8 13 7 14 6 15 5 16 4 17 3 18 2 19 1 20
REMARK H PARENT
REMARK Flexibility Score: inf
ROOT
ATOM      1  C   UNL     1       8.498  -3.752  14.990  1.00  0.00    -0.031 C 
ATOM      2  C   UNL     1       9.289  -2.678  14.802  1.00  0.00    -0.031 C 
ENDROOT
BRANCH   1   3
ATOM      3  C   UNL     1       8.768  -5.138  14.459  1.00  0.00     0.027 C 
BRANCH   3   4
ATOM      4  C   UNL     1       9.085  -6.125  15.590  1.00  0.00     0.004 C 
BRANCH   4   5
ATOM      5  C   UNL     1      10.556  -6.016  16.016  1.00  0.00     0.000 C 
BRANCH   5   6
ATOM      6  C   UNL     1      10.734  -5.262  17.344  1.00  0.00     0.000 C 
BRANCH   6   7
ATOM      7  C   UNL     1      12.187  -5.267  17.839  1.00  0.00     0.000 C 
BRANCH   7   8
ATOM      8  C   UNL     1      12.388  -4.237  18.962  1.00  0.00     0.006 C 
BRANCH   8   9
ATOM      9  C   UNL     1      11.965  -4.783  20.332  1.00  0.00     0.053 C 
BRANCH   9  10
ATOM     10  C   UNL     1      12.484  -3.933  21.452  1.00  0.00     0.041 C 
ATOM     11  O   UNL     1      13.006  -2.814  21.210  1.00  0.00    -0.550 OA
ATOM     12  O   UNL     1      12.419  -4.394  22.761  1.00  0.00    -0.550 OA
ENDBRANCH   9  10
ENDBRANCH   8   9
ENDBRANCH   7   8
ENDBRANCH   6   7
ENDBRANCH   5   6
ENDBRANCH   4   5
ENDBRANCH   3   4
ENDBRANCH   1   3
BRANCH   2  13
ATOM     13  C   UNL     1      10.602  -2.677  14.054  1.00  0.00     0.027 C 
BRANCH  13  14
ATOM     14  C   UNL     1      11.808  -2.732  15.009  1.00  0.00     0.004 C 
BRANCH  14  15
ATOM     15  C   UNL     1      13.089  -3.329  14.397  1.00  0.00     0.000 C 
BRANCH  15  16
ATOM     16  C   UNL     1      12.834  -4.073  13.076  1.00  0.00     0.000 C 
BRANCH  16  17
ATOM     17  C   UNL     1      13.909  -3.760  12.012  1.00  0.00    -0.000 C 
BRANCH  17  18
ATOM     18  C   UNL     1      13.532  -4.239  10.597  1.00  0.00    -0.000 C 
BRANCH  18  19
ATOM     19  C   UNL     1      13.526  -3.135   9.526  1.00  0.00    -0.003 C 
ATOM     20  C   UNL     1      14.339  -3.509   8.286  1.00  0.00     0.004 C 
ENDBRANCH  18  19
ENDBRANCH  17  18
ENDBRANCH  16  17
ENDBRANCH  15  16
ENDBRANCH  14  15
ENDBRANCH  13  14
ENDBRANCH   2  13
TORSDOF 15
ENDMDL
MODEL 6
REMARK VINA RESULT:    -5.330      3.442      7.960
REMARK INTER + INTRA:         -11.664
REMARK INTER:                 -10.192
REMARK INTRA:                  -1.472
REMARK UNBOUND:                -1.661
REMARK SMILES CCCCCCCCC=CCCCCCCCC(=O)[O-]
REMARK SMILES IDX 10 1 9 2 11 3 12 4 13 5 14 6 15 7 16 8 17 9 18 10 19 11
REMARK SMILES IDX 20 12 8 13 7 14 6 15 5 16 4 17 3 18 2 19 1 20
REMARK H PARENT
REMARK Flexibility Score: inf
ROOT
ATOM      1  C   UNL     1       9.459  -2.694  14.597  1.00  0.00    -0.031 C 
ATOM      2  C   UNL     1       8.541  -3.573  15.045  1.00  0.00    -0.031 C 
ENDROOT
BRANCH   1   3
ATOM      3  C   UNL     1      10.771  -3.058  13.947  1.00  0.00     0.027 C 
BRANCH   3   4
ATOM      4  C   UNL     1      11.963  -2.717  14.851  1.00  0.00     0.004 C 
BRANCH   4   5
ATOM      5  C   UNL     1      13.214  -3.500  14.429  1.00  0.00     0.000 C 
BRANCH   5   6
ATOM      6  C   UNL     1      13.190  -3.898  12.944  1.00  0.00     0.000 C 
BRANCH   6   7
ATOM      7  C   UNL     1      14.581  -3.847  12.294  1.00  0.00     0.000 C 
BRANCH   7   8
ATOM      8  C   UNL     1      14.487  -4.075  10.777  1.00  0.00     0.006 C 
BRANCH   8   9
ATOM      9  C   UNL     1      13.259  -3.390  10.163  1.00  0.00     0.053 C 
BRANCH   9  10
ATOM     10  C   UNL     1      13.474  -3.059   8.717  1.00  0.00     0.041 C 
ATOM     11  O   UNL     1      13.068  -1.963   8.251  1.00  0.00    -0.550 OA
ATOM     12  O   UNL     1      14.097  -3.975   7.879  1.00  0.00    -0.550 OA
ENDBRANCH   9  10
ENDBRANCH   8   9
ENDBRANCH   7   8
ENDBRANCH   6   7
ENDBRANCH   5   6
ENDBRANCH   4   5
ENDBRANCH   3   4
ENDBRANCH   1   3
BRANCH   2  13
ATOM     13  C   UNL     1       8.649  -5.078  14.949  1.00  0.00     0.027 C 
BRANCH  13  14
ATOM     14  C   UNL     1       9.674  -5.645  15.947  1.00  0.00     0.004 C 
BRANCH  14  15
ATOM     15  C   UNL     1       9.681  -4.960  17.326  1.00  0.00     0.000 C 
BRANCH  15  16
ATOM     16  C   UNL     1      11.074  -4.462  17.744  1.00  0.00     0.000 C 
BRANCH  16  17
ATOM     17  C   UNL     1      12.067  -5.625  17.967  1.00  0.00    -0.000 C 
BRANCH  17  18
ATOM     18  C   UNL     1      12.500  -5.792  19.436  1.00  0.00    -0.000 C 
BRANCH  18  19
ATOM     19  C   UNL     1      11.644  -5.013  20.450  1.00  0.00    -0.003 C 
ATOM     20  C   UNL     1      12.423  -3.897  21.147  1.00  0.00     0.004 C 
ENDBRANCH  18  19
ENDBRANCH  17  18
ENDBRANCH  16  17
ENDBRANCH  15  16
ENDBRANCH  14  15
ENDBRANCH  13  14
ENDBRANCH   2  13
TORSDOF 15
ENDMDL
MODEL 7
REMARK VINA RESULT:    -5.245      2.601      4.374
REMARK INTER + INTRA:         -11.505
REMARK INTER:                 -10.335
REMARK INTRA:                  -1.171
REMARK UNBOUND:                -1.661
REMARK SMILES CCCCCCCCC=CCCCCCCCC(=O)[O-]
REMARK SMILES IDX 10 1 9 2 11 3 12 4 13 5 14 6 15 7 16 8 17 9 18 10 19 11
REMARK SMILES IDX 20 12 8 13 7 14 6 15 5 16 4 17 3 18 2 19 1 20
REMARK H PARENT
REMARK Flexibility Score: inf
ROOT
ATOM      1  C   UNL     1       8.682  -4.164  15.713  1.00  0.00    -0.031 C 
ATOM      2  C   UNL     1       8.617  -4.660  14.462  1.00  0.00    -0.031 C 
ENDROOT
BRANCH   1   3
ATOM      3  C   UNL     1       9.349  -4.840  16.886  1.00  0.00     0.027 C 
BRANCH   3   4
ATOM      4  C   UNL     1      10.668  -4.152  17.260  1.00  0.00     0.004 C 
BRANCH   4   5
ATOM      5  C   UNL     1      11.830  -5.155  17.259  1.00  0.00     0.000 C 
BRANCH   5   6
ATOM      6  C   UNL     1      12.060  -5.797  18.637  1.00  0.00     0.000 C 
BRANCH   6   7
ATOM      7  C   UNL     1      11.446  -4.979  19.782  1.00  0.00     0.000 C 
BRANCH   7   8
ATOM      8  C   UNL     1      12.073  -5.366  21.130  1.00  0.00     0.006 C 
BRANCH   8   9
ATOM      9  C   UNL     1      12.478  -4.138  21.956  1.00  0.00     0.053 C 
BRANCH   9  10
ATOM     10  C   UNL     1      12.359  -4.394  23.427  1.00  0.00     0.041 C 
ATOM     11  O   UNL     1      12.699  -3.508  24.254  1.00  0.00    -0.550 OA
ATOM     12  O   UNL     1      11.901  -5.623  23.884  1.00  0.00    -0.550 OA
ENDBRANCH   9  10
ENDBRANCH   8   9
ENDBRANCH   7   8
ENDBRANCH   6   7
ENDBRANCH   5   6
ENDBRANCH   4   5
ENDBRANCH   3   4
ENDBRANCH   1   3
BRANCH   2  13
ATOM     13  C   UNL     1       9.227  -5.965  14.004  1.00  0.00     0.027 C 
BRANCH  13  14
ATOM     14  C   UNL     1      10.413  -5.742  13.048  1.00  0.00     0.004 C 
BRANCH  14  15
ATOM     15  C   UNL     1      11.572  -4.918  13.640  1.00  0.00     0.000 C 
BRANCH  15  16
ATOM     16  C   UNL     1      11.938  -3.695  12.784  1.00  0.00     0.000 C 
BRANCH  16  17
ATOM     17  C   UNL     1      13.297  -3.865  12.071  1.00  0.00    -0.000 C 
BRANCH  17  18
ATOM     18  C   UNL     1      13.228  -3.634  10.550  1.00  0.00    -0.000 C 
BRANCH  18  19
ATOM     19  C   UNL     1      14.193  -4.501   9.724  1.00  0.00    -0.003 C 
ATOM     20  C   UNL     1      14.185  -4.143   8.237  1.00  0.00     0.004 C 
ENDBRANCH  18  19
ENDBRANCH  17  18
ENDBRANCH  16  17
ENDBRANCH  15  16
ENDBRANCH  14  15
ENDBRANCH  13  14
ENDBRANCH   2  13
TORSDOF 15
ENDMDL
MODEL 8
REMARK VINA RESULT:    -5.090      3.110      5.298
REMARK INTER + INTRA:         -11.214
REMARK INTER:                  -9.558
REMARK INTRA:                  -1.656
REMARK UNBOUND:                -1.661
REMARK SMILES CCCCCCCCC=CCCCCCCCC(=O)[O-]
REMARK SMILES IDX 10 1 9 2 11 3 12 4 13 5 14 6 15 7 16 8 17 9 18 10 19 11
REMARK SMILES IDX 20 12 8 13 7 14 6 15 5 16 4 17 3 18 2 19 1 20
REMARK H PARENT
REMARK Flexibility Score: inf
ROOT
ATOM      1  C   UNL     1       9.640  -3.546  16.117  1.00  0.00    -0.031 C 
ATOM      2  C   UNL     1       8.903  -3.956  15.066  1.00  0.00    -0.031 C 
ENDROOT
BRANCH   1   3
ATOM      3  C   UNL     1      10.150  -4.436  17.225  1.00  0.00     0.027 C 
BRANCH   3   4
ATOM      4  C   UNL     1      11.664  -4.286  17.418  1.00  0.00     0.004 C 
BRANCH   4   5
ATOM      5  C   UNL     1      12.283  -5.593  17.933  1.00  0.00     0.000 C 
BRANCH   5   6
ATOM      6  C   UNL     1      12.250  -5.700  19.467  1.00  0.00     0.000 C 
BRANCH   6   7
ATOM      7  C   UNL     1      12.439  -4.343  20.161  1.00  0.00     0.000 C 
BRANCH   7   8
ATOM      8  C   UNL     1      11.858  -4.369  21.583  1.00  0.00     0.006 C 
BRANCH   8   9
ATOM      9  C   UNL     1      12.472  -5.483  22.441  1.00  0.00     0.053 C 
BRANCH   9  10
ATOM     10  C   UNL     1      12.793  -5.005  23.824  1.00  0.00     0.041 C 
ATOM     11  O   UNL     1      13.128  -5.826  24.717  1.00  0.00    -0.550 OA
ATOM     12  O   UNL     1      12.692  -3.654  24.134  1.00  0.00    -0.550 OA
ENDBRANCH   9  10
ENDBRANCH   8   9
ENDBRANCH   7   8
ENDBRANCH   6   7
ENDBRANCH   5   6
ENDBRANCH   4   5
ENDBRANCH   3   4
ENDBRANCH   1   3
BRANCH   2  13
ATOM     13  C   UNL     1       8.483  -5.382  14.793  1.00  0.00     0.027 C 
BRANCH  13  14
ATOM     14  C   UNL     1       9.383  -6.055  13.742  1.00  0.00     0.004 C 
BRANCH  14  15
ATOM     15  C   UNL     1      10.846  -5.576  13.743  1.00  0.00     0.000 C 
BRANCH  15  16
ATOM     16  C   UNL     1      11.286  -4.984  12.393  1.00  0.00     0.000 C 
BRANCH  16  17
ATOM     17  C   UNL     1      12.384  -3.910  12.556  1.00  0.00    -0.000 C 
BRANCH  17  18
ATOM     18  C   UNL     1      12.386  -3.235  13.940  1.00  0.00    -0.000 C 
BRANCH  18  19
ATOM     19  C   UNL     1      13.774  -3.105  14.589  1.00  0.00    -0.003 C 
ATOM     20  C   UNL     1      14.837  -3.949  13.887  1.00  0.00     0.004 C 
ENDBRANCH  18  19
ENDBRANCH  17  18
ENDBRANCH  16  17
ENDBRANCH  15  16
ENDBRANCH  14  15
ENDBRANCH  13  14
ENDBRANCH   2  13
TORSDOF 15
ENDMDL
