MODEL 1
REMARK VINA RESULT:    13.402      0.000      0.000
REMARK INTER + INTRA:          17.467
REMARK INTER:                  16.535
REMARK INTRA:                   0.932
REMARK UNBOUND:                 0.932
REMARK SMILES C=C1CC[C@@H]2[C@H]1[C@H]1[C@H](CC[C@H]2C)C1(C)C
REMARK SMILES IDX 6 1 5 2 4 3 3 4 2 5 1 6 11 7 12 8 10 9 7 11 8 12 13 13 14 14
REMARK SMILES IDX 15 15 9 16
REMARK H PARENT
REMARK Flexibility Score: 80.00
ROOT
ATOM      1  C   UNL     1     134.973 138.697 163.473  1.00  0.00     0.022 C 
ATOM      2  C   UNL     1     135.092 137.917 162.109  1.00  0.00    -0.000 C 
ATOM      3  C   UNL     1     135.198 139.032 161.036  1.00  0.00     0.009 C 
ATOM      4  C   UNL     1     135.662 140.307 161.729  1.00  0.00     0.031 C 
ATOM      5  C   UNL     1     135.248 140.126 163.141  1.00  0.00    -0.074 C 
ATOM      6  C   UNL     1     134.875 141.151 163.918  1.00  0.00     0.008 C 
ENDROOT
BRANCH   2   7
ATOM      7  C   UNL     1     136.217 136.824 161.868  1.00  0.00    -0.011 C 
ATOM      8  C   UNL     1     135.839 135.950 160.652  1.00  0.00     0.008 C 
BRANCH   7   9
ATOM      9  C   UNL     1     136.497 135.875 163.071  1.00  0.00     0.004 CG0
ATOM     10  G   UNL     1     137.503 136.454 164.091  1.00  0.00     0.000 G0
ENDBRANCH   7   9
ENDBRANCH   2   7
BRANCH   1  11
ATOM     11  C   UNL     1     135.725 138.098 164.688  1.00  0.00     0.006 C 
ATOM     12  C   UNL     1     137.215 137.936 164.330  1.00  0.00    -0.001 C 
ATOM     13  C   UNL     1     136.828 138.617 165.635  1.00  0.00    -0.029 C 
ATOM     14  C   UNL     1     137.072 137.808 166.918  1.00  0.00     0.012 C 
ATOM     15  C   UNL     1     137.191 140.106 165.706  1.00  0.00     0.012 C 
BRANCH  12  16
ATOM     16  C   UNL     1     137.482 136.448 164.112  1.00  0.00     0.005 CG0
ATOM     17  G   UNL     1     136.474 135.864 163.096  1.00  0.00     0.000 G0
ENDBRANCH  12  16
ENDBRANCH   1  11
TORSDOF 0
ENDMDL
MODEL 2
REMARK VINA RESULT:    15.975     21.778     23.304
REMARK INTER + INTRA:          20.642
REMARK INTER:                  20.179
REMARK INTRA:                   0.463
REMARK UNBOUND:                 0.932
REMARK SMILES C=C1CC[C@@H]2[C@H]1[C@H]1[C@H](CC[C@H]2C)C1(C)C
REMARK SMILES IDX 6 1 5 2 4 3 3 4 2 5 1 6 11 7 12 8 10 9 7 11 8 12 13 13 14 14
REMARK SMILES IDX 15 15 9 16
REMARK H PARENT
REMARK Flexibility Score: 80.00
ROOT
ATOM      1  C   UNL     1     155.124 151.794 163.850  1.00  0.00     0.022 C 
ATOM      2  C   UNL     1     154.843 152.392 162.419  1.00  0.00    -0.000 C 
ATOM      3  C   UNL     1     154.459 151.161 161.557  1.00  0.00     0.009 C 
ATOM      4  C   UNL     1     154.011 150.050 162.498  1.00  0.00     0.031 C 
ATOM      5  C   UNL     1     154.673 150.373 163.784  1.00  0.00    -0.074 C 
ATOM      6  C   UNL     1     155.082 149.427 164.640  1.00  0.00     0.008 C 
ENDROOT
BRANCH   2   7
ATOM      7  C   UNL     1     153.794 153.560 162.194  1.00  0.00    -0.011 C 
ATOM      8  C   UNL     1     153.842 154.024 160.722  1.00  0.00     0.008 C 
BRANCH   7   9
ATOM      9  C   UNL     1     153.984 154.815 163.097  1.00  0.00     0.004 CG0
ATOM     10  G   UNL     1     153.321 154.680 164.487  1.00  0.00     0.000 G0
ENDBRANCH   7   9
ENDBRANCH   2   7
BRANCH   1  11
ATOM     11  C   UNL     1     154.646 152.631 165.062  1.00  0.00     0.006 C 
ATOM     12  C   UNL     1     153.217 153.141 164.792  1.00  0.00    -0.001 C 
ATOM     13  C   UNL     1     153.531 152.461 166.116  1.00  0.00    -0.029 C 
ATOM     14  C   UNL     1     153.600 153.378 167.347  1.00  0.00     0.012 C 
ATOM     15  C   UNL     1     152.821 151.118 166.324  1.00  0.00     0.012 C 
BRANCH  12  16
ATOM     16  C   UNL     1     153.308 154.634 164.479  1.00  0.00     0.005 CG0
ATOM     17  G   UNL     1     153.972 154.856 163.101  1.00  0.00     0.000 G0
ENDBRANCH  12  16
ENDBRANCH   1  11
TORSDOF 0
ENDMDL
