MODEL 1
REMARK VINA RESULT:    -3.822      0.000      0.000
REMARK INTER + INTRA:          -5.597
REMARK INTER:                  -5.163
REMARK INTRA:                  -0.434
REMARK UNBOUND:                -0.434
REMARK SMILES CCCCCCCC(=O)[O-]
REMARK SMILES IDX 5 1 6 2 7 3 8 4 9 5 10 6 4 7 3 8 2 9 1 10
REMARK H PARENT
REMARK Flexibility Score: inf
ROOT
ATOM      1  C   UNL     1      55.385  23.832  47.669  1.00  0.00     0.000 C 
ENDROOT
BRANCH   1   2
ATOM      2  C   UNL     1      53.962  23.681  48.220  1.00  0.00     0.006 C 
BRANCH   2   3
ATOM      3  C   UNL     1      53.655  24.771  49.252  1.00  0.00     0.053 C 
BRANCH   3   4
ATOM      4  C   UNL     1      53.621  24.193  50.631  1.00  0.00     0.041 C 
ATOM      5  O   UNL     1      52.548  23.728  51.098  1.00  0.00    -0.550 OA
ATOM      6  O   UNL     1      54.786  24.121  51.383  1.00  0.00    -0.550 OA
ENDBRANCH   3   4
ENDBRANCH   2   3
ENDBRANCH   1   2
BRANCH   1   7
ATOM      7  C   UNL     1      56.377  22.974  48.462  1.00  0.00     0.000 C 
BRANCH   7   8
ATOM      8  C   UNL     1      56.754  21.707  47.686  1.00  0.00    -0.000 C 
BRANCH   8   9
ATOM      9  C   UNL     1      56.448  20.448  48.506  1.00  0.00    -0.003 C 
ATOM     10  C   UNL     1      55.687  20.794  49.784  1.00  0.00     0.004 C 
ENDBRANCH   8   9
ENDBRANCH   7   8
ENDBRANCH   1   7
TORSDOF 6
ENDMDL
MODEL 2
REMARK VINA RESULT:    -3.694      2.456      3.471
REMARK INTER + INTRA:          -5.424
REMARK INTER:                  -5.211
REMARK INTRA:                  -0.213
REMARK UNBOUND:                -0.434
REMARK SMILES CCCCCCCC(=O)[O-]
REMARK SMILES IDX 5 1 6 2 7 3 8 4 9 5 10 6 4 7 3 8 2 9 1 10
REMARK H PARENT
REMARK Flexibility Score: inf
ROOT
ATOM      1  C   UNL     1      55.531  21.955  49.757  1.00  0.00     0.000 C 
ENDROOT
BRANCH   1   2
ATOM      2  C   UNL     1      54.937  21.222  50.966  1.00  0.00     0.006 C 
BRANCH   2   3
ATOM      3  C   UNL     1      55.330  21.914  52.275  1.00  0.00     0.053 C 
BRANCH   3   4
ATOM      4  C   UNL     1      54.358  21.570  53.360  1.00  0.00     0.041 C 
ATOM      5  O   UNL     1      53.151  21.348  53.083  1.00  0.00    -0.550 OA
ATOM      6  O   UNL     1      54.797  21.448  54.672  1.00  0.00    -0.550 OA
ENDBRANCH   3   4
ENDBRANCH   2   3
ENDBRANCH   1   2
BRANCH   1   7
ATOM      7  C   UNL     1      56.156  20.967  48.766  1.00  0.00     0.000 C 
BRANCH   7   8
ATOM      8  C   UNL     1      56.895  21.706  47.644  1.00  0.00    -0.000 C 
BRANCH   8   9
ATOM      9  C   UNL     1      56.536  23.196  47.637  1.00  0.00    -0.003 C 
ATOM     10  C   UNL     1      57.502  23.992  46.761  1.00  0.00     0.004 C 
ENDBRANCH   8   9
ENDBRANCH   7   8
ENDBRANCH   1   7
TORSDOF 6
ENDMDL
MODEL 3
REMARK VINA RESULT:    -3.671      2.020      3.541
REMARK INTER + INTRA:          -5.393
REMARK INTER:                  -5.073
REMARK INTRA:                  -0.320
REMARK UNBOUND:                -0.434
REMARK SMILES CCCCCCCC(=O)[O-]
REMARK SMILES IDX 5 1 6 2 7 3 8 4 9 5 10 6 4 7 3 8 2 9 1 10
REMARK H PARENT
REMARK Flexibility Score: inf
ROOT
ATOM      1  C   UNL     1      56.030  21.672  48.735  1.00  0.00     0.000 C 
ENDROOT
BRANCH   1   2
ATOM      2  C   UNL     1      55.594  20.776  49.900  1.00  0.00     0.006 C 
BRANCH   2   3
ATOM      3  C   UNL     1      54.875  21.590  50.980  1.00  0.00     0.053 C 
BRANCH   3   4
ATOM      4  C   UNL     1      55.842  22.033  52.033  1.00  0.00     0.041 C 
ATOM      5  O   UNL     1      56.373  23.172  51.967  1.00  0.00    -0.550 OA
ATOM      6  O   UNL     1      56.120  21.205  53.113  1.00  0.00    -0.550 OA
ENDBRANCH   3   4
ENDBRANCH   2   3
ENDBRANCH   1   2
BRANCH   1   7
ATOM      7  C   UNL     1      55.099  22.881  48.591  1.00  0.00     0.000 C 
BRANCH   7   8
ATOM      8  C   UNL     1      55.695  23.926  47.641  1.00  0.00    -0.000 C 
BRANCH   8   9
ATOM      9  C   UNL     1      57.137  23.568  47.265  1.00  0.00    -0.003 C 
ATOM     10  C   UNL     1      57.796  24.694  46.472  1.00  0.00     0.004 C 
ENDBRANCH   8   9
ENDBRANCH   7   8
ENDBRANCH   1   7
TORSDOF 6
ENDMDL
MODEL 4
REMARK VINA RESULT:    -3.670      1.969      3.560
REMARK INTER + INTRA:          -5.391
REMARK INTER:                  -5.048
REMARK INTRA:                  -0.343
REMARK UNBOUND:                -0.434
REMARK SMILES CCCCCCCC(=O)[O-]
REMARK SMILES IDX 5 1 6 2 7 3 8 4 9 5 10 6 4 7 3 8 2 9 1 10
REMARK H PARENT
REMARK Flexibility Score: inf
ROOT
ATOM      1  C   UNL     1      56.425  21.778  48.330  1.00  0.00     0.000 C 
ENDROOT
BRANCH   1   2
ATOM      2  C   UNL     1      55.343  22.115  49.362  1.00  0.00     0.006 C 
BRANCH   2   3
ATOM      3  C   UNL     1      55.175  20.977  50.373  1.00  0.00     0.053 C 
BRANCH   3   4
ATOM      4  C   UNL     1      55.215  21.508  51.771  1.00  0.00     0.041 C 
ATOM      5  O   UNL     1      56.219  22.149  52.178  1.00  0.00    -0.550 OA
ATOM      6  O   UNL     1      54.121  21.338  52.611  1.00  0.00    -0.550 OA
ENDBRANCH   3   4
ENDBRANCH   2   3
ENDBRANCH   1   2
BRANCH   1   7
ATOM      7  C   UNL     1      56.824  23.020  47.525  1.00  0.00     0.000 C 
BRANCH   7   8
ATOM      8  C   UNL     1      56.107  24.270  48.047  1.00  0.00    -0.000 C 
BRANCH   8   9
ATOM      9  C   UNL     1      55.378  25.000  46.913  1.00  0.00    -0.003 C 
ATOM     10  C   UNL     1      53.871  24.762  46.984  1.00  0.00     0.004 C 
ENDBRANCH   8   9
ENDBRANCH   7   8
ENDBRANCH   1   7
TORSDOF 6
ENDMDL
MODEL 5
REMARK VINA RESULT:    -3.645      2.363      3.592
REMARK INTER + INTRA:          -5.358
REMARK INTER:                  -5.053
REMARK INTRA:                  -0.305
REMARK UNBOUND:                -0.434
REMARK SMILES CCCCCCCC(=O)[O-]
REMARK SMILES IDX 5 1 6 2 7 3 8 4 9 5 10 6 4 7 3 8 2 9 1 10
REMARK H PARENT
REMARK Flexibility Score: inf
ROOT
ATOM      1  C   UNL     1      55.634  20.582  49.954  1.00  0.00     0.000 C 
ENDROOT
BRANCH   1   2
ATOM      2  C   UNL     1      54.804  21.748  50.503  1.00  0.00     0.006 C 
BRANCH   2   3
ATOM      3  C   UNL     1      54.789  21.739  52.035  1.00  0.00     0.053 C 
BRANCH   3   4
ATOM      4  C   UNL     1      56.155  22.027  52.573  1.00  0.00     0.041 C 
ATOM      5  O   UNL     1      56.791  21.138  53.199  1.00  0.00    -0.550 OA
ATOM      6  O   UNL     1      56.747  23.262  52.342  1.00  0.00    -0.550 OA
ENDBRANCH   3   4
ENDBRANCH   2   3
ENDBRANCH   1   2
BRANCH   1   7
ATOM      7  C   UNL     1      56.280  20.948  48.613  1.00  0.00     0.000 C 
BRANCH   7   8
ATOM      8  C   UNL     1      56.192  22.456  48.352  1.00  0.00    -0.000 C 
BRANCH   8   9
ATOM      9  C   UNL     1      57.102  22.866  47.188  1.00  0.00    -0.003 C 
ATOM     10  C   UNL     1      57.375  24.369  47.205  1.00  0.00     0.004 C 
ENDBRANCH   8   9
ENDBRANCH   7   8
ENDBRANCH   1   7
TORSDOF 6
ENDMDL
MODEL 6
REMARK VINA RESULT:    -3.586      2.414      3.378
REMARK INTER + INTRA:          -5.277
REMARK INTER:                  -4.825
REMARK INTRA:                  -0.452
REMARK UNBOUND:                -0.434
REMARK SMILES CCCCCCCC(=O)[O-]
REMARK SMILES IDX 5 1 6 2 7 3 8 4 9 5 10 6 4 7 3 8 2 9 1 10
REMARK H PARENT
REMARK Flexibility Score: inf
ROOT
ATOM      1  C   UNL     1      54.132  23.311  48.511  1.00  0.00     0.000 C 
ENDROOT
BRANCH   1   2
ATOM      2  C   UNL     1      54.518  24.765  48.213  1.00  0.00     0.006 C 
BRANCH   2   3
ATOM      3  C   UNL     1      55.404  24.853  46.967  1.00  0.00     0.053 C 
BRANCH   3   4
ATOM      4  C   UNL     1      56.836  24.607  47.324  1.00  0.00     0.041 C 
ATOM      5  O   UNL     1      57.645  24.194  46.453  1.00  0.00    -0.550 OA
ATOM      6  O   UNL     1      57.289  24.881  48.609  1.00  0.00    -0.550 OA
ENDBRANCH   3   4
ENDBRANCH   2   3
ENDBRANCH   1   2
BRANCH   1   7
ATOM      7  C   UNL     1      54.395  22.961  49.980  1.00  0.00     0.000 C 
BRANCH   7   8
ATOM      8  C   UNL     1      55.238  21.687  50.101  1.00  0.00    -0.000 C 
BRANCH   8   9
ATOM      9  C   UNL     1      56.006  21.411  48.804  1.00  0.00    -0.003 C 
ATOM     10  C   UNL     1      56.320  19.924  48.655  1.00  0.00     0.004 C 
ENDBRANCH   8   9
ENDBRANCH   7   8
ENDBRANCH   1   7
TORSDOF 6
ENDMDL
MODEL 7
REMARK VINA RESULT:    -3.554      2.230      4.229
REMARK INTER + INTRA:          -5.234
REMARK INTER:                  -4.794
REMARK INTRA:                  -0.440
REMARK UNBOUND:                -0.434
REMARK SMILES CCCCCCCC(=O)[O-]
REMARK SMILES IDX 5 1 6 2 7 3 8 4 9 5 10 6 4 7 3 8 2 9 1 10
REMARK H PARENT
REMARK Flexibility Score: inf
ROOT
ATOM      1  C   UNL     1      55.322  23.831  47.697  1.00  0.00     0.000 C 
ENDROOT
BRANCH   1   2
ATOM      2  C   UNL     1      56.358  23.032  48.496  1.00  0.00     0.006 C 
BRANCH   2   3
ATOM      3  C   UNL     1      56.631  21.675  47.839  1.00  0.00     0.053 C 
BRANCH   3   4
ATOM      4  C   UNL     1      56.343  20.563  48.798  1.00  0.00     0.041 C 
ATOM      5  O   UNL     1      56.919  19.451  48.670  1.00  0.00    -0.550 OA
ATOM      6  O   UNL     1      55.475  20.770  49.862  1.00  0.00    -0.550 OA
ENDBRANCH   3   4
ENDBRANCH   2   3
ENDBRANCH   1   2
BRANCH   1   7
ATOM      7  C   UNL     1      53.921  23.673  48.300  1.00  0.00     0.000 C 
BRANCH   7   8
ATOM      8  C   UNL     1      53.655  24.744  49.365  1.00  0.00    -0.000 C 
BRANCH   8   9
ATOM      9  C   UNL     1      53.126  24.113  50.658  1.00  0.00    -0.003 C 
ATOM     10  C   UNL     1      54.272  23.694  51.576  1.00  0.00     0.004 C 
ENDBRANCH   8   9
ENDBRANCH   7   8
ENDBRANCH   1   7
TORSDOF 6
ENDMDL
MODEL 8
REMARK VINA RESULT:    -3.504      2.596      4.196
REMARK INTER + INTRA:          -5.168
REMARK INTER:                  -4.935
REMARK INTRA:                  -0.233
REMARK UNBOUND:                -0.434
REMARK SMILES CCCCCCCC(=O)[O-]
REMARK SMILES IDX 5 1 6 2 7 3 8 4 9 5 10 6 4 7 3 8 2 9 1 10
REMARK H PARENT
REMARK Flexibility Score: inf
ROOT
ATOM      1  C   UNL     1      55.420  21.132  49.897  1.00  0.00     0.000 C 
ENDROOT
BRANCH   1   2
ATOM      2  C   UNL     1      54.879  21.378  51.310  1.00  0.00     0.006 C 
BRANCH   2   3
ATOM      3  C   UNL     1      55.997  21.823  52.257  1.00  0.00     0.053 C 
BRANCH   3   4
ATOM      4  C   UNL     1      55.711  21.371  53.654  1.00  0.00     0.041 C 
ATOM      5  O   UNL     1      56.620  20.850  54.351  1.00  0.00    -0.550 OA
ATOM      6  O   UNL     1      54.451  21.568  54.204  1.00  0.00    -0.550 OA
ENDBRANCH   3   4
ENDBRANCH   2   3
ENDBRANCH   1   2
BRANCH   1   7
ATOM      7  C   UNL     1      55.448  22.431  49.084  1.00  0.00     0.000 C 
BRANCH   7   8
ATOM      8  C   UNL     1      54.156  23.232  49.280  1.00  0.00    -0.000 C 
BRANCH   8   9
ATOM      9  C   UNL     1      53.753  23.951  47.987  1.00  0.00    -0.003 C 
ATOM     10  C   UNL     1      54.980  24.464  47.236  1.00  0.00     0.004 C 
ENDBRANCH   8   9
ENDBRANCH   7   8
ENDBRANCH   1   7
TORSDOF 6
ENDMDL
MODEL 9
REMARK VINA RESULT:    -3.495      1.862      3.090
REMARK INTER + INTRA:          -5.155
REMARK INTER:                  -4.653
REMARK INTRA:                  -0.501
REMARK UNBOUND:                -0.434
REMARK SMILES CCCCCCCC(=O)[O-]
REMARK SMILES IDX 5 1 6 2 7 3 8 4 9 5 10 6 4 7 3 8 2 9 1 10
REMARK H PARENT
REMARK Flexibility Score: inf
ROOT
ATOM      1  C   UNL     1      53.444  24.644  49.523  1.00  0.00     0.000 C 
ENDROOT
BRANCH   1   2
ATOM      2  C   UNL     1      53.314  23.885  50.849  1.00  0.00     0.006 C 
BRANCH   2   3
ATOM      3  C   UNL     1      54.645  23.242  51.246  1.00  0.00     0.053 C 
BRANCH   3   4
ATOM      4  C   UNL     1      54.462  21.781  51.511  1.00  0.00     0.041 C 
ATOM      5  O   UNL     1      54.784  20.932  50.639  1.00  0.00    -0.550 OA
ATOM      6  O   UNL     1      53.980  21.353  52.742  1.00  0.00    -0.550 OA
ENDBRANCH   3   4
ENDBRANCH   2   3
ENDBRANCH   1   2
BRANCH   1   7
ATOM      7  C   UNL     1      53.821  23.695  48.379  1.00  0.00     0.000 C 
BRANCH   7   8
ATOM      8  C   UNL     1      54.593  24.435  47.281  1.00  0.00    -0.000 C 
BRANCH   8   9
ATOM      9  C   UNL     1      56.101  24.192  47.411  1.00  0.00    -0.003 C 
ATOM     10  C   UNL     1      56.389  22.803  47.977  1.00  0.00     0.004 C 
ENDBRANCH   8   9
ENDBRANCH   7   8
ENDBRANCH   1   7
TORSDOF 6
ENDMDL
