MODEL 1
REMARK VINA RESULT:    -5.062      0.000      0.000
REMARK INTER + INTRA:          -5.541
REMARK INTER:                  -5.506
REMARK INTRA:                  -0.035
REMARK UNBOUND:                -0.035
REMARK SMILES O=C([O-])c1ccc(O)cc1
REMARK SMILES IDX 4 1 5 2 10 3 6 4 9 5 7 6 2 7 1 8 3 9 8 10
REMARK H PARENT 8 11
REMARK Flexibility Score: inf
ROOT
ATOM      1  C   UNL     1     -32.965  11.491 -36.142  1.00  0.00    -0.003 A 
ATOM      2  C   UNL     1     -33.543  12.279 -37.155  1.00  0.00     0.014 A 
ATOM      3  C   UNL     1     -32.291  10.310 -36.499  1.00  0.00     0.014 A 
ATOM      4  C   UNL     1     -33.449  11.890 -38.495  1.00  0.00     0.047 A 
ATOM      5  C   UNL     1     -32.199   9.924 -37.840  1.00  0.00     0.047 A 
ATOM      6  C   UNL     1     -32.778  10.714 -38.841  1.00  0.00     0.115 A 
ENDROOT
BRANCH   1   7
ATOM      7  C   UNL     1     -33.060  11.897 -34.723  1.00  0.00     0.071 C 
ATOM      8  O   UNL     1     -33.953  12.702 -34.345  1.00  0.00    -0.545 OA
ATOM      9  O   UNL     1     -32.166  11.394 -33.784  1.00  0.00    -0.545 OA
ENDBRANCH   1   7
BRANCH   6  10
ATOM     10  O   UNL     1     -32.693  10.340 -40.180  1.00  0.00    -0.508 OA
ATOM     11  H   UNL     1     -33.384  10.639 -40.858  1.00  0.00     0.293 HD
ENDBRANCH   6  10
TORSDOF 2
ENDMDL
MODEL 2
REMARK VINA RESULT:    -5.057      0.032      1.532
REMARK INTER + INTRA:          -5.535
REMARK INTER:                  -5.501
REMARK INTRA:                  -0.035
REMARK UNBOUND:                -0.035
REMARK SMILES O=C([O-])c1ccc(O)cc1
REMARK SMILES IDX 4 1 5 2 10 3 6 4 9 5 7 6 2 7 1 8 3 9 8 10
REMARK H PARENT 8 11
REMARK Flexibility Score: inf
ROOT
ATOM      1  C   UNL     1     -32.976  11.468 -36.146  1.00  0.00    -0.003 A 
ATOM      2  C   UNL     1     -32.312  10.283 -36.517  1.00  0.00     0.014 A 
ATOM      3  C   UNL     1     -33.557  12.265 -37.148  1.00  0.00     0.014 A 
ATOM      4  C   UNL     1     -32.230   9.909 -37.862  1.00  0.00     0.047 A 
ATOM      5  C   UNL     1     -33.472  11.888 -38.492  1.00  0.00     0.047 A 
ATOM      6  C   UNL     1     -32.809  10.708 -38.852  1.00  0.00     0.115 A 
ENDROOT
BRANCH   1   7
ATOM      7  C   UNL     1     -33.067  11.869 -34.726  1.00  0.00     0.071 C 
ATOM      8  O   UNL     1     -33.967  12.663 -34.339  1.00  0.00    -0.545 OA
ATOM      9  O   UNL     1     -32.160  11.375 -33.795  1.00  0.00    -0.545 OA
ENDBRANCH   1   7
BRANCH   6  10
ATOM     10  O   UNL     1     -32.719  10.321 -40.187  1.00  0.00    -0.508 OA
ATOM     11  H   UNL     1     -33.132   9.456 -40.516  1.00  0.00     0.293 HD
ENDBRANCH   6  10
TORSDOF 2
ENDMDL
MODEL 3
REMARK VINA RESULT:    -4.967      1.377      4.031
REMARK INTER + INTRA:          -5.437
REMARK INTER:                  -5.401
REMARK INTRA:                  -0.036
REMARK UNBOUND:                -0.035
REMARK SMILES O=C([O-])c1ccc(O)cc1
REMARK SMILES IDX 4 1 5 2 10 3 6 4 9 5 7 6 2 7 1 8 3 9 8 10
REMARK H PARENT 8 11
REMARK Flexibility Score: inf
ROOT
ATOM      1  C   UNL     1     -33.526  11.228 -37.605  1.00  0.00    -0.003 A 
ATOM      2  C   UNL     1     -33.487  12.210 -36.596  1.00  0.00     0.014 A 
ATOM      3  C   UNL     1     -33.239   9.894 -37.268  1.00  0.00     0.014 A 
ATOM      4  C   UNL     1     -33.166  11.860 -35.280  1.00  0.00     0.047 A 
ATOM      5  C   UNL     1     -32.918   9.548 -35.951  1.00  0.00     0.047 A 
ATOM      6  C   UNL     1     -32.881  10.531 -34.955  1.00  0.00     0.115 A 
ENDROOT
BRANCH   1   7
ATOM      7  C   UNL     1     -33.865  11.591 -38.998  1.00  0.00     0.071 C 
ATOM      8  O   UNL     1     -34.266  12.753 -39.279  1.00  0.00    -0.545 OA
ATOM      9  O   UNL     1     -33.744  10.656 -40.019  1.00  0.00    -0.545 OA
ENDBRANCH   1   7
BRANCH   6  10
ATOM     10  O   UNL     1     -32.564  10.199 -33.639  1.00  0.00    -0.508 OA
ATOM     11  H   UNL     1     -32.698  10.857 -32.881  1.00  0.00     0.293 HD
ENDBRANCH   6  10
TORSDOF 2
ENDMDL
MODEL 4
REMARK VINA RESULT:    -4.944      1.346      4.326
REMARK INTER + INTRA:          -5.412
REMARK INTER:                  -5.376
REMARK INTRA:                  -0.036
REMARK UNBOUND:                -0.035
REMARK SMILES O=C([O-])c1ccc(O)cc1
REMARK SMILES IDX 4 1 5 2 10 3 6 4 9 5 7 6 2 7 1 8 3 9 8 10
REMARK H PARENT 8 11
REMARK Flexibility Score: inf
ROOT
ATOM      1  C   UNL     1     -33.473  11.214 -37.629  1.00  0.00    -0.003 A 
ATOM      2  C   UNL     1     -33.055   9.915 -37.278  1.00  0.00     0.014 A 
ATOM      3  C   UNL     1     -33.547  12.199 -36.629  1.00  0.00     0.014 A 
ATOM      4  C   UNL     1     -32.722   9.613 -35.954  1.00  0.00     0.047 A 
ATOM      5  C   UNL     1     -33.213  11.892 -35.305  1.00  0.00     0.047 A 
ATOM      6  C   UNL     1     -32.799  10.598 -34.966  1.00  0.00     0.115 A 
ENDROOT
BRANCH   1   7
ATOM      7  C   UNL     1     -33.827  11.540 -39.027  1.00  0.00     0.071 C 
ATOM      8  O   UNL     1     -33.669  10.690 -39.944  1.00  0.00    -0.545 OA
ATOM      9  O   UNL     1     -34.340  12.791 -39.350  1.00  0.00    -0.545 OA
ENDBRANCH   1   7
BRANCH   6  10
ATOM     10  O   UNL     1     -32.463  10.281 -33.651  1.00  0.00    -0.508 OA
ATOM     11  H   UNL     1     -31.507  10.339 -33.322  1.00  0.00     0.293 HD
ENDBRANCH   6  10
TORSDOF 2
ENDMDL
MODEL 5
REMARK VINA RESULT:    -4.769      1.430      4.500
REMARK INTER + INTRA:          -5.222
REMARK INTER:                  -5.191
REMARK INTRA:                  -0.030
REMARK UNBOUND:                -0.035
REMARK SMILES O=C([O-])c1ccc(O)cc1
REMARK SMILES IDX 4 1 5 2 10 3 6 4 9 5 7 6 2 7 1 8 3 9 8 10
REMARK H PARENT 8 11
REMARK Flexibility Score: inf
ROOT
ATOM      1  C   UNL     1     -33.155  10.917 -36.486  1.00  0.00    -0.003 A 
ATOM      2  C   UNL     1     -32.386  10.097 -35.637  1.00  0.00     0.014 A 
ATOM      3  C   UNL     1     -33.621  12.151 -36.002  1.00  0.00     0.014 A 
ATOM      4  C   UNL     1     -32.094  10.507 -34.332  1.00  0.00     0.047 A 
ATOM      5  C   UNL     1     -33.327  12.558 -34.696  1.00  0.00     0.047 A 
ATOM      6  C   UNL     1     -32.562  11.736 -33.859  1.00  0.00     0.115 A 
ENDROOT
BRANCH   1   7
ATOM      7  C   UNL     1     -33.468  10.490 -37.867  1.00  0.00     0.071 C 
ATOM      8  O   UNL     1     -33.247  11.258 -38.841  1.00  0.00    -0.545 OA
ATOM      9  O   UNL     1     -34.008   9.232 -38.110  1.00  0.00    -0.545 OA
ENDBRANCH   1   7
BRANCH   6  10
ATOM     10  O   UNL     1     -32.262  12.130 -32.556  1.00  0.00    -0.508 OA
ATOM     11  H   UNL     1     -32.830  12.810 -32.066  1.00  0.00     0.293 HD
ENDBRANCH   6  10
TORSDOF 2
ENDMDL
MODEL 6
REMARK VINA RESULT:    -4.737      1.310      4.223
REMARK INTER + INTRA:          -5.187
REMARK INTER:                  -5.156
REMARK INTRA:                  -0.031
REMARK UNBOUND:                -0.035
REMARK SMILES O=C([O-])c1ccc(O)cc1
REMARK SMILES IDX 4 1 5 2 10 3 6 4 9 5 7 6 2 7 1 8 3 9 8 10
REMARK H PARENT 8 11
REMARK Flexibility Score: inf
ROOT
ATOM      1  C   UNL     1     -33.228  10.638 -36.850  1.00  0.00    -0.003 A 
ATOM      2  C   UNL     1     -33.610  11.909 -36.380  1.00  0.00     0.014 A 
ATOM      3  C   UNL     1     -32.511   9.783 -35.994  1.00  0.00     0.014 A 
ATOM      4  C   UNL     1     -33.279  12.313 -35.082  1.00  0.00     0.047 A 
ATOM      5  C   UNL     1     -32.182  10.191 -34.697  1.00  0.00     0.047 A 
ATOM      6  C   UNL     1     -32.566  11.457 -34.239  1.00  0.00     0.115 A 
ENDROOT
BRANCH   1   7
ATOM      7  C   UNL     1     -33.575  10.204 -38.220  1.00  0.00     0.071 C 
ATOM      8  O   UNL     1     -34.066   9.062 -38.427  1.00  0.00    -0.545 OA
ATOM      9  O   UNL     1     -33.366  11.052 -39.302  1.00  0.00    -0.545 OA
ENDBRANCH   1   7
BRANCH   6  10
ATOM     10  O   UNL     1     -32.244  11.874 -32.949  1.00  0.00    -0.508 OA
ATOM     11  H   UNL     1     -32.392  12.830 -32.650  1.00  0.00     0.293 HD
ENDBRANCH   6  10
TORSDOF 2
ENDMDL
MODEL 7
REMARK VINA RESULT:    -4.711      2.424      2.905
REMARK INTER + INTRA:          -5.159
REMARK INTER:                  -5.132
REMARK INTRA:                  -0.027
REMARK UNBOUND:                -0.035
REMARK SMILES O=C([O-])c1ccc(O)cc1
REMARK SMILES IDX 4 1 5 2 10 3 6 4 9 5 7 6 2 7 1 8 3 9 8 10
REMARK H PARENT 8 11
REMARK Flexibility Score: inf
ROOT
ATOM      1  C   UNL     1     -32.444  12.154 -33.735  1.00  0.00    -0.003 A 
ATOM      2  C   UNL     1     -33.402  12.604 -34.664  1.00  0.00     0.014 A 
ATOM      3  C   UNL     1     -31.900  10.867 -33.889  1.00  0.00     0.014 A 
ATOM      4  C   UNL     1     -33.806  11.781 -35.720  1.00  0.00     0.047 A 
ATOM      5  C   UNL     1     -32.306  10.046 -34.946  1.00  0.00     0.047 A 
ATOM      6  C   UNL     1     -33.260  10.503 -35.865  1.00  0.00     0.115 A 
ENDROOT
BRANCH   1   7
ATOM      7  C   UNL     1     -32.013  13.019 -32.616  1.00  0.00     0.071 C 
ATOM      8  O   UNL     1     -31.124  13.895 -32.789  1.00  0.00    -0.545 OA
ATOM      9  O   UNL     1     -32.585  12.879 -31.357  1.00  0.00    -0.545 OA
ENDBRANCH   1   7
BRANCH   6  10
ATOM     10  O   UNL     1     -33.671   9.695 -36.923  1.00  0.00    -0.508 OA
ATOM     11  H   UNL     1     -33.004   9.280 -37.562  1.00  0.00     0.293 HD
ENDBRANCH   6  10
TORSDOF 2
ENDMDL
MODEL 8
REMARK VINA RESULT:    -4.706      1.642      2.103
REMARK INTER + INTRA:          -5.153
REMARK INTER:                  -5.119
REMARK INTRA:                  -0.034
REMARK UNBOUND:                -0.035
REMARK SMILES O=C([O-])c1ccc(O)cc1
REMARK SMILES IDX 4 1 5 2 10 3 6 4 9 5 7 6 2 7 1 8 3 9 8 10
REMARK H PARENT 8 11
REMARK Flexibility Score: inf
ROOT
ATOM      1  C   UNL     1     -32.989  10.789 -36.700  1.00  0.00    -0.003 A 
ATOM      2  C   UNL     1     -33.130  12.190 -36.727  1.00  0.00     0.014 A 
ATOM      3  C   UNL     1     -33.411  10.040 -37.812  1.00  0.00     0.014 A 
ATOM      4  C   UNL     1     -33.683  12.824 -37.844  1.00  0.00     0.047 A 
ATOM      5  C   UNL     1     -33.965  10.678 -38.928  1.00  0.00     0.047 A 
ATOM      6  C   UNL     1     -34.102  12.072 -38.945  1.00  0.00     0.115 A 
ENDROOT
BRANCH   1   7
ATOM      7  C   UNL     1     -32.404  10.113 -35.522  1.00  0.00     0.071 C 
ATOM      8  O   UNL     1     -32.473  10.640 -34.380  1.00  0.00    -0.545 OA
ATOM      9  O   UNL     1     -31.771   8.883 -35.659  1.00  0.00    -0.545 OA
ENDBRANCH   1   7
BRANCH   6  10
ATOM     10  O   UNL     1     -34.651  12.718 -40.051  1.00  0.00    -0.508 OA
ATOM     11  H   UNL     1     -34.162  13.472 -40.519  1.00  0.00     0.293 HD
ENDBRANCH   6  10
TORSDOF 2
ENDMDL
MODEL 9
REMARK VINA RESULT:    -4.323      1.490      2.570
REMARK INTER + INTRA:          -4.737
REMARK INTER:                  -4.705
REMARK INTRA:                  -0.031
REMARK UNBOUND:                -0.035
REMARK SMILES O=C([O-])c1ccc(O)cc1
REMARK SMILES IDX 4 1 5 2 10 3 6 4 9 5 7 6 2 7 1 8 3 9 8 10
REMARK H PARENT 8 11
REMARK Flexibility Score: inf
ROOT
ATOM      1  C   UNL     1     -32.761  11.684 -34.694  1.00  0.00    -0.003 A 
ATOM      2  C   UNL     1     -32.149  10.428 -34.523  1.00  0.00     0.014 A 
ATOM      3  C   UNL     1     -33.309  12.010 -35.947  1.00  0.00     0.014 A 
ATOM      4  C   UNL     1     -32.088   9.520 -35.586  1.00  0.00     0.047 A 
ATOM      5  C   UNL     1     -33.245  11.100 -37.007  1.00  0.00     0.047 A 
ATOM      6  C   UNL     1     -32.634   9.853 -36.828  1.00  0.00     0.115 A 
ENDROOT
BRANCH   1   7
ATOM      7  C   UNL     1     -32.830  12.648 -33.575  1.00  0.00     0.071 C 
ATOM      8  O   UNL     1     -31.827  12.848 -32.838  1.00  0.00    -0.545 OA
ATOM      9  O   UNL     1     -34.003  13.350 -33.320  1.00  0.00    -0.545 OA
ENDBRANCH   1   7
BRANCH   6  10
ATOM     10  O   UNL     1     -32.566   8.938 -37.877  1.00  0.00    -0.508 OA
ATOM     11  H   UNL     1     -33.285   8.895 -38.589  1.00  0.00     0.293 HD
ENDBRANCH   6  10
TORSDOF 2
ENDMDL
