MODEL 1
REMARK VINA RESULT:    -7.589      0.000      0.000
REMARK INTER + INTRA:          -7.919
REMARK INTER:                  -8.255
REMARK INTRA:                   0.335
REMARK UNBOUND:                 0.335
REMARK SMILES C[C@H]1[C@H](C)CC[C@@]2(C(=O)[O-])CC[C@@]3(C)C(=CC[C@@H]4[C@]5(C)CC[C@@H](O)C(C)(C)[C@H]5CC[C@]43C)[C@H]12
REMARK SMILES IDX 7 1 6 2 11 3 33 4 5 5 12 6 15 7 2 8 3 9 13 10 16 11 1 12
REMARK SMILES IDX 4 13 14 14 31 15 17 16 18 17 30 18 32 19 19 20 29 21 28 22
REMARK SMILES IDX 21 23 20 24 25 25 22 26 23 27 26 28 27 29 8 30 9 31 10 32
REMARK SMILES IDX 24 33
REMARK H PARENT 24 34
REMARK Flexibility Score: inf
ROOT
ATOM      1  C   UNL     1      13.720  40.742  -0.742  1.00  0.00     0.017 C 
ATOM      2  C   UNL     1      13.750  41.658   0.505  1.00  0.00     0.014 C 
ATOM      3  C   UNL     1      13.363  41.621  -1.979  1.00  0.00     0.014 C 
ATOM      4  C   UNL     1      15.142  40.132  -0.984  1.00  0.00     0.030 C 
ATOM      5  C   UNL     1      14.294  40.936   1.740  1.00  0.00     0.004 C 
ATOM      6  C   UNL     1      13.431  40.860  -3.327  1.00  0.00     0.013 C 
ATOM      7  C   UNL     1      15.086  39.288  -2.268  1.00  0.00    -0.063 C 
ATOM      8  C   UNL     1      15.790  39.471   0.284  1.00  0.00    -0.003 C 
ATOM      9  C   UNL     1      15.731  40.441   1.503  1.00  0.00    -0.011 C 
ATOM     10  C   UNL     1      14.769  40.066  -3.573  1.00  0.00    -0.006 C 
ATOM     11  C   UNL     1      15.002  37.927  -2.195  1.00  0.00    -0.027 C 
ATOM     12  C   UNL     1      17.254  39.075  -0.015  1.00  0.00     0.008 C 
ATOM     13  C   UNL     1      16.256  39.785   2.793  1.00  0.00     0.008 C 
ATOM     14  C   UNL     1      15.897  41.126  -3.822  1.00  0.00     0.017 C 
ATOM     15  C   UNL     1      14.673  39.059  -4.830  1.00  0.00    -0.020 C 
ATOM     16  C   UNL     1      14.606  37.021  -3.336  1.00  0.00     0.032 C 
ATOM     17  C   UNL     1      13.822  37.803  -4.406  1.00  0.00     0.006 C 
ATOM     18  C   UNL     1      13.967  39.716  -6.049  1.00  0.00     0.008 C 
ATOM     19  C   UNL     1      16.137  38.653  -5.240  1.00  0.00     0.012 C 
ATOM     20  C   UNL     1      13.090  36.966  -5.577  1.00  0.00    -0.025 C 
ATOM     21  C   UNL     1      13.865  38.806  -7.288  1.00  0.00     0.005 C 
ATOM     22  C   UNL     1      13.716  37.286  -6.986  1.00  0.00     0.003 C 
ATOM     23  C   UNL     1      13.214  35.428  -5.342  1.00  0.00     0.010 C 
ATOM     24  C   UNL     1      11.573  37.339  -5.537  1.00  0.00     0.012 C 
ATOM     25  C   UNL     1      13.196  36.422  -8.210  1.00  0.00    -0.006 C 
ATOM     26  C   UNL     1      12.667  34.565  -6.491  1.00  0.00     0.033 C 
ATOM     27  C   UNL     1      13.321  34.907  -7.839  1.00  0.00     0.120 C 
ATOM     28  C   UNL     1      11.741  36.759  -8.663  1.00  0.00     0.014 C 
ATOM     29  C   UNL     1      14.129  36.681  -9.427  1.00  0.00     0.014 C 
ENDROOT
BRANCH   1  30
ATOM     30  C   UNL     1      12.626  39.691  -0.548  1.00  0.00     0.048 C 
ATOM     31  O   UNL     1      12.811  38.677   0.173  1.00  0.00    -0.550 OA
ATOM     32  O   UNL     1      11.366  39.889  -1.102  1.00  0.00    -0.550 OA
ENDBRANCH   1  30
BRANCH  27  33
ATOM     33  O   UNL     1      12.739  34.098  -8.834  1.00  0.00    -0.393 OA
ATOM     34  H   UNL     1      11.788  34.367  -8.918  1.00  0.00     0.210 HD
ENDBRANCH  27  33
TORSDOF 2
ENDMDL
MODEL 2
REMARK VINA RESULT:    -7.344      3.407      5.431
REMARK INTER + INTRA:          -7.653
REMARK INTER:                  -7.996
REMARK INTRA:                   0.343
REMARK UNBOUND:                 0.335
REMARK SMILES C[C@H]1[C@H](C)CC[C@@]2(C(=O)[O-])CC[C@@]3(C)C(=CC[C@@H]4[C@]5(C)CC[C@@H](O)C(C)(C)[C@H]5CC[C@]43C)[C@H]12
REMARK SMILES IDX 7 1 6 2 11 3 33 4 5 5 12 6 15 7 2 8 3 9 13 10 16 11 1 12
REMARK SMILES IDX 4 13 14 14 31 15 17 16 18 17 30 18 32 19 19 20 29 21 28 22
REMARK SMILES IDX 21 23 20 24 25 25 22 26 23 27 26 28 27 29 8 30 9 31 10 32
REMARK SMILES IDX 24 33
REMARK H PARENT 24 34
REMARK Flexibility Score: inf
ROOT
ATOM      1  C   UNL     1      18.547  36.468   1.904  1.00  0.00     0.017 C 
ATOM      2  C   UNL     1      19.173  36.172   3.289  1.00  0.00     0.014 C 
ATOM      3  C   UNL     1      17.045  36.823   2.120  1.00  0.00     0.014 C 
ATOM      4  C   UNL     1      19.246  37.714   1.264  1.00  0.00     0.030 C 
ATOM      5  C   UNL     1      20.694  36.016   3.214  1.00  0.00     0.004 C 
ATOM      6  C   UNL     1      16.318  37.277   0.828  1.00  0.00     0.013 C 
ATOM      7  C   UNL     1      18.549  38.016  -0.074  1.00  0.00    -0.063 C 
ATOM      8  C   UNL     1      20.814  37.650   1.259  1.00  0.00    -0.003 C 
ATOM      9  C   UNL     1      21.356  37.297   2.677  1.00  0.00    -0.011 C 
ATOM     10  C   UNL     1      17.052  38.413   0.021  1.00  0.00    -0.006 C 
ATOM     11  C   UNL     1      19.128  37.641  -1.252  1.00  0.00    -0.027 C 
ATOM     12  C   UNL     1      21.399  38.999   0.783  1.00  0.00     0.008 C 
ATOM     13  C   UNL     1      22.884  37.114   2.687  1.00  0.00     0.008 C 
ATOM     14  C   UNL     1      16.927  39.732   0.860  1.00  0.00     0.017 C 
ATOM     15  C   UNL     1      16.426  38.636  -1.450  1.00  0.00    -0.020 C 
ATOM     16  C   UNL     1      18.417  37.569  -2.582  1.00  0.00     0.032 C 
ATOM     17  C   UNL     1      16.894  37.456  -2.381  1.00  0.00     0.006 C 
ATOM     18  C   UNL     1      14.871  38.628  -1.427  1.00  0.00     0.008 C 
ATOM     19  C   UNL     1      16.926  40.029  -1.985  1.00  0.00     0.012 C 
ATOM     20  C   UNL     1      15.980  37.109  -3.666  1.00  0.00    -0.025 C 
ATOM     21  C   UNL     1      14.217  38.857  -2.802  1.00  0.00     0.005 C 
ATOM     22  C   UNL     1      15.014  38.300  -4.019  1.00  0.00     0.003 C 
ATOM     23  C   UNL     1      16.854  36.819  -4.927  1.00  0.00     0.010 C 
ATOM     24  C   UNL     1      15.176  35.812  -3.329  1.00  0.00     0.012 C 
ATOM     25  C   UNL     1      14.163  38.160  -5.350  1.00  0.00    -0.006 C 
ATOM     26  C   UNL     1      16.052  36.625  -6.223  1.00  0.00     0.033 C 
ATOM     27  C   UNL     1      15.136  37.821  -6.528  1.00  0.00     0.120 C 
ATOM     28  C   UNL     1      13.011  37.110  -5.269  1.00  0.00     0.014 C 
ATOM     29  C   UNL     1      13.512  39.536  -5.666  1.00  0.00     0.014 C 
ENDROOT
BRANCH   1  30
ATOM     30  C   UNL     1      18.641  35.204   1.049  1.00  0.00     0.048 C 
ATOM     31  O   UNL     1      19.721  34.858   0.505  1.00  0.00    -0.550 OA
ATOM     32  O   UNL     1      17.540  34.362   0.929  1.00  0.00    -0.550 OA
ENDBRANCH   1  30
BRANCH  27  33
ATOM     33  O   UNL     1      14.417  37.543  -7.706  1.00  0.00    -0.393 OA
ATOM     34  H   UNL     1      13.634  38.152  -7.728  1.00  0.00     0.210 HD
ENDBRANCH  27  33
TORSDOF 2
ENDMDL
MODEL 3
REMARK VINA RESULT:    -7.054      3.169      8.330
REMARK INTER + INTRA:          -7.337
REMARK INTER:                  -7.681
REMARK INTRA:                   0.344
REMARK UNBOUND:                 0.335
REMARK SMILES C[C@H]1[C@H](C)CC[C@@]2(C(=O)[O-])CC[C@@]3(C)C(=CC[C@@H]4[C@]5(C)CC[C@@H](O)C(C)(C)[C@H]5CC[C@]43C)[C@H]12
REMARK SMILES IDX 7 1 6 2 11 3 33 4 5 5 12 6 15 7 2 8 3 9 13 10 16 11 1 12
REMARK SMILES IDX 4 13 14 14 31 15 17 16 18 17 30 18 32 19 19 20 29 21 28 22
REMARK SMILES IDX 21 23 20 24 25 25 22 26 23 27 26 28 27 29 8 30 9 31 10 32
REMARK SMILES IDX 24 33
REMARK H PARENT 24 34
REMARK Flexibility Score: inf
ROOT
ATOM      1  C   UNL     1      15.855  38.144  -4.879  1.00  0.00     0.017 C 
ATOM      2  C   UNL     1      15.185  38.201  -6.273  1.00  0.00     0.014 C 
ATOM      3  C   UNL     1      17.062  37.162  -4.963  1.00  0.00     0.014 C 
ATOM      4  C   UNL     1      16.415  39.558  -4.504  1.00  0.00     0.030 C 
ATOM      5  C   UNL     1      14.117  39.294  -6.357  1.00  0.00     0.004 C 
ATOM      6  C   UNL     1      17.915  37.108  -3.670  1.00  0.00     0.013 C 
ATOM      7  C   UNL     1      17.133  39.443  -3.149  1.00  0.00    -0.063 C 
ATOM      8  C   UNL     1      15.387  40.732  -4.676  1.00  0.00    -0.003 C 
ATOM      9  C   UNL     1      14.723  40.681  -6.085  1.00  0.00    -0.011 C 
ATOM     10  C   UNL     1      18.373  38.512  -3.121  1.00  0.00    -0.006 C 
ATOM     11  C   UNL     1      16.520  39.873  -2.007  1.00  0.00    -0.027 C 
ATOM     12  C   UNL     1      16.092  42.090  -4.465  1.00  0.00     0.008 C 
ATOM     13  C   UNL     1      13.627  41.750  -6.250  1.00  0.00     0.008 C 
ATOM     14  C   UNL     1      19.451  39.068  -4.114  1.00  0.00     0.017 C 
ATOM     15  C   UNL     1      18.990  38.426  -1.632  1.00  0.00    -0.020 C 
ATOM     16  C   UNL     1      16.954  39.517  -0.605  1.00  0.00     0.032 C 
ATOM     17  C   UNL     1      17.809  38.236  -0.608  1.00  0.00     0.006 C 
ATOM     18  C   UNL     1      19.953  37.216  -1.470  1.00  0.00     0.008 C 
ATOM     19  C   UNL     1      19.784  39.757  -1.357  1.00  0.00     0.012 C 
ATOM     20  C   UNL     1      18.154  37.548   0.812  1.00  0.00    -0.025 C 
ATOM     21  C   UNL     1      20.589  37.096  -0.072  1.00  0.00     0.005 C 
ATOM     22  C   UNL     1      19.700  37.590   1.108  1.00  0.00     0.003 C 
ATOM     23  C   UNL     1      17.427  38.272   1.989  1.00  0.00     0.010 C 
ATOM     24  C   UNL     1      17.631  36.076   0.755  1.00  0.00     0.012 C 
ATOM     25  C   UNL     1      20.167  37.085   2.536  1.00  0.00    -0.006 C 
ATOM     26  C   UNL     1      17.822  37.765   3.385  1.00  0.00     0.033 C 
ATOM     27  C   UNL     1      19.337  37.841   3.627  1.00  0.00     0.120 C 
ATOM     28  C   UNL     1      20.064  35.541   2.738  1.00  0.00     0.014 C 
ATOM     29  C   UNL     1      21.659  37.477   2.734  1.00  0.00     0.014 C 
ENDROOT
BRANCH   1  30
ATOM     30  C   UNL     1      14.840  37.600  -3.873  1.00  0.00     0.048 C 
ATOM     31  O   UNL     1      14.009  38.354  -3.305  1.00  0.00    -0.550 OA
ATOM     32  O   UNL     1      14.764  36.231  -3.635  1.00  0.00    -0.550 OA
ENDBRANCH   1  30
BRANCH  27  33
ATOM     33  O   UNL     1      19.611  37.327   4.909  1.00  0.00    -0.393 OA
ATOM     34  H   UNL     1      20.581  37.119   4.946  1.00  0.00     0.210 HD
ENDBRANCH  27  33
TORSDOF 2
ENDMDL
MODEL 4
REMARK VINA RESULT:    -7.051      3.845      8.029
REMARK INTER + INTRA:          -7.334
REMARK INTER:                  -7.672
REMARK INTRA:                   0.338
REMARK UNBOUND:                 0.335
REMARK SMILES C[C@H]1[C@H](C)CC[C@@]2(C(=O)[O-])CC[C@@]3(C)C(=CC[C@@H]4[C@]5(C)CC[C@@H](O)C(C)(C)[C@H]5CC[C@]43C)[C@H]12
REMARK SMILES IDX 7 1 6 2 11 3 33 4 5 5 12 6 15 7 2 8 3 9 13 10 16 11 1 12
REMARK SMILES IDX 4 13 14 14 31 15 17 16 18 17 30 18 32 19 19 20 29 21 28 22
REMARK SMILES IDX 21 23 20 24 25 25 22 26 23 27 26 28 27 29 8 30 9 31 10 32
REMARK SMILES IDX 24 33
REMARK H PARENT 24 34
REMARK Flexibility Score: inf
ROOT
ATOM      1  C   UNL     1      14.131  39.060  -3.898  1.00  0.00     0.017 C 
ATOM      2  C   UNL     1      12.658  39.095  -4.371  1.00  0.00     0.014 C 
ATOM      3  C   UNL     1      14.214  39.789  -2.522  1.00  0.00     0.014 C 
ATOM      4  C   UNL     1      14.582  37.577  -3.680  1.00  0.00     0.030 C 
ATOM      5  C   UNL     1      12.428  38.226  -5.610  1.00  0.00     0.004 C 
ATOM      6  C   UNL     1      15.612  39.714  -1.858  1.00  0.00     0.013 C 
ATOM      7  C   UNL     1      16.023  37.589  -3.144  1.00  0.00    -0.063 C 
ATOM      8  C   UNL     1      14.271  36.619  -4.885  1.00  0.00    -0.003 C 
ATOM      9  C   UNL     1      12.783  36.757  -5.329  1.00  0.00    -0.011 C 
ATOM     10  C   UNL     1      16.221  38.264  -1.761  1.00  0.00    -0.006 C 
ATOM     11  C   UNL     1      17.070  37.318  -3.977  1.00  0.00    -0.027 C 
ATOM     12  C   UNL     1      14.580  35.156  -4.492  1.00  0.00     0.008 C 
ATOM     13  C   UNL     1      12.470  35.916  -6.580  1.00  0.00     0.008 C 
ATOM     14  C   UNL     1      15.387  37.483  -0.688  1.00  0.00     0.017 C 
ATOM     15  C   UNL     1      17.781  38.271  -1.347  1.00  0.00    -0.020 C 
ATOM     16  C   UNL     1      18.518  37.623  -3.676  1.00  0.00     0.032 C 
ATOM     17  C   UNL     1      18.632  38.715  -2.596  1.00  0.00     0.006 C 
ATOM     18  C   UNL     1      18.073  39.277  -0.198  1.00  0.00     0.008 C 
ATOM     19  C   UNL     1      18.165  36.820  -0.872  1.00  0.00     0.012 C 
ATOM     20  C   UNL     1      20.085  39.363  -2.319  1.00  0.00    -0.025 C 
ATOM     21  C   UNL     1      19.545  39.311   0.254  1.00  0.00     0.005 C 
ATOM     22  C   UNL     1      20.591  39.032  -0.866  1.00  0.00     0.003 C 
ATOM     23  C   UNL     1      21.151  38.826  -3.325  1.00  0.00     0.010 C 
ATOM     24  C   UNL     1      19.954  40.905  -2.532  1.00  0.00     0.012 C 
ATOM     25  C   UNL     1      22.070  39.477  -0.506  1.00  0.00    -0.006 C 
ATOM     26  C   UNL     1      22.587  39.287  -3.033  1.00  0.00     0.033 C 
ATOM     27  C   UNL     1      23.037  38.926  -1.608  1.00  0.00     0.120 C 
ATOM     28  C   UNL     1      22.254  41.017  -0.333  1.00  0.00     0.014 C 
ATOM     29  C   UNL     1      22.473  38.811   0.840  1.00  0.00     0.014 C 
ENDROOT
BRANCH   1  30
ATOM     30  C   UNL     1      14.986  39.819  -4.914  1.00  0.00     0.048 C 
ATOM     31  O   UNL     1      15.328  39.295  -6.005  1.00  0.00    -0.550 OA
ATOM     32  O   UNL     1      15.330  41.146  -4.680  1.00  0.00    -0.550 OA
ENDBRANCH   1  30
BRANCH  27  33
ATOM     33  O   UNL     1      24.344  39.414  -1.415  1.00  0.00    -0.393 OA
ATOM     34  H   UNL     1      24.866  38.699  -0.967  1.00  0.00     0.210 HD
ENDBRANCH  27  33
TORSDOF 2
ENDMDL
MODEL 5
REMARK VINA RESULT:    -7.005      2.899      4.277
REMARK INTER + INTRA:          -7.284
REMARK INTER:                  -7.643
REMARK INTRA:                   0.360
REMARK UNBOUND:                 0.335
REMARK SMILES C[C@H]1[C@H](C)CC[C@@]2(C(=O)[O-])CC[C@@]3(C)C(=CC[C@@H]4[C@]5(C)CC[C@@H](O)C(C)(C)[C@H]5CC[C@]43C)[C@H]12
REMARK SMILES IDX 7 1 6 2 11 3 33 4 5 5 12 6 15 7 2 8 3 9 13 10 16 11 1 12
REMARK SMILES IDX 4 13 14 14 31 15 17 16 18 17 30 18 32 19 19 20 29 21 28 22
REMARK SMILES IDX 21 23 20 24 25 25 22 26 23 27 26 28 27 29 8 30 9 31 10 32
REMARK SMILES IDX 24 33
REMARK H PARENT 24 34
REMARK Flexibility Score: inf
ROOT
ATOM      1  C   UNL     1      18.625  38.832  -0.669  1.00  0.00     0.017 C 
ATOM      2  C   UNL     1      19.446  39.381   0.523  1.00  0.00     0.014 C 
ATOM      3  C   UNL     1      17.121  39.139  -0.401  1.00  0.00     0.014 C 
ATOM      4  C   UNL     1      19.039  39.577  -1.982  1.00  0.00     0.030 C 
ATOM      5  C   UNL     1      20.953  39.319   0.265  1.00  0.00     0.004 C 
ATOM      6  C   UNL     1      16.187  38.766  -1.580  1.00  0.00     0.013 C 
ATOM      7  C   UNL     1      18.153  39.054  -3.126  1.00  0.00    -0.063 C 
ATOM      8  C   UNL     1      20.586  39.634  -2.239  1.00  0.00    -0.003 C 
ATOM      9  C   UNL     1      21.337  40.146  -0.973  1.00  0.00    -0.011 C 
ATOM     10  C   UNL     1      16.633  39.331  -2.981  1.00  0.00    -0.006 C 
ATOM     11  C   UNL     1      18.644  38.143  -4.016  1.00  0.00    -0.027 C 
ATOM     12  C   UNL     1      20.890  40.547  -3.449  1.00  0.00     0.008 C 
ATOM     13  C   UNL     1      22.866  40.108  -1.150  1.00  0.00     0.008 C 
ATOM     14  C   UNL     1      16.398  40.881  -2.951  1.00  0.00     0.017 C 
ATOM     15  C   UNL     1      15.814  38.675  -4.207  1.00  0.00    -0.020 C 
ATOM     16  C   UNL     1      17.805  37.309  -4.954  1.00  0.00     0.032 C 
ATOM     17  C   UNL     1      16.353  37.215  -4.449  1.00  0.00     0.006 C 
ATOM     18  C   UNL     1      14.293  38.569  -3.900  1.00  0.00     0.008 C 
ATOM     19  C   UNL     1      16.021  39.586  -5.474  1.00  0.00     0.012 C 
ATOM     20  C   UNL     1      15.363  36.162  -5.170  1.00  0.00    -0.025 C 
ATOM     21  C   UNL     1      13.456  37.968  -5.044  1.00  0.00     0.005 C 
ATOM     22  C   UNL     1      14.186  36.899  -5.910  1.00  0.00     0.003 C 
ATOM     23  C   UNL     1      16.121  35.298  -6.227  1.00  0.00     0.010 C 
ATOM     24  C   UNL     1      14.820  35.202  -4.063  1.00  0.00     0.012 C 
ATOM     25  C   UNL     1      13.220  35.998  -6.789  1.00  0.00    -0.006 C 
ATOM     26  C   UNL     1      15.215  34.374  -7.056  1.00  0.00     0.033 C 
ATOM     27  C   UNL     1      14.092  35.144  -7.769  1.00  0.00     0.120 C 
ATOM     28  C   UNL     1      12.266  35.081  -5.961  1.00  0.00     0.014 C 
ATOM     29  C   UNL     1      12.326  36.931  -7.654  1.00  0.00     0.014 C 
ENDROOT
BRANCH   1  30
ATOM     30  C   UNL     1      18.819  37.317  -0.736  1.00  0.00     0.048 C 
ATOM     31  O   UNL     1      19.898  36.810  -1.137  1.00  0.00    -0.550 OA
ATOM     32  O   UNL     1      17.823  36.467  -0.266  1.00  0.00    -0.550 OA
ENDBRANCH   1  30
BRANCH  27  33
ATOM     33  O   UNL     1      13.295  34.221  -8.473  1.00  0.00    -0.393 OA
ATOM     34  H   UNL     1      12.350  34.390  -8.220  1.00  0.00     0.210 HD
ENDBRANCH  27  33
TORSDOF 2
ENDMDL
MODEL 6
REMARK VINA RESULT:    -6.956      5.619      8.312
REMARK INTER + INTRA:          -7.231
REMARK INTER:                  -7.567
REMARK INTRA:                   0.336
REMARK UNBOUND:                 0.335
REMARK SMILES C[C@H]1[C@H](C)CC[C@@]2(C(=O)[O-])CC[C@@]3(C)C(=CC[C@@H]4[C@]5(C)CC[C@@H](O)C(C)(C)[C@H]5CC[C@]43C)[C@H]12
REMARK SMILES IDX 7 1 6 2 11 3 33 4 5 5 12 6 15 7 2 8 3 9 13 10 16 11 1 12
REMARK SMILES IDX 4 13 14 14 31 15 17 16 18 17 30 18 32 19 19 20 29 21 28 22
REMARK SMILES IDX 21 23 20 24 25 25 22 26 23 27 26 28 27 29 8 30 9 31 10 32
REMARK SMILES IDX 24 33
REMARK H PARENT 24 34
REMARK Flexibility Score: inf
ROOT
ATOM      1  C   UNL     1      23.219  39.652   2.406  1.00  0.00     0.017 C 
ATOM      2  C   UNL     1      24.390  40.026   3.347  1.00  0.00     0.014 C 
ATOM      3  C   UNL     1      22.922  40.881   1.494  1.00  0.00     0.014 C 
ATOM      4  C   UNL     1      23.644  38.462   1.481  1.00  0.00     0.030 C 
ATOM      5  C   UNL     1      24.900  38.821   4.141  1.00  0.00     0.004 C 
ATOM      6  C   UNL     1      21.858  40.606   0.401  1.00  0.00     0.013 C 
ATOM      7  C   UNL     1      22.483  38.170   0.516  1.00  0.00    -0.063 C 
ATOM      8  C   UNL     1      24.274  37.241   2.240  1.00  0.00    -0.003 C 
ATOM      9  C   UNL     1      25.405  37.713   3.202  1.00  0.00    -0.011 C 
ATOM     10  C   UNL     1      22.118  39.316  -0.465  1.00  0.00    -0.006 C 
ATOM     11  C   UNL     1      21.648  37.113   0.743  1.00  0.00    -0.027 C 
ATOM     12  C   UNL     1      24.826  36.214   1.226  1.00  0.00     0.008 C 
ATOM     13  C   UNL     1      25.969  36.556   4.047  1.00  0.00     0.008 C 
ATOM     14  C   UNL     1      23.353  39.615  -1.382  1.00  0.00     0.017 C 
ATOM     15  C   UNL     1      20.846  38.908  -1.371  1.00  0.00    -0.020 C 
ATOM     16  C   UNL     1      20.302  36.918   0.089  1.00  0.00     0.032 C 
ATOM     17  C   UNL     1      19.754  38.256  -0.443  1.00  0.00     0.006 C 
ATOM     18  C   UNL     1      20.201  40.145  -2.058  1.00  0.00     0.008 C 
ATOM     19  C   UNL     1      21.339  37.903  -2.478  1.00  0.00     0.012 C 
ATOM     20  C   UNL     1      18.220  38.305  -0.943  1.00  0.00    -0.025 C 
ATOM     21  C   UNL     1      18.993  39.814  -2.953  1.00  0.00     0.005 C 
ATOM     22  C   UNL     1      18.131  38.603  -2.487  1.00  0.00     0.003 C 
ATOM     23  C   UNL     1      17.489  36.951  -0.680  1.00  0.00     0.010 C 
ATOM     24  C   UNL     1      17.494  39.413  -0.114  1.00  0.00     0.012 C 
ATOM     25  C   UNL     1      16.691  38.531  -3.146  1.00  0.00    -0.006 C 
ATOM     26  C   UNL     1      16.069  36.873  -1.262  1.00  0.00     0.033 C 
ATOM     27  C   UNL     1      16.041  37.157  -2.772  1.00  0.00     0.120 C 
ATOM     28  C   UNL     1      15.746  39.711  -2.758  1.00  0.00     0.014 C 
ATOM     29  C   UNL     1      16.854  38.562  -4.692  1.00  0.00     0.014 C 
ENDROOT
BRANCH   1  30
ATOM     30  C   UNL     1      21.985  39.356   3.258  1.00  0.00     0.048 C 
ATOM     31  O   UNL     1      21.808  38.230   3.790  1.00  0.00    -0.550 OA
ATOM     32  O   UNL     1      21.071  40.369   3.533  1.00  0.00    -0.550 OA
ENDBRANCH   1  30
BRANCH  27  33
ATOM     33  O   UNL     1      14.704  37.100  -3.212  1.00  0.00    -0.393 OA
ATOM     34  H   UNL     1      14.423  36.149  -3.188  1.00  0.00     0.210 HD
ENDBRANCH  27  33
TORSDOF 2
ENDMDL
MODEL 7
REMARK VINA RESULT:    -6.894      3.263      6.327
REMARK INTER + INTRA:          -7.163
REMARK INTER:                  -7.500
REMARK INTRA:                   0.337
REMARK UNBOUND:                 0.335
REMARK SMILES C[C@H]1[C@H](C)CC[C@@]2(C(=O)[O-])CC[C@@]3(C)C(=CC[C@@H]4[C@]5(C)CC[C@@H](O)C(C)(C)[C@H]5CC[C@]43C)[C@H]12
REMARK SMILES IDX 7 1 6 2 11 3 33 4 5 5 12 6 15 7 2 8 3 9 13 10 16 11 1 12
REMARK SMILES IDX 4 13 14 14 31 15 17 16 18 17 30 18 32 19 19 20 29 21 28 22
REMARK SMILES IDX 21 23 20 24 25 25 22 26 23 27 26 28 27 29 8 30 9 31 10 32
REMARK SMILES IDX 24 33
REMARK H PARENT 24 34
REMARK Flexibility Score: inf
ROOT
ATOM      1  C   UNL     1      19.953  38.062   2.122  1.00  0.00     0.017 C 
ATOM      2  C   UNL     1      21.067  37.763   3.154  1.00  0.00     0.014 C 
ATOM      3  C   UNL     1      20.151  37.106   0.907  1.00  0.00     0.014 C 
ATOM      4  C   UNL     1      18.553  37.751   2.751  1.00  0.00     0.030 C 
ATOM      5  C   UNL     1      20.844  38.501   4.476  1.00  0.00     0.004 C 
ATOM      6  C   UNL     1      19.023  37.197  -0.151  1.00  0.00     0.013 C 
ATOM      7  C   UNL     1      17.482  37.992   1.674  1.00  0.00    -0.063 C 
ATOM      8  C   UNL     1      18.315  38.400   4.161  1.00  0.00    -0.003 C 
ATOM      9  C   UNL     1      19.506  38.094   5.118  1.00  0.00    -0.011 C 
ATOM     10  C   UNL     1      17.563  37.073   0.427  1.00  0.00    -0.006 C 
ATOM     11  C   UNL     1      16.739  39.137   1.686  1.00  0.00    -0.027 C 
ATOM     12  C   UNL     1      16.992  37.879   4.768  1.00  0.00     0.008 C 
ATOM     13  C   UNL     1      19.361  38.808   6.474  1.00  0.00     0.008 C 
ATOM     14  C   UNL     1      17.369  35.584   0.878  1.00  0.00     0.017 C 
ATOM     15  C   UNL     1      16.430  37.472  -0.651  1.00  0.00    -0.020 C 
ATOM     16  C   UNL     1      15.916  39.648   0.528  1.00  0.00     0.032 C 
ATOM     17  C   UNL     1      16.406  39.040  -0.799  1.00  0.00     0.006 C 
ATOM     18  C   UNL     1      16.726  36.872  -2.055  1.00  0.00     0.008 C 
ATOM     19  C   UNL     1      15.050  36.919  -0.135  1.00  0.00     0.012 C 
ATOM     20  C   UNL     1      15.828  39.652  -2.177  1.00  0.00    -0.025 C 
ATOM     21  C   UNL     1      15.666  37.204  -3.122  1.00  0.00     0.005 C 
ATOM     22  C   UNL     1      14.972  38.589  -2.961  1.00  0.00     0.003 C 
ATOM     23  C   UNL     1      14.916  40.892  -1.912  1.00  0.00     0.010 C 
ATOM     24  C   UNL     1      17.052  40.127  -3.025  1.00  0.00     0.012 C 
ATOM     25  C   UNL     1      14.216  39.098  -4.259  1.00  0.00    -0.006 C 
ATOM     26  C   UNL     1      14.213  41.440  -3.164  1.00  0.00     0.033 C 
ATOM     27  C   UNL     1      13.381  40.366  -3.882  1.00  0.00     0.120 C 
ATOM     28  C   UNL     1      15.151  39.395  -5.473  1.00  0.00     0.014 C 
ATOM     29  C   UNL     1      13.214  37.997  -4.708  1.00  0.00     0.014 C 
ENDROOT
BRANCH   1  30
ATOM     30  C   UNL     1      20.105  39.507   1.647  1.00  0.00     0.048 C 
ATOM     31  O   UNL     1      19.660  40.471   2.322  1.00  0.00    -0.550 OA
ATOM     32  O   UNL     1      20.824  39.786   0.489  1.00  0.00    -0.550 OA
ENDBRANCH   1  30
BRANCH  27  33
ATOM     33  O   UNL     1      12.803  40.943  -5.030  1.00  0.00    -0.393 OA
ATOM     34  H   UNL     1      11.984  41.424  -4.742  1.00  0.00     0.210 HD
ENDBRANCH  27  33
TORSDOF 2
ENDMDL
MODEL 8
REMARK VINA RESULT:    -6.803      5.899     10.564
REMARK INTER + INTRA:          -7.064
REMARK INTER:                  -7.402
REMARK INTRA:                   0.338
REMARK UNBOUND:                 0.335
REMARK SMILES C[C@H]1[C@H](C)CC[C@@]2(C(=O)[O-])CC[C@@]3(C)C(=CC[C@@H]4[C@]5(C)CC[C@@H](O)C(C)(C)[C@H]5CC[C@]43C)[C@H]12
REMARK SMILES IDX 7 1 6 2 11 3 33 4 5 5 12 6 15 7 2 8 3 9 13 10 16 11 1 12
REMARK SMILES IDX 4 13 14 14 31 15 17 16 18 17 30 18 32 19 19 20 29 21 28 22
REMARK SMILES IDX 21 23 20 24 25 25 22 26 23 27 26 28 27 29 8 30 9 31 10 32
REMARK SMILES IDX 24 33
REMARK H PARENT 24 34
REMARK Flexibility Score: inf
ROOT
ATOM      1  C   UNL     1      17.082  38.187   0.378  1.00  0.00     0.017 C 
ATOM      2  C   UNL     1      15.562  38.080   0.103  1.00  0.00     0.014 C 
ATOM      3  C   UNL     1      17.348  39.544   1.096  1.00  0.00     0.014 C 
ATOM      4  C   UNL     1      17.527  37.039   1.345  1.00  0.00     0.030 C 
ATOM      5  C   UNL     1      15.164  36.695  -0.411  1.00  0.00     0.004 C 
ATOM      6  C   UNL     1      18.816  39.730   1.558  1.00  0.00     0.013 C 
ATOM      7  C   UNL     1      19.023  37.223   1.647  1.00  0.00    -0.063 C 
ATOM      8  C   UNL     1      17.050  35.606   0.916  1.00  0.00    -0.003 C 
ATOM      9  C   UNL     1      15.522  35.601   0.609  1.00  0.00    -0.011 C 
ATOM     10  C   UNL     1      19.404  38.530   2.392  1.00  0.00    -0.006 C 
ATOM     11  C   UNL     1      19.954  36.448   1.016  1.00  0.00    -0.027 C 
ATOM     12  C   UNL     1      17.377  34.583   2.028  1.00  0.00     0.008 C 
ATOM     13  C   UNL     1      15.041  34.239   0.077  1.00  0.00     0.008 C 
ATOM     14  C   UNL     1      18.694  38.546   3.789  1.00  0.00     0.017 C 
ATOM     15  C   UNL     1      21.003  38.631   2.586  1.00  0.00    -0.020 C 
ATOM     16  C   UNL     1      21.433  36.744   0.961  1.00  0.00     0.032 C 
ATOM     17  C   UNL     1      21.701  38.237   1.231  1.00  0.00     0.006 C 
ATOM     18  C   UNL     1      21.455  40.076   2.945  1.00  0.00     0.008 C 
ATOM     19  C   UNL     1      21.414  37.659   3.753  1.00  0.00     0.012 C 
ATOM     20  C   UNL     1      23.190  38.803   0.964  1.00  0.00    -0.025 C 
ATOM     21  C   UNL     1      22.971  40.229   3.162  1.00  0.00     0.005 C 
ATOM     22  C   UNL     1      23.865  39.289   2.300  1.00  0.00     0.003 C 
ATOM     23  C   UNL     1      24.112  37.711   0.336  1.00  0.00     0.010 C 
ATOM     24  C   UNL     1      23.064  39.976  -0.062  1.00  0.00     0.012 C 
ATOM     25  C   UNL     1      25.386  39.731   2.211  1.00  0.00    -0.006 C 
ATOM     26  C   UNL     1      25.583  38.133   0.188  1.00  0.00     0.033 C 
ATOM     27  C   UNL     1      26.198  38.583   1.523  1.00  0.00     0.120 C 
ATOM     28  C   UNL     1      25.620  41.088   1.477  1.00  0.00     0.014 C 
ATOM     29  C   UNL     1      25.938  39.888   3.656  1.00  0.00     0.014 C 
ENDROOT
BRANCH   1  30
ATOM     30  C   UNL     1      17.819  38.182  -0.962  1.00  0.00     0.048 C 
ATOM     31  O   UNL     1      18.054  37.110  -1.578  1.00  0.00    -0.550 OA
ATOM     32  O   UNL     1      18.169  39.384  -1.568  1.00  0.00    -0.550 OA
ENDBRANCH   1  30
BRANCH  27  33
ATOM     33  O   UNL     1      27.528  38.983   1.289  1.00  0.00    -0.393 OA
ATOM     34  H   UNL     1      27.696  38.903   0.314  1.00  0.00     0.210 HD
ENDBRANCH  27  33
TORSDOF 2
ENDMDL
MODEL 9
REMARK VINA RESULT:    -6.770      3.272      7.488
REMARK INTER + INTRA:          -7.029
REMARK INTER:                  -8.119
REMARK INTRA:                   1.090
REMARK UNBOUND:                 0.335
REMARK SMILES C[C@H]1[C@H](C)CC[C@@]2(C(=O)[O-])CC[C@@]3(C)C(=CC[C@@H]4[C@]5(C)CC[C@@H](O)C(C)(C)[C@H]5CC[C@]43C)[C@H]12
REMARK SMILES IDX 7 1 6 2 11 3 33 4 5 5 12 6 15 7 2 8 3 9 13 10 16 11 1 12
REMARK SMILES IDX 4 13 14 14 31 15 17 16 18 17 30 18 32 19 19 20 29 21 28 22
REMARK SMILES IDX 21 23 20 24 25 25 22 26 23 27 26 28 27 29 8 30 9 31 10 32
REMARK SMILES IDX 24 33
REMARK H PARENT 24 34
REMARK Flexibility Score: inf
ROOT
ATOM      1  C   UNL     1      14.463  41.425  -5.017  1.00  0.00     0.017 C 
ATOM      2  C   UNL     1      13.627  42.381  -5.901  1.00  0.00     0.014 C 
ATOM      3  C   UNL     1      13.761  41.310  -3.631  1.00  0.00     0.014 C 
ATOM      4  C   UNL     1      14.489  39.997  -5.660  1.00  0.00     0.030 C 
ATOM      5  C   UNL     1      14.114  42.401  -7.352  1.00  0.00     0.004 C 
ATOM      6  C   UNL     1      14.415  40.273  -2.682  1.00  0.00     0.013 C 
ATOM      7  C   UNL     1      15.267  39.064  -4.718  1.00  0.00    -0.063 C 
ATOM      8  C   UNL     1      14.880  39.975  -7.180  1.00  0.00    -0.003 C 
ATOM      9  C   UNL     1      14.027  41.002  -7.984  1.00  0.00    -0.011 C 
ATOM     10  C   UNL     1      14.642  38.849  -3.314  1.00  0.00    -0.006 C 
ATOM     11  C   UNL     1      16.561  38.727  -4.997  1.00  0.00    -0.027 C 
ATOM     12  C   UNL     1      14.690  38.553  -7.756  1.00  0.00     0.008 C 
ATOM     13  C   UNL     1      14.461  41.089  -9.459  1.00  0.00     0.008 C 
ATOM     14  C   UNL     1      13.231  38.186  -3.481  1.00  0.00     0.017 C 
ATOM     15  C   UNL     1      15.587  37.908  -2.406  1.00  0.00    -0.020 C 
ATOM     16  C   UNL     1      17.528  38.115  -4.012  1.00  0.00     0.032 C 
ATOM     17  C   UNL     1      17.079  38.389  -2.564  1.00  0.00     0.006 C 
ATOM     18  C   UNL     1      15.222  38.000  -0.897  1.00  0.00     0.008 C 
ATOM     19  C   UNL     1      15.405  36.422  -2.890  1.00  0.00     0.012 C 
ATOM     20  C   UNL     1      18.108  38.042  -1.369  1.00  0.00    -0.025 C 
ATOM     21  C   UNL     1      16.080  37.106   0.018  1.00  0.00     0.005 C 
ATOM     22  C   UNL     1      17.550  36.893  -0.450  1.00  0.00     0.003 C 
ATOM     23  C   UNL     1      19.491  37.576  -1.924  1.00  0.00     0.010 C 
ATOM     24  C   UNL     1      18.334  39.356  -0.554  1.00  0.00     0.012 C 
ATOM     25  C   UNL     1      18.522  36.344   0.677  1.00  0.00    -0.006 C 
ATOM     26  C   UNL     1      20.474  37.089  -0.848  1.00  0.00     0.033 C 
ATOM     27  C   UNL     1      19.886  35.959   0.011  1.00  0.00     0.120 C 
ATOM     28  C   UNL     1      18.750  37.329   1.866  1.00  0.00     0.014 C 
ATOM     29  C   UNL     1      17.909  35.043   1.267  1.00  0.00     0.014 C 
ENDROOT
BRANCH   1  30
ATOM     30  C   UNL     1      15.852  42.034  -4.821  1.00  0.00     0.048 C 
ATOM     31  O   UNL     1      16.256  42.991  -5.530  1.00  0.00    -0.550 OA
ATOM     32  O   UNL     1      16.666  41.590  -3.783  1.00  0.00    -0.550 OA
ENDBRANCH   1  30
BRANCH  27  33
ATOM     33  O   UNL     1      20.835  35.601   0.988  1.00  0.00    -0.393 OA
ATOM     34  H   UNL     1      20.586  36.064   1.830  1.00  0.00     0.210 HD
ENDBRANCH  27  33
TORSDOF 2
ENDMDL
