MODEL 1
REMARK VINA RESULT:    -4.021      0.000      0.000
REMARK INTER + INTRA:          -8.408
REMARK INTER:                  -6.842
REMARK INTRA:                  -1.566
REMARK UNBOUND:                -1.566
REMARK SMILES CCCCCCCCCCCCCC(=O)[O-]
REMARK SMILES IDX 8 1 9 2 10 3 11 4 12 5 13 6 14 7 15 8 16 9 7 10 6 11 5 12
REMARK SMILES IDX 4 13 3 14 2 15 1 16
REMARK H PARENT
REMARK Flexibility Score: inf
ROOT
ATOM      1  C   UNL     1       6.733  77.127  39.662  1.00  0.00     0.000 C 
ENDROOT
BRANCH   1   2
ATOM      2  C   UNL     1       6.318  75.932  38.785  1.00  0.00     0.000 C 
BRANCH   2   3
ATOM      3  C   UNL     1       4.837  75.985  38.374  1.00  0.00     0.000 C 
BRANCH   3   4
ATOM      4  C   UNL     1       4.027  74.803  38.937  1.00  0.00     0.000 C 
BRANCH   4   5
ATOM      5  C   UNL     1       4.874  73.869  39.822  1.00  0.00     0.006 C 
BRANCH   5   6
ATOM      6  C   UNL     1       4.863  72.396  39.382  1.00  0.00     0.053 C 
BRANCH   6   7
ATOM      7  C   UNL     1       6.238  71.804  39.370  1.00  0.00     0.041 C 
ATOM      8  O   UNL     1       6.411  70.608  39.015  1.00  0.00    -0.550 OA
ATOM      9  O   UNL     1       7.333  72.581  39.722  1.00  0.00    -0.550 OA
ENDBRANCH   6   7
ENDBRANCH   5   6
ENDBRANCH   4   5
ENDBRANCH   3   4
ENDBRANCH   2   3
ENDBRANCH   1   2
BRANCH   1  10
ATOM     10  C   UNL     1       5.560  78.069  39.970  1.00  0.00     0.000 C 
BRANCH  10  11
ATOM     11  C   UNL     1       5.847  79.523  39.565  1.00  0.00    -0.000 C 
BRANCH  11  12
ATOM     12  C   UNL     1       5.650  79.722  38.057  1.00  0.00    -0.000 C 
BRANCH  12  13
ATOM     13  C   UNL     1       6.971  80.091  37.373  1.00  0.00    -0.000 C 
BRANCH  13  14
ATOM     14  C   UNL     1       7.314  79.087  36.262  1.00  0.00    -0.000 C 
BRANCH  14  15
ATOM     15  C   UNL     1       8.660  78.385  36.495  1.00  0.00    -0.003 C 
ATOM     16  C   UNL     1       9.412  78.935  37.707  1.00  0.00     0.004 C 
ENDBRANCH  14  15
ENDBRANCH  13  14
ENDBRANCH  12  13
ENDBRANCH  11  12
ENDBRANCH  10  11
ENDBRANCH   1  10
TORSDOF 12
ENDMDL
MODEL 2
REMARK VINA RESULT:    -3.998      3.846      6.633
REMARK INTER + INTRA:          -8.368
REMARK INTER:                  -6.682
REMARK INTRA:                  -1.686
REMARK UNBOUND:                -1.566
REMARK SMILES CCCCCCCCCCCCCC(=O)[O-]
REMARK SMILES IDX 8 1 9 2 10 3 11 4 12 5 13 6 14 7 15 8 16 9 7 10 6 11 5 12
REMARK SMILES IDX 4 13 3 14 2 15 1 16
REMARK H PARENT
REMARK Flexibility Score: inf
ROOT
ATOM      1  C   UNL     1       8.398  78.883  36.431  1.00  0.00     0.000 C 
ENDROOT
BRANCH   1   2
ATOM      2  C   UNL     1       9.073  77.936  37.439  1.00  0.00     0.000 C 
BRANCH   2   3
ATOM      3  C   UNL     1       9.632  78.675  38.665  1.00  0.00     0.000 C 
BRANCH   3   4
ATOM      4  C   UNL     1      10.261  80.031  38.300  1.00  0.00     0.000 C 
BRANCH   4   5
ATOM      5  C   UNL     1      10.530  80.914  39.533  1.00  0.00     0.006 C 
BRANCH   5   6
ATOM      6  C   UNL     1      10.259  80.223  40.880  1.00  0.00     0.053 C 
BRANCH   6   7
ATOM      7  C   UNL     1      11.500  80.102  41.708  1.00  0.00     0.041 C 
ATOM      8  O   UNL     1      11.811  78.997  42.226  1.00  0.00    -0.550 OA
ATOM      9  O   UNL     1      12.331  81.201  41.881  1.00  0.00    -0.550 OA
ENDBRANCH   6   7
ENDBRANCH   5   6
ENDBRANCH   4   5
ENDBRANCH   3   4
ENDBRANCH   2   3
ENDBRANCH   1   2
BRANCH   1  10
ATOM     10  C   UNL     1       6.867  78.888  36.560  1.00  0.00     0.000 C 
BRANCH  10  11
ATOM     11  C   UNL     1       6.320  80.234  37.061  1.00  0.00    -0.000 C 
BRANCH  11  12
ATOM     12  C   UNL     1       5.427  80.040  38.292  1.00  0.00    -0.000 C 
BRANCH  12  13
ATOM     13  C   UNL     1       6.254  79.627  39.515  1.00  0.00    -0.000 C 
BRANCH  13  14
ATOM     14  C   UNL     1       5.563  78.496  40.291  1.00  0.00    -0.000 C 
BRANCH  14  15
ATOM     15  C   UNL     1       5.192  77.306  39.393  1.00  0.00    -0.003 C 
ATOM     16  C   UNL     1       6.297  76.252  39.323  1.00  0.00     0.004 C 
ENDBRANCH  14  15
ENDBRANCH  13  14
ENDBRANCH  12  13
ENDBRANCH  11  12
ENDBRANCH  10  11
ENDBRANCH   1  10
TORSDOF 12
ENDMDL
MODEL 3
REMARK VINA RESULT:    -3.956      1.367      2.536
REMARK INTER + INTRA:          -8.298
REMARK INTER:                  -6.856
REMARK INTRA:                  -1.442
REMARK UNBOUND:                -1.566
REMARK SMILES CCCCCCCCCCCCCC(=O)[O-]
REMARK SMILES IDX 8 1 9 2 10 3 11 4 12 5 13 6 14 7 15 8 16 9 7 10 6 11 5 12
REMARK SMILES IDX 4 13 3 14 2 15 1 16
REMARK H PARENT
REMARK Flexibility Score: inf
ROOT
ATOM      1  C   UNL     1       5.921  79.014  38.495  1.00  0.00     0.000 C 
ENDROOT
BRANCH   1   2
ATOM      2  C   UNL     1       5.978  77.758  39.384  1.00  0.00     0.000 C 
BRANCH   2   3
ATOM      3  C   UNL     1       5.593  76.477  38.627  1.00  0.00     0.000 C 
BRANCH   3   4
ATOM      4  C   UNL     1       4.196  75.960  39.015  1.00  0.00     0.000 C 
BRANCH   4   5
ATOM      5  C   UNL     1       3.987  74.478  38.649  1.00  0.00     0.006 C 
BRANCH   5   6
ATOM      6  C   UNL     1       5.285  73.657  38.560  1.00  0.00     0.053 C 
BRANCH   6   7
ATOM      7  C   UNL     1       5.528  72.858  39.802  1.00  0.00     0.041 C 
ATOM      8  O   UNL     1       5.055  71.696  39.911  1.00  0.00    -0.550 OA
ATOM      9  O   UNL     1       6.303  73.383  40.827  1.00  0.00    -0.550 OA
ENDBRANCH   6   7
ENDBRANCH   5   6
ENDBRANCH   4   5
ENDBRANCH   3   4
ENDBRANCH   2   3
ENDBRANCH   1   2
BRANCH   1  10
ATOM     10  C   UNL     1       6.243  78.710  37.024  1.00  0.00     0.000 C 
BRANCH  10  11
ATOM     11  C   UNL     1       7.586  79.306  36.577  1.00  0.00    -0.000 C 
BRANCH  11  12
ATOM     12  C   UNL     1       8.614  78.202  36.304  1.00  0.00    -0.000 C 
BRANCH  12  13
ATOM     13  C   UNL     1       9.755  78.245  37.329  1.00  0.00    -0.000 C 
BRANCH  13  14
ATOM     14  C   UNL     1       9.681  79.521  38.180  1.00  0.00    -0.000 C 
BRANCH  14  15
ATOM     15  C   UNL     1       9.518  79.222  39.678  1.00  0.00    -0.003 C 
ATOM     16  C   UNL     1       8.797  80.342  40.429  1.00  0.00     0.004 C 
ENDBRANCH  14  15
ENDBRANCH  13  14
ENDBRANCH  12  13
ENDBRANCH  11  12
ENDBRANCH  10  11
ENDBRANCH   1  10
TORSDOF 12
ENDMDL
MODEL 4
REMARK VINA RESULT:    -3.949      3.401      6.084
REMARK INTER + INTRA:          -8.286
REMARK INTER:                  -6.542
REMARK INTRA:                  -1.745
REMARK UNBOUND:                -1.566
REMARK SMILES CCCCCCCCCCCCCC(=O)[O-]
REMARK SMILES IDX 8 1 9 2 10 3 11 4 12 5 13 6 14 7 15 8 16 9 7 10 6 11 5 12
REMARK SMILES IDX 4 13 3 14 2 15 1 16
REMARK H PARENT
REMARK Flexibility Score: inf
ROOT
ATOM      1  C   UNL     1       6.313  75.559  37.528  1.00  0.00     0.000 C 
ENDROOT
BRANCH   1   2
ATOM      2  C   UNL     1       7.549  74.739  37.116  1.00  0.00     0.000 C 
BRANCH   2   3
ATOM      3  C   UNL     1       7.192  73.523  36.246  1.00  0.00     0.000 C 
BRANCH   3   4
ATOM      4  C   UNL     1       8.405  72.614  35.977  1.00  0.00     0.000 C 
BRANCH   4   5
ATOM      5  C   UNL     1       9.531  72.804  37.010  1.00  0.00     0.006 C 
BRANCH   5   6
ATOM      6  C   UNL     1      10.696  71.809  36.869  1.00  0.00     0.053 C 
BRANCH   6   7
ATOM      7  C   UNL     1      11.854  72.175  37.744  1.00  0.00     0.041 C 
ATOM      8  O   UNL     1      12.904  72.653  37.238  1.00  0.00    -0.550 OA
ATOM      9  O   UNL     1      11.764  72.018  39.120  1.00  0.00    -0.550 OA
ENDBRANCH   6   7
ENDBRANCH   5   6
ENDBRANCH   4   5
ENDBRANCH   3   4
ENDBRANCH   2   3
ENDBRANCH   1   2
BRANCH   1  10
ATOM     10  C   UNL     1       4.999  74.789  37.323  1.00  0.00     0.000 C 
BRANCH  10  11
ATOM     11  C   UNL     1       4.107  74.798  38.574  1.00  0.00    -0.000 C 
BRANCH  11  12
ATOM     12  C   UNL     1       4.776  74.046  39.731  1.00  0.00    -0.000 C 
BRANCH  12  13
ATOM     13  C   UNL     1       5.066  72.590  39.347  1.00  0.00    -0.000 C 
BRANCH  13  14
ATOM     14  C   UNL     1       6.516  72.211  39.684  1.00  0.00    -0.000 C 
BRANCH  14  15
ATOM     15  C   UNL     1       6.994  70.968  38.919  1.00  0.00    -0.003 C 
ATOM     16  C   UNL     1       5.869  70.281  38.144  1.00  0.00     0.004 C 
ENDBRANCH  14  15
ENDBRANCH  13  14
ENDBRANCH  12  13
ENDBRANCH  11  12
ENDBRANCH  10  11
ENDBRANCH   1  10
TORSDOF 12
ENDMDL
MODEL 5
REMARK VINA RESULT:    -3.948      2.260      3.965
REMARK INTER + INTRA:          -8.283
REMARK INTER:                  -6.376
REMARK INTRA:                  -1.908
REMARK UNBOUND:                -1.566
REMARK SMILES CCCCCCCCCCCCCC(=O)[O-]
REMARK SMILES IDX 8 1 9 2 10 3 11 4 12 5 13 6 14 7 15 8 16 9 7 10 6 11 5 12
REMARK SMILES IDX 4 13 3 14 2 15 1 16
REMARK H PARENT
REMARK Flexibility Score: inf
ROOT
ATOM      1  C   UNL     1       6.076  79.101  36.781  1.00  0.00     0.000 C 
ENDROOT
BRANCH   1   2
ATOM      2  C   UNL     1       5.996  79.905  38.092  1.00  0.00     0.000 C 
BRANCH   2   3
ATOM      3  C   UNL     1       5.283  79.136  39.216  1.00  0.00     0.000 C 
BRANCH   3   4
ATOM      4  C   UNL     1       6.236  78.211  39.995  1.00  0.00     0.000 C 
BRANCH   4   5
ATOM      5  C   UNL     1       6.117  76.737  39.566  1.00  0.00     0.006 C 
BRANCH   5   6
ATOM      6  C   UNL     1       4.687  76.291  39.217  1.00  0.00     0.053 C 
BRANCH   6   7
ATOM      7  C   UNL     1       4.662  75.350  38.053  1.00  0.00     0.041 C 
ATOM      8  O   UNL     1       3.771  74.463  37.974  1.00  0.00    -0.550 OA
ATOM      9  O   UNL     1       5.602  75.472  37.039  1.00  0.00    -0.550 OA
ENDBRANCH   6   7
ENDBRANCH   5   6
ENDBRANCH   4   5
ENDBRANCH   3   4
ENDBRANCH   2   3
ENDBRANCH   1   2
BRANCH   1  10
ATOM     10  C   UNL     1       7.495  79.068  36.195  1.00  0.00     0.000 C 
BRANCH  10  11
ATOM     11  C   UNL     1       8.326  77.888  36.724  1.00  0.00    -0.000 C 
BRANCH  11  12
ATOM     12  C   UNL     1       9.764  78.324  37.032  1.00  0.00    -0.000 C 
BRANCH  12  13
ATOM     13  C   UNL     1       9.787  79.464  38.057  1.00  0.00    -0.000 C 
BRANCH  13  14
ATOM     14  C   UNL     1       9.639  78.922  39.486  1.00  0.00    -0.000 C 
BRANCH  14  15
ATOM     15  C   UNL     1       9.407  80.035  40.519  1.00  0.00    -0.003 C 
ATOM     16  C   UNL     1       9.248  81.413  39.877  1.00  0.00     0.004 C 
ENDBRANCH  14  15
ENDBRANCH  13  14
ENDBRANCH  12  13
ENDBRANCH  11  12
ENDBRANCH  10  11
ENDBRANCH   1  10
TORSDOF 12
ENDMDL
MODEL 6
REMARK VINA RESULT:    -3.935      1.290      1.797
REMARK INTER + INTRA:          -8.262
REMARK INTER:                  -6.528
REMARK INTRA:                  -1.734
REMARK UNBOUND:                -1.566
REMARK SMILES CCCCCCCCCCCCCC(=O)[O-]
REMARK SMILES IDX 8 1 9 2 10 3 11 4 12 5 13 6 14 7 15 8 16 9 7 10 6 11 5 12
REMARK SMILES IDX 4 13 3 14 2 15 1 16
REMARK H PARENT
REMARK Flexibility Score: inf
ROOT
ATOM      1  C   UNL     1       5.842  77.087  39.637  1.00  0.00     0.000 C 
ENDROOT
BRANCH   1   2
ATOM      2  C   UNL     1       4.758  76.248  38.936  1.00  0.00     0.000 C 
BRANCH   2   3
ATOM      3  C   UNL     1       5.231  75.668  37.594  1.00  0.00     0.000 C 
BRANCH   3   4
ATOM      4  C   UNL     1       6.755  75.462  37.546  1.00  0.00     0.000 C 
BRANCH   4   5
ATOM      5  C   UNL     1       7.149  73.997  37.279  1.00  0.00     0.006 C 
BRANCH   5   6
ATOM      6  C   UNL     1       6.264  72.962  37.994  1.00  0.00     0.053 C 
BRANCH   6   7
ATOM      7  C   UNL     1       6.728  72.699  39.393  1.00  0.00     0.041 C 
ATOM      8  O   UNL     1       5.973  72.949  40.369  1.00  0.00    -0.550 OA
ATOM      9  O   UNL     1       7.982  72.147  39.618  1.00  0.00    -0.550 OA
ENDBRANCH   6   7
ENDBRANCH   5   6
ENDBRANCH   4   5
ENDBRANCH   3   4
ENDBRANCH   2   3
ENDBRANCH   1   2
BRANCH   1  10
ATOM     10  C   UNL     1       5.524  78.590  39.628  1.00  0.00     0.000 C 
BRANCH  10  11
ATOM     11  C   UNL     1       6.522  79.401  38.787  1.00  0.00    -0.000 C 
BRANCH  11  12
ATOM     12  C   UNL     1       6.005  79.595  37.357  1.00  0.00    -0.000 C 
BRANCH  12  13
ATOM     13  C   UNL     1       6.982  79.006  36.332  1.00  0.00    -0.000 C 
BRANCH  13  14
ATOM     14  C   UNL     1       8.367  78.785  36.958  1.00  0.00    -0.000 C 
BRANCH  14  15
ATOM     15  C   UNL     1       9.341  78.081  36.001  1.00  0.00    -0.003 C 
ATOM     16  C   UNL     1      10.023  76.869  36.638  1.00  0.00     0.004 C 
ENDBRANCH  14  15
ENDBRANCH  13  14
ENDBRANCH  12  13
ENDBRANCH  11  12
ENDBRANCH  10  11
ENDBRANCH   1  10
TORSDOF 12
ENDMDL
MODEL 7
REMARK VINA RESULT:    -3.932      3.846      6.673
REMARK INTER + INTRA:          -8.257
REMARK INTER:                  -6.496
REMARK INTRA:                  -1.761
REMARK UNBOUND:                -1.566
REMARK SMILES CCCCCCCCCCCCCC(=O)[O-]
REMARK SMILES IDX 8 1 9 2 10 3 11 4 12 5 13 6 14 7 15 8 16 9 7 10 6 11 5 12
REMARK SMILES IDX 4 13 3 14 2 15 1 16
REMARK H PARENT
REMARK Flexibility Score: inf
ROOT
ATOM      1  C   UNL     1       7.485  79.478  36.618  1.00  0.00     0.000 C 
ENDROOT
BRANCH   1   2
ATOM      2  C   UNL     1       8.324  78.187  36.651  1.00  0.00     0.000 C 
BRANCH   2   3
ATOM      3  C   UNL     1       9.546  78.297  37.577  1.00  0.00     0.000 C 
BRANCH   3   4
ATOM      4  C   UNL     1       9.619  79.654  38.299  1.00  0.00     0.000 C 
BRANCH   4   5
ATOM      5  C   UNL     1       9.526  79.520  39.830  1.00  0.00     0.006 C 
BRANCH   5   6
ATOM      6  C   UNL     1       8.727  80.641  40.518  1.00  0.00     0.053 C 
BRANCH   6   7
ATOM      7  C   UNL     1       9.511  81.298  41.611  1.00  0.00     0.041 C 
ATOM      8  O   UNL     1      10.475  80.694  42.151  1.00  0.00    -0.550 OA
ATOM      9  O   UNL     1       9.198  82.590  42.012  1.00  0.00    -0.550 OA
ENDBRANCH   6   7
ENDBRANCH   5   6
ENDBRANCH   4   5
ENDBRANCH   3   4
ENDBRANCH   2   3
ENDBRANCH   1   2
BRANCH   1  10
ATOM     10  C   UNL     1       6.030  79.249  37.054  1.00  0.00     0.000 C 
BRANCH  10  11
ATOM     11  C   UNL     1       5.708  79.903  38.406  1.00  0.00    -0.000 C 
BRANCH  11  12
ATOM     12  C   UNL     1       5.155  78.872  39.397  1.00  0.00    -0.000 C 
BRANCH  12  13
ATOM     13  C   UNL     1       6.266  77.945  39.905  1.00  0.00    -0.000 C 
BRANCH  13  14
ATOM     14  C   UNL     1       6.038  76.502  39.429  1.00  0.00    -0.000 C 
BRANCH  14  15
ATOM     15  C   UNL     1       4.573  76.228  39.056  1.00  0.00    -0.003 C 
ATOM     16  C   UNL     1       4.169  74.770  39.277  1.00  0.00     0.004 C 
ENDBRANCH  14  15
ENDBRANCH  13  14
ENDBRANCH  12  13
ENDBRANCH  11  12
ENDBRANCH  10  11
ENDBRANCH   1  10
TORSDOF 12
ENDMDL
MODEL 8
REMARK VINA RESULT:    -3.918      4.477      6.869
REMARK INTER + INTRA:          -8.233
REMARK INTER:                  -6.489
REMARK INTRA:                  -1.745
REMARK UNBOUND:                -1.566
REMARK SMILES CCCCCCCCCCCCCC(=O)[O-]
REMARK SMILES IDX 8 1 9 2 10 3 11 4 12 5 13 6 14 7 15 8 16 9 7 10 6 11 5 12
REMARK SMILES IDX 4 13 3 14 2 15 1 16
REMARK H PARENT
REMARK Flexibility Score: inf
ROOT
ATOM      1  C   UNL     1       9.737  78.797  38.516  1.00  0.00     0.000 C 
ENDROOT
BRANCH   1   2
ATOM      2  C   UNL     1      10.367  80.192  38.674  1.00  0.00     0.000 C 
BRANCH   2   3
ATOM      3  C   UNL     1       9.441  81.183  39.398  1.00  0.00     0.000 C 
BRANCH   3   4
ATOM      4  C   UNL     1       8.550  80.497  40.449  1.00  0.00     0.000 C 
BRANCH   4   5
ATOM      5  C   UNL     1       8.763  81.059  41.867  1.00  0.00     0.006 C 
BRANCH   5   6
ATOM      6  C   UNL     1      10.220  81.426  42.192  1.00  0.00     0.053 C 
BRANCH   6   7
ATOM      7  C   UNL     1      10.936  80.311  42.891  1.00  0.00     0.041 C 
ATOM      8  O   UNL     1      11.822  79.651  42.287  1.00  0.00    -0.550 OA
ATOM      9  O   UNL     1      10.648  80.023  44.218  1.00  0.00    -0.550 OA
ENDBRANCH   6   7
ENDBRANCH   5   6
ENDBRANCH   4   5
ENDBRANCH   3   4
ENDBRANCH   2   3
ENDBRANCH   1   2
BRANCH   1  10
ATOM     10  C   UNL     1       9.512  78.414  37.045  1.00  0.00     0.000 C 
BRANCH  10  11
ATOM     11  C   UNL     1       8.027  78.206  36.709  1.00  0.00    -0.000 C 
BRANCH  11  12
ATOM     12  C   UNL     1       7.262  79.534  36.752  1.00  0.00    -0.000 C 
BRANCH  12  13
ATOM     13  C   UNL     1       6.100  79.469  37.749  1.00  0.00    -0.000 C 
BRANCH  13  14
ATOM     14  C   UNL     1       5.956  78.057  38.335  1.00  0.00    -0.000 C 
BRANCH  14  15
ATOM     15  C   UNL     1       5.749  78.067  39.857  1.00  0.00    -0.003 C 
ATOM     16  C   UNL     1       4.974  79.294  40.340  1.00  0.00     0.004 C 
ENDBRANCH  14  15
ENDBRANCH  13  14
ENDBRANCH  12  13
ENDBRANCH  11  12
ENDBRANCH  10  11
ENDBRANCH   1  10
TORSDOF 12
ENDMDL
MODEL 9
REMARK VINA RESULT:    -3.915      4.797      7.225
REMARK INTER + INTRA:          -8.227
REMARK INTER:                  -6.521
REMARK INTRA:                  -1.706
REMARK UNBOUND:                -1.566
REMARK SMILES CCCCCCCCCCCCCC(=O)[O-]
REMARK SMILES IDX 8 1 9 2 10 3 11 4 12 5 13 6 14 7 15 8 16 9 7 10 6 11 5 12
REMARK SMILES IDX 4 13 3 14 2 15 1 16
REMARK H PARENT
REMARK Flexibility Score: inf
ROOT
ATOM      1  C   UNL     1       9.231  78.893  39.496  1.00  0.00     0.000 C 
ENDROOT
BRANCH   1   2
ATOM      2  C   UNL     1       8.758  80.062  40.379  1.00  0.00     0.000 C 
BRANCH   2   3
ATOM      3  C   UNL     1       9.185  81.432  39.828  1.00  0.00     0.000 C 
BRANCH   3   4
ATOM      4  C   UNL     1      10.141  82.177  40.776  1.00  0.00     0.000 C 
BRANCH   4   5
ATOM      5  C   UNL     1      11.588  81.657  40.692  1.00  0.00     0.006 C 
BRANCH   5   6
ATOM      6  C   UNL     1      12.240  81.373  42.056  1.00  0.00     0.053 C 
BRANCH   6   7
ATOM      7  C   UNL     1      11.627  80.188  42.735  1.00  0.00     0.041 C 
ATOM      8  O   UNL     1      11.772  79.035  42.252  1.00  0.00    -0.550 OA
ATOM      9  O   UNL     1      10.922  80.353  43.920  1.00  0.00    -0.550 OA
ENDBRANCH   6   7
ENDBRANCH   5   6
ENDBRANCH   4   5
ENDBRANCH   3   4
ENDBRANCH   2   3
ENDBRANCH   1   2
BRANCH   1  10
ATOM     10  C   UNL     1       9.819  79.365  38.158  1.00  0.00     0.000 C 
BRANCH  10  11
ATOM     11  C   UNL     1       9.738  78.290  37.063  1.00  0.00    -0.000 C 
BRANCH  11  12
ATOM     12  C   UNL     1       8.279  77.981  36.704  1.00  0.00    -0.000 C 
BRANCH  12  13
ATOM     13  C   UNL     1       7.540  79.250  36.262  1.00  0.00    -0.000 C 
BRANCH  13  14
ATOM     14  C   UNL     1       6.091  79.247  36.772  1.00  0.00    -0.000 C 
BRANCH  14  15
ATOM     15  C   UNL     1       5.897  80.143  38.005  1.00  0.00    -0.003 C 
ATOM     16  C   UNL     1       5.309  79.388  39.197  1.00  0.00     0.004 C 
ENDBRANCH  14  15
ENDBRANCH  13  14
ENDBRANCH  12  13
ENDBRANCH  11  12
ENDBRANCH  10  11
ENDBRANCH   1  10
TORSDOF 12
ENDMDL
