MODEL 1
REMARK VINA RESULT:    -5.925      0.000      0.000
REMARK INTER + INTRA:          -6.445
REMARK INTER:                  -6.271
REMARK INTRA:                  -0.173
REMARK UNBOUND:                -0.173
REMARK SMILES CC(C)[C@@H]1CC[C@@H](C)CC1=O
REMARK SMILES IDX 8 1 7 2 6 3 5 4 4 5 10 6 11 7 9 8 2 9 1 10 3 11
REMARK H PARENT
REMARK Flexibility Score: inf
ROOT
ATOM      1  C   UNL     1      25.224  37.730  26.943  1.00  0.00     0.008 C 
ATOM      2  C   UNL     1      26.739  37.931  26.833  1.00  0.00    -0.007 C 
ATOM      3  C   UNL     1      27.417  36.658  26.290  1.00  0.00     0.004 C 
ATOM      4  C   UNL     1      28.930  36.869  26.135  1.00  0.00     0.012 C 
ATOM      5  C   UNL     1      29.591  37.237  27.485  1.00  0.00     0.058 C 
ATOM      6  C   UNL     1      28.834  38.386  28.130  1.00  0.00     0.136 C 
ATOM      7  O   UNL     1      29.422  39.299  28.691  1.00  0.00    -0.299 OA
ATOM      8  C   UNL     1      27.332  38.323  28.199  1.00  0.00     0.079 C 
ENDROOT
BRANCH   5   9
ATOM      9  C   UNL     1      31.126  37.501  27.371  1.00  0.00    -0.007 C 
ATOM     10  C   UNL     1      31.619  37.658  25.921  1.00  0.00     0.008 C 
ATOM     11  C   UNL     1      31.946  36.419  28.091  1.00  0.00     0.008 C 
ENDBRANCH   5   9
TORSDOF 1
ENDMDL
MODEL 2
REMARK VINA RESULT:    -5.886      1.615      2.179
REMARK INTER + INTRA:          -6.404
REMARK INTER:                  -6.235
REMARK INTRA:                  -0.169
REMARK UNBOUND:                -0.173
REMARK SMILES CC(C)[C@@H]1CC[C@@H](C)CC1=O
REMARK SMILES IDX 8 1 7 2 6 3 5 4 4 5 10 6 11 7 9 8 2 9 1 10 3 11
REMARK H PARENT
REMARK Flexibility Score: inf
ROOT
ATOM      1  C   UNL     1      25.158  37.672  26.952  1.00  0.00     0.008 C 
ATOM      2  C   UNL     1      26.670  37.455  26.834  1.00  0.00    -0.007 C 
ATOM      3  C   UNL     1      27.352  37.635  28.204  1.00  0.00     0.004 C 
ATOM      4  C   UNL     1      28.862  37.373  28.100  1.00  0.00     0.012 C 
ATOM      5  C   UNL     1      29.534  38.332  27.089  1.00  0.00     0.058 C 
ATOM      6  C   UNL     1      28.774  38.305  25.773  1.00  0.00     0.136 C 
ATOM      7  O   UNL     1      29.361  38.309  24.700  1.00  0.00    -0.299 OA
ATOM      8  C   UNL     1      27.273  38.417  25.794  1.00  0.00     0.079 C 
ENDROOT
BRANCH   5   9
ATOM      9  C   UNL     1      31.066  38.078  26.918  1.00  0.00    -0.007 C 
ATOM     10  C   UNL     1      31.585  36.876  27.728  1.00  0.00     0.008 C 
ATOM     11  C   UNL     1      31.892  39.331  27.248  1.00  0.00     0.008 C 
ENDBRANCH   5   9
TORSDOF 1
ENDMDL
MODEL 3
REMARK VINA RESULT:    -5.782      1.734      2.297
REMARK INTER + INTRA:          -6.293
REMARK INTER:                  -6.126
REMARK INTRA:                  -0.167
REMARK UNBOUND:                -0.173
REMARK SMILES CC(C)[C@@H]1CC[C@@H](C)CC1=O
REMARK SMILES IDX 8 1 7 2 6 3 5 4 4 5 10 6 11 7 9 8 2 9 1 10 3 11
REMARK H PARENT
REMARK Flexibility Score: inf
ROOT
ATOM      1  C   UNL     1      25.136  37.639  26.991  1.00  0.00     0.008 C 
ATOM      2  C   UNL     1      26.653  37.551  27.184  1.00  0.00    -0.007 C 
ATOM      3  C   UNL     1      27.345  38.807  26.621  1.00  0.00     0.004 C 
ATOM      4  C   UNL     1      28.862  38.745  26.852  1.00  0.00     0.012 C 
ATOM      5  C   UNL     1      29.486  37.499  26.180  1.00  0.00     0.058 C 
ATOM      6  C   UNL     1      28.711  36.256  26.584  1.00  0.00     0.136 C 
ATOM      7  O   UNL     1      29.284  35.209  26.850  1.00  0.00    -0.299 OA
ATOM      8  C   UNL     1      27.208  36.278  26.519  1.00  0.00     0.079 C 
ENDROOT
BRANCH   5   9
ATOM      9  C   UNL     1      31.024  37.370  26.421  1.00  0.00    -0.007 C 
ATOM     10  C   UNL     1      31.613  38.514  27.266  1.00  0.00     0.008 C 
ATOM     11  C   UNL     1      31.799  37.237  25.101  1.00  0.00     0.008 C 
ENDBRANCH   5   9
TORSDOF 1
ENDMDL
MODEL 4
REMARK VINA RESULT:    -5.564      1.864      3.876
REMARK INTER + INTRA:          -6.062
REMARK INTER:                  -5.892
REMARK INTRA:                  -0.170
REMARK UNBOUND:                -0.173
REMARK SMILES CC(C)[C@@H]1CC[C@@H](C)CC1=O
REMARK SMILES IDX 8 1 7 2 6 3 5 4 4 5 10 6 11 7 9 8 2 9 1 10 3 11
REMARK H PARENT
REMARK Flexibility Score: inf
ROOT
ATOM      1  C   UNL     1      30.193  39.249  31.074  1.00  0.00     0.008 C 
ATOM      2  C   UNL     1      29.776  39.109  29.607  1.00  0.00    -0.007 C 
ATOM      3  C   UNL     1      28.290  38.714  29.503  1.00  0.00     0.004 C 
ATOM      4  C   UNL     1      27.853  38.617  28.034  1.00  0.00     0.012 C 
ATOM      5  C   UNL     1      28.693  37.571  27.261  1.00  0.00     0.058 C 
ATOM      6  C   UNL     1      30.172  37.834  27.488  1.00  0.00     0.136 C 
ATOM      7  O   UNL     1      30.981  37.739  26.576  1.00  0.00    -0.299 OA
ATOM      8  C   UNL     1      30.665  38.079  28.889  1.00  0.00     0.079 C 
ENDROOT
BRANCH   5   9
ATOM      9  C   UNL     1      28.312  37.464  25.750  1.00  0.00    -0.007 C 
ATOM     10  C   UNL     1      27.965  38.818  25.105  1.00  0.00     0.008 C 
ATOM     11  C   UNL     1      27.170  36.463  25.520  1.00  0.00     0.008 C 
ENDBRANCH   5   9
TORSDOF 1
ENDMDL
MODEL 5
REMARK VINA RESULT:    -5.522      1.462      4.092
REMARK INTER + INTRA:          -6.018
REMARK INTER:                  -5.902
REMARK INTRA:                  -0.116
REMARK UNBOUND:                -0.173
REMARK SMILES CC(C)[C@@H]1CC[C@@H](C)CC1=O
REMARK SMILES IDX 8 1 7 2 6 3 5 4 4 5 10 6 11 7 9 8 2 9 1 10 3 11
REMARK H PARENT
REMARK Flexibility Score: inf
ROOT
ATOM      1  C   UNL     1      32.122  40.068  27.753  1.00  0.00     0.008 C 
ATOM      2  C   UNL     1      31.000  39.028  27.667  1.00  0.00    -0.007 C 
ATOM      3  C   UNL     1      30.564  38.822  26.204  1.00  0.00     0.004 C 
ATOM      4  C   UNL     1      29.471  37.748  26.106  1.00  0.00     0.012 C 
ATOM      5  C   UNL     1      28.224  38.131  26.940  1.00  0.00     0.058 C 
ATOM      6  C   UNL     1      28.647  38.509  28.349  1.00  0.00     0.136 C 
ATOM      7  O   UNL     1      27.998  38.153  29.323  1.00  0.00    -0.299 OA
ATOM      8  C   UNL     1      29.804  39.453  28.538  1.00  0.00     0.079 C 
ENDROOT
BRANCH   5   9
ATOM      9  C   UNL     1      27.099  37.049  26.904  1.00  0.00    -0.007 C 
ATOM     10  C   UNL     1      27.255  36.034  25.758  1.00  0.00     0.008 C 
ATOM     11  C   UNL     1      25.700  37.683  26.859  1.00  0.00     0.008 C 
ENDBRANCH   5   9
TORSDOF 1
ENDMDL
MODEL 6
REMARK VINA RESULT:    -5.401      2.180      3.245
REMARK INTER + INTRA:          -5.890
REMARK INTER:                  -5.714
REMARK INTRA:                  -0.176
REMARK UNBOUND:                -0.173
REMARK SMILES CC(C)[C@@H]1CC[C@@H](C)CC1=O
REMARK SMILES IDX 8 1 7 2 6 3 5 4 4 5 10 6 11 7 9 8 2 9 1 10 3 11
REMARK H PARENT
REMARK Flexibility Score: inf
ROOT
ATOM      1  C   UNL     1      27.105  37.568  30.234  1.00  0.00     0.008 C 
ATOM      2  C   UNL     1      27.865  37.485  28.906  1.00  0.00    -0.007 C 
ATOM      3  C   UNL     1      28.745  38.735  28.708  1.00  0.00     0.004 C 
ATOM      4  C   UNL     1      29.545  38.637  27.401  1.00  0.00     0.012 C 
ATOM      5  C   UNL     1      28.610  38.498  26.175  1.00  0.00     0.058 C 
ATOM      6  C   UNL     1      27.612  37.378  26.417  1.00  0.00     0.136 C 
ATOM      7  O   UNL     1      27.307  36.596  25.527  1.00  0.00    -0.299 OA
ATOM      8  C   UNL     1      26.883  37.319  27.732  1.00  0.00     0.079 C 
ENDROOT
BRANCH   5   9
ATOM      9  C   UNL     1      29.378  38.355  24.823  1.00  0.00    -0.007 C 
ATOM     10  C   UNL     1      30.829  37.866  24.987  1.00  0.00     0.008 C 
ATOM     11  C   UNL     1      29.351  39.659  24.011  1.00  0.00     0.008 C 
ENDBRANCH   5   9
TORSDOF 1
ENDMDL
MODEL 7
REMARK VINA RESULT:    -5.357      1.834      4.537
REMARK INTER + INTRA:          -5.844
REMARK INTER:                  -5.688
REMARK INTRA:                  -0.156
REMARK UNBOUND:                -0.173
REMARK SMILES CC(C)[C@@H]1CC[C@@H](C)CC1=O
REMARK SMILES IDX 8 1 7 2 6 3 5 4 4 5 10 6 11 7 9 8 2 9 1 10 3 11
REMARK H PARENT
REMARK Flexibility Score: inf
ROOT
ATOM      1  C   UNL     1      32.089  36.090  28.324  1.00  0.00     0.008 C 
ATOM      2  C   UNL     1      30.901  36.636  27.525  1.00  0.00    -0.007 C 
ATOM      3  C   UNL     1      30.365  37.930  28.167  1.00  0.00     0.004 C 
ATOM      4  C   UNL     1      29.204  38.507  27.345  1.00  0.00     0.012 C 
ATOM      5  C   UNL     1      28.036  37.498  27.231  1.00  0.00     0.058 C 
ATOM      6  C   UNL     1      28.565  36.154  26.761  1.00  0.00     0.136 C 
ATOM      7  O   UNL     1      27.955  35.482  25.941  1.00  0.00    -0.299 OA
ATOM      8  C   UNL     1      29.788  35.578  27.423  1.00  0.00     0.079 C 
ENDROOT
BRANCH   5   9
ATOM      9  C   UNL     1      26.845  38.025  26.369  1.00  0.00    -0.007 C 
ATOM     10  C   UNL     1      26.968  39.512  25.990  1.00  0.00     0.008 C 
ATOM     11  C   UNL     1      25.491  37.765  27.048  1.00  0.00     0.008 C 
ENDBRANCH   5   9
TORSDOF 1
ENDMDL
MODEL 8
REMARK VINA RESULT:    -5.316      1.684      4.413
REMARK INTER + INTRA:          -5.800
REMARK INTER:                  -5.673
REMARK INTRA:                  -0.127
REMARK UNBOUND:                -0.173
REMARK SMILES CC(C)[C@@H]1CC[C@@H](C)CC1=O
REMARK SMILES IDX 8 1 7 2 6 3 5 4 4 5 10 6 11 7 9 8 2 9 1 10 3 11
REMARK H PARENT
REMARK Flexibility Score: inf
ROOT
ATOM      1  C   UNL     1      31.992  37.194  24.381  1.00  0.00     0.008 C 
ATOM      2  C   UNL     1      30.885  37.643  25.340  1.00  0.00    -0.007 C 
ATOM      3  C   UNL     1      30.457  36.480  26.256  1.00  0.00     0.004 C 
ATOM      4  C   UNL     1      29.380  36.936  27.251  1.00  0.00     0.012 C 
ATOM      5  C   UNL     1      28.125  37.470  26.520  1.00  0.00     0.058 C 
ATOM      6  C   UNL     1      28.536  38.501  25.482  1.00  0.00     0.136 C 
ATOM      7  O   UNL     1      27.888  39.525  25.313  1.00  0.00    -0.299 OA
ATOM      8  C   UNL     1      29.679  38.189  24.554  1.00  0.00     0.079 C 
ENDROOT
BRANCH   5   9
ATOM      9  C   UNL     1      27.014  37.984  27.490  1.00  0.00    -0.007 C 
ATOM     10  C   UNL     1      27.212  37.531  28.948  1.00  0.00     0.008 C 
ATOM     11  C   UNL     1      25.609  37.598  27.005  1.00  0.00     0.008 C 
ENDBRANCH   5   9
TORSDOF 1
ENDMDL
MODEL 9
REMARK VINA RESULT:    -5.307      1.719      2.506
REMARK INTER + INTRA:          -5.791
REMARK INTER:                  -5.614
REMARK INTRA:                  -0.177
REMARK UNBOUND:                -0.173
REMARK SMILES CC(C)[C@@H]1CC[C@@H](C)CC1=O
REMARK SMILES IDX 8 1 7 2 6 3 5 4 4 5 10 6 11 7 9 8 2 9 1 10 3 11
REMARK H PARENT
REMARK Flexibility Score: inf
ROOT
ATOM      1  C   UNL     1      26.868  34.997  25.181  1.00  0.00     0.008 C 
ATOM      2  C   UNL     1      27.716  36.135  25.759  1.00  0.00    -0.007 C 
ATOM      3  C   UNL     1      28.654  35.606  26.860  1.00  0.00     0.004 C 
ATOM      4  C   UNL     1      29.540  36.733  27.411  1.00  0.00     0.012 C 
ATOM      5  C   UNL     1      28.688  37.882  28.004  1.00  0.00     0.058 C 
ATOM      6  C   UNL     1      27.634  38.310  26.997  1.00  0.00     0.136 C 
ATOM      7  O   UNL     1      27.363  39.490  26.824  1.00  0.00    -0.299 OA
ATOM      8  C   UNL     1      26.813  37.256  26.305  1.00  0.00     0.079 C 
ENDROOT
BRANCH   5   9
ATOM      9  C   UNL     1      29.544  39.073  28.542  1.00  0.00    -0.007 C 
ATOM     10  C   UNL     1      30.913  39.209  27.853  1.00  0.00     0.008 C 
ATOM     11  C   UNL     1      29.726  39.001  30.066  1.00  0.00     0.008 C 
ENDBRANCH   5   9
TORSDOF 1
ENDMDL
