MODEL 1
REMARK VINA RESULT:    -4.601      0.000      0.000
REMARK INTER + INTRA:          -7.222
REMARK INTER:                  -6.215
REMARK INTRA:                  -1.007
REMARK UNBOUND:                -1.007
REMARK SMILES O=c1c(-c2ccc(O)cc2)coc2c([C@@H]3O[C@@H](CO)[C@H](O)[C@H](O)[C@@H]3O)c(O)ccc12
REMARK SMILES IDX 3 1 11 2 12 3 13 4 30 5 2 6 1 7 29 8 28 9 26 10 14 11 4 12
REMARK SMILES IDX 5 13 6 14 7 15 10 16 9 17 8 18 15 20 24 21 16 22 22 23 17 24
REMARK SMILES IDX 20 25 25 26 23 28 18 30 19 31 21 33 27 35
REMARK H PARENT 8 19 25 27 23 29 19 32 21 34 27 36
REMARK Flexibility Score: inf
ROOT
ATOM      1  C   UNL     1    -100.116  25.933 -41.353  1.00  0.00     0.065 A 
ATOM      2  C   UNL     1     -99.396  26.402 -40.241  1.00  0.00     0.208 A 
ATOM      3  O   UNL     1     -98.157  25.993 -40.002  1.00  0.00    -0.463 OA
ATOM      4  C   UNL     1     -97.521  25.107 -40.761  1.00  0.00     0.147 A 
ATOM      5  C   UNL     1     -98.213  24.499 -41.838  1.00  0.00     0.066 A 
ATOM      6  C   UNL     1     -99.502  24.962 -42.167  1.00  0.00     0.200 A 
ATOM      7  O   UNL     1    -100.090  24.522 -43.194  1.00  0.00    -0.288 OA
ATOM      8  C   UNL     1     -97.609  23.452 -42.549  1.00  0.00     0.020 A 
ATOM      9  C   UNL     1     -96.345  22.998 -42.180  1.00  0.00     0.047 A 
ATOM     10  C   UNL     1     -95.623  23.647 -41.174  1.00  0.00     0.125 A 
ATOM     11  C   UNL     1     -96.172  24.767 -40.504  1.00  0.00     0.069 A 
ENDROOT
BRANCH   1  12
ATOM     12  C   UNL     1    -101.454  26.498 -41.667  1.00  0.00    -0.011 A 
ATOM     13  C   UNL     1    -101.585  27.714 -42.371  1.00  0.00     0.013 A 
ATOM     14  C   UNL     1    -102.851  28.257 -42.616  1.00  0.00     0.047 A 
ATOM     15  C   UNL     1    -104.003  27.591 -42.173  1.00  0.00     0.115 A 
ATOM     16  C   UNL     1    -102.620  25.824 -41.254  1.00  0.00     0.013 A 
ATOM     17  C   UNL     1    -103.882  26.366 -41.507  1.00  0.00     0.047 A 
BRANCH  15  18
ATOM     18  O   UNL     1    -105.267  28.129 -42.394  1.00  0.00    -0.508 OA
ATOM     19  H   UNL     1    -106.099  27.554 -42.353  1.00  0.00     0.293 HD
ENDBRANCH  15  18
ENDBRANCH   1  12
BRANCH  11  20
ATOM     20  C   UNL     1     -95.297  25.501 -39.484  1.00  0.00     0.188 C 
ATOM     21  C   UNL     1     -95.141  27.064 -39.647  1.00  0.00     0.179 C 
ATOM     22  O   UNL     1     -95.608  25.005 -38.181  1.00  0.00    -0.362 OA
ATOM     23  C   UNL     1     -95.925  27.941 -38.634  1.00  0.00     0.177 C 
ATOM     24  C   UNL     1     -95.492  25.943 -37.126  1.00  0.00     0.176 C 
ATOM     25  C   UNL     1     -96.389  27.163 -37.387  1.00  0.00     0.177 C 
BRANCH  21  26
ATOM     26  O   UNL     1     -95.371  27.474 -40.969  1.00  0.00    -0.387 OA
ATOM     27  H   UNL     1     -95.256  26.667 -41.541  1.00  0.00     0.211 HD
ENDBRANCH  21  26
BRANCH  23  28
ATOM     28  O   UNL     1     -97.011  28.596 -39.248  1.00  0.00    -0.387 OA
ATOM     29  H   UNL     1     -97.198  29.426 -38.738  1.00  0.00     0.211 HD
ENDBRANCH  23  28
BRANCH  24  30
ATOM     30  C   UNL     1     -94.008  26.266 -36.795  1.00  0.00     0.191 C 
BRANCH  30  31
ATOM     31  O   UNL     1     -93.875  26.677 -35.455  1.00  0.00    -0.394 OA
ATOM     32  H   UNL     1     -94.471  27.468 -35.321  1.00  0.00     0.210 HD
ENDBRANCH  30  31
ENDBRANCH  24  30
BRANCH  25  33
ATOM     33  O   UNL     1     -97.707  26.701 -37.556  1.00  0.00    -0.388 OA
ATOM     34  H   UNL     1     -97.881  26.026 -36.850  1.00  0.00     0.211 HD
ENDBRANCH  25  33
ENDBRANCH  11  20
BRANCH  10  35
ATOM     35  O   UNL     1     -94.352  23.176 -40.842  1.00  0.00    -0.507 OA
ATOM     36  H   UNL     1     -93.954  22.359 -41.290  1.00  0.00     0.293 HD
ENDBRANCH  10  35
TORSDOF 9
ENDMDL
MODEL 2
REMARK VINA RESULT:    -4.555     10.931     13.918
REMARK INTER + INTRA:          -7.159
REMARK INTER:                  -6.252
REMARK INTRA:                  -0.907
REMARK UNBOUND:                -1.007
REMARK SMILES O=c1c(-c2ccc(O)cc2)coc2c([C@@H]3O[C@@H](CO)[C@H](O)[C@H](O)[C@@H]3O)c(O)ccc12
REMARK SMILES IDX 3 1 11 2 12 3 13 4 30 5 2 6 1 7 29 8 28 9 26 10 14 11 4 12
REMARK SMILES IDX 5 13 6 14 7 15 10 16 9 17 8 18 15 20 24 21 16 22 22 23 17 24
REMARK SMILES IDX 20 25 25 26 23 28 18 30 19 31 21 33 27 35
REMARK H PARENT 8 19 25 27 23 29 19 32 21 34 27 36
REMARK Flexibility Score: inf
ROOT
ATOM      1  C   UNL     1    -100.477  26.381 -26.503  1.00  0.00     0.065 A 
ATOM      2  C   UNL     1     -99.848  25.681 -27.546  1.00  0.00     0.208 A 
ATOM      3  O   UNL     1     -98.527  25.672 -27.671  1.00  0.00    -0.463 OA
ATOM      4  C   UNL     1     -97.712  26.332 -26.855  1.00  0.00     0.147 A 
ATOM      5  C   UNL     1     -98.267  27.156 -25.844  1.00  0.00     0.066 A 
ATOM      6  C   UNL     1     -99.660  27.131 -25.634  1.00  0.00     0.200 A 
ATOM      7  O   UNL     1    -100.166  27.761 -24.664  1.00  0.00    -0.288 OA
ATOM      8  C   UNL     1     -97.428  27.977 -25.078  1.00  0.00     0.020 A 
ATOM      9  C   UNL     1     -96.059  28.000 -25.330  1.00  0.00     0.047 A 
ATOM     10  C   UNL     1     -95.493  27.130 -26.269  1.00  0.00     0.125 A 
ATOM     11  C   UNL     1     -96.308  26.223 -26.989  1.00  0.00     0.069 A 
ENDROOT
BRANCH   1  12
ATOM     12  C   UNL     1    -101.946  26.276 -26.313  1.00  0.00    -0.011 A 
ATOM     13  C   UNL     1    -102.491  25.702 -25.145  1.00  0.00     0.013 A 
ATOM     14  C   UNL     1    -103.875  25.565 -25.002  1.00  0.00     0.047 A 
ATOM     15  C   UNL     1    -104.737  26.007 -26.016  1.00  0.00     0.115 A 
ATOM     16  C   UNL     1    -102.824  26.743 -27.312  1.00  0.00     0.013 A 
ATOM     17  C   UNL     1    -104.206  26.611 -27.161  1.00  0.00     0.047 A 
BRANCH  15  18
ATOM     18  O   UNL     1    -106.115  25.860 -25.895  1.00  0.00    -0.508 OA
ATOM     19  H   UNL     1    -106.685  25.566 -26.679  1.00  0.00     0.293 HD
ENDBRANCH  15  18
ENDBRANCH   1  12
BRANCH  11  20
ATOM     20  C   UNL     1     -95.626  25.224 -27.927  1.00  0.00     0.188 C 
ATOM     21  C   UNL     1     -96.006  23.699 -27.772  1.00  0.00     0.179 C 
ATOM     22  O   UNL     1     -95.626  25.770 -29.246  1.00  0.00    -0.362 OA
ATOM     23  C   UNL     1     -96.929  23.108 -28.871  1.00  0.00     0.177 C 
ATOM     24  C   UNL     1     -95.719  24.826 -30.299  1.00  0.00     0.176 C 
ATOM     25  C   UNL     1     -96.987  23.972 -30.146  1.00  0.00     0.177 C 
BRANCH  21  26
ATOM     26  O   UNL     1     -96.488  23.413 -26.486  1.00  0.00    -0.387 OA
ATOM     27  H   UNL     1     -97.194  24.086 -26.290  1.00  0.00     0.211 HD
ENDBRANCH  21  26
BRANCH  23  28
ATOM     28  O   UNL     1     -98.226  22.856 -28.378  1.00  0.00    -0.387 OA
ATOM     29  H   UNL     1     -98.534  23.666 -27.896  1.00  0.00     0.211 HD
ENDBRANCH  23  28
BRANCH  24  30
ATOM     30  C   UNL     1     -94.398  24.030 -30.485  1.00  0.00     0.191 C 
BRANCH  30  31
ATOM     31  O   UNL     1     -94.535  23.071 -31.506  1.00  0.00    -0.394 OA
ATOM     32  H   UNL     1     -94.443  22.169 -31.088  1.00  0.00     0.210 HD
ENDBRANCH  30  31
ENDBRANCH  24  30
BRANCH  25  33
ATOM     33  O   UNL     1     -98.092  24.843 -30.103  1.00  0.00    -0.388 OA
ATOM     34  H   UNL     1     -98.789  24.414 -29.544  1.00  0.00     0.211 HD
ENDBRANCH  25  33
ENDBRANCH  11  20
BRANCH  10  35
ATOM     35  O   UNL     1     -94.115  27.168 -26.483  1.00  0.00    -0.507 OA
ATOM     36  H   UNL     1     -93.720  27.112 -27.414  1.00  0.00     0.293 HD
ENDBRANCH  10  35
TORSDOF 9
ENDMDL
MODEL 3
REMARK VINA RESULT:    -4.326     11.878     12.917
REMARK INTER + INTRA:          -6.850
REMARK INTER:                  -5.672
REMARK INTRA:                  -1.178
REMARK UNBOUND:                -1.007
REMARK SMILES O=c1c(-c2ccc(O)cc2)coc2c([C@@H]3O[C@@H](CO)[C@H](O)[C@H](O)[C@@H]3O)c(O)ccc12
REMARK SMILES IDX 3 1 11 2 12 3 13 4 30 5 2 6 1 7 29 8 28 9 26 10 14 11 4 12
REMARK SMILES IDX 5 13 6 14 7 15 10 16 9 17 8 18 15 20 24 21 16 22 22 23 17 24
REMARK SMILES IDX 20 25 25 26 23 28 18 30 19 31 21 33 27 35
REMARK H PARENT 8 19 25 27 23 29 19 32 21 34 27 36
REMARK Flexibility Score: inf
ROOT
ATOM      1  C   UNL     1    -101.734  25.673 -28.124  1.00  0.00     0.065 A 
ATOM      2  C   UNL     1    -100.864  26.491 -27.386  1.00  0.00     0.208 A 
ATOM      3  O   UNL     1     -99.572  26.204 -27.282  1.00  0.00    -0.463 OA
ATOM      4  C   UNL     1     -99.016  25.129 -27.832  1.00  0.00     0.147 A 
ATOM      5  C   UNL     1     -99.842  24.190 -28.499  1.00  0.00     0.066 A 
ATOM      6  C   UNL     1    -101.203  24.499 -28.693  1.00  0.00     0.200 A 
ATOM      7  O   UNL     1    -101.932  23.737 -29.387  1.00  0.00    -0.288 OA
ATOM      8  C   UNL     1     -99.297  22.979 -28.946  1.00  0.00     0.020 A 
ATOM      9  C   UNL     1     -97.954  22.693 -28.713  1.00  0.00     0.047 A 
ATOM     10  C   UNL     1     -97.114  23.647 -28.130  1.00  0.00     0.125 A 
ATOM     11  C   UNL     1     -97.620  24.915 -27.754  1.00  0.00     0.069 A 
ENDROOT
BRANCH   1  12
ATOM     12  C   UNL     1    -103.148  26.080 -28.327  1.00  0.00    -0.011 A 
ATOM     13  C   UNL     1    -103.524  26.887 -29.422  1.00  0.00     0.013 A 
ATOM     14  C   UNL     1    -104.851  27.303 -29.572  1.00  0.00     0.047 A 
ATOM     15  C   UNL     1    -105.823  26.913 -28.640  1.00  0.00     0.115 A 
ATOM     16  C   UNL     1    -104.140  25.671 -27.414  1.00  0.00     0.013 A 
ATOM     17  C   UNL     1    -105.466  26.083 -27.572  1.00  0.00     0.047 A 
BRANCH  15  18
ATOM     18  O   UNL     1    -107.143  27.335 -28.768  1.00  0.00    -0.508 OA
ATOM     19  H   UNL     1    -107.917  26.698 -28.619  1.00  0.00     0.293 HD
ENDBRANCH  15  18
ENDBRANCH   1  12
BRANCH  11  20
ATOM     20  C   UNL     1     -96.636  25.957 -27.217  1.00  0.00     0.188 C 
ATOM     21  C   UNL     1     -96.780  27.439 -27.745  1.00  0.00     0.179 C 
ATOM     22  O   UNL     1     -96.507  25.772 -25.807  1.00  0.00    -0.362 OA
ATOM     23  C   UNL     1     -97.398  28.463 -26.754  1.00  0.00     0.177 C 
ATOM     24  C   UNL     1     -96.267  26.949 -25.055  1.00  0.00     0.176 C 
ATOM     25  C   UNL     1     -97.384  27.977 -25.291  1.00  0.00     0.177 C 
BRANCH  21  26
ATOM     26  O   UNL     1     -97.415  27.484 -28.995  1.00  0.00    -0.387 OA
ATOM     27  H   UNL     1     -96.823  28.014 -29.596  1.00  0.00     0.211 HD
ENDBRANCH  21  26
BRANCH  23  28
ATOM     28  O   UNL     1     -98.698  28.841 -27.144  1.00  0.00    -0.387 OA
ATOM     29  H   UNL     1     -98.622  29.622 -27.751  1.00  0.00     0.211 HD
ENDBRANCH  23  28
BRANCH  24  30
ATOM     30  C   UNL     1     -94.821  27.481 -25.253  1.00  0.00     0.191 C 
BRANCH  30  31
ATOM     31  O   UNL     1     -93.877  26.483 -24.944  1.00  0.00    -0.394 OA
ATOM     32  H   UNL     1     -93.664  26.560 -23.971  1.00  0.00     0.210 HD
ENDBRANCH  30  31
ENDBRANCH  24  30
BRANCH  25  33
ATOM     33  O   UNL     1     -98.609  27.367 -24.962  1.00  0.00    -0.388 OA
ATOM     34  H   UNL     1     -98.415  26.433 -24.693  1.00  0.00     0.211 HD
ENDBRANCH  25  33
ENDBRANCH  11  20
BRANCH  10  35
ATOM     35  O   UNL     1     -95.770  23.332 -27.926  1.00  0.00    -0.507 OA
ATOM     36  H   UNL     1     -95.042  23.696 -28.529  1.00  0.00     0.293 HD
ENDBRANCH  10  35
TORSDOF 9
ENDMDL
MODEL 4
REMARK VINA RESULT:    -4.245      4.020      7.019
REMARK INTER + INTRA:          -6.740
REMARK INTER:                  -5.587
REMARK INTRA:                  -1.154
REMARK UNBOUND:                -1.007
REMARK SMILES O=c1c(-c2ccc(O)cc2)coc2c([C@@H]3O[C@@H](CO)[C@H](O)[C@H](O)[C@@H]3O)c(O)ccc12
REMARK SMILES IDX 3 1 11 2 12 3 13 4 30 5 2 6 1 7 29 8 28 9 26 10 14 11 4 12
REMARK SMILES IDX 5 13 6 14 7 15 10 16 9 17 8 18 15 20 24 21 16 22 22 23 17 24
REMARK SMILES IDX 20 25 25 26 23 28 18 30 19 31 21 33 27 35
REMARK H PARENT 8 19 25 27 23 29 19 32 21 34 27 36
REMARK Flexibility Score: inf
ROOT
ATOM      1  C   UNL     1     -96.277  21.303 -37.681  1.00  0.00     0.065 A 
ATOM      2  C   UNL     1     -96.141  22.662 -37.352  1.00  0.00     0.208 A 
ATOM      3  O   UNL     1     -96.206  23.605 -38.283  1.00  0.00    -0.463 OA
ATOM      4  C   UNL     1     -96.373  23.345 -39.575  1.00  0.00     0.147 A 
ATOM      5  C   UNL     1     -96.407  21.996 -40.009  1.00  0.00     0.066 A 
ATOM      6  C   UNL     1     -96.416  20.971 -39.042  1.00  0.00     0.200 A 
ATOM      7  O   UNL     1     -96.567  19.769 -39.396  1.00  0.00    -0.288 OA
ATOM      8  C   UNL     1     -96.425  21.707 -41.381  1.00  0.00     0.020 A 
ATOM      9  C   UNL     1     -96.386  22.743 -42.310  1.00  0.00     0.047 A 
ATOM     10  C   UNL     1     -96.437  24.077 -41.891  1.00  0.00     0.125 A 
ATOM     11  C   UNL     1     -96.514  24.394 -40.514  1.00  0.00     0.069 A 
ENDROOT
BRANCH   1  12
ATOM     12  C   UNL     1     -96.324  20.277 -36.608  1.00  0.00    -0.011 A 
ATOM     13  C   UNL     1     -95.152  19.618 -36.178  1.00  0.00     0.013 A 
ATOM     14  C   UNL     1     -95.219  18.619 -35.202  1.00  0.00     0.047 A 
ATOM     15  C   UNL     1     -96.452  18.270 -34.632  1.00  0.00     0.115 A 
ATOM     16  C   UNL     1     -97.552  19.937 -36.007  1.00  0.00     0.013 A 
ATOM     17  C   UNL     1     -97.613  18.944 -35.026  1.00  0.00     0.047 A 
BRANCH  15  18
ATOM     18  O   UNL     1     -96.535  17.265 -33.673  1.00  0.00    -0.508 OA
ATOM     19  H   UNL     1     -96.770  17.474 -32.710  1.00  0.00     0.293 HD
ENDBRANCH  15  18
ENDBRANCH   1  12
BRANCH  11  20
ATOM     20  C   UNL     1     -96.671  25.865 -40.117  1.00  0.00     0.188 C 
ATOM     21  C   UNL     1     -97.723  26.209 -38.991  1.00  0.00     0.179 C 
ATOM     22  O   UNL     1     -95.370  26.443 -40.000  1.00  0.00    -0.362 OA
ATOM     23  C   UNL     1     -97.142  26.569 -37.597  1.00  0.00     0.177 C 
ATOM     24  C   UNL     1     -95.241  27.464 -39.025  1.00  0.00     0.176 C 
ATOM     25  C   UNL     1     -95.647  26.940 -37.639  1.00  0.00     0.177 C 
BRANCH  21  26
ATOM     26  O   UNL     1     -98.720  25.227 -38.895  1.00  0.00    -0.387 OA
ATOM     27  H   UNL     1     -98.832  25.028 -37.926  1.00  0.00     0.211 HD
ENDBRANCH  21  26
BRANCH  23  28
ATOM     28  O   UNL     1     -97.378  25.546 -36.657  1.00  0.00    -0.387 OA
ATOM     29  H   UNL     1     -98.329  25.595 -36.381  1.00  0.00     0.211 HD
ENDBRANCH  23  28
BRANCH  24  30
ATOM     30  C   UNL     1     -95.933  28.782 -39.468  1.00  0.00     0.191 C 
BRANCH  30  31
ATOM     31  O   UNL     1     -95.084  29.534 -40.302  1.00  0.00    -0.394 OA
ATOM     32  H   UNL     1     -95.659  30.024 -40.956  1.00  0.00     0.210 HD
ENDBRANCH  30  31
ENDBRANCH  24  30
BRANCH  25  33
ATOM     33  O   UNL     1     -94.851  25.816 -37.351  1.00  0.00    -0.388 OA
ATOM     34  H   UNL     1     -95.245  25.364 -36.561  1.00  0.00     0.211 HD
ENDBRANCH  25  33
ENDBRANCH  11  20
BRANCH  10  35
ATOM     35  O   UNL     1     -96.413  25.089 -42.852  1.00  0.00    -0.507 OA
ATOM     36  H   UNL     1     -96.287  24.885 -43.836  1.00  0.00     0.293 HD
ENDBRANCH  10  35
TORSDOF 9
ENDMDL
MODEL 5
REMARK VINA RESULT:    -4.214     11.244     14.617
REMARK INTER + INTRA:          -6.699
REMARK INTER:                  -5.582
REMARK INTRA:                  -1.116
REMARK UNBOUND:                -1.007
REMARK SMILES O=c1c(-c2ccc(O)cc2)coc2c([C@@H]3O[C@@H](CO)[C@H](O)[C@H](O)[C@@H]3O)c(O)ccc12
REMARK SMILES IDX 3 1 11 2 12 3 13 4 30 5 2 6 1 7 29 8 28 9 26 10 14 11 4 12
REMARK SMILES IDX 5 13 6 14 7 15 10 16 9 17 8 18 15 20 24 21 16 22 22 23 17 24
REMARK SMILES IDX 20 25 25 26 23 28 18 30 19 31 21 33 27 35
REMARK H PARENT 8 19 25 27 23 29 19 32 21 34 27 36
REMARK Flexibility Score: inf
ROOT
ATOM      1  C   UNL     1     -99.187  24.674 -28.756  1.00  0.00     0.065 A 
ATOM      2  C   UNL     1     -99.453  25.649 -27.781  1.00  0.00     0.208 A 
ATOM      3  O   UNL     1    -100.697  25.955 -27.436  1.00  0.00    -0.463 OA
ATOM      4  C   UNL     1    -101.767  25.397 -27.992  1.00  0.00     0.147 A 
ATOM      5  C   UNL     1    -101.592  24.486 -29.064  1.00  0.00     0.066 A 
ATOM      6  C   UNL     1    -100.286  24.081 -29.406  1.00  0.00     0.200 A 
ATOM      7  O   UNL     1    -100.109  23.182 -30.274  1.00  0.00    -0.288 OA
ATOM      8  C   UNL     1    -102.711  24.010 -29.762  1.00  0.00     0.020 A 
ATOM      9  C   UNL     1    -103.985  24.452 -29.417  1.00  0.00     0.047 A 
ATOM     10  C   UNL     1    -104.174  25.285 -28.309  1.00  0.00     0.125 A 
ATOM     11  C   UNL     1    -103.069  25.705 -27.530  1.00  0.00     0.069 A 
ENDROOT
BRANCH   1  12
ATOM     12  C   UNL     1     -97.787  24.263 -29.037  1.00  0.00    -0.011 A 
ATOM     13  C   UNL     1     -97.113  24.713 -30.192  1.00  0.00     0.013 A 
ATOM     14  C   UNL     1     -95.812  24.277 -30.467  1.00  0.00     0.047 A 
ATOM     15  C   UNL     1     -95.162  23.397 -29.591  1.00  0.00     0.115 A 
ATOM     16  C   UNL     1     -97.111  23.402 -28.149  1.00  0.00     0.013 A 
ATOM     17  C   UNL     1     -95.810  22.976 -28.424  1.00  0.00     0.047 A 
BRANCH  15  18
ATOM     18  O   UNL     1     -93.875  22.942 -29.862  1.00  0.00    -0.508 OA
ATOM     19  H   UNL     1     -93.591  22.693 -30.802  1.00  0.00     0.293 HD
ENDBRANCH  15  18
ENDBRANCH   1  12
BRANCH  11  20
ATOM     20  C   UNL     1    -103.342  26.531 -26.270  1.00  0.00     0.188 C 
ATOM     21  C   UNL     1    -102.517  26.176 -24.971  1.00  0.00     0.179 C 
ATOM     22  O   UNL     1    -103.426  27.907 -26.641  1.00  0.00    -0.362 OA
ATOM     23  C   UNL     1    -101.385  27.167 -24.587  1.00  0.00     0.177 C 
ATOM     24  C   UNL     1    -102.973  28.831 -25.666  1.00  0.00     0.176 C 
ATOM     25  C   UNL     1    -101.515  28.538 -25.281  1.00  0.00     0.177 C 
BRANCH  21  26
ATOM     26  O   UNL     1    -102.056  24.851 -24.994  1.00  0.00    -0.387 OA
ATOM     27  H   UNL     1    -101.849  24.605 -24.052  1.00  0.00     0.211 HD
ENDBRANCH  21  26
BRANCH  23  28
ATOM     28  O   UNL     1    -100.110  26.610 -24.815  1.00  0.00    -0.387 OA
ATOM     29  H   UNL     1    -100.148  26.092 -25.660  1.00  0.00     0.211 HD
ENDBRANCH  23  28
BRANCH  24  30
ATOM     30  C   UNL     1    -103.965  28.953 -24.477  1.00  0.00     0.191 C 
BRANCH  30  31
ATOM     31  O   UNL     1    -105.270  29.205 -24.940  1.00  0.00    -0.394 OA
ATOM     32  H   UNL     1    -105.546  28.428 -25.504  1.00  0.00     0.210 HD
ENDBRANCH  30  31
ENDBRANCH  24  30
BRANCH  25  33
ATOM     33  O   UNL     1    -100.742  28.572 -26.456  1.00  0.00    -0.388 OA
ATOM     34  H   UNL     1    -100.602  29.525 -26.695  1.00  0.00     0.211 HD
ENDBRANCH  25  33
ENDBRANCH  11  20
BRANCH  10  35
ATOM     35  O   UNL     1    -105.468  25.695 -27.983  1.00  0.00    -0.507 OA
ATOM     36  H   UNL     1    -106.003  26.299 -28.593  1.00  0.00     0.293 HD
ENDBRANCH  10  35
TORSDOF 9
ENDMDL
MODEL 6
REMARK VINA RESULT:    -4.132      2.144      4.637
REMARK INTER + INTRA:          -6.589
REMARK INTER:                  -5.439
REMARK INTRA:                  -1.150
REMARK UNBOUND:                -1.007
REMARK SMILES O=c1c(-c2ccc(O)cc2)coc2c([C@@H]3O[C@@H](CO)[C@H](O)[C@H](O)[C@@H]3O)c(O)ccc12
REMARK SMILES IDX 3 1 11 2 12 3 13 4 30 5 2 6 1 7 29 8 28 9 26 10 14 11 4 12
REMARK SMILES IDX 5 13 6 14 7 15 10 16 9 17 8 18 15 20 24 21 16 22 22 23 17 24
REMARK SMILES IDX 20 25 25 26 23 28 18 30 19 31 21 33 27 35
REMARK H PARENT 8 19 25 27 23 29 19 32 21 34 27 36
REMARK Flexibility Score: inf
ROOT
ATOM      1  C   UNL     1    -100.929  26.398 -39.771  1.00  0.00     0.065 A 
ATOM      2  C   UNL     1    -100.281  25.405 -40.525  1.00  0.00     0.208 A 
ATOM      3  O   UNL     1     -98.957  25.332 -40.574  1.00  0.00    -0.463 OA
ATOM      4  C   UNL     1     -98.156  26.191 -39.952  1.00  0.00     0.147 A 
ATOM      5  C   UNL     1     -98.724  27.290 -39.262  1.00  0.00     0.066 A 
ATOM      6  C   UNL     1    -100.125  27.357 -39.126  1.00  0.00     0.200 A 
ATOM      7  O   UNL     1    -100.650  28.259 -38.415  1.00  0.00    -0.288 OA
ATOM      8  C   UNL     1     -97.891  28.287 -38.735  1.00  0.00     0.020 A 
ATOM      9  C   UNL     1     -96.512  28.205 -38.912  1.00  0.00     0.047 A 
ATOM     10  C   UNL     1     -95.938  27.083 -39.518  1.00  0.00     0.125 A 
ATOM     11  C   UNL     1     -96.752  26.019 -39.975  1.00  0.00     0.069 A 
ENDROOT
BRANCH   1  12
ATOM     12  C   UNL     1    -102.408  26.383 -39.633  1.00  0.00    -0.011 A 
ATOM     13  C   UNL     1    -103.041  25.592 -38.651  1.00  0.00     0.013 A 
ATOM     14  C   UNL     1    -104.436  25.552 -38.566  1.00  0.00     0.047 A 
ATOM     15  C   UNL     1    -105.220  26.306 -39.450  1.00  0.00     0.115 A 
ATOM     16  C   UNL     1    -103.207  27.159 -40.497  1.00  0.00     0.013 A 
ATOM     17  C   UNL     1    -104.600  27.121 -40.403  1.00  0.00     0.047 A 
BRANCH  15  18
ATOM     18  O   UNL     1    -106.610  26.260 -39.388  1.00  0.00    -0.508 OA
ATOM     19  H   UNL     1    -107.162  27.106 -39.319  1.00  0.00     0.293 HD
ENDBRANCH  15  18
ENDBRANCH   1  12
BRANCH  11  20
ATOM     20  C   UNL     1     -96.064  24.771 -40.537  1.00  0.00     0.188 C 
ATOM     21  C   UNL     1     -96.584  23.365 -40.041  1.00  0.00     0.179 C 
ATOM     22  O   UNL     1     -95.886  24.947 -41.943  1.00  0.00    -0.362 OA
ATOM     23  C   UNL     1     -97.439  22.555 -41.052  1.00  0.00     0.177 C 
ATOM     24  C   UNL     1     -95.952  23.764 -42.720  1.00  0.00     0.176 C 
ATOM     25  C   UNL     1     -97.296  23.052 -42.504  1.00  0.00     0.177 C 
BRANCH  21  26
ATOM     26  O   UNL     1     -97.215  23.457 -38.790  1.00  0.00    -0.387 OA
ATOM     27  H   UNL     1     -97.349  24.426 -38.609  1.00  0.00     0.211 HD
ENDBRANCH  21  26
BRANCH  23  28
ATOM     28  O   UNL     1     -98.794  22.513 -40.668  1.00  0.00    -0.387 OA
ATOM     29  H   UNL     1     -99.166  21.636 -40.946  1.00  0.00     0.211 HD
ENDBRANCH  23  28
BRANCH  24  30
ATOM     30  C   UNL     1     -94.691  22.876 -42.536  1.00  0.00     0.191 C 
BRANCH  30  31
ATOM     31  O   UNL     1     -93.875  22.926 -43.683  1.00  0.00    -0.394 OA
ATOM     32  H   UNL     1     -94.473  22.868 -44.481  1.00  0.00     0.210 HD
ENDBRANCH  30  31
ENDBRANCH  24  30
BRANCH  25  33
ATOM     33  O   UNL     1     -98.323  23.961 -42.818  1.00  0.00    -0.388 OA
ATOM     34  H   UNL     1     -97.903  24.750 -43.249  1.00  0.00     0.211 HD
ENDBRANCH  25  33
ENDBRANCH  11  20
BRANCH  10  35
ATOM     35  O   UNL     1     -94.551  27.028 -39.664  1.00  0.00    -0.507 OA
ATOM     36  H   UNL     1     -94.106  26.339 -40.258  1.00  0.00     0.293 HD
ENDBRANCH  10  35
TORSDOF 9
ENDMDL
MODEL 7
REMARK VINA RESULT:    -4.064      9.856     12.486
REMARK INTER + INTRA:          -6.496
REMARK INTER:                  -5.377
REMARK INTRA:                  -1.119
REMARK UNBOUND:                -1.007
REMARK SMILES O=c1c(-c2ccc(O)cc2)coc2c([C@@H]3O[C@@H](CO)[C@H](O)[C@H](O)[C@@H]3O)c(O)ccc12
REMARK SMILES IDX 3 1 11 2 12 3 13 4 30 5 2 6 1 7 29 8 28 9 26 10 14 11 4 12
REMARK SMILES IDX 5 13 6 14 7 15 10 16 9 17 8 18 15 20 24 21 16 22 22 23 17 24
REMARK SMILES IDX 20 25 25 26 23 28 18 30 19 31 21 33 27 35
REMARK H PARENT 8 19 25 27 23 29 19 32 21 34 27 36
REMARK Flexibility Score: inf
ROOT
ATOM      1  C   UNL     1     -95.948  29.068 -30.514  1.00  0.00     0.065 A 
ATOM      2  C   UNL     1     -96.409  27.757 -30.719  1.00  0.00     0.208 A 
ATOM      3  O   UNL     1     -96.586  26.923 -29.703  1.00  0.00    -0.463 OA
ATOM      4  C   UNL     1     -96.321  27.243 -28.441  1.00  0.00     0.147 A 
ATOM      5  C   UNL     1     -95.745  28.507 -28.156  1.00  0.00     0.066 A 
ATOM      6  C   UNL     1     -95.614  29.445 -29.199  1.00  0.00     0.200 A 
ATOM      7  O   UNL     1     -95.217  30.617 -28.950  1.00  0.00    -0.288 OA
ATOM      8  C   UNL     1     -95.317  28.798 -26.853  1.00  0.00     0.020 A 
ATOM      9  C   UNL     1     -95.435  27.838 -25.851  1.00  0.00     0.047 A 
ATOM     10  C   UNL     1     -96.077  26.621 -26.104  1.00  0.00     0.125 A 
ATOM     11  C   UNL     1     -96.603  26.340 -27.389  1.00  0.00     0.069 A 
ENDROOT
BRANCH   1  12
ATOM     12  C   UNL     1     -95.875  30.020 -31.652  1.00  0.00    -0.011 A 
ATOM     13  C   UNL     1     -94.653  30.279 -32.308  1.00  0.00     0.013 A 
ATOM     14  C   UNL     1     -94.592  31.215 -33.346  1.00  0.00     0.047 A 
ATOM     15  C   UNL     1     -95.748  31.897 -33.751  1.00  0.00     0.115 A 
ATOM     16  C   UNL     1     -97.035  30.691 -32.089  1.00  0.00     0.013 A 
ATOM     17  C   UNL     1     -96.970  31.619 -33.131  1.00  0.00     0.047 A 
BRANCH  15  18
ATOM     18  O   UNL     1     -95.697  32.844 -34.770  1.00  0.00    -0.508 OA
ATOM     19  H   UNL     1     -96.318  33.644 -34.778  1.00  0.00     0.293 HD
ENDBRANCH  15  18
ENDBRANCH   1  12
BRANCH  11  20
ATOM     20  C   UNL     1     -97.384  25.038 -27.582  1.00  0.00     0.188 C 
ATOM     21  C   UNL     1     -98.721  25.107 -28.420  1.00  0.00     0.179 C 
ATOM     22  O   UNL     1     -96.459  23.999 -27.905  1.00  0.00    -0.362 OA
ATOM     23  C   UNL     1     -98.660  24.522 -29.857  1.00  0.00     0.177 C 
ATOM     24  C   UNL     1     -96.951  22.989 -28.768  1.00  0.00     0.176 C 
ATOM     25  C   UNL     1     -97.446  23.602 -30.088  1.00  0.00     0.177 C 
BRANCH  21  26
ATOM     26  O   UNL     1     -99.273  26.396 -28.412  1.00  0.00    -0.387 OA
ATOM     27  H   UNL     1    -100.253  26.288 -28.547  1.00  0.00     0.211 HD
ENDBRANCH  21  26
BRANCH  23  28
ATOM     28  O   UNL     1     -98.710  25.538 -30.832  1.00  0.00    -0.387 OA
ATOM     29  H   UNL     1     -99.662  25.695 -31.064  1.00  0.00     0.211 HD
ENDBRANCH  23  28
BRANCH  24  30
ATOM     30  C   UNL     1     -97.961  22.051 -28.051  1.00  0.00     0.191 C 
BRANCH  30  31
ATOM     31  O   UNL     1     -97.305  20.919 -27.530  1.00  0.00    -0.394 OA
ATOM     32  H   UNL     1     -96.989  20.371 -28.303  1.00  0.00     0.210 HD
ENDBRANCH  30  31
ENDBRANCH  24  30
BRANCH  25  33
ATOM     33  O   UNL     1     -96.380  24.324 -30.655  1.00  0.00    -0.388 OA
ATOM     34  H   UNL     1     -96.291  24.034 -31.600  1.00  0.00     0.211 HD
ENDBRANCH  25  33
ENDBRANCH  11  20
BRANCH  10  35
ATOM     35  O   UNL     1     -96.192  25.689 -25.072  1.00  0.00    -0.507 OA
ATOM     36  H   UNL     1     -97.095  25.404 -24.712  1.00  0.00     0.293 HD
ENDBRANCH  10  35
TORSDOF 9
ENDMDL
MODEL 8
REMARK VINA RESULT:    -4.003      6.801     10.383
REMARK INTER + INTRA:          -6.414
REMARK INTER:                  -5.269
REMARK INTRA:                  -1.144
REMARK UNBOUND:                -1.007
REMARK SMILES O=c1c(-c2ccc(O)cc2)coc2c([C@@H]3O[C@@H](CO)[C@H](O)[C@H](O)[C@@H]3O)c(O)ccc12
REMARK SMILES IDX 3 1 11 2 12 3 13 4 30 5 2 6 1 7 29 8 28 9 26 10 14 11 4 12
REMARK SMILES IDX 5 13 6 14 7 15 10 16 9 17 8 18 15 20 24 21 16 22 22 23 17 24
REMARK SMILES IDX 20 25 25 26 23 28 18 30 19 31 21 33 27 35
REMARK H PARENT 8 19 25 27 23 29 19 32 21 34 27 36
REMARK Flexibility Score: inf
ROOT
ATOM      1  C   UNL     1     -96.418  25.217 -33.494  1.00  0.00     0.065 A 
ATOM      2  C   UNL     1     -95.918  25.737 -32.289  1.00  0.00     0.208 A 
ATOM      3  O   UNL     1     -96.352  25.295 -31.115  1.00  0.00    -0.463 OA
ATOM      4  C   UNL     1     -97.295  24.368 -30.988  1.00  0.00     0.147 A 
ATOM      5  C   UNL     1     -97.935  23.871 -32.151  1.00  0.00     0.066 A 
ATOM      6  C   UNL     1     -97.449  24.260 -33.415  1.00  0.00     0.200 A 
ATOM      7  O   UNL     1     -97.922  23.740 -34.463  1.00  0.00    -0.288 OA
ATOM      8  C   UNL     1     -99.035  23.010 -32.025  1.00  0.00     0.020 A 
ATOM      9  C   UNL     1     -99.509  22.668 -30.761  1.00  0.00     0.047 A 
ATOM     10  C   UNL     1     -98.833  23.087 -29.611  1.00  0.00     0.125 A 
ATOM     11  C   UNL     1     -97.664  23.879 -29.713  1.00  0.00     0.069 A 
ENDROOT
BRANCH   1  12
ATOM     12  C   UNL     1     -95.829  25.639 -34.791  1.00  0.00    -0.011 A 
ATOM     13  C   UNL     1     -96.473  26.592 -35.608  1.00  0.00     0.013 A 
ATOM     14  C   UNL     1     -95.930  26.942 -36.849  1.00  0.00     0.047 A 
ATOM     15  C   UNL     1     -94.734  26.356 -37.287  1.00  0.00     0.115 A 
ATOM     16  C   UNL     1     -94.612  25.079 -35.230  1.00  0.00     0.013 A 
ATOM     17  C   UNL     1     -94.071  25.438 -36.466  1.00  0.00     0.047 A 
BRANCH  15  18
ATOM     18  O   UNL     1     -94.194  26.682 -38.527  1.00  0.00    -0.508 OA
ATOM     19  H   UNL     1     -93.581  27.480 -38.642  1.00  0.00     0.293 HD
ENDBRANCH  15  18
ENDBRANCH   1  12
BRANCH  11  20
ATOM     20  C   UNL     1     -96.908  24.222 -28.427  1.00  0.00     0.188 C 
ATOM     21  C   UNL     1     -95.339  24.038 -28.432  1.00  0.00     0.179 C 
ATOM     22  O   UNL     1     -97.423  25.450 -27.913  1.00  0.00    -0.362 OA
ATOM     23  C   UNL     1     -94.496  25.340 -28.504  1.00  0.00     0.177 C 
ATOM     24  C   UNL     1     -96.489  26.267 -27.229  1.00  0.00     0.176 C 
ATOM     25  C   UNL     1     -95.299  26.605 -28.141  1.00  0.00     0.177 C 
BRANCH  21  26
ATOM     26  O   UNL     1     -94.929  23.105 -29.396  1.00  0.00    -0.387 OA
ATOM     27  H   UNL     1     -94.015  23.376 -29.684  1.00  0.00     0.211 HD
ENDBRANCH  21  26
BRANCH  23  28
ATOM     28  O   UNL     1     -93.875  25.486 -29.761  1.00  0.00    -0.387 OA
ATOM     29  H   UNL     1     -94.573  25.399 -30.461  1.00  0.00     0.211 HD
ENDBRANCH  23  28
BRANCH  24  30
ATOM     30  C   UNL     1     -96.117  25.686 -25.838  1.00  0.00     0.191 C 
BRANCH  30  31
ATOM     31  O   UNL     1     -95.483  26.661 -25.044  1.00  0.00    -0.394 OA
ATOM     32  H   UNL     1     -94.648  26.256 -24.677  1.00  0.00     0.210 HD
ENDBRANCH  30  31
ENDBRANCH  24  30
BRANCH  25  33
ATOM     33  O   UNL     1     -95.805  27.219 -29.302  1.00  0.00    -0.388 OA
ATOM     34  H   UNL     1     -95.476  26.702 -30.082  1.00  0.00     0.211 HD
ENDBRANCH  25  33
ENDBRANCH  11  20
BRANCH  10  35
ATOM     35  O   UNL     1     -99.327  22.710 -28.361  1.00  0.00    -0.507 OA
ATOM     36  H   UNL     1     -98.737  22.699 -27.538  1.00  0.00     0.293 HD
ENDBRANCH  10  35
TORSDOF 9
ENDMDL
MODEL 9
REMARK VINA RESULT:    -3.962      7.523     11.165
REMARK INTER + INTRA:          -6.358
REMARK INTER:                  -5.174
REMARK INTRA:                  -1.184
REMARK UNBOUND:                -1.007
REMARK SMILES O=c1c(-c2ccc(O)cc2)coc2c([C@@H]3O[C@@H](CO)[C@H](O)[C@H](O)[C@@H]3O)c(O)ccc12
REMARK SMILES IDX 3 1 11 2 12 3 13 4 30 5 2 6 1 7 29 8 28 9 26 10 14 11 4 12
REMARK SMILES IDX 5 13 6 14 7 15 10 16 9 17 8 18 15 20 24 21 16 22 22 23 17 24
REMARK SMILES IDX 20 25 25 26 23 28 18 30 19 31 21 33 27 35
REMARK H PARENT 8 19 25 27 23 29 19 32 21 34 27 36
REMARK Flexibility Score: inf
ROOT
ATOM      1  C   UNL     1     -96.891  23.253 -32.951  1.00  0.00     0.065 A 
ATOM      2  C   UNL     1     -96.153  23.824 -31.902  1.00  0.00     0.208 A 
ATOM      3  O   UNL     1     -96.723  24.121 -30.741  1.00  0.00    -0.463 OA
ATOM      4  C   UNL     1     -98.015  23.931 -30.493  1.00  0.00     0.147 A 
ATOM      5  C   UNL     1     -98.856  23.464 -31.534  1.00  0.00     0.066 A 
ATOM      6  C   UNL     1     -98.273  23.069 -32.754  1.00  0.00     0.200 A 
ATOM      7  O   UNL     1     -98.983  22.537 -33.652  1.00  0.00    -0.288 OA
ATOM      8  C   UNL     1    -100.242  23.408 -31.334  1.00  0.00     0.020 A 
ATOM      9  C   UNL     1    -100.789  23.833 -30.126  1.00  0.00     0.047 A 
ATOM     10  C   UNL     1     -99.961  24.217 -29.066  1.00  0.00     0.125 A 
ATOM     11  C   UNL     1     -98.552  24.192 -29.211  1.00  0.00     0.069 A 
ENDROOT
BRANCH   1  12
ATOM     12  C   UNL     1     -96.205  22.818 -34.195  1.00  0.00    -0.011 A 
ATOM     13  C   UNL     1     -95.692  21.510 -34.325  1.00  0.00     0.013 A 
ATOM     14  C   UNL     1     -95.005  21.131 -35.484  1.00  0.00     0.047 A 
ATOM     15  C   UNL     1     -94.830  22.045 -36.532  1.00  0.00     0.115 A 
ATOM     16  C   UNL     1     -96.048  23.718 -35.268  1.00  0.00     0.013 A 
ATOM     17  C   UNL     1     -95.368  23.332 -36.426  1.00  0.00     0.047 A 
BRANCH  15  18
ATOM     18  O   UNL     1     -94.133  21.686 -37.682  1.00  0.00    -0.508 OA
ATOM     19  H   UNL     1     -94.545  21.789 -38.602  1.00  0.00     0.293 HD
ENDBRANCH  15  18
ENDBRANCH   1  12
BRANCH  11  20
ATOM     20  C   UNL     1     -97.693  24.523 -27.987  1.00  0.00     0.188 C 
ATOM     21  C   UNL     1     -96.470  23.573 -27.676  1.00  0.00     0.179 C 
ATOM     22  O   UNL     1     -97.454  25.930 -27.970  1.00  0.00    -0.362 OA
ATOM     23  C   UNL     1     -95.063  24.139 -28.007  1.00  0.00     0.177 C 
ATOM     24  C   UNL     1     -96.208  26.331 -27.427  1.00  0.00     0.176 C 
ATOM     25  C   UNL     1     -95.050  25.669 -28.189  1.00  0.00     0.177 C 
BRANCH  21  26
ATOM     26  O   UNL     1     -96.653  22.295 -28.224  1.00  0.00    -0.387 OA
ATOM     27  H   UNL     1     -97.211  21.784 -27.576  1.00  0.00     0.211 HD
ENDBRANCH  21  26
BRANCH  23  28
ATOM     28  O   UNL     1     -94.497  23.496 -29.127  1.00  0.00    -0.387 OA
ATOM     29  H   UNL     1     -95.024  22.677 -29.310  1.00  0.00     0.211 HD
ENDBRANCH  23  28
BRANCH  24  30
ATOM     30  C   UNL     1     -96.167  26.170 -25.883  1.00  0.00     0.191 C 
BRANCH  30  31
ATOM     31  O   UNL     1     -94.875  26.435 -25.388  1.00  0.00    -0.394 OA
ATOM     32  H   UNL     1     -94.245  25.804 -25.836  1.00  0.00     0.210 HD
ENDBRANCH  30  31
ENDBRANCH  24  30
BRANCH  25  33
ATOM     33  O   UNL     1     -95.179  26.006 -29.549  1.00  0.00    -0.388 OA
ATOM     34  H   UNL     1     -94.475  26.672 -29.761  1.00  0.00     0.211 HD
ENDBRANCH  25  33
ENDBRANCH  11  20
BRANCH  10  35
ATOM     35  O   UNL     1    -100.544  24.621 -27.864  1.00  0.00    -0.507 OA
ATOM     36  H   UNL     1    -100.985  25.527 -27.767  1.00  0.00     0.293 HD
ENDBRANCH  10  35
TORSDOF 9
ENDMDL
