MODEL 1
REMARK VINA RESULT:    -6.763      0.000      0.000
REMARK INTER + INTRA:         -11.900
REMARK INTER:                  -9.926
REMARK INTRA:                  -1.973
REMARK UNBOUND:                -1.973
REMARK SMILES O=c1c(O[C@@H]2O[C@@H](CO)[C@@H](O)[C@H](O)[C@@H]2O)c(-c2ccc(O)c(O)c2)oc2cc(O)cc(O)c12
REMARK SMILES IDX 4 1 3 2 16 3 25 4 2 5 26 6 1 7 33 8 27 9 31 10 28 11 30 12
REMARK SMILES IDX 17 13 18 14 19 15 20 16 24 17 22 18 21 19 23 21 32 23 29 25
REMARK SMILES IDX 5 27 14 28 6 29 12 30 7 31 10 32 15 33 13 35 8 37 9 38 11 40
REMARK H PARENT 21 20 23 22 32 24 29 26 15 34 13 36 9 39 11 41
REMARK Flexibility Score: inf
ROOT
ATOM      1  O   UNL     1     121.553 116.520 120.058  1.00  0.00    -0.454 OA
ENDROOT
BRANCH   1   2
ATOM      2  C   UNL     1     120.802 117.157 121.065  1.00  0.00     0.214 A 
ATOM      3  C   UNL     1     121.437 117.519 122.274  1.00  0.00     0.180 A 
ATOM      4  O   UNL     1     120.762 118.176 123.208  1.00  0.00    -0.452 OA
ATOM      5  C   UNL     1     119.432 117.439 120.917  1.00  0.00     0.239 A 
ATOM      6  C   UNL     1     119.481 118.480 123.101  1.00  0.00     0.146 A 
ATOM      7  O   UNL     1     118.820 117.077 119.877  1.00  0.00    -0.285 OA
ATOM      8  C   UNL     1     118.746 118.118 121.948  1.00  0.00     0.111 A 
ATOM      9  C   UNL     1     118.854 119.159 124.150  1.00  0.00     0.094 A 
ATOM     10  C   UNL     1     117.369 118.433 121.878  1.00  0.00     0.134 A 
ATOM     11  C   UNL     1     117.494 119.470 124.080  1.00  0.00     0.123 A 
ATOM     12  C   UNL     1     116.758 119.110 122.943  1.00  0.00     0.093 A 
BRANCH   3  13
ATOM     13  C   UNL     1     122.861 117.222 122.527  1.00  0.00     0.025 A 
ATOM     14  C   UNL     1     123.226 115.999 123.118  1.00  0.00     0.016 A 
ATOM     15  C   UNL     1     124.568 115.728 123.397  1.00  0.00     0.051 A 
ATOM     16  C   UNL     1     125.568 116.665 123.084  1.00  0.00     0.157 A 
ATOM     17  C   UNL     1     123.865 118.154 122.203  1.00  0.00     0.062 A 
ATOM     18  C   UNL     1     125.212 117.884 122.475  1.00  0.00     0.158 A 
BRANCH  16  19
ATOM     19  O   UNL     1     126.896 116.366 123.379  1.00  0.00    -0.504 OA
ATOM     20  H   UNL     1     127.465 116.972 123.961  1.00  0.00     0.293 HD
ENDBRANCH  16  19
BRANCH  18  21
ATOM     21  O   UNL     1     126.198 118.820 122.175  1.00  0.00    -0.504 OA
ATOM     22  H   UNL     1     126.311 119.677 122.717  1.00  0.00     0.293 HD
ENDBRANCH  18  21
ENDBRANCH   3  13
BRANCH  10  23
ATOM     23  O   UNL     1     116.605 118.086 120.764  1.00  0.00    -0.507 OA
ATOM     24  H   UNL     1     116.517 117.135 120.455  1.00  0.00     0.293 HD
ENDBRANCH  10  23
BRANCH  11  25
ATOM     25  O   UNL     1     116.871 120.125 125.145  1.00  0.00    -0.508 OA
ATOM     26  H   UNL     1     116.086 119.689 125.622  1.00  0.00     0.293 HD
ENDBRANCH  11  25
ENDBRANCH   1   2
BRANCH   1  27
ATOM     27  C   UNL     1     121.610 115.102 119.852  1.00  0.00     0.339 C 
ATOM     28  C   UNL     1     121.268 114.758 118.390  1.00  0.00     0.214 C 
ATOM     29  O   UNL     1     122.877 114.566 120.214  1.00  0.00    -0.332 OA
ATOM     30  C   UNL     1     122.387 115.268 117.434  1.00  0.00     0.180 C 
ATOM     31  C   UNL     1     123.921 115.130 119.434  1.00  0.00     0.179 C 
ATOM     32  C   UNL     1     123.755 114.768 117.931  1.00  0.00     0.177 C 
BRANCH  28  33
ATOM     33  O   UNL     1     120.021 115.290 118.012  1.00  0.00    -0.384 OA
ATOM     34  H   UNL     1     120.045 115.461 117.029  1.00  0.00     0.211 HD
ENDBRANCH  28  33
BRANCH  30  35
ATOM     35  O   UNL     1     122.410 116.679 117.352  1.00  0.00    -0.387 OA
ATOM     36  H   UNL     1     122.757 117.008 118.221  1.00  0.00     0.211 HD
ENDBRANCH  30  35
BRANCH  31  37
ATOM     37  C   UNL     1     125.275 114.677 120.000  1.00  0.00     0.191 C 
BRANCH  37  38
ATOM     38  O   UNL     1     125.214 113.336 120.412  1.00  0.00    -0.394 OA
ATOM     39  H   UNL     1     125.458 112.791 119.616  1.00  0.00     0.210 HD
ENDBRANCH  37  38
ENDBRANCH  31  37
BRANCH  32  40
ATOM     40  O   UNL     1     123.824 113.374 117.746  1.00  0.00    -0.387 OA
ATOM     41  H   UNL     1     124.014 113.214 116.785  1.00  0.00     0.211 HD
ENDBRANCH  32  40
ENDBRANCH   1  27
TORSDOF 12
ENDMDL
MODEL 2
REMARK VINA RESULT:    -6.618      4.481      9.347
REMARK INTER + INTRA:         -11.687
REMARK INTER:                  -9.798
REMARK INTRA:                  -1.889
REMARK UNBOUND:                -1.973
REMARK SMILES O=c1c(O[C@@H]2O[C@@H](CO)[C@@H](O)[C@H](O)[C@@H]2O)c(-c2ccc(O)c(O)c2)oc2cc(O)cc(O)c12
REMARK SMILES IDX 4 1 3 2 16 3 25 4 2 5 26 6 1 7 33 8 27 9 31 10 28 11 30 12
REMARK SMILES IDX 17 13 18 14 19 15 20 16 24 17 22 18 21 19 23 21 32 23 29 25
REMARK SMILES IDX 5 27 14 28 6 29 12 30 7 31 10 32 15 33 13 35 8 37 9 38 11 40
REMARK H PARENT 21 20 23 22 32 24 29 26 15 34 13 36 9 39 11 41
REMARK Flexibility Score: inf
ROOT
ATOM      1  O   UNL     1     121.350 115.313 114.706  1.00  0.00    -0.454 OA
ENDROOT
BRANCH   1   2
ATOM      2  C   UNL     1     122.257 114.465 114.041  1.00  0.00     0.214 A 
ATOM      3  C   UNL     1     123.345 113.921 114.757  1.00  0.00     0.180 A 
ATOM      4  O   UNL     1     124.174 113.071 114.165  1.00  0.00    -0.452 OA
ATOM      5  C   UNL     1     122.125 114.145 112.677  1.00  0.00     0.239 A 
ATOM      6  C   UNL     1     124.074 112.727 112.893  1.00  0.00     0.146 A 
ATOM      7  O   UNL     1     121.201 114.659 111.992  1.00  0.00    -0.285 OA
ATOM      8  C   UNL     1     123.045 113.255 112.079  1.00  0.00     0.111 A 
ATOM      9  C   UNL     1     125.008 111.836 112.355  1.00  0.00     0.094 A 
ATOM     10  C   UNL     1     122.985 112.888 110.715  1.00  0.00     0.134 A 
ATOM     11  C   UNL     1     124.948 111.474 111.007  1.00  0.00     0.123 A 
ATOM     12  C   UNL     1     123.934 111.997 110.193  1.00  0.00     0.093 A 
BRANCH   3  13
ATOM     13  C   UNL     1     123.581 114.239 116.180  1.00  0.00     0.025 A 
ATOM     14  C   UNL     1     124.644 115.085 116.541  1.00  0.00     0.016 A 
ATOM     15  C   UNL     1     124.897 115.359 117.888  1.00  0.00     0.051 A 
ATOM     16  C   UNL     1     124.090 114.803 118.895  1.00  0.00     0.157 A 
ATOM     17  C   UNL     1     122.765 113.693 117.189  1.00  0.00     0.062 A 
ATOM     18  C   UNL     1     123.011 113.970 118.540  1.00  0.00     0.158 A 
BRANCH  16  19
ATOM     19  O   UNL     1     124.370 115.092 120.228  1.00  0.00    -0.504 OA
ATOM     20  H   UNL     1     123.743 115.648 120.800  1.00  0.00     0.293 HD
ENDBRANCH  16  19
BRANCH  18  21
ATOM     21  O   UNL     1     122.217 113.407 119.535  1.00  0.00    -0.504 OA
ATOM     22  H   UNL     1     122.619 112.918 120.335  1.00  0.00     0.293 HD
ENDBRANCH  18  21
ENDBRANCH   3  13
BRANCH  10  23
ATOM     23  O   UNL     1     121.992 113.393 109.875  1.00  0.00    -0.507 OA
ATOM     24  H   UNL     1     121.022 113.169 110.003  1.00  0.00     0.293 HD
ENDBRANCH  10  23
BRANCH  11  25
ATOM     25  O   UNL     1     125.902 110.605 110.473  1.00  0.00    -0.508 OA
ATOM     26  H   UNL     1     126.892 110.775 110.634  1.00  0.00     0.293 HD
ENDBRANCH  11  25
ENDBRANCH   1   2
BRANCH   1  27
ATOM     27  C   UNL     1     121.556 116.713 114.936  1.00  0.00     0.339 C 
ATOM     28  C   UNL     1     120.454 117.538 114.245  1.00  0.00     0.214 C 
ATOM     29  O   UNL     1     121.618 117.016 116.325  1.00  0.00    -0.332 OA
ATOM     30  C   UNL     1     119.078 117.296 114.933  1.00  0.00     0.180 C 
ATOM     31  C   UNL     1     120.409 116.671 116.985  1.00  0.00     0.179 C 
ATOM     32  C   UNL     1     119.218 117.516 116.451  1.00  0.00     0.177 C 
BRANCH  28  33
ATOM     33  O   UNL     1     120.373 117.242 112.871  1.00  0.00    -0.384 OA
ATOM     34  H   UNL     1     121.251 116.862 112.586  1.00  0.00     0.211 HD
ENDBRANCH  28  33
BRANCH  30  35
ATOM     35  O   UNL     1     118.590 115.992 114.695  1.00  0.00    -0.387 OA
ATOM     36  H   UNL     1     119.348 115.467 114.328  1.00  0.00     0.211 HD
ENDBRANCH  30  35
BRANCH  31  37
ATOM     37  C   UNL     1     120.601 116.824 118.502  1.00  0.00     0.191 C 
BRANCH  37  38
ATOM     38  O   UNL     1     120.071 115.715 119.181  1.00  0.00    -0.394 OA
ATOM     39  H   UNL     1     119.987 115.990 120.134  1.00  0.00     0.210 HD
ENDBRANCH  37  38
ENDBRANCH  31  37
BRANCH  32  40
ATOM     40  O   UNL     1     119.432 118.885 116.695  1.00  0.00    -0.387 OA
ATOM     41  H   UNL     1     118.925 119.120 117.516  1.00  0.00     0.211 HD
ENDBRANCH  32  40
ENDBRANCH   1  27
TORSDOF 12
ENDMDL
MODEL 3
REMARK VINA RESULT:    -6.616      6.838     12.286
REMARK INTER + INTRA:         -11.684
REMARK INTER:                  -9.721
REMARK INTRA:                  -1.963
REMARK UNBOUND:                -1.973
REMARK SMILES O=c1c(O[C@@H]2O[C@@H](CO)[C@@H](O)[C@H](O)[C@@H]2O)c(-c2ccc(O)c(O)c2)oc2cc(O)cc(O)c12
REMARK SMILES IDX 4 1 3 2 16 3 25 4 2 5 26 6 1 7 33 8 27 9 31 10 28 11 30 12
REMARK SMILES IDX 17 13 18 14 19 15 20 16 24 17 22 18 21 19 23 21 32 23 29 25
REMARK SMILES IDX 5 27 14 28 6 29 12 30 7 31 10 32 15 33 13 35 8 37 9 38 11 40
REMARK H PARENT 21 20 23 22 32 24 29 26 15 34 13 36 9 39 11 41
REMARK Flexibility Score: inf
ROOT
ATOM      1  O   UNL     1     126.217 114.308 114.347  1.00  0.00    -0.454 OA
ENDROOT
BRANCH   1   2
ATOM      2  C   UNL     1     127.129 113.310 113.949  1.00  0.00     0.214 A 
ATOM      3  C   UNL     1     126.844 112.533 112.805  1.00  0.00     0.180 A 
ATOM      4  O   UNL     1     127.719 111.632 112.378  1.00  0.00    -0.452 OA
ATOM      5  C   UNL     1     128.315 113.049 114.658  1.00  0.00     0.239 A 
ATOM      6  C   UNL     1     128.854 111.370 113.002  1.00  0.00     0.146 A 
ATOM      7  O   UNL     1     128.573 113.682 115.717  1.00  0.00    -0.285 OA
ATOM      8  C   UNL     1     129.207 112.062 114.183  1.00  0.00     0.111 A 
ATOM      9  C   UNL     1     129.703 110.388 112.481  1.00  0.00     0.094 A 
ATOM     10  C   UNL     1     130.416 111.737 114.840  1.00  0.00     0.134 A 
ATOM     11  C   UNL     1     130.897 110.067 113.132  1.00  0.00     0.123 A 
ATOM     12  C   UNL     1     131.252 110.746 114.306  1.00  0.00     0.093 A 
BRANCH   3  13
ATOM     13  C   UNL     1     125.601 112.713 112.028  1.00  0.00     0.025 A 
ATOM     14  C   UNL     1     125.460 113.828 111.183  1.00  0.00     0.016 A 
ATOM     15  C   UNL     1     124.272 114.027 110.475  1.00  0.00     0.051 A 
ATOM     16  C   UNL     1     123.210 113.113 110.590  1.00  0.00     0.157 A 
ATOM     17  C   UNL     1     124.542 111.793 112.131  1.00  0.00     0.062 A 
ATOM     18  C   UNL     1     123.350 111.984 111.419  1.00  0.00     0.158 A 
BRANCH  16  19
ATOM     19  O   UNL     1     122.036 113.342 109.875  1.00  0.00    -0.504 OA
ATOM     20  H   UNL     1     121.870 112.918 108.968  1.00  0.00     0.293 HD
ENDBRANCH  16  19
BRANCH  18  21
ATOM     21  O   UNL     1     122.296 111.084 111.546  1.00  0.00    -0.504 OA
ATOM     22  H   UNL     1     121.504 111.087 110.903  1.00  0.00     0.293 HD
ENDBRANCH  18  21
ENDBRANCH   3  13
BRANCH  10  23
ATOM     23  O   UNL     1     130.797 112.389 116.013  1.00  0.00    -0.507 OA
ATOM     24  H   UNL     1     130.237 113.112 116.426  1.00  0.00     0.293 HD
ENDBRANCH  10  23
BRANCH  11  25
ATOM     25  O   UNL     1     131.725 109.066 112.620  1.00  0.00    -0.508 OA
ATOM     26  H   UNL     1     132.718 109.064 112.840  1.00  0.00     0.293 HD
ENDBRANCH  11  25
ENDBRANCH   1   2
BRANCH   1  27
ATOM     27  C   UNL     1     125.204 114.139 115.348  1.00  0.00     0.339 C 
ATOM     28  C   UNL     1     125.333 115.228 116.431  1.00  0.00     0.214 C 
ATOM     29  O   UNL     1     123.899 114.140 114.784  1.00  0.00    -0.332 OA
ATOM     30  C   UNL     1     124.978 116.626 115.843  1.00  0.00     0.180 C 
ATOM     31  C   UNL     1     123.619 115.367 114.127  1.00  0.00     0.179 C 
ATOM     32  C   UNL     1     123.613 116.552 115.134  1.00  0.00     0.177 C 
BRANCH  28  33
ATOM     33  O   UNL     1     126.624 115.247 116.992  1.00  0.00    -0.384 OA
ATOM     34  H   UNL     1     127.124 116.010 116.586  1.00  0.00     0.211 HD
ENDBRANCH  28  33
BRANCH  30  35
ATOM     35  O   UNL     1     125.954 117.078 114.926  1.00  0.00    -0.387 OA
ATOM     36  H   UNL     1     125.466 117.376 114.115  1.00  0.00     0.211 HD
ENDBRANCH  30  35
BRANCH  31  37
ATOM     37  C   UNL     1     122.290 115.240 113.365  1.00  0.00     0.191 C 
BRANCH  37  38
ATOM     38  O   UNL     1     121.257 114.856 114.235  1.00  0.00    -0.394 OA
ATOM     39  H   UNL     1     120.420 114.878 113.696  1.00  0.00     0.210 HD
ENDBRANCH  37  38
ENDBRANCH  31  37
BRANCH  32  40
ATOM     40  O   UNL     1     122.606 116.376 116.102  1.00  0.00    -0.387 OA
ATOM     41  H   UNL     1     121.738 116.351 115.622  1.00  0.00     0.211 HD
ENDBRANCH  32  40
ENDBRANCH   1  27
TORSDOF 12
ENDMDL
MODEL 4
REMARK VINA RESULT:    -6.507      6.080     10.851
REMARK INTER + INTRA:         -11.523
REMARK INTER:                  -9.934
REMARK INTRA:                  -1.588
REMARK UNBOUND:                -1.973
REMARK SMILES O=c1c(O[C@@H]2O[C@@H](CO)[C@@H](O)[C@H](O)[C@@H]2O)c(-c2ccc(O)c(O)c2)oc2cc(O)cc(O)c12
REMARK SMILES IDX 4 1 3 2 16 3 25 4 2 5 26 6 1 7 33 8 27 9 31 10 28 11 30 12
REMARK SMILES IDX 17 13 18 14 19 15 20 16 24 17 22 18 21 19 23 21 32 23 29 25
REMARK SMILES IDX 5 27 14 28 6 29 12 30 7 31 10 32 15 33 13 35 8 37 9 38 11 40
REMARK H PARENT 21 20 23 22 32 24 29 26 15 34 13 36 9 39 11 41
REMARK Flexibility Score: inf
ROOT
ATOM      1  O   UNL     1     125.275 113.900 112.826  1.00  0.00    -0.454 OA
ENDROOT
BRANCH   1   2
ATOM      2  C   UNL     1     126.387 114.055 113.677  1.00  0.00     0.214 A 
ATOM      3  C   UNL     1     126.181 114.454 115.015  1.00  0.00     0.180 A 
ATOM      4  O   UNL     1     127.209 114.544 115.848  1.00  0.00    -0.452 OA
ATOM      5  C   UNL     1     127.706 113.835 113.238  1.00  0.00     0.239 A 
ATOM      6  C   UNL     1     128.461 114.326 115.484  1.00  0.00     0.146 A 
ATOM      7  O   UNL     1     127.932 113.536 112.035  1.00  0.00    -0.285 OA
ATOM      8  C   UNL     1     128.775 113.967 114.153  1.00  0.00     0.111 A 
ATOM      9  C   UNL     1     129.478 114.464 116.433  1.00  0.00     0.094 A 
ATOM     10  C   UNL     1     130.127 113.770 113.789  1.00  0.00     0.134 A 
ATOM     11  C   UNL     1     130.814 114.269 116.074  1.00  0.00     0.123 A 
ATOM     12  C   UNL     1     131.133 113.918 114.755  1.00  0.00     0.093 A 
BRANCH   3  13
ATOM     13  C   UNL     1     124.833 114.745 115.545  1.00  0.00     0.025 A 
ATOM     14  C   UNL     1     124.313 116.048 115.454  1.00  0.00     0.016 A 
ATOM     15  C   UNL     1     123.055 116.340 115.988  1.00  0.00     0.051 A 
ATOM     16  C   UNL     1     122.293 115.338 116.611  1.00  0.00     0.157 A 
ATOM     17  C   UNL     1     124.063 113.740 116.158  1.00  0.00     0.062 A 
ATOM     18  C   UNL     1     122.799 114.026 116.689  1.00  0.00     0.158 A 
BRANCH  16  19
ATOM     19  O   UNL     1     121.044 115.662 117.137  1.00  0.00    -0.504 OA
ATOM     20  H   UNL     1     120.270 115.005 117.125  1.00  0.00     0.293 HD
ENDBRANCH  16  19
BRANCH  18  21
ATOM     21  O   UNL     1     122.052 113.033 117.317  1.00  0.00    -0.504 OA
ATOM     22  H   UNL     1     122.072 112.901 118.329  1.00  0.00     0.293 HD
ENDBRANCH  18  21
ENDBRANCH   3  13
BRANCH  10  23
ATOM     23  O   UNL     1     130.480 113.424 112.485  1.00  0.00    -0.507 OA
ATOM     24  H   UNL     1     130.086 113.887 111.687  1.00  0.00     0.293 HD
ENDBRANCH  10  23
BRANCH  11  25
ATOM     25  O   UNL     1     131.825 114.436 117.022  1.00  0.00    -0.508 OA
ATOM     26  H   UNL     1     132.796 114.495 116.727  1.00  0.00     0.293 HD
ENDBRANCH  11  25
ENDBRANCH   1   2
BRANCH   1  27
ATOM     27  C   UNL     1     124.447 112.731 112.764  1.00  0.00     0.339 C 
ATOM     28  C   UNL     1     123.045 113.093 112.238  1.00  0.00     0.214 C 
ATOM     29  O   UNL     1     125.036 111.707 111.971  1.00  0.00    -0.332 OA
ATOM     30  C   UNL     1     123.117 113.517 110.741  1.00  0.00     0.180 C 
ATOM     31  C   UNL     1     125.229 112.138 110.631  1.00  0.00     0.179 C 
ATOM     32  C   UNL     1     123.870 112.440 109.939  1.00  0.00     0.177 C 
BRANCH  28  33
ATOM     33  O   UNL     1     122.453 114.112 113.008  1.00  0.00    -0.384 OA
ATOM     34  H   UNL     1     122.518 114.964 112.491  1.00  0.00     0.211 HD
ENDBRANCH  28  33
BRANCH  30  35
ATOM     35  O   UNL     1     123.768 114.760 110.575  1.00  0.00    -0.387 OA
ATOM     36  H   UNL     1     124.575 114.587 110.024  1.00  0.00     0.211 HD
ENDBRANCH  30  35
BRANCH  31  37
ATOM     37  C   UNL     1     126.049 111.080 109.875  1.00  0.00     0.191 C 
BRANCH  37  38
ATOM     38  O   UNL     1     125.381 109.845 109.876  1.00  0.00    -0.394 OA
ATOM     39  H   UNL     1     124.714 109.891 109.138  1.00  0.00     0.210 HD
ENDBRANCH  37  38
ENDBRANCH  31  37
BRANCH  32  40
ATOM     40  O   UNL     1     123.075 111.280 109.878  1.00  0.00    -0.387 OA
ATOM     41  H   UNL     1     122.152 111.568 109.655  1.00  0.00     0.211 HD
ENDBRANCH  32  40
ENDBRANCH   1  27
TORSDOF 12
ENDMDL
MODEL 5
REMARK VINA RESULT:    -6.416      1.566      3.068
REMARK INTER + INTRA:         -11.390
REMARK INTER:                  -9.782
REMARK INTRA:                  -1.608
REMARK UNBOUND:                -1.973
REMARK SMILES O=c1c(O[C@@H]2O[C@@H](CO)[C@@H](O)[C@H](O)[C@@H]2O)c(-c2ccc(O)c(O)c2)oc2cc(O)cc(O)c12
REMARK SMILES IDX 4 1 3 2 16 3 25 4 2 5 26 6 1 7 33 8 27 9 31 10 28 11 30 12
REMARK SMILES IDX 17 13 18 14 19 15 20 16 24 17 22 18 21 19 23 21 32 23 29 25
REMARK SMILES IDX 5 27 14 28 6 29 12 30 7 31 10 32 15 33 13 35 8 37 9 38 11 40
REMARK H PARENT 21 20 23 22 32 24 29 26 15 34 13 36 9 39 11 41
REMARK Flexibility Score: inf
ROOT
ATOM      1  O   UNL     1     122.365 115.222 119.860  1.00  0.00    -0.454 OA
ENDROOT
BRANCH   1   2
ATOM      2  C   UNL     1     121.788 115.987 120.893  1.00  0.00     0.214 A 
ATOM      3  C   UNL     1     122.563 116.308 122.029  1.00  0.00     0.180 A 
ATOM      4  O   UNL     1     122.057 117.079 122.982  1.00  0.00    -0.452 OA
ATOM      5  C   UNL     1     120.456 116.437 120.841  1.00  0.00     0.239 A 
ATOM      6  C   UNL     1     120.819 117.540 122.963  1.00  0.00     0.146 A 
ATOM      7  O   UNL     1     119.717 116.119 119.871  1.00  0.00    -0.285 OA
ATOM      8  C   UNL     1     119.949 117.235 121.891  1.00  0.00     0.111 A 
ATOM      9  C   UNL     1     120.373 118.333 124.026  1.00  0.00     0.094 A 
ATOM     10  C   UNL     1     118.622 117.721 121.916  1.00  0.00     0.134 A 
ATOM     11  C   UNL     1     119.061 118.812 124.050  1.00  0.00     0.123 A 
ATOM     12  C   UNL     1     118.192 118.509 122.993  1.00  0.00     0.093 A 
BRANCH   3  13
ATOM     13  C   UNL     1     123.955 115.840 122.182  1.00  0.00     0.025 A 
ATOM     14  C   UNL     1     125.020 116.731 121.963  1.00  0.00     0.016 A 
ATOM     15  C   UNL     1     126.340 116.285 122.067  1.00  0.00     0.051 A 
ATOM     16  C   UNL     1     126.620 114.948 122.401  1.00  0.00     0.157 A 
ATOM     17  C   UNL     1     124.236 114.505 122.528  1.00  0.00     0.062 A 
ATOM     18  C   UNL     1     125.559 114.055 122.640  1.00  0.00     0.158 A 
BRANCH  16  19
ATOM     19  O   UNL     1     127.946 114.534 122.493  1.00  0.00    -0.504 OA
ATOM     20  H   UNL     1     128.227 113.581 122.280  1.00  0.00     0.293 HD
ENDBRANCH  16  19
BRANCH  18  21
ATOM     21  O   UNL     1     125.831 112.727 122.958  1.00  0.00    -0.504 OA
ATOM     22  H   UNL     1     125.087 112.050 123.131  1.00  0.00     0.293 HD
ENDBRANCH  18  21
ENDBRANCH   3  13
BRANCH  10  23
ATOM     23  O   UNL     1     117.729 117.435 120.883  1.00  0.00    -0.507 OA
ATOM     24  H   UNL     1     116.912 117.992 120.717  1.00  0.00     0.293 HD
ENDBRANCH  10  23
BRANCH  11  25
ATOM     25  O   UNL     1     118.617 119.580 125.129  1.00  0.00    -0.508 OA
ATOM     26  H   UNL     1     118.020 120.387 124.969  1.00  0.00     0.293 HD
ENDBRANCH  11  25
ENDBRANCH   1   2
BRANCH   1  27
ATOM     27  C   UNL     1     123.111 115.762 118.760  1.00  0.00     0.339 C 
ATOM     28  C   UNL     1     124.080 114.704 118.199  1.00  0.00     0.214 C 
ATOM     29  O   UNL     1     122.257 116.259 117.737  1.00  0.00    -0.332 OA
ATOM     30  C   UNL     1     123.290 113.548 117.517  1.00  0.00     0.180 C 
ATOM     31  C   UNL     1     121.435 115.232 117.203  1.00  0.00     0.179 C 
ATOM     32  C   UNL     1     122.290 114.137 116.505  1.00  0.00     0.177 C 
BRANCH  28  33
ATOM     33  O   UNL     1     124.925 114.194 119.202  1.00  0.00    -0.384 OA
ATOM     34  H   UNL     1     125.227 113.286 118.917  1.00  0.00     0.211 HD
ENDBRANCH  28  33
BRANCH  30  35
ATOM     35  O   UNL     1     122.589 112.760 118.458  1.00  0.00    -0.387 OA
ATOM     36  H   UNL     1     121.707 112.552 118.054  1.00  0.00     0.211 HD
ENDBRANCH  30  35
BRANCH  31  37
ATOM     37  C   UNL     1     120.398 115.856 116.257  1.00  0.00     0.191 C 
BRANCH  37  38
ATOM     38  O   UNL     1     119.636 116.825 116.930  1.00  0.00    -0.394 OA
ATOM     39  H   UNL     1     120.177 117.101 117.720  1.00  0.00     0.210 HD
ENDBRANCH  37  38
ENDBRANCH  31  37
BRANCH  32  40
ATOM     40  O   UNL     1     123.006 114.681 115.422  1.00  0.00    -0.387 OA
ATOM     41  H   UNL     1     123.656 113.992 115.124  1.00  0.00     0.211 HD
ENDBRANCH  32  40
ENDBRANCH   1  27
TORSDOF 12
ENDMDL
MODEL 6
REMARK VINA RESULT:    -6.283      7.444     12.908
REMARK INTER + INTRA:         -11.195
REMARK INTER:                  -9.642
REMARK INTRA:                  -1.552
REMARK UNBOUND:                -1.973
REMARK SMILES O=c1c(O[C@@H]2O[C@@H](CO)[C@@H](O)[C@H](O)[C@@H]2O)c(-c2ccc(O)c(O)c2)oc2cc(O)cc(O)c12
REMARK SMILES IDX 4 1 3 2 16 3 25 4 2 5 26 6 1 7 33 8 27 9 31 10 28 11 30 12
REMARK SMILES IDX 17 13 18 14 19 15 20 16 24 17 22 18 21 19 23 21 32 23 29 25
REMARK SMILES IDX 5 27 14 28 6 29 12 30 7 31 10 32 15 33 13 35 8 37 9 38 11 40
REMARK H PARENT 21 20 23 22 32 24 29 26 15 34 13 36 9 39 11 41
REMARK Flexibility Score: inf
ROOT
ATOM      1  O   UNL     1     126.533 113.354 114.138  1.00  0.00    -0.454 OA
ENDROOT
BRANCH   1   2
ATOM      2  C   UNL     1     127.376 112.437 113.479  1.00  0.00     0.214 A 
ATOM      3  C   UNL     1     126.974 111.901 112.236  1.00  0.00     0.180 A 
ATOM      4  O   UNL     1     127.782 111.086 111.572  1.00  0.00    -0.452 OA
ATOM      5  C   UNL     1     128.607 112.025 114.021  1.00  0.00     0.239 A 
ATOM      6  C   UNL     1     128.955 110.689 112.034  1.00  0.00     0.146 A 
ATOM      7  O   UNL     1     128.970 112.437 115.155  1.00  0.00    -0.285 OA
ATOM      8  C   UNL     1     129.425 111.134 113.291  1.00  0.00     0.111 A 
ATOM      9  C   UNL     1     129.727 109.813 111.265  1.00  0.00     0.094 A 
ATOM     10  C   UNL     1     130.672 110.668 113.768  1.00  0.00     0.134 A 
ATOM     11  C   UNL     1     130.958 109.352 111.737  1.00  0.00     0.123 A 
ATOM     12  C   UNL     1     131.429 109.786 112.984  1.00  0.00     0.093 A 
BRANCH   3  13
ATOM     13  C   UNL     1     125.679 112.249 111.617  1.00  0.00     0.025 A 
ATOM     14  C   UNL     1     125.567 113.413 110.837  1.00  0.00     0.016 A 
ATOM     15  C   UNL     1     124.335 113.769 110.282  1.00  0.00     0.051 A 
ATOM     16  C   UNL     1     123.199 112.967 110.486  1.00  0.00     0.157 A 
ATOM     17  C   UNL     1     124.544 111.440 111.810  1.00  0.00     0.062 A 
ATOM     18  C   UNL     1     123.308 111.790 111.250  1.00  0.00     0.158 A 
BRANCH  16  19
ATOM     19  O   UNL     1     121.985 113.352 109.923  1.00  0.00    -0.504 OA
ATOM     20  H   UNL     1     121.099 112.987 110.257  1.00  0.00     0.293 HD
ENDBRANCH  16  19
BRANCH  18  21
ATOM     21  O   UNL     1     122.183 110.999 111.465  1.00  0.00    -0.504 OA
ATOM     22  H   UNL     1     121.585 111.122 112.283  1.00  0.00     0.293 HD
ENDBRANCH  18  21
ENDBRANCH   3  13
BRANCH  10  23
ATOM     23  O   UNL     1     131.168 111.075 115.007  1.00  0.00    -0.507 OA
ATOM     24  H   UNL     1     130.562 111.297 115.775  1.00  0.00     0.293 HD
ENDBRANCH  10  23
BRANCH  11  25
ATOM     25  O   UNL     1     131.709 108.456 110.974  1.00  0.00    -0.508 OA
ATOM     26  H   UNL     1     132.715 108.389 111.109  1.00  0.00     0.293 HD
ENDBRANCH  11  25
ENDBRANCH   1   2
BRANCH   1  27
ATOM     27  C   UNL     1     126.508 114.767 113.891  1.00  0.00     0.339 C 
ATOM     28  C   UNL     1     125.151 115.361 114.316  1.00  0.00     0.214 C 
ATOM     29  O   UNL     1     127.580 115.436 114.544  1.00  0.00    -0.332 OA
ATOM     30  C   UNL     1     124.990 115.300 115.864  1.00  0.00     0.180 C 
ATOM     31  C   UNL     1     127.513 115.269 115.953  1.00  0.00     0.179 C 
ATOM     32  C   UNL     1     126.228 115.924 116.534  1.00  0.00     0.177 C 
BRANCH  28  33
ATOM     33  O   UNL     1     124.079 114.702 113.685  1.00  0.00    -0.384 OA
ATOM     34  H   UNL     1     124.458 113.978 113.112  1.00  0.00     0.211 HD
ENDBRANCH  28  33
BRANCH  30  35
ATOM     35  O   UNL     1     124.830 113.975 116.327  1.00  0.00    -0.387 OA
ATOM     36  H   UNL     1     123.914 113.692 116.069  1.00  0.00     0.211 HD
ENDBRANCH  30  35
BRANCH  31  37
ATOM     37  C   UNL     1     128.794 115.831 116.589  1.00  0.00     0.191 C 
BRANCH  37  38
ATOM     38  O   UNL     1     129.882 114.977 116.343  1.00  0.00    -0.394 OA
ATOM     39  H   UNL     1     129.893 114.322 117.093  1.00  0.00     0.210 HD
ENDBRANCH  37  38
ENDBRANCH  31  37
BRANCH  32  40
ATOM     40  O   UNL     1     126.225 117.311 116.293  1.00  0.00    -0.387 OA
ATOM     41  H   UNL     1     127.108 117.661 116.581  1.00  0.00     0.211 HD
ENDBRANCH  32  40
ENDBRANCH   1  27
TORSDOF 12
ENDMDL
MODEL 7
REMARK VINA RESULT:    -6.255      6.628     11.082
REMARK INTER + INTRA:         -11.154
REMARK INTER:                  -9.344
REMARK INTRA:                  -1.809
REMARK UNBOUND:                -1.973
REMARK SMILES O=c1c(O[C@@H]2O[C@@H](CO)[C@@H](O)[C@H](O)[C@@H]2O)c(-c2ccc(O)c(O)c2)oc2cc(O)cc(O)c12
REMARK SMILES IDX 4 1 3 2 16 3 25 4 2 5 26 6 1 7 33 8 27 9 31 10 28 11 30 12
REMARK SMILES IDX 17 13 18 14 19 15 20 16 24 17 22 18 21 19 23 21 32 23 29 25
REMARK SMILES IDX 5 27 14 28 6 29 12 30 7 31 10 32 15 33 13 35 8 37 9 38 11 40
REMARK H PARENT 21 20 23 22 32 24 29 26 15 34 13 36 9 39 11 41
REMARK Flexibility Score: inf
ROOT
ATOM      1  O   UNL     1     125.344 112.799 112.994  1.00  0.00    -0.454 OA
ENDROOT
BRANCH   1   2
ATOM      2  C   UNL     1     126.484 113.165 113.738  1.00  0.00     0.214 A 
ATOM      3  C   UNL     1     126.357 114.127 114.765  1.00  0.00     0.180 A 
ATOM      4  O   UNL     1     127.404 114.438 115.517  1.00  0.00    -0.452 OA
ATOM      5  C   UNL     1     127.754 112.614 113.489  1.00  0.00     0.239 A 
ATOM      6  C   UNL     1     128.609 113.929 115.331  1.00  0.00     0.146 A 
ATOM      7  O   UNL     1     127.915 111.798 112.542  1.00  0.00    -0.285 OA
ATOM      8  C   UNL     1     128.848 112.993 114.298  1.00  0.00     0.111 A 
ATOM      9  C   UNL     1     129.654 114.335 116.167  1.00  0.00     0.094 A 
ATOM     10  C   UNL     1     130.155 112.490 114.108  1.00  0.00     0.134 A 
ATOM     11  C   UNL     1     130.946 113.837 115.979  1.00  0.00     0.123 A 
ATOM     12  C   UNL     1     131.191 112.913 114.954  1.00  0.00     0.093 A 
BRANCH   3  13
ATOM     13  C   UNL     1     125.069 114.785 115.064  1.00  0.00     0.025 A 
ATOM     14  C   UNL     1     124.865 116.125 114.690  1.00  0.00     0.016 A 
ATOM     15  C   UNL     1     123.665 116.766 115.005  1.00  0.00     0.051 A 
ATOM     16  C   UNL     1     122.645 116.081 115.687  1.00  0.00     0.157 A 
ATOM     17  C   UNL     1     124.043 114.096 115.736  1.00  0.00     0.062 A 
ATOM     18  C   UNL     1     122.834 114.733 116.048  1.00  0.00     0.158 A 
BRANCH  16  19
ATOM     19  O   UNL     1     121.462 116.750 115.990  1.00  0.00    -0.504 OA
ATOM     20  H   UNL     1     120.893 117.186 115.272  1.00  0.00     0.293 HD
ENDBRANCH  16  19
BRANCH  18  21
ATOM     21  O   UNL     1     121.832 114.054 116.736  1.00  0.00    -0.504 OA
ATOM     22  H   UNL     1     121.082 114.547 117.221  1.00  0.00     0.293 HD
ENDBRANCH  18  21
ENDBRANCH   3  13
BRANCH  10  23
ATOM     23  O   UNL     1     130.436 111.573 113.095  1.00  0.00    -0.507 OA
ATOM     24  H   UNL     1     130.872 111.848 112.234  1.00  0.00     0.293 HD
ENDBRANCH  10  23
BRANCH  11  25
ATOM     25  O   UNL     1     131.988 114.269 116.802  1.00  0.00    -0.508 OA
ATOM     26  H   UNL     1     131.809 114.947 117.538  1.00  0.00     0.293 HD
ENDBRANCH  11  25
ENDBRANCH   1   2
BRANCH   1  27
ATOM     27  C   UNL     1     125.109 113.158 111.626  1.00  0.00     0.339 C 
ATOM     28  C   UNL     1     124.528 111.961 110.850  1.00  0.00     0.214 C 
ATOM     29  O   UNL     1     124.259 114.293 111.517  1.00  0.00    -0.332 OA
ATOM     30  C   UNL     1     123.090 111.634 111.349  1.00  0.00     0.180 C 
ATOM     31  C   UNL     1     122.986 114.043 112.095  1.00  0.00     0.179 C 
ATOM     32  C   UNL     1     122.236 112.915 111.332  1.00  0.00     0.177 C 
BRANCH  28  33
ATOM     33  O   UNL     1     125.354 110.826 110.956  1.00  0.00    -0.384 OA
ATOM     34  H   UNL     1     125.001 110.130 110.334  1.00  0.00     0.211 HD
ENDBRANCH  28  33
BRANCH  30  35
ATOM     35  O   UNL     1     123.094 111.096 112.656  1.00  0.00    -0.387 OA
ATOM     36  H   UNL     1     123.582 111.743 113.228  1.00  0.00     0.211 HD
ENDBRANCH  30  35
BRANCH  31  37
ATOM     37  C   UNL     1     122.184 115.354 112.135  1.00  0.00     0.191 C 
BRANCH  37  38
ATOM     38  O   UNL     1     120.845 115.125 111.782  1.00  0.00    -0.394 OA
ATOM     39  H   UNL     1     120.296 115.510 112.518  1.00  0.00     0.210 HD
ENDBRANCH  37  38
ENDBRANCH  31  37
BRANCH  32  40
ATOM     40  O   UNL     1     122.004 113.289 109.995  1.00  0.00    -0.387 OA
ATOM     41  H   UNL     1     121.020 113.317 109.864  1.00  0.00     0.211 HD
ENDBRANCH  32  40
ENDBRANCH   1  27
TORSDOF 12
ENDMDL
MODEL 8
REMARK VINA RESULT:    -6.199      2.225      6.730
REMARK INTER + INTRA:         -11.072
REMARK INTER:                  -9.052
REMARK INTRA:                  -2.020
REMARK UNBOUND:                -1.973
REMARK SMILES O=c1c(O[C@@H]2O[C@@H](CO)[C@@H](O)[C@H](O)[C@@H]2O)c(-c2ccc(O)c(O)c2)oc2cc(O)cc(O)c12
REMARK SMILES IDX 4 1 3 2 16 3 25 4 2 5 26 6 1 7 33 8 27 9 31 10 28 11 30 12
REMARK SMILES IDX 17 13 18 14 19 15 20 16 24 17 22 18 21 19 23 21 32 23 29 25
REMARK SMILES IDX 5 27 14 28 6 29 12 30 7 31 10 32 15 33 13 35 8 37 9 38 11 40
REMARK H PARENT 21 20 23 22 32 24 29 26 15 34 13 36 9 39 11 41
REMARK Flexibility Score: inf
ROOT
ATOM      1  O   UNL     1     120.844 116.263 119.177  1.00  0.00    -0.454 OA
ENDROOT
BRANCH   1   2
ATOM      2  C   UNL     1     121.514 115.866 118.003  1.00  0.00     0.214 A 
ATOM      3  C   UNL     1     122.885 115.533 118.070  1.00  0.00     0.180 A 
ATOM      4  O   UNL     1     123.517 115.097 116.989  1.00  0.00    -0.452 OA
ATOM      5  C   UNL     1     120.868 115.798 116.755  1.00  0.00     0.239 A 
ATOM      6  C   UNL     1     122.944 114.998 115.803  1.00  0.00     0.146 A 
ATOM      7  O   UNL     1     119.661 116.144 116.647  1.00  0.00    -0.285 OA
ATOM      8  C   UNL     1     121.586 115.352 115.623  1.00  0.00     0.111 A 
ATOM      9  C   UNL     1     123.701 114.544 114.719  1.00  0.00     0.094 A 
ATOM     10  C   UNL     1     121.012 115.261 114.335  1.00  0.00     0.134 A 
ATOM     11  C   UNL     1     123.133 114.454 113.446  1.00  0.00     0.123 A 
ATOM     12  C   UNL     1     121.789 114.808 113.259  1.00  0.00     0.093 A 
BRANCH   3  13
ATOM     13  C   UNL     1     123.648 115.619 119.332  1.00  0.00     0.025 A 
ATOM     14  C   UNL     1     124.560 116.671 119.528  1.00  0.00     0.016 A 
ATOM     15  C   UNL     1     125.315 116.735 120.702  1.00  0.00     0.051 A 
ATOM     16  C   UNL     1     125.166 115.760 121.703  1.00  0.00     0.157 A 
ATOM     17  C   UNL     1     123.491 114.650 120.340  1.00  0.00     0.062 A 
ATOM     18  C   UNL     1     124.241 114.714 121.522  1.00  0.00     0.158 A 
BRANCH  16  19
ATOM     19  O   UNL     1     125.936 115.850 122.860  1.00  0.00    -0.504 OA
ATOM     20  H   UNL     1     125.660 115.396 123.725  1.00  0.00     0.293 HD
ENDBRANCH  16  19
BRANCH  18  21
ATOM     21  O   UNL     1     124.100 113.739 122.505  1.00  0.00    -0.504 OA
ATOM     22  H   UNL     1     124.900 113.225 122.875  1.00  0.00     0.293 HD
ENDBRANCH  18  21
ENDBRANCH   3  13
BRANCH  10  23
ATOM     23  O   UNL     1     119.680 115.610 114.113  1.00  0.00    -0.507 OA
ATOM     24  H   UNL     1     119.339 116.539 114.277  1.00  0.00     0.293 HD
ENDBRANCH  10  23
BRANCH  11  25
ATOM     25  O   UNL     1     123.905 114.025 112.364  1.00  0.00    -0.508 OA
ATOM     26  H   UNL     1     123.996 114.612 111.538  1.00  0.00     0.293 HD
ENDBRANCH  11  25
ENDBRANCH   1   2
BRANCH   1  27
ATOM     27  C   UNL     1     120.661 117.622 119.596  1.00  0.00     0.339 C 
ATOM     28  C   UNL     1     119.174 117.898 119.890  1.00  0.00     0.214 C 
ATOM     29  O   UNL     1     121.467 117.940 120.725  1.00  0.00    -0.332 OA
ATOM     30  C   UNL     1     118.712 117.107 121.149  1.00  0.00     0.180 C 
ATOM     31  C   UNL     1     121.139 117.124 121.841  1.00  0.00     0.179 C 
ATOM     32  C   UNL     1     119.681 117.382 122.314  1.00  0.00     0.177 C 
BRANCH  28  33
ATOM     33  O   UNL     1     118.362 117.579 118.785  1.00  0.00    -0.384 OA
ATOM     34  H   UNL     1     118.961 117.326 118.027  1.00  0.00     0.211 HD
ENDBRANCH  28  33
BRANCH  30  35
ATOM     35  O   UNL     1     118.657 115.715 120.909  1.00  0.00    -0.387 OA
ATOM     36  H   UNL     1     118.775 115.591 119.931  1.00  0.00     0.211 HD
ENDBRANCH  30  35
BRANCH  31  37
ATOM     37  C   UNL     1     122.167 117.362 122.958  1.00  0.00     0.191 C 
BRANCH  37  38
ATOM     38  O   UNL     1     122.633 118.687 122.926  1.00  0.00    -0.394 OA
ATOM     39  H   UNL     1     122.789 118.947 123.875  1.00  0.00     0.210 HD
ENDBRANCH  37  38
ENDBRANCH  31  37
BRANCH  32  40
ATOM     40  O   UNL     1     119.522 118.717 122.731  1.00  0.00    -0.387 OA
ATOM     41  H   UNL     1     120.204 119.257 122.252  1.00  0.00     0.211 HD
ENDBRANCH  32  40
ENDBRANCH   1  27
TORSDOF 12
ENDMDL
MODEL 9
REMARK VINA RESULT:    -6.171      2.212      6.739
REMARK INTER + INTRA:         -11.030
REMARK INTER:                  -9.420
REMARK INTRA:                  -1.610
REMARK UNBOUND:                -1.973
REMARK SMILES O=c1c(O[C@@H]2O[C@@H](CO)[C@@H](O)[C@H](O)[C@@H]2O)c(-c2ccc(O)c(O)c2)oc2cc(O)cc(O)c12
REMARK SMILES IDX 4 1 3 2 16 3 25 4 2 5 26 6 1 7 33 8 27 9 31 10 28 11 30 12
REMARK SMILES IDX 17 13 18 14 19 15 20 16 24 17 22 18 21 19 23 21 32 23 29 25
REMARK SMILES IDX 5 27 14 28 6 29 12 30 7 31 10 32 15 33 13 35 8 37 9 38 11 40
REMARK H PARENT 21 20 23 22 32 24 29 26 15 34 13 36 9 39 11 41
REMARK Flexibility Score: inf
ROOT
ATOM      1  O   UNL     1     122.569 115.600 120.003  1.00  0.00    -0.454 OA
ENDROOT
BRANCH   1   2
ATOM      2  C   UNL     1     122.001 115.626 118.714  1.00  0.00     0.214 A 
ATOM      3  C   UNL     1     120.734 116.222 118.530  1.00  0.00     0.180 A 
ATOM      4  O   UNL     1     120.211 116.312 117.314  1.00  0.00    -0.452 OA
ATOM      5  C   UNL     1     122.648 115.067 117.596  1.00  0.00     0.239 A 
ATOM      6  C   UNL     1     120.794 115.820 116.235  1.00  0.00     0.146 A 
ATOM      7  O   UNL     1     123.751 114.474 117.733  1.00  0.00    -0.285 OA
ATOM      8  C   UNL     1     122.043 115.162 116.323  1.00  0.00     0.111 A 
ATOM      9  C   UNL     1     120.153 115.949 114.999  1.00  0.00     0.094 A 
ATOM     10  C   UNL     1     122.625 114.622 115.153  1.00  0.00     0.134 A 
ATOM     11  C   UNL     1     120.729 115.415 113.843  1.00  0.00     0.123 A 
ATOM     12  C   UNL     1     121.964 114.758 113.923  1.00  0.00     0.093 A 
BRANCH   3  13
ATOM     13  C   UNL     1     119.969 116.794 119.656  1.00  0.00     0.025 A 
ATOM     14  C   UNL     1     119.240 115.946 120.509  1.00  0.00     0.016 A 
ATOM     15  C   UNL     1     118.482 116.484 121.552  1.00  0.00     0.051 A 
ATOM     16  C   UNL     1     118.447 117.872 121.769  1.00  0.00     0.157 A 
ATOM     17  C   UNL     1     119.942 118.183 119.883  1.00  0.00     0.062 A 
ATOM     18  C   UNL     1     119.189 118.726 120.932  1.00  0.00     0.158 A 
BRANCH  16  19
ATOM     19  O   UNL     1     117.678 118.377 122.815  1.00  0.00    -0.504 OA
ATOM     20  H   UNL     1     117.793 119.326 123.156  1.00  0.00     0.293 HD
ENDBRANCH  16  19
BRANCH  18  21
ATOM     21  O   UNL     1     119.146 120.102 121.135  1.00  0.00    -0.504 OA
ATOM     22  H   UNL     1     119.264 120.515 122.060  1.00  0.00     0.293 HD
ENDBRANCH  18  21
ENDBRANCH   3  13
BRANCH  10  23
ATOM     23  O   UNL     1     123.850 113.958 115.197  1.00  0.00    -0.507 OA
ATOM     24  H   UNL     1     124.582 114.234 115.826  1.00  0.00     0.293 HD
ENDBRANCH  10  23
BRANCH  11  25
ATOM     25  O   UNL     1     120.068 115.526 112.618  1.00  0.00    -0.508 OA
ATOM     26  H   UNL     1     119.971 116.435 112.172  1.00  0.00     0.293 HD
ENDBRANCH  11  25
ENDBRANCH   1   2
BRANCH   1  27
ATOM     27  C   UNL     1     123.287 116.686 120.603  1.00  0.00     0.339 C 
ATOM     28  C   UNL     1     123.251 116.570 122.139  1.00  0.00     0.214 C 
ATOM     29  O   UNL     1     124.628 116.756 120.133  1.00  0.00    -0.332 OA
ATOM     30  C   UNL     1     124.076 115.336 122.612  1.00  0.00     0.180 C 
ATOM     31  C   UNL     1     125.348 115.572 120.444  1.00  0.00     0.179 C 
ATOM     32  C   UNL     1     125.480 115.385 121.982  1.00  0.00     0.177 C 
BRANCH  28  33
ATOM     33  O   UNL     1     121.931 116.490 122.619  1.00  0.00    -0.384 OA
ATOM     34  H   UNL     1     121.666 117.397 122.942  1.00  0.00     0.211 HD
ENDBRANCH  28  33
BRANCH  30  35
ATOM     35  O   UNL     1     123.452 114.117 122.261  1.00  0.00    -0.387 OA
ATOM     36  H   UNL     1     122.552 114.128 122.680  1.00  0.00     0.211 HD
ENDBRANCH  30  35
BRANCH  31  37
ATOM     37  C   UNL     1     126.714 115.613 119.741  1.00  0.00     0.191 C 
BRANCH  37  38
ATOM     38  O   UNL     1     126.632 115.020 118.470  1.00  0.00    -0.394 OA
ATOM     39  H   UNL     1     127.205 115.572 117.871  1.00  0.00     0.210 HD
ENDBRANCH  37  38
ENDBRANCH  31  37
BRANCH  32  40
ATOM     40  O   UNL     1     126.197 116.453 122.553  1.00  0.00    -0.387 OA
ATOM     41  H   UNL     1     125.762 117.293 122.250  1.00  0.00     0.211 HD
ENDBRANCH  32  40
ENDBRANCH   1  27
TORSDOF 12
ENDMDL
