MODEL 1
REMARK VINA RESULT:    -4.395      0.000      0.000
REMARK INTER + INTRA:          -7.147
REMARK INTER:                  -6.708
REMARK INTRA:                  -0.439
REMARK UNBOUND:                -0.439
REMARK SMILES CCCCCCCCCCC(=O)[O-]
REMARK SMILES IDX 7 1 8 2 9 3 10 4 11 5 12 6 13 7 6 8 5 9 4 10 3 11 2 12 1 13
REMARK H PARENT
REMARK Flexibility Score: inf
ROOT
ATOM      1  C   UNL     1      11.379   8.366  -6.991  1.00  0.00     0.000 C 
ENDROOT
BRANCH   1   2
ATOM      2  C   UNL     1      10.072   7.558  -6.898  1.00  0.00     0.000 C 
BRANCH   2   3
ATOM      3  C   UNL     1      10.234   6.107  -7.389  1.00  0.00     0.006 C 
BRANCH   3   4
ATOM      4  C   UNL     1      10.556   5.093  -6.280  1.00  0.00     0.053 C 
BRANCH   4   5
ATOM      5  C   UNL     1      12.031   4.914  -6.095  1.00  0.00     0.041 C 
ATOM      6  O   UNL     1      12.665   4.093  -6.808  1.00  0.00    -0.550 OA
ATOM      7  O   UNL     1      12.700   5.631  -5.111  1.00  0.00    -0.550 OA
ENDBRANCH   4   5
ENDBRANCH   3   4
ENDBRANCH   2   3
ENDBRANCH   1   2
BRANCH   1   8
ATOM      8  C   UNL     1      11.202   9.688  -7.756  1.00  0.00     0.000 C 
BRANCH   8   9
ATOM      9  C   UNL     1      12.474  10.549  -7.761  1.00  0.00    -0.000 C 
BRANCH   9  10
ATOM     10  C   UNL     1      12.729  11.139  -9.156  1.00  0.00    -0.000 C 
BRANCH  10  11
ATOM     11  C   UNL     1      11.514  11.005 -10.088  1.00  0.00    -0.000 C 
BRANCH  11  12
ATOM     12  C   UNL     1      11.862  11.289 -11.556  1.00  0.00    -0.003 C 
ATOM     13  C   UNL     1      13.228  10.713 -11.917  1.00  0.00     0.004 C 
ENDBRANCH  11  12
ENDBRANCH  10  11
ENDBRANCH   9  10
ENDBRANCH   8   9
ENDBRANCH   1   8
TORSDOF 9
ENDMDL
MODEL 2
REMARK VINA RESULT:    -4.238     16.129     17.728
REMARK INTER + INTRA:          -6.907
REMARK INTER:                  -6.271
REMARK INTRA:                  -0.636
REMARK UNBOUND:                -0.439
REMARK SMILES CCCCCCCCCCC(=O)[O-]
REMARK SMILES IDX 7 1 8 2 9 3 10 4 11 5 12 6 13 7 6 8 5 9 4 10 3 11 2 12 1 13
REMARK H PARENT
REMARK Flexibility Score: inf
ROOT
ATOM      1  C   UNL     1      25.524  -0.487 -10.788  1.00  0.00     0.000 C 
ENDROOT
BRANCH   1   2
ATOM      2  C   UNL     1      24.257  -1.025 -11.476  1.00  0.00     0.000 C 
BRANCH   2   3
ATOM      3  C   UNL     1      23.823  -0.165 -12.679  1.00  0.00     0.006 C 
BRANCH   3   4
ATOM      4  C   UNL     1      24.896   0.816 -13.178  1.00  0.00     0.053 C 
BRANCH   4   5
ATOM      5  C   UNL     1      25.367   0.478 -14.558  1.00  0.00     0.041 C 
ATOM      6  O   UNL     1      26.146   1.255 -15.171  1.00  0.00    -0.550 OA
ATOM      7  O   UNL     1      24.922  -0.681 -15.180  1.00  0.00    -0.550 OA
ENDBRANCH   4   5
ENDBRANCH   3   4
ENDBRANCH   2   3
ENDBRANCH   1   2
BRANCH   1   8
ATOM      8  C   UNL     1      25.676  -1.004  -9.348  1.00  0.00     0.000 C 
BRANCH   8   9
ATOM      9  C   UNL     1      24.466  -1.826  -8.879  1.00  0.00    -0.000 C 
BRANCH   9  10
ATOM     10  C   UNL     1      24.894  -2.904  -7.872  1.00  0.00    -0.000 C 
BRANCH  10  11
ATOM     11  C   UNL     1      24.821  -4.324  -8.457  1.00  0.00    -0.000 C 
BRANCH  11  12
ATOM     12  C   UNL     1      23.736  -4.464  -9.535  1.00  0.00    -0.003 C 
ATOM     13  C   UNL     1      23.013  -5.803  -9.413  1.00  0.00     0.004 C 
ENDBRANCH  11  12
ENDBRANCH  10  11
ENDBRANCH   9  10
ENDBRANCH   8   9
ENDBRANCH   1   8
TORSDOF 9
ENDMDL
MODEL 3
REMARK VINA RESULT:    -4.210     15.890     17.750
REMARK INTER + INTRA:          -6.865
REMARK INTER:                  -6.089
REMARK INTRA:                  -0.776
REMARK UNBOUND:                -0.439
REMARK SMILES CCCCCCCCCCC(=O)[O-]
REMARK SMILES IDX 7 1 8 2 9 3 10 4 11 5 12 6 13 7 6 8 5 9 4 10 3 11 2 12 1 13
REMARK H PARENT
REMARK Flexibility Score: inf
ROOT
ATOM      1  C   UNL     1      25.338  -0.702  -9.193  1.00  0.00     0.000 C 
ENDROOT
BRANCH   1   2
ATOM      2  C   UNL     1      25.705  -0.680 -10.687  1.00  0.00     0.000 C 
BRANCH   2   3
ATOM      3  C   UNL     1      24.621  -1.321 -11.575  1.00  0.00     0.006 C 
BRANCH   3   4
ATOM      4  C   UNL     1      23.794  -0.317 -12.392  1.00  0.00     0.053 C 
BRANCH   4   5
ATOM      5  C   UNL     1      24.578   0.264 -13.528  1.00  0.00     0.041 C 
ATOM      6  O   UNL     1      24.937  -0.465 -14.490  1.00  0.00    -0.550 OA
ATOM      7  O   UNL     1      24.941   1.605 -13.508  1.00  0.00    -0.550 OA
ENDBRANCH   4   5
ENDBRANCH   3   4
ENDBRANCH   2   3
ENDBRANCH   1   2
BRANCH   1   8
ATOM      8  C   UNL     1      26.539  -1.049  -8.297  1.00  0.00     0.000 C 
BRANCH   8   9
ATOM      9  C   UNL     1      26.546  -2.520  -7.853  1.00  0.00    -0.000 C 
BRANCH   9  10
ATOM     10  C   UNL     1      25.132  -3.116  -7.912  1.00  0.00    -0.000 C 
BRANCH  10  11
ATOM     11  C   UNL     1      25.052  -4.365  -8.805  1.00  0.00    -0.000 C 
BRANCH  11  12
ATOM     12  C   UNL     1      23.739  -4.441  -9.598  1.00  0.00    -0.003 C 
ATOM     13  C   UNL     1      22.989  -5.735  -9.295  1.00  0.00     0.004 C 
ENDBRANCH  11  12
ENDBRANCH  10  11
ENDBRANCH   9  10
ENDBRANCH   8   9
ENDBRANCH   1   8
TORSDOF 9
ENDMDL
MODEL 4
REMARK VINA RESULT:    -4.172     16.087     16.969
REMARK INTER + INTRA:          -6.806
REMARK INTER:                  -6.302
REMARK INTRA:                  -0.504
REMARK UNBOUND:                -0.439
REMARK SMILES CCCCCCCCCCC(=O)[O-]
REMARK SMILES IDX 7 1 8 2 9 3 10 4 11 5 12 6 13 7 6 8 5 9 4 10 3 11 2 12 1 13
REMARK H PARENT
REMARK Flexibility Score: inf
ROOT
ATOM      1  C   UNL     1      25.982  -1.831  -8.673  1.00  0.00     0.000 C 
ENDROOT
BRANCH   1   2
ATOM      2  C   UNL     1      24.924  -2.647  -7.908  1.00  0.00     0.000 C 
BRANCH   2   3
ATOM      3  C   UNL     1      24.874  -4.120  -8.353  1.00  0.00     0.006 C 
BRANCH   3   4
ATOM      4  C   UNL     1      23.758  -4.442  -9.360  1.00  0.00     0.053 C 
BRANCH   4   5
ATOM      5  C   UNL     1      23.462  -5.908  -9.419  1.00  0.00     0.041 C 
ATOM      6  O   UNL     1      24.366  -6.749  -9.172  1.00  0.00    -0.550 OA
ATOM      7  O   UNL     1      22.194  -6.347  -9.780  1.00  0.00    -0.550 OA
ENDBRANCH   4   5
ENDBRANCH   3   4
ENDBRANCH   2   3
ENDBRANCH   1   2
BRANCH   1   8
ATOM      8  C   UNL     1      25.377  -0.619  -9.402  1.00  0.00     0.000 C 
BRANCH   8   9
ATOM      9  C   UNL     1      25.565  -0.686 -10.925  1.00  0.00    -0.000 C 
BRANCH   9  10
ATOM     10  C   UNL     1      24.212  -0.829 -11.638  1.00  0.00    -0.000 C 
BRANCH  10  11
ATOM     11  C   UNL     1      24.297  -0.518 -13.141  1.00  0.00    -0.000 C 
BRANCH  11  12
ATOM     12  C   UNL     1      24.651   0.949 -13.421  1.00  0.00    -0.003 C 
ATOM     13  C   UNL     1      25.465   1.081 -14.706  1.00  0.00     0.004 C 
ENDBRANCH  11  12
ENDBRANCH  10  11
ENDBRANCH   9  10
ENDBRANCH   8   9
ENDBRANCH   1   8
TORSDOF 9
ENDMDL
MODEL 5
REMARK VINA RESULT:    -4.163      3.467      6.500
REMARK INTER + INTRA:          -6.793
REMARK INTER:                  -6.263
REMARK INTRA:                  -0.529
REMARK UNBOUND:                -0.439
REMARK SMILES CCCCCCCCCCC(=O)[O-]
REMARK SMILES IDX 7 1 8 2 9 3 10 4 11 5 12 6 13 7 6 8 5 9 4 10 3 11 2 12 1 13
REMARK H PARENT
REMARK Flexibility Score: inf
ROOT
ATOM      1  C   UNL     1      10.975   9.451  -6.337  1.00  0.00     0.000 C 
ENDROOT
BRANCH   1   2
ATOM      2  C   UNL     1      11.905  10.387  -7.130  1.00  0.00     0.000 C 
BRANCH   2   3
ATOM      3  C   UNL     1      11.704  10.276  -8.653  1.00  0.00     0.006 C 
BRANCH   3   4
ATOM      4  C   UNL     1      12.811  10.937  -9.489  1.00  0.00     0.053 C 
BRANCH   4   5
ATOM      5  C   UNL     1      12.426  11.060 -10.931  1.00  0.00     0.041 C 
ATOM      6  O   UNL     1      13.202  10.646 -11.832  1.00  0.00    -0.550 OA
ATOM      7  O   UNL     1      11.225  11.662 -11.281  1.00  0.00    -0.550 OA
ENDBRANCH   4   5
ENDBRANCH   3   4
ENDBRANCH   2   3
ENDBRANCH   1   2
BRANCH   1   8
ATOM      8  C   UNL     1      10.215   8.470  -7.245  1.00  0.00     0.000 C 
BRANCH   8   9
ATOM      9  C   UNL     1       9.875   7.148  -6.542  1.00  0.00    -0.000 C 
BRANCH   9  10
ATOM     10  C   UNL     1      10.413   5.950  -7.339  1.00  0.00    -0.000 C 
BRANCH  10  11
ATOM     11  C   UNL     1      11.166   4.941  -6.456  1.00  0.00    -0.000 C 
BRANCH  11  12
ATOM     12  C   UNL     1      12.417   5.545  -5.803  1.00  0.00    -0.003 C 
ATOM     13  C   UNL     1      12.237   5.680  -4.293  1.00  0.00     0.004 C 
ENDBRANCH  11  12
ENDBRANCH  10  11
ENDBRANCH   9  10
ENDBRANCH   8   9
ENDBRANCH   1   8
TORSDOF 9
ENDMDL
MODEL 6
REMARK VINA RESULT:    -4.117      3.030      6.385
REMARK INTER + INTRA:          -6.723
REMARK INTER:                  -5.630
REMARK INTRA:                  -1.093
REMARK UNBOUND:                -0.439
REMARK SMILES CCCCCCCCCCC(=O)[O-]
REMARK SMILES IDX 7 1 8 2 9 3 10 4 11 5 12 6 13 7 6 8 5 9 4 10 3 11 2 12 1 13
REMARK H PARENT
REMARK Flexibility Score: inf
ROOT
ATOM      1  C   UNL     1       9.893   6.239  -7.500  1.00  0.00     0.000 C 
ENDROOT
BRANCH   1   2
ATOM      2  C   UNL     1       9.932   7.709  -7.043  1.00  0.00     0.000 C 
BRANCH   2   3
ATOM      3  C   UNL     1      11.344   8.319  -7.121  1.00  0.00     0.006 C 
BRANCH   3   4
ATOM      4  C   UNL     1      11.370   9.855  -7.164  1.00  0.00     0.053 C 
BRANCH   4   5
ATOM      5  C   UNL     1      11.722  10.372  -8.524  1.00  0.00     0.041 C 
ATOM      6  O   UNL     1      12.923  10.607  -8.823  1.00  0.00    -0.550 OA
ATOM      7  O   UNL     1      10.720  10.628  -9.451  1.00  0.00    -0.550 OA
ENDBRANCH   4   5
ENDBRANCH   3   4
ENDBRANCH   2   3
ENDBRANCH   1   2
BRANCH   1   8
ATOM      8  C   UNL     1       9.876   5.255  -6.319  1.00  0.00     0.000 C 
BRANCH   8   9
ATOM      9  C   UNL     1      11.182   4.456  -6.190  1.00  0.00    -0.000 C 
BRANCH   9  10
ATOM     10  C   UNL     1      12.172   5.171  -5.259  1.00  0.00    -0.000 C 
BRANCH  10  11
ATOM     11  C   UNL     1      11.594   5.416  -3.856  1.00  0.00    -0.000 C 
BRANCH  11  12
ATOM     12  C   UNL     1      11.754   6.873  -3.397  1.00  0.00    -0.003 C 
ATOM     13  C   UNL     1      10.408   7.592  -3.378  1.00  0.00     0.004 C 
ENDBRANCH  11  12
ENDBRANCH  10  11
ENDBRANCH   9  10
ENDBRANCH   8   9
ENDBRANCH   1   8
TORSDOF 9
ENDMDL
MODEL 7
REMARK VINA RESULT:    -4.021     16.107     17.912
REMARK INTER + INTRA:          -6.577
REMARK INTER:                  -6.048
REMARK INTRA:                  -0.529
REMARK UNBOUND:                -0.439
REMARK SMILES CCCCCCCCCCC(=O)[O-]
REMARK SMILES IDX 7 1 8 2 9 3 10 4 11 5 12 6 13 7 6 8 5 9 4 10 3 11 2 12 1 13
REMARK H PARENT
REMARK Flexibility Score: inf
ROOT
ATOM      1  C   UNL     1      24.073  -1.652 -10.169  1.00  0.00     0.000 C 
ENDROOT
BRANCH   1   2
ATOM      2  C   UNL     1      24.878  -0.739 -11.112  1.00  0.00     0.000 C 
BRANCH   2   3
ATOM      3  C   UNL     1      24.119  -0.407 -12.410  1.00  0.00     0.006 C 
BRANCH   3   4
ATOM      4  C   UNL     1      24.985  -0.447 -13.680  1.00  0.00     0.053 C 
BRANCH   4   5
ATOM      5  C   UNL     1      25.240   0.922 -14.229  1.00  0.00     0.041 C 
ATOM      6  O   UNL     1      25.048   1.939 -13.512  1.00  0.00    -0.550 OA
ATOM      7  O   UNL     1      25.658   1.076 -15.544  1.00  0.00    -0.550 OA
ENDBRANCH   4   5
ENDBRANCH   3   4
ENDBRANCH   2   3
ENDBRANCH   1   2
BRANCH   1   8
ATOM      8  C   UNL     1      24.519  -1.525  -8.703  1.00  0.00     0.000 C 
BRANCH   8   9
ATOM      9  C   UNL     1      25.279  -2.763  -8.203  1.00  0.00    -0.000 C 
BRANCH   9  10
ATOM     10  C   UNL     1      26.789  -2.491  -8.145  1.00  0.00    -0.000 C 
BRANCH  10  11
ATOM     11  C   UNL     1      27.121  -0.990  -8.117  1.00  0.00    -0.000 C 
BRANCH  11  12
ATOM     12  C   UNL     1      28.286  -0.660  -7.172  1.00  0.00    -0.003 C 
ATOM     13  C   UNL     1      28.718  -1.892  -6.382  1.00  0.00     0.004 C 
ENDBRANCH  11  12
ENDBRANCH  10  11
ENDBRANCH   9  10
ENDBRANCH   8   9
ENDBRANCH   1   8
TORSDOF 9
ENDMDL
MODEL 8
REMARK VINA RESULT:    -3.990      1.674      2.665
REMARK INTER + INTRA:          -6.528
REMARK INTER:                  -5.795
REMARK INTRA:                  -0.733
REMARK UNBOUND:                -0.439
REMARK SMILES CCCCCCCCCCC(=O)[O-]
REMARK SMILES IDX 7 1 8 2 9 3 10 4 11 5 12 6 13 7 6 8 5 9 4 10 3 11 2 12 1 13
REMARK H PARENT
REMARK Flexibility Score: inf
ROOT
ATOM      1  C   UNL     1      10.839   8.061  -4.155  1.00  0.00     0.000 C 
ENDROOT
BRANCH   1   2
ATOM      2  C   UNL     1      10.248   6.772  -3.557  1.00  0.00     0.000 C 
BRANCH   2   3
ATOM      3  C   UNL     1      11.147   5.542  -3.786  1.00  0.00     0.006 C 
BRANCH   3   4
ATOM      4  C   UNL     1      10.761   4.691  -5.006  1.00  0.00     0.053 C 
BRANCH   4   5
ATOM      5  C   UNL     1      11.707   4.887  -6.150  1.00  0.00     0.041 C 
ATOM      6  O   UNL     1      11.470   4.358  -7.267  1.00  0.00    -0.550 OA
ATOM      7  O   UNL     1      12.868   5.628  -5.971  1.00  0.00    -0.550 OA
ENDBRANCH   4   5
ENDBRANCH   3   4
ENDBRANCH   2   3
ENDBRANCH   1   2
BRANCH   1   8
ATOM      8  C   UNL     1       9.882   8.744  -5.146  1.00  0.00     0.000 C 
BRANCH   8   9
ATOM      9  C   UNL     1      10.024   8.207  -6.578  1.00  0.00    -0.000 C 
BRANCH   9  10
ATOM     10  C   UNL     1      11.347   8.670  -7.207  1.00  0.00    -0.000 C 
BRANCH  10  11
ATOM     11  C   UNL     1      11.163   9.856  -8.167  1.00  0.00    -0.000 C 
BRANCH  11  12
ATOM     12  C   UNL     1      12.494  10.528  -8.538  1.00  0.00    -0.003 C 
ATOM     13  C   UNL     1      12.512  10.931 -10.010  1.00  0.00     0.004 C 
ENDBRANCH  11  12
ENDBRANCH  10  11
ENDBRANCH   9  10
ENDBRANCH   8   9
ENDBRANCH   1   8
TORSDOF 9
ENDMDL
MODEL 9
REMARK VINA RESULT:    -3.964     16.276     17.376
REMARK INTER + INTRA:          -6.490
REMARK INTER:                  -5.803
REMARK INTRA:                  -0.687
REMARK UNBOUND:                -0.439
REMARK SMILES CCCCCCCCCCC(=O)[O-]
REMARK SMILES IDX 7 1 8 2 9 3 10 4 11 5 12 6 13 7 6 8 5 9 4 10 3 11 2 12 1 13
REMARK H PARENT
REMARK Flexibility Score: inf
ROOT
ATOM      1  C   UNL     1      24.089  -2.888  -9.673  1.00  0.00     0.000 C 
ENDROOT
BRANCH   1   2
ATOM      2  C   UNL     1      24.506  -4.003  -8.698  1.00  0.00     0.000 C 
BRANCH   2   3
ATOM      3  C   UNL     1      25.337  -3.478  -7.513  1.00  0.00     0.006 C 
BRANCH   3   4
ATOM      4  C   UNL     1      26.797  -3.959  -7.497  1.00  0.00     0.053 C 
BRANCH   4   5
ATOM      5  C   UNL     1      27.764  -2.823  -7.617  1.00  0.00     0.041 C 
ATOM      6  O   UNL     1      28.115  -2.406  -8.752  1.00  0.00    -0.550 OA
ATOM      7  O   UNL     1      28.303  -2.245  -6.475  1.00  0.00    -0.550 OA
ENDBRANCH   4   5
ENDBRANCH   3   4
ENDBRANCH   2   3
ENDBRANCH   1   2
BRANCH   1   8
ATOM      8  C   UNL     1      24.481  -1.489  -9.169  1.00  0.00     0.000 C 
BRANCH   8   9
ATOM      9  C   UNL     1      25.346  -0.714 -10.175  1.00  0.00    -0.000 C 
BRANCH   9  10
ATOM     10  C   UNL     1      25.065  -1.180 -11.611  1.00  0.00    -0.000 C 
BRANCH  10  11
ATOM     11  C   UNL     1      24.080  -0.261 -12.351  1.00  0.00    -0.000 C 
BRANCH  11  12
ATOM     12  C   UNL     1      24.604   0.183 -13.725  1.00  0.00    -0.003 C 
ATOM     13  C   UNL     1      24.981   1.662 -13.717  1.00  0.00     0.004 C 
ENDBRANCH  11  12
ENDBRANCH  10  11
ENDBRANCH   9  10
ENDBRANCH   8   9
ENDBRANCH   1   8
TORSDOF 9
ENDMDL
