MODEL 1
REMARK VINA RESULT:    -5.985      0.000      0.000
REMARK INTER + INTRA:         -13.431
REMARK INTER:                 -11.583
REMARK INTRA:                  -1.849
REMARK UNBOUND:                -1.849
REMARK SMILES CCCCCCCCCCCCCCCCCC(=O)[O-]
REMARK SMILES IDX 10 1 11 2 12 3 13 4 14 5 15 6 16 7 17 8 18 9 19 10 20 11
REMARK SMILES IDX 9 12 8 13 7 14 6 15 5 16 4 17 3 18 2 19 1 20
REMARK H PARENT
REMARK Flexibility Score: inf
ROOT
ATOM      1  C   UNL     1     -15.542  -8.070  -7.596  1.00  0.00     0.000 C 
ENDROOT
BRANCH   1   2
ATOM      2  C   UNL     1     -15.797  -9.077  -6.464  1.00  0.00     0.000 C 
BRANCH   2   3
ATOM      3  C   UNL     1     -14.712 -10.165  -6.375  1.00  0.00     0.000 C 
BRANCH   3   4
ATOM      4  C   UNL     1     -13.341  -9.770  -6.955  1.00  0.00     0.000 C 
BRANCH   4   5
ATOM      5  C   UNL     1     -12.168 -10.203  -6.061  1.00  0.00     0.000 C 
BRANCH   5   6
ATOM      6  C   UNL     1     -12.537 -11.356  -5.115  1.00  0.00     0.000 C 
BRANCH   6   7
ATOM      7  C   UNL     1     -11.375 -11.774  -4.200  1.00  0.00     0.006 C 
BRANCH   7   8
ATOM      8  C   UNL     1     -11.842 -11.904  -2.747  1.00  0.00     0.053 C 
BRANCH   8   9
ATOM      9  C   UNL     1     -10.767 -12.512  -1.902  1.00  0.00     0.041 C 
ATOM     10  O   UNL     1     -10.924 -12.620  -0.657  1.00  0.00    -0.550 OA
ATOM     11  O   UNL     1      -9.613 -13.007  -2.495  1.00  0.00    -0.550 OA
ENDBRANCH   8   9
ENDBRANCH   7   8
ENDBRANCH   6   7
ENDBRANCH   5   6
ENDBRANCH   4   5
ENDBRANCH   3   4
ENDBRANCH   2   3
ENDBRANCH   1   2
BRANCH   1  12
ATOM     12  C   UNL     1     -16.603  -8.197  -8.696  1.00  0.00     0.000 C 
BRANCH  12  13
ATOM     13  C   UNL     1     -17.749  -9.113  -8.252  1.00  0.00    -0.000 C 
BRANCH  13  14
ATOM     14  C   UNL     1     -18.694  -9.422  -9.418  1.00  0.00    -0.000 C 
BRANCH  14  15
ATOM     15  C   UNL     1     -17.905  -9.783 -10.686  1.00  0.00    -0.000 C 
BRANCH  15  16
ATOM     16  C   UNL     1     -17.959 -11.285 -11.008  1.00  0.00    -0.000 C 
BRANCH  16  17
ATOM     17  C   UNL     1     -16.564 -11.927 -11.071  1.00  0.00    -0.000 C 
BRANCH  17  18
ATOM     18  C   UNL     1     -15.526 -11.170 -10.226  1.00  0.00    -0.000 C 
BRANCH  18  19
ATOM     19  C   UNL     1     -14.504 -12.106  -9.567  1.00  0.00    -0.003 C 
ATOM     20  C   UNL     1     -15.170 -12.989  -8.516  1.00  0.00     0.004 C 
ENDBRANCH  18  19
ENDBRANCH  17  18
ENDBRANCH  16  17
ENDBRANCH  15  16
ENDBRANCH  14  15
ENDBRANCH  13  14
ENDBRANCH  12  13
ENDBRANCH   1  12
TORSDOF 16
ENDMDL
MODEL 2
REMARK VINA RESULT:    -5.950      1.459      3.336
REMARK INTER + INTRA:         -13.364
REMARK INTER:                 -11.719
REMARK INTRA:                  -1.646
REMARK UNBOUND:                -1.849
REMARK SMILES CCCCCCCCCCCCCCCCCC(=O)[O-]
REMARK SMILES IDX 10 1 11 2 12 3 13 4 14 5 15 6 16 7 17 8 18 9 19 10 20 11
REMARK SMILES IDX 9 12 8 13 7 14 6 15 5 16 4 17 3 18 2 19 1 20
REMARK H PARENT
REMARK Flexibility Score: inf
ROOT
ATOM      1  C   UNL     1     -13.614 -10.011  -7.256  1.00  0.00     0.000 C 
ENDROOT
BRANCH   1   2
ATOM      2  C   UNL     1     -12.471  -9.974  -6.230  1.00  0.00     0.000 C 
BRANCH   2   3
ATOM      3  C   UNL     1     -12.427 -11.227  -5.337  1.00  0.00     0.000 C 
BRANCH   3   4
ATOM      4  C   UNL     1     -12.097 -10.965  -3.857  1.00  0.00     0.000 C 
BRANCH   4   5
ATOM      5  C   UNL     1     -11.660 -12.235  -3.109  1.00  0.00     0.000 C 
BRANCH   5   6
ATOM      6  C   UNL     1     -11.637 -12.046  -1.584  1.00  0.00     0.000 C 
BRANCH   6   7
ATOM      7  C   UNL     1     -10.321 -12.515  -0.944  1.00  0.00     0.006 C 
BRANCH   7   8
ATOM      8  C   UNL     1      -9.481 -13.316  -1.944  1.00  0.00     0.053 C 
BRANCH   8   9
ATOM      9  C   UNL     1      -8.328 -13.973  -1.252  1.00  0.00     0.041 C 
ATOM     10  O   UNL     1      -8.211 -15.227  -1.268  1.00  0.00    -0.550 OA
ATOM     11  O   UNL     1      -7.354 -13.200  -0.636  1.00  0.00    -0.550 OA
ENDBRANCH   8   9
ENDBRANCH   7   8
ENDBRANCH   6   7
ENDBRANCH   5   6
ENDBRANCH   4   5
ENDBRANCH   3   4
ENDBRANCH   2   3
ENDBRANCH   1   2
BRANCH   1  12
ATOM     12  C   UNL     1     -14.320 -11.373  -7.245  1.00  0.00     0.000 C 
BRANCH  12  13
ATOM     13  C   UNL     1     -15.768 -11.238  -6.759  1.00  0.00    -0.000 C 
BRANCH  13  14
ATOM     14  C   UNL     1     -16.117  -9.776  -6.461  1.00  0.00    -0.000 C 
BRANCH  14  15
ATOM     15  C   UNL     1     -17.286  -9.299  -7.338  1.00  0.00    -0.000 C 
BRANCH  15  16
ATOM     16  C   UNL     1     -16.841  -8.316  -8.432  1.00  0.00    -0.000 C 
BRANCH  16  17
ATOM     17  C   UNL     1     -16.725  -8.980  -9.814  1.00  0.00    -0.000 C 
BRANCH  17  18
ATOM     18  C   UNL     1     -17.734 -10.125 -10.006  1.00  0.00    -0.000 C 
BRANCH  18  19
ATOM     19  C   UNL     1     -17.121 -11.340 -10.713  1.00  0.00    -0.003 C 
ATOM     20  C   UNL     1     -15.605 -11.369 -10.536  1.00  0.00     0.004 C 
ENDBRANCH  18  19
ENDBRANCH  17  18
ENDBRANCH  16  17
ENDBRANCH  15  16
ENDBRANCH  14  15
ENDBRANCH  13  14
ENDBRANCH  12  13
ENDBRANCH   1  12
TORSDOF 16
ENDMDL
MODEL 3
REMARK VINA RESULT:    -5.911      1.399      3.432
REMARK INTER + INTRA:         -13.289
REMARK INTER:                 -11.792
REMARK INTRA:                  -1.498
REMARK UNBOUND:                -1.849
REMARK SMILES CCCCCCCCCCCCCCCCCC(=O)[O-]
REMARK SMILES IDX 10 1 11 2 12 3 13 4 14 5 15 6 16 7 17 8 18 9 19 10 20 11
REMARK SMILES IDX 9 12 8 13 7 14 6 15 5 16 4 17 3 18 2 19 1 20
REMARK H PARENT
REMARK Flexibility Score: inf
ROOT
ATOM      1  C   UNL     1     -13.675 -10.242  -7.542  1.00  0.00     0.000 C 
ENDROOT
BRANCH   1   2
ATOM      2  C   UNL     1     -12.519 -10.100  -6.539  1.00  0.00     0.000 C 
BRANCH   2   3
ATOM      3  C   UNL     1     -12.869 -10.646  -5.143  1.00  0.00     0.000 C 
BRANCH   3   4
ATOM      4  C   UNL     1     -11.805 -11.565  -4.514  1.00  0.00     0.000 C 
BRANCH   4   5
ATOM      5  C   UNL     1     -12.022 -11.785  -3.008  1.00  0.00     0.000 C 
BRANCH   5   6
ATOM      6  C   UNL     1     -10.843 -12.510  -2.340  1.00  0.00     0.000 C 
BRANCH   6   7
ATOM      7  C   UNL     1     -10.716 -12.189  -0.843  1.00  0.00     0.006 C 
BRANCH   7   8
ATOM      8  C   UNL     1      -9.908 -13.269  -0.117  1.00  0.00     0.053 C 
BRANCH   8   9
ATOM      9  C   UNL     1      -8.565 -13.438  -0.755  1.00  0.00     0.041 C 
ATOM     10  O   UNL     1      -7.709 -12.517  -0.681  1.00  0.00    -0.550 OA
ATOM     11  O   UNL     1      -8.238 -14.631  -1.385  1.00  0.00    -0.550 OA
ENDBRANCH   8   9
ENDBRANCH   7   8
ENDBRANCH   6   7
ENDBRANCH   5   6
ENDBRANCH   4   5
ENDBRANCH   3   4
ENDBRANCH   2   3
ENDBRANCH   1   2
BRANCH   1  12
ATOM     12  C   UNL     1     -14.280 -11.650  -7.489  1.00  0.00     0.000 C 
BRANCH  12  13
ATOM     13  C   UNL     1     -14.671 -12.133  -8.890  1.00  0.00    -0.000 C 
BRANCH  13  14
ATOM     14  C   UNL     1     -15.152 -10.968  -9.763  1.00  0.00    -0.000 C 
BRANCH  14  15
ATOM     15  C   UNL     1     -16.549 -11.251 -10.337  1.00  0.00    -0.000 C 
BRANCH  15  16
ATOM     16  C   UNL     1     -17.434  -9.995 -10.384  1.00  0.00    -0.000 C 
BRANCH  16  17
ATOM     17  C   UNL     1     -17.938  -9.574  -8.994  1.00  0.00    -0.000 C 
BRANCH  17  18
ATOM     18  C   UNL     1     -17.200  -8.343  -8.445  1.00  0.00    -0.000 C 
BRANCH  18  19
ATOM     19  C   UNL     1     -16.714  -8.539  -7.003  1.00  0.00    -0.003 C 
ATOM     20  C   UNL     1     -17.226  -9.856  -6.428  1.00  0.00     0.004 C 
ENDBRANCH  18  19
ENDBRANCH  17  18
ENDBRANCH  16  17
ENDBRANCH  15  16
ENDBRANCH  14  15
ENDBRANCH  13  14
ENDBRANCH  12  13
ENDBRANCH   1  12
TORSDOF 16
ENDMDL
MODEL 4
REMARK VINA RESULT:    -5.748      1.444      2.958
REMARK INTER + INTRA:         -12.973
REMARK INTER:                 -11.956
REMARK INTRA:                  -1.017
REMARK UNBOUND:                -1.849
REMARK SMILES CCCCCCCCCCCCCCCCCC(=O)[O-]
REMARK SMILES IDX 10 1 11 2 12 3 13 4 14 5 15 6 16 7 17 8 18 9 19 10 20 11
REMARK SMILES IDX 9 12 8 13 7 14 6 15 5 16 4 17 3 18 2 19 1 20
REMARK H PARENT
REMARK Flexibility Score: inf
ROOT
ATOM      1  C   UNL     1     -15.523 -11.122  -6.848  1.00  0.00     0.000 C 
ENDROOT
BRANCH   1   2
ATOM      2  C   UNL     1     -14.111 -11.310  -7.422  1.00  0.00     0.000 C 
BRANCH   2   3
ATOM      3  C   UNL     1     -13.225 -10.062  -7.253  1.00  0.00     0.000 C 
BRANCH   3   4
ATOM      4  C   UNL     1     -12.219 -10.127  -6.090  1.00  0.00     0.000 C 
BRANCH   4   5
ATOM      5  C   UNL     1     -12.693 -11.030  -4.940  1.00  0.00     0.000 C 
BRANCH   5   6
ATOM      6  C   UNL     1     -11.536 -11.774  -4.255  1.00  0.00     0.000 C 
BRANCH   6   7
ATOM      7  C   UNL     1     -11.703 -11.863  -2.730  1.00  0.00     0.006 C 
BRANCH   7   8
ATOM      8  C   UNL     1     -10.644 -12.784  -2.116  1.00  0.00     0.053 C 
BRANCH   8   9
ATOM      9  C   UNL     1     -10.424 -12.443  -0.675  1.00  0.00     0.041 C 
ATOM     10  O   UNL     1      -9.904 -13.286   0.103  1.00  0.00    -0.550 OA
ATOM     11  O   UNL     1     -10.744 -11.178  -0.203  1.00  0.00    -0.550 OA
ENDBRANCH   8   9
ENDBRANCH   7   8
ENDBRANCH   6   7
ENDBRANCH   5   6
ENDBRANCH   4   5
ENDBRANCH   3   4
ENDBRANCH   2   3
ENDBRANCH   1   2
BRANCH   1  12
ATOM     12  C   UNL     1     -15.798  -9.646  -6.533  1.00  0.00     0.000 C 
BRANCH  12  13
ATOM     13  C   UNL     1     -17.230  -9.260  -6.918  1.00  0.00    -0.000 C 
BRANCH  13  14
ATOM     14  C   UNL     1     -17.240  -8.245  -8.067  1.00  0.00    -0.000 C 
BRANCH  14  15
ATOM     15  C   UNL     1     -16.587  -8.834  -9.327  1.00  0.00    -0.000 C 
BRANCH  15  16
ATOM     16  C   UNL     1     -17.374 -10.025  -9.898  1.00  0.00    -0.000 C 
BRANCH  16  17
ATOM     17  C   UNL     1     -18.860  -9.700 -10.121  1.00  0.00    -0.000 C 
BRANCH  17  18
ATOM     18  C   UNL     1     -19.322 -10.001 -11.556  1.00  0.00    -0.000 C 
BRANCH  18  19
ATOM     19  C   UNL     1     -19.405 -11.506 -11.847  1.00  0.00    -0.003 C 
ATOM     20  C   UNL     1     -20.195 -11.772 -13.126  1.00  0.00     0.004 C 
ENDBRANCH  18  19
ENDBRANCH  17  18
ENDBRANCH  16  17
ENDBRANCH  15  16
ENDBRANCH  14  15
ENDBRANCH  13  14
ENDBRANCH  12  13
ENDBRANCH   1  12
TORSDOF 16
ENDMDL
MODEL 5
REMARK VINA RESULT:    -5.733      2.175      4.365
REMARK INTER + INTRA:         -12.944
REMARK INTER:                 -11.746
REMARK INTRA:                  -1.198
REMARK UNBOUND:                -1.849
REMARK SMILES CCCCCCCCCCCCCCCCCC(=O)[O-]
REMARK SMILES IDX 10 1 11 2 12 3 13 4 14 5 15 6 16 7 17 8 18 9 19 10 20 11
REMARK SMILES IDX 9 12 8 13 7 14 6 15 5 16 4 17 3 18 2 19 1 20
REMARK H PARENT
REMARK Flexibility Score: inf
ROOT
ATOM      1  C   UNL     1     -12.499 -10.485  -5.437  1.00  0.00     0.000 C 
ENDROOT
BRANCH   1   2
ATOM      2  C   UNL     1     -12.065 -11.749  -4.681  1.00  0.00     0.000 C 
BRANCH   2   3
ATOM      3  C   UNL     1     -11.995 -11.541  -3.158  1.00  0.00     0.000 C 
BRANCH   3   4
ATOM      4  C   UNL     1     -11.038 -12.487  -2.411  1.00  0.00     0.000 C 
BRANCH   4   5
ATOM      5  C   UNL     1     -11.013 -12.237  -0.894  1.00  0.00     0.000 C 
BRANCH   5   6
ATOM      6  C   UNL     1      -9.815 -12.906  -0.203  1.00  0.00     0.000 C 
BRANCH   6   7
ATOM      7  C   UNL     1      -8.843 -13.563  -1.195  1.00  0.00     0.006 C 
BRANCH   7   8
ATOM      8  C   UNL     1      -7.392 -13.207  -0.858  1.00  0.00     0.053 C 
BRANCH   8   9
ATOM      9  C   UNL     1      -6.519 -14.419  -0.953  1.00  0.00     0.041 C 
ATOM     10  O   UNL     1      -5.285 -14.330  -0.715  1.00  0.00    -0.550 OA
ATOM     11  O   UNL     1      -7.074 -15.655  -1.253  1.00  0.00    -0.550 OA
ENDBRANCH   8   9
ENDBRANCH   7   8
ENDBRANCH   6   7
ENDBRANCH   5   6
ENDBRANCH   4   5
ENDBRANCH   3   4
ENDBRANCH   2   3
ENDBRANCH   1   2
BRANCH   1  12
ATOM     12  C   UNL     1     -13.538 -10.817  -6.515  1.00  0.00     0.000 C 
BRANCH  12  13
ATOM     13  C   UNL     1     -14.236  -9.547  -7.017  1.00  0.00    -0.000 C 
BRANCH  13  14
ATOM     14  C   UNL     1     -15.546  -9.301  -6.261  1.00  0.00    -0.000 C 
BRANCH  14  15
ATOM     15  C   UNL     1     -16.752  -9.383  -7.210  1.00  0.00    -0.000 C 
BRANCH  15  16
ATOM     16  C   UNL     1     -16.689  -8.340  -8.337  1.00  0.00    -0.000 C 
BRANCH  16  17
ATOM     17  C   UNL     1     -16.619  -8.980  -9.733  1.00  0.00    -0.000 C 
BRANCH  17  18
ATOM     18  C   UNL     1     -16.689 -10.515  -9.683  1.00  0.00    -0.000 C 
BRANCH  18  19
ATOM     19  C   UNL     1     -15.439 -11.184 -10.270  1.00  0.00    -0.003 C 
ATOM     20  C   UNL     1     -15.043 -12.412  -9.456  1.00  0.00     0.004 C 
ENDBRANCH  18  19
ENDBRANCH  17  18
ENDBRANCH  16  17
ENDBRANCH  15  16
ENDBRANCH  14  15
ENDBRANCH  13  14
ENDBRANCH  12  13
ENDBRANCH   1  12
TORSDOF 16
ENDMDL
MODEL 6
REMARK VINA RESULT:    -5.668      4.908      9.223
REMARK INTER + INTRA:         -12.817
REMARK INTER:                 -11.827
REMARK INTRA:                  -0.990
REMARK UNBOUND:                -1.849
REMARK SMILES CCCCCCCCCCCCCCCCCC(=O)[O-]
REMARK SMILES IDX 10 1 11 2 12 3 13 4 14 5 15 6 16 7 17 8 18 9 19 10 20 11
REMARK SMILES IDX 9 12 8 13 7 14 6 15 5 16 4 17 3 18 2 19 1 20
REMARK H PARENT
REMARK Flexibility Score: inf
ROOT
ATOM      1  C   UNL     1     -14.436  -8.871  -7.090  1.00  0.00     0.000 C 
ENDROOT
BRANCH   1   2
ATOM      2  C   UNL     1     -15.769  -9.175  -6.389  1.00  0.00     0.000 C 
BRANCH   2   3
ATOM      3  C   UNL     1     -16.989  -8.939  -7.297  1.00  0.00     0.000 C 
BRANCH   3   4
ATOM      4  C   UNL     1     -16.727  -8.056  -8.530  1.00  0.00     0.000 C 
BRANCH   4   5
ATOM      5  C   UNL     1     -16.749  -8.847  -9.847  1.00  0.00     0.000 C 
BRANCH   5   6
ATOM      6  C   UNL     1     -17.096 -10.330  -9.642  1.00  0.00     0.000 C 
BRANCH   6   7
ATOM      7  C   UNL     1     -17.983 -10.896 -10.762  1.00  0.00     0.006 C 
BRANCH   7   8
ATOM      8  C   UNL     1     -19.197  -9.995 -11.008  1.00  0.00     0.053 C 
BRANCH   8   9
ATOM      9  C   UNL     1     -19.959 -10.457 -12.210  1.00  0.00     0.041 C 
ATOM     10  O   UNL     1     -21.075  -9.944 -12.488  1.00  0.00    -0.550 OA
ATOM     11  O   UNL     1     -19.414 -11.415 -13.053  1.00  0.00    -0.550 OA
ENDBRANCH   8   9
ENDBRANCH   7   8
ENDBRANCH   6   7
ENDBRANCH   5   6
ENDBRANCH   4   5
ENDBRANCH   3   4
ENDBRANCH   2   3
ENDBRANCH   1   2
BRANCH   1  12
ATOM     12  C   UNL     1     -13.570 -10.132  -7.198  1.00  0.00     0.000 C 
BRANCH  12  13
ATOM     13  C   UNL     1     -12.429 -10.105  -6.175  1.00  0.00    -0.000 C 
BRANCH  13  14
ATOM     14  C   UNL     1     -12.451 -11.354  -5.287  1.00  0.00    -0.000 C 
BRANCH  14  15
ATOM     15  C   UNL     1     -12.098 -11.004  -3.834  1.00  0.00    -0.000 C 
BRANCH  15  16
ATOM     16  C   UNL     1     -11.516 -12.199  -3.062  1.00  0.00    -0.000 C 
BRANCH  16  17
ATOM     17  C   UNL     1     -11.728 -12.083  -1.544  1.00  0.00    -0.000 C 
BRANCH  17  18
ATOM     18  C   UNL     1     -10.513 -12.570  -0.738  1.00  0.00    -0.000 C 
BRANCH  18  19
ATOM     19  C   UNL     1      -9.372 -13.070  -1.633  1.00  0.00    -0.003 C 
ATOM     20  C   UNL     1      -8.030 -12.972  -0.913  1.00  0.00     0.004 C 
ENDBRANCH  18  19
ENDBRANCH  17  18
ENDBRANCH  16  17
ENDBRANCH  15  16
ENDBRANCH  14  15
ENDBRANCH  13  14
ENDBRANCH  12  13
ENDBRANCH   1  12
TORSDOF 16
ENDMDL
MODEL 7
REMARK VINA RESULT:    -5.654      3.075      7.916
REMARK INTER + INTRA:         -12.791
REMARK INTER:                 -11.413
REMARK INTRA:                  -1.378
REMARK UNBOUND:                -1.849
REMARK SMILES CCCCCCCCCCCCCCCCCC(=O)[O-]
REMARK SMILES IDX 10 1 11 2 12 3 13 4 14 5 15 6 16 7 17 8 18 9 19 10 20 11
REMARK SMILES IDX 9 12 8 13 7 14 6 15 5 16 4 17 3 18 2 19 1 20
REMARK H PARENT
REMARK Flexibility Score: inf
ROOT
ATOM      1  C   UNL     1     -14.578 -11.769  -7.336  1.00  0.00     0.000 C 
ENDROOT
BRANCH   1   2
ATOM      2  C   UNL     1     -14.821 -12.600  -8.605  1.00  0.00     0.000 C 
BRANCH   2   3
ATOM      3  C   UNL     1     -14.875 -11.742  -9.881  1.00  0.00     0.000 C 
BRANCH   3   4
ATOM      4  C   UNL     1     -16.225 -11.752 -10.620  1.00  0.00     0.000 C 
BRANCH   4   5
ATOM      5  C   UNL     1     -16.864 -10.357 -10.716  1.00  0.00     0.000 C 
BRANCH   5   6
ATOM      6  C   UNL     1     -18.159 -10.241  -9.896  1.00  0.00     0.000 C 
BRANCH   6   7
ATOM      7  C   UNL     1     -18.268  -8.908  -9.139  1.00  0.00     0.006 C 
BRANCH   7   8
ATOM      8  C   UNL     1     -16.895  -8.445  -8.642  1.00  0.00     0.053 C 
BRANCH   8   9
ATOM      9  C   UNL     1     -16.738  -8.741  -7.183  1.00  0.00     0.041 C 
ATOM     10  O   UNL     1     -15.861  -8.141  -6.507  1.00  0.00    -0.550 OA
ATOM     11  O   UNL     1     -17.594  -9.638  -6.559  1.00  0.00    -0.550 OA
ENDBRANCH   8   9
ENDBRANCH   7   8
ENDBRANCH   6   7
ENDBRANCH   5   6
ENDBRANCH   4   5
ENDBRANCH   3   4
ENDBRANCH   2   3
ENDBRANCH   1   2
BRANCH   1  12
ATOM     12  C   UNL     1     -13.692 -10.553  -7.636  1.00  0.00     0.000 C 
BRANCH  12  13
ATOM     13  C   UNL     1     -12.765 -10.243  -6.454  1.00  0.00    -0.000 C 
BRANCH  13  14
ATOM     14  C   UNL     1     -12.876 -11.318  -5.367  1.00  0.00    -0.000 C 
BRANCH  14  15
ATOM     15  C   UNL     1     -11.751 -11.172  -4.332  1.00  0.00    -0.000 C 
BRANCH  15  16
ATOM     16  C   UNL     1     -11.771 -12.288  -3.275  1.00  0.00    -0.000 C 
BRANCH  16  17
ATOM     17  C   UNL     1     -11.746 -11.743  -1.838  1.00  0.00    -0.000 C 
BRANCH  17  18
ATOM     18  C   UNL     1     -10.564 -12.288  -1.020  1.00  0.00    -0.000 C 
BRANCH  18  19
ATOM     19  C   UNL     1      -9.568 -13.082  -1.875  1.00  0.00    -0.003 C 
ATOM     20  C   UNL     1      -8.708 -13.996  -1.007  1.00  0.00     0.004 C 
ENDBRANCH  18  19
ENDBRANCH  17  18
ENDBRANCH  16  17
ENDBRANCH  15  16
ENDBRANCH  14  15
ENDBRANCH  13  14
ENDBRANCH  12  13
ENDBRANCH   1  12
TORSDOF 16
ENDMDL
MODEL 8
REMARK VINA RESULT:    -5.551      2.962      7.506
REMARK INTER + INTRA:         -12.592
REMARK INTER:                 -10.939
REMARK INTRA:                  -1.653
REMARK UNBOUND:                -1.849
REMARK SMILES CCCCCCCCCCCCCCCCCC(=O)[O-]
REMARK SMILES IDX 10 1 11 2 12 3 13 4 14 5 15 6 16 7 17 8 18 9 19 10 20 11
REMARK SMILES IDX 9 12 8 13 7 14 6 15 5 16 4 17 3 18 2 19 1 20
REMARK H PARENT
REMARK Flexibility Score: inf
ROOT
ATOM      1  C   UNL     1     -15.154 -12.708  -8.889  1.00  0.00     0.000 C 
ENDROOT
BRANCH   1   2
ATOM      2  C   UNL     1     -14.788 -11.939 -10.168  1.00  0.00     0.000 C 
BRANCH   2   3
ATOM      3  C   UNL     1     -15.919 -11.944 -11.213  1.00  0.00     0.000 C 
BRANCH   3   4
ATOM      4  C   UNL     1     -17.345 -11.907 -10.634  1.00  0.00     0.000 C 
BRANCH   4   5
ATOM      5  C   UNL     1     -18.215 -10.806 -11.262  1.00  0.00     0.000 C 
BRANCH   5   6
ATOM      6  C   UNL     1     -18.446  -9.620 -10.312  1.00  0.00     0.000 C 
BRANCH   6   7
ATOM      7  C   UNL     1     -17.841  -9.845  -8.917  1.00  0.00     0.006 C 
BRANCH   7   8
ATOM      8  C   UNL     1     -17.051  -8.616  -8.458  1.00  0.00     0.053 C 
BRANCH   8   9
ATOM      9  C   UNL     1     -16.692  -8.733  -7.010  1.00  0.00     0.041 C 
ATOM     10  O   UNL     1     -15.830  -7.964  -6.507  1.00  0.00    -0.550 OA
ATOM     11  O   UNL     1     -17.346  -9.655  -6.204  1.00  0.00    -0.550 OA
ENDBRANCH   8   9
ENDBRANCH   7   8
ENDBRANCH   6   7
ENDBRANCH   5   6
ENDBRANCH   4   5
ENDBRANCH   3   4
ENDBRANCH   2   3
ENDBRANCH   1   2
BRANCH   1  12
ATOM     12  C   UNL     1     -14.796 -11.898  -7.637  1.00  0.00     0.000 C 
BRANCH  12  13
ATOM     13  C   UNL     1     -13.999 -10.641  -8.006  1.00  0.00    -0.000 C 
BRANCH  13  14
ATOM     14  C   UNL     1     -13.139 -10.166  -6.829  1.00  0.00    -0.000 C 
BRANCH  14  15
ATOM     15  C   UNL     1     -13.062 -11.242  -5.734  1.00  0.00    -0.000 C 
BRANCH  15  16
ATOM     16  C   UNL     1     -12.005 -10.923  -4.666  1.00  0.00    -0.000 C 
BRANCH  16  17
ATOM     17  C   UNL     1     -11.838 -12.057  -3.641  1.00  0.00    -0.000 C 
BRANCH  17  18
ATOM     18  C   UNL     1     -11.834 -11.547  -2.191  1.00  0.00    -0.000 C 
BRANCH  18  19
ATOM     19  C   UNL     1     -11.161 -12.528  -1.221  1.00  0.00    -0.003 C 
ATOM     20  C   UNL     1      -9.766 -12.910  -1.710  1.00  0.00     0.004 C 
ENDBRANCH  18  19
ENDBRANCH  17  18
ENDBRANCH  16  17
ENDBRANCH  15  16
ENDBRANCH  14  15
ENDBRANCH  13  14
ENDBRANCH  12  13
ENDBRANCH   1  12
TORSDOF 16
ENDMDL
MODEL 9
REMARK VINA RESULT:    -5.518      4.452      9.414
REMARK INTER + INTRA:         -12.528
REMARK INTER:                 -11.557
REMARK INTRA:                  -0.971
REMARK UNBOUND:                -1.849
REMARK SMILES CCCCCCCCCCCCCCCCCC(=O)[O-]
REMARK SMILES IDX 10 1 11 2 12 3 13 4 14 5 15 6 16 7 17 8 18 9 19 10 20 11
REMARK SMILES IDX 9 12 8 13 7 14 6 15 5 16 4 17 3 18 2 19 1 20
REMARK H PARENT
REMARK Flexibility Score: inf
ROOT
ATOM      1  C   UNL     1     -12.436  -9.875  -6.480  1.00  0.00     0.000 C 
ENDROOT
BRANCH   1   2
ATOM      2  C   UNL     1     -13.605  -9.514  -7.410  1.00  0.00     0.000 C 
BRANCH   2   3
ATOM      3  C   UNL     1     -14.510 -10.717  -7.729  1.00  0.00     0.000 C 
BRANCH   3   4
ATOM      4  C   UNL     1     -16.021 -10.446  -7.621  1.00  0.00     0.000 C 
BRANCH   4   5
ATOM      5  C   UNL     1     -16.341  -8.994  -7.230  1.00  0.00     0.000 C 
BRANCH   5   6
ATOM      6  C   UNL     1     -17.175  -8.264  -8.294  1.00  0.00     0.000 C 
BRANCH   6   7
ATOM      7  C   UNL     1     -17.315  -9.065  -9.597  1.00  0.00     0.006 C 
BRANCH   7   8
ATOM      8  C   UNL     1     -18.776  -9.448  -9.852  1.00  0.00     0.053 C 
BRANCH   8   9
ATOM      9  C   UNL     1     -18.881 -10.365 -11.030  1.00  0.00     0.041 C 
ATOM     10  O   UNL     1     -19.725 -10.138 -11.936  1.00  0.00    -0.550 OA
ATOM     11  O   UNL     1     -18.013 -11.441 -11.153  1.00  0.00    -0.550 OA
ENDBRANCH   8   9
ENDBRANCH   7   8
ENDBRANCH   6   7
ENDBRANCH   5   6
ENDBRANCH   4   5
ENDBRANCH   3   4
ENDBRANCH   2   3
ENDBRANCH   1   2
BRANCH   1  12
ATOM     12  C   UNL     1     -12.875 -10.883  -5.411  1.00  0.00     0.000 C 
BRANCH  12  13
ATOM     13  C   UNL     1     -11.672 -11.393  -4.609  1.00  0.00    -0.000 C 
BRANCH  13  14
ATOM     14  C   UNL     1     -12.109 -11.952  -3.251  1.00  0.00    -0.000 C 
BRANCH  14  15
ATOM     15  C   UNL     1     -10.905 -12.497  -2.467  1.00  0.00    -0.000 C 
BRANCH  15  16
ATOM     16  C   UNL     1     -11.002 -12.210  -0.960  1.00  0.00    -0.000 C 
BRANCH  16  17
ATOM     17  C   UNL     1      -9.935 -12.958  -0.145  1.00  0.00    -0.000 C 
BRANCH  17  18
ATOM     18  C   UNL     1      -8.543 -12.315  -0.263  1.00  0.00    -0.000 C 
BRANCH  18  19
ATOM     19  C   UNL     1      -7.526 -13.230  -0.957  1.00  0.00    -0.003 C 
ATOM     20  C   UNL     1      -8.136 -14.596  -1.259  1.00  0.00     0.004 C 
ENDBRANCH  18  19
ENDBRANCH  17  18
ENDBRANCH  16  17
ENDBRANCH  15  16
ENDBRANCH  14  15
ENDBRANCH  13  14
ENDBRANCH  12  13
ENDBRANCH   1  12
TORSDOF 16
ENDMDL
