MODEL 1
REMARK VINA RESULT:    -3.699      0.000      0.000
REMARK INTER + INTRA:          -4.752
REMARK INTER:                  -4.672
REMARK INTRA:                  -0.080
REMARK UNBOUND:                -0.080
REMARK SMILES CCCCCCO
REMARK SMILES IDX 4 1 3 2 2 3 1 4 5 5 6 6 7 7
REMARK H PARENT 7 8
REMARK Flexibility Score: inf
ROOT
ATOM      1  C   UNL     1       5.683  23.558  20.064  1.00  0.00     0.002 C 
ENDROOT
BRANCH   1   2
ATOM      2  C   UNL     1       5.998  22.434  21.064  1.00  0.00    -0.000 C 
BRANCH   2   3
ATOM      3  C   UNL     1       4.876  21.390  21.153  1.00  0.00    -0.003 C 
ATOM      4  C   UNL     1       4.586  21.016  22.603  1.00  0.00     0.004 C 
ENDBRANCH   2   3
ENDBRANCH   1   2
BRANCH   1   5
ATOM      5  C   UNL     1       6.757  24.657  20.053  1.00  0.00     0.028 C 
BRANCH   5   6
ATOM      6  C   UNL     1       7.816  24.403  21.129  1.00  0.00     0.156 C 
BRANCH   6   7
ATOM      7  O   UNL     1       9.072  24.216  20.537  1.00  0.00    -0.396 OA
ATOM      8  H   UNL     1       9.728  24.147  21.279  1.00  0.00     0.210 HD
ENDBRANCH   6   7
ENDBRANCH   5   6
ENDBRANCH   1   5
TORSDOF 5
ENDMDL
MODEL 2
REMARK VINA RESULT:    -3.533      4.746      6.319
REMARK INTER + INTRA:          -4.542
REMARK INTER:                  -4.428
REMARK INTRA:                  -0.113
REMARK UNBOUND:                -0.080
REMARK SMILES CCCCCCO
REMARK SMILES IDX 4 1 3 2 2 3 1 4 5 5 6 6 7 7
REMARK H PARENT 7 8
REMARK Flexibility Score: inf
ROOT
ATOM      1  C   UNL     1       3.420  19.342  20.580  1.00  0.00     0.002 C 
ENDROOT
BRANCH   1   2
ATOM      2  C   UNL     1       3.136  20.121  21.874  1.00  0.00    -0.000 C 
BRANCH   2   3
ATOM      3  C   UNL     1       3.855  21.477  21.917  1.00  0.00    -0.003 C 
ATOM      4  C   UNL     1       5.209  21.404  21.219  1.00  0.00     0.004 C 
ENDBRANCH   2   3
ENDBRANCH   1   2
BRANCH   1   5
ATOM      5  C   UNL     1       2.140  18.818  19.911  1.00  0.00     0.028 C 
BRANCH   5   6
ATOM      6  C   UNL     1       0.906  19.568  20.423  1.00  0.00     0.156 C 
BRANCH   6   7
ATOM      7  O   UNL     1      -0.199  19.295  19.606  1.00  0.00    -0.396 OA
ATOM      8  H   UNL     1      -0.983  19.209  20.209  1.00  0.00     0.210 HD
ENDBRANCH   6   7
ENDBRANCH   5   6
ENDBRANCH   1   5
TORSDOF 5
ENDMDL
MODEL 3
REMARK VINA RESULT:    -3.471      4.455      6.085
REMARK INTER + INTRA:          -4.464
REMARK INTER:                  -4.419
REMARK INTRA:                  -0.045
REMARK UNBOUND:                -0.080
REMARK SMILES CCCCCCO
REMARK SMILES IDX 4 1 3 2 2 3 1 4 5 5 6 6 7 7
REMARK H PARENT 7 8
REMARK Flexibility Score: inf
ROOT
ATOM      1  C   UNL     1       2.772  19.494  21.084  1.00  0.00     0.002 C 
ENDROOT
BRANCH   1   2
ATOM      2  C   UNL     1       4.178  20.077  20.871  1.00  0.00    -0.000 C 
BRANCH   2   3
ATOM      3  C   UNL     1       4.396  21.390  21.637  1.00  0.00    -0.003 C 
ATOM      4  C   UNL     1       5.697  22.064  21.214  1.00  0.00     0.004 C 
ENDBRANCH   2   3
ENDBRANCH   1   2
BRANCH   1   5
ATOM      5  C   UNL     1       2.238  18.770  19.838  1.00  0.00     0.028 C 
BRANCH   5   6
ATOM      6  C   UNL     1       3.040  17.496  19.556  1.00  0.00     0.156 C 
BRANCH   6   7
ATOM      7  O   UNL     1       3.015  17.202  18.187  1.00  0.00    -0.396 OA
ATOM      8  H   UNL     1       3.624  17.851  17.746  1.00  0.00     0.210 HD
ENDBRANCH   6   7
ENDBRANCH   5   6
ENDBRANCH   1   5
TORSDOF 5
ENDMDL
MODEL 4
REMARK VINA RESULT:    -3.352      2.201      4.086
REMARK INTER + INTRA:          -4.313
REMARK INTER:                  -4.244
REMARK INTRA:                  -0.069
REMARK UNBOUND:                -0.080
REMARK SMILES CCCCCCO
REMARK SMILES IDX 4 1 3 2 2 3 1 4 5 5 6 6 7 7
REMARK H PARENT 7 8
REMARK Flexibility Score: inf
ROOT
ATOM      1  C   UNL     1       5.534  23.716  20.019  1.00  0.00     0.002 C 
ENDROOT
BRANCH   1   2
ATOM      2  C   UNL     1       6.684  24.669  19.654  1.00  0.00    -0.000 C 
BRANCH   2   3
ATOM      3  C   UNL     1       7.309  25.339  20.886  1.00  0.00    -0.003 C 
ATOM      4  C   UNL     1       8.768  24.929  21.054  1.00  0.00     0.004 C 
ENDBRANCH   2   3
ENDBRANCH   1   2
BRANCH   1   5
ATOM      5  C   UNL     1       5.986  22.570  20.937  1.00  0.00     0.028 C 
BRANCH   5   6
ATOM      6  C   UNL     1       4.819  21.632  21.259  1.00  0.00     0.156 C 
BRANCH   6   7
ATOM      7  O   UNL     1       5.240  20.617  22.129  1.00  0.00    -0.396 OA
ATOM      8  H   UNL     1       4.439  20.064  22.329  1.00  0.00     0.210 HD
ENDBRANCH   6   7
ENDBRANCH   5   6
ENDBRANCH   1   5
TORSDOF 5
ENDMDL
MODEL 5
REMARK VINA RESULT:    -3.329      6.469      7.300
REMARK INTER + INTRA:          -4.285
REMARK INTER:                  -4.134
REMARK INTRA:                  -0.150
REMARK UNBOUND:                -0.080
REMARK SMILES CCCCCCO
REMARK SMILES IDX 4 1 3 2 2 3 1 4 5 5 6 6 7 7
REMARK H PARENT 7 8
REMARK Flexibility Score: inf
ROOT
ATOM      1  C   UNL     1       2.882  19.012  20.112  1.00  0.00     0.002 C 
ENDROOT
BRANCH   1   2
ATOM      2  C   UNL     1       3.064  17.615  19.497  1.00  0.00    -0.000 C 
BRANCH   2   3
ATOM      3  C   UNL     1       2.718  16.487  20.480  1.00  0.00    -0.003 C 
ATOM      4  C   UNL     1       3.967  15.718  20.896  1.00  0.00     0.004 C 
ENDBRANCH   2   3
ENDBRANCH   1   2
BRANCH   1   5
ATOM      5  C   UNL     1       1.633  19.108  21.003  1.00  0.00     0.028 C 
BRANCH   5   6
ATOM      6  C   UNL     1       0.506  19.860  20.289  1.00  0.00     0.156 C 
BRANCH   6   7
ATOM      7  O   UNL     1      -0.335  18.956  19.627  1.00  0.00    -0.396 OA
ATOM      8  H   UNL     1       0.250  18.246  19.251  1.00  0.00     0.210 HD
ENDBRANCH   6   7
ENDBRANCH   5   6
ENDBRANCH   1   5
TORSDOF 5
ENDMDL
MODEL 6
REMARK VINA RESULT:    -3.313      2.839      4.460
REMARK INTER + INTRA:          -4.264
REMARK INTER:                  -4.180
REMARK INTRA:                  -0.085
REMARK UNBOUND:                -0.080
REMARK SMILES CCCCCCO
REMARK SMILES IDX 4 1 3 2 2 3 1 4 5 5 6 6 7 7
REMARK H PARENT 7 8
REMARK Flexibility Score: inf
ROOT
ATOM      1  C   UNL     1       5.801  22.128  21.129  1.00  0.00     0.002 C 
ENDROOT
BRANCH   1   2
ATOM      2  C   UNL     1       5.432  23.304  20.211  1.00  0.00    -0.000 C 
BRANCH   2   3
ATOM      3  C   UNL     1       6.538  24.366  20.138  1.00  0.00    -0.003 C 
ATOM      4  C   UNL     1       7.596  24.133  21.213  1.00  0.00     0.004 C 
ENDBRANCH   2   3
ENDBRANCH   1   2
BRANCH   1   5
ATOM      5  C   UNL     1       4.693  21.065  21.203  1.00  0.00     0.028 C 
BRANCH   5   6
ATOM      6  C   UNL     1       3.770  21.317  22.398  1.00  0.00     0.156 C 
BRANCH   6   7
ATOM      7  O   UNL     1       2.430  21.268  21.992  1.00  0.00    -0.396 OA
ATOM      8  H   UNL     1       2.164  20.312  22.005  1.00  0.00     0.210 HD
ENDBRANCH   6   7
ENDBRANCH   5   6
ENDBRANCH   1   5
TORSDOF 5
ENDMDL
MODEL 7
REMARK VINA RESULT:    -3.312      4.585      5.251
REMARK INTER + INTRA:          -4.262
REMARK INTER:                  -4.138
REMARK INTRA:                  -0.124
REMARK UNBOUND:                -0.080
REMARK SMILES CCCCCCO
REMARK SMILES IDX 4 1 3 2 2 3 1 4 5 5 6 6 7 7
REMARK H PARENT 7 8
REMARK Flexibility Score: inf
ROOT
ATOM      1  C   UNL     1       3.073  20.070  22.192  1.00  0.00     0.002 C 
ENDROOT
BRANCH   1   2
ATOM      2  C   UNL     1       3.442  19.721  20.741  1.00  0.00    -0.000 C 
BRANCH   2   3
ATOM      3  C   UNL     1       2.344  18.919  20.028  1.00  0.00    -0.003 C 
ATOM      4  C   UNL     1       0.957  19.425  20.412  1.00  0.00     0.004 C 
ENDBRANCH   2   3
ENDBRANCH   1   2
BRANCH   1   5
ATOM      5  C   UNL     1       3.357  21.540  22.537  1.00  0.00     0.028 C 
BRANCH   5   6
ATOM      6  C   UNL     1       2.240  22.452  22.022  1.00  0.00     0.156 C 
BRANCH   6   7
ATOM      7  O   UNL     1       1.904  23.402  22.994  1.00  0.00    -0.396 OA
ATOM      8  H   UNL     1       1.100  23.057  23.463  1.00  0.00     0.210 HD
ENDBRANCH   6   7
ENDBRANCH   5   6
ENDBRANCH   1   5
TORSDOF 5
ENDMDL
MODEL 8
REMARK VINA RESULT:    -3.195      2.234      3.970
REMARK INTER + INTRA:          -4.115
REMARK INTER:                  -4.030
REMARK INTRA:                  -0.085
REMARK UNBOUND:                -0.080
REMARK SMILES CCCCCCO
REMARK SMILES IDX 4 1 3 2 2 3 1 4 5 5 6 6 7 7
REMARK H PARENT 7 8
REMARK Flexibility Score: inf
ROOT
ATOM      1  C   UNL     1       6.799  24.383  20.038  1.00  0.00     0.002 C 
ENDROOT
BRANCH   1   2
ATOM      2  C   UNL     1       7.644  24.029  21.273  1.00  0.00    -0.000 C 
BRANCH   2   3
ATOM      3  C   UNL     1       8.594  25.163  21.683  1.00  0.00    -0.003 C 
ATOM      4  C   UNL     1       8.341  25.597  23.124  1.00  0.00     0.004 C 
ENDBRANCH   2   3
ENDBRANCH   1   2
BRANCH   1   5
ATOM      5  C   UNL     1       5.463  23.625  19.999  1.00  0.00     0.028 C 
BRANCH   5   6
ATOM      6  C   UNL     1       5.525  22.356  20.853  1.00  0.00     0.156 C 
BRANCH   6   7
ATOM      7  O   UNL     1       4.376  22.250  21.648  1.00  0.00    -0.396 OA
ATOM      8  H   UNL     1       4.516  22.846  22.430  1.00  0.00     0.210 HD
ENDBRANCH   6   7
ENDBRANCH   5   6
ENDBRANCH   1   5
TORSDOF 5
ENDMDL
MODEL 9
REMARK VINA RESULT:    -3.192      6.494      7.739
REMARK INTER + INTRA:          -4.111
REMARK INTER:                  -3.916
REMARK INTRA:                  -0.195
REMARK UNBOUND:                -0.080
REMARK SMILES CCCCCCO
REMARK SMILES IDX 4 1 3 2 2 3 1 4 5 5 6 6 7 7
REMARK H PARENT 7 8
REMARK Flexibility Score: inf
ROOT
ATOM      1  C   UNL     1       2.856  17.895  19.630  1.00  0.00     0.002 C 
ENDROOT
BRANCH   1   2
ATOM      2  C   UNL     1       3.096  19.169  20.456  1.00  0.00    -0.000 C 
BRANCH   2   3
ATOM      3  C   UNL     1       1.813  19.695  21.116  1.00  0.00    -0.003 C 
ATOM      4  C   UNL     1       0.608  19.515  20.197  1.00  0.00     0.004 C 
ENDBRANCH   2   3
ENDBRANCH   1   2
BRANCH   1   5
ATOM      5  C   UNL     1       3.135  16.612  20.427  1.00  0.00     0.028 C 
BRANCH   5   6
ATOM      6  C   UNL     1       1.832  15.888  20.777  1.00  0.00     0.156 C 
BRANCH   6   7
ATOM      7  O   UNL     1       1.029  15.759  19.637  1.00  0.00    -0.396 OA
ATOM      8  H   UNL     1       1.636  15.526  18.886  1.00  0.00     0.210 HD
ENDBRANCH   6   7
ENDBRANCH   5   6
ENDBRANCH   1   5
TORSDOF 5
ENDMDL
