MODEL 1
REMARK VINA RESULT:    -2.169      0.000      0.000
REMARK INTER + INTRA:          -3.038
REMARK INTER:                  -2.676
REMARK INTRA:                  -0.362
REMARK UNBOUND:                -0.362
REMARK SMILES Oc1cc(O)c2cc(O)c(-c3cc(O)c(O)c(O)c3)[o+]c2c1.[Cl-]
REMARK SMILES IDX 10 1 20 2 21 3 22 4 2 5 3 6 4 7 6 8 7 9 8 10 11 11 12 12
REMARK SMILES IDX 13 13 19 14 15 15 17 16 14 17 16 19 18 21 9 23 1 25 5 27
REMARK H PARENT 14 18 16 20 18 22 9 24 1 26 5 28
REMARK Flexibility Score: inf
ROOT
ATOM      1  C   UNL     1      29.199  -8.983  15.307  1.00  0.00     0.402 A 
ATOM      2  O   UNL     1      29.462  -9.816  14.302  1.00  0.00    -0.202 OA
ATOM      3  C   UNL     1      29.674  -9.409  13.055  1.00  0.00     0.368 A 
ATOM      4  C   UNL     1      29.945 -10.359  12.067  1.00  0.00     0.162 A 
ATOM      5  C   UNL     1      30.175  -9.961  10.750  1.00  0.00     0.128 A 
ATOM      6  C   UNL     1      30.133  -8.602  10.415  1.00  0.00     0.093 A 
ATOM      7  C   UNL     1      29.863  -7.632  11.387  1.00  0.00     0.136 A 
ATOM      8  C   UNL     1      29.626  -8.032  12.727  1.00  0.00     0.125 A 
ATOM      9  C   UNL     1      29.336  -7.130  13.764  1.00  0.00     0.078 A 
ATOM     10  C   UNL     1      29.109  -7.601  15.060  1.00  0.00     0.223 A 
ENDROOT
BRANCH   1  11
ATOM     11  C   UNL     1      28.991  -9.558  16.656  1.00  0.00     0.091 A 
ATOM     12  C   UNL     1      30.040  -9.534  17.587  1.00  0.00     0.068 A 
ATOM     13  C   UNL     1      29.867 -10.052  18.874  1.00  0.00     0.162 A 
ATOM     14  C   UNL     1      27.745 -10.077  17.045  1.00  0.00     0.068 A 
ATOM     15  C   UNL     1      28.625 -10.590  19.252  1.00  0.00     0.200 A 
ATOM     16  C   UNL     1      27.561 -10.597  18.335  1.00  0.00     0.162 A 
BRANCH  13  17
ATOM     17  O   UNL     1      30.940 -10.022  19.764  1.00  0.00    -0.504 OA
ATOM     18  H   UNL     1      30.844  -9.679  20.712  1.00  0.00     0.293 HD
ENDBRANCH  13  17
BRANCH  15  19
ATOM     19  O   UNL     1      28.460 -11.108  20.537  1.00  0.00    -0.502 OA
ATOM     20  H   UNL     1      29.068 -11.825  20.912  1.00  0.00     0.293 HD
ENDBRANCH  15  19
BRANCH  16  21
ATOM     21  O   UNL     1      26.321 -11.116  18.708  1.00  0.00    -0.504 OA
ATOM     22  H   UNL     1      25.729 -11.606  18.047  1.00  0.00     0.293 HD
ENDBRANCH  16  21
ENDBRANCH   1  11
BRANCH  10  23
ATOM     23  O   UNL     1      28.771  -6.710  16.079  1.00  0.00    -0.500 OA
ATOM     24  H   UNL     1      28.566  -5.736  15.889  1.00  0.00     0.294 HD
ENDBRANCH  10  23
BRANCH   5  25
ATOM     25  O   UNL     1      30.444 -10.923   9.780  1.00  0.00    -0.507 OA
ATOM     26  H   UNL     1      29.746 -11.197   9.098  1.00  0.00     0.293 HD
ENDBRANCH   5  25
BRANCH   7  27
ATOM     27  O   UNL     1      29.843  -6.295  10.973  1.00  0.00    -0.507 OA
ATOM     28  H   UNL     1      29.005  -5.784  10.738  1.00  0.00     0.293 HD
ENDBRANCH   7  27
TORSDOF 7
ENDMDL
MODEL 2
REMARK VINA RESULT:    -2.127      1.623      7.322
REMARK INTER + INTRA:          -2.987
REMARK INTER:                  -2.717
REMARK INTRA:                  -0.269
REMARK UNBOUND:                -0.362
REMARK SMILES Oc1cc(O)c2cc(O)c(-c3cc(O)c(O)c(O)c3)[o+]c2c1.[Cl-]
REMARK SMILES IDX 10 1 20 2 21 3 22 4 2 5 3 6 4 7 6 8 7 9 8 10 11 11 12 12
REMARK SMILES IDX 13 13 19 14 15 15 17 16 14 17 16 19 18 21 9 23 1 25 5 27
REMARK H PARENT 14 18 16 20 18 22 9 24 1 26 5 28
REMARK Flexibility Score: inf
ROOT
ATOM      1  C   UNL     1      28.691  -9.981  15.522  1.00  0.00     0.402 A 
ATOM      2  O   UNL     1      27.514 -10.131  16.125  1.00  0.00    -0.202 OA
ATOM      3  C   UNL     1      27.388 -10.434  17.414  1.00  0.00     0.368 A 
ATOM      4  C   UNL     1      26.108 -10.568  17.958  1.00  0.00     0.162 A 
ATOM      5  C   UNL     1      25.945 -10.882  19.308  1.00  0.00     0.128 A 
ATOM      6  C   UNL     1      27.070 -11.063  20.122  1.00  0.00     0.093 A 
ATOM      7  C   UNL     1      28.362 -10.933  19.599  1.00  0.00     0.136 A 
ATOM      8  C   UNL     1      28.532 -10.617  18.226  1.00  0.00     0.125 A 
ATOM      9  C   UNL     1      29.789 -10.479  17.615  1.00  0.00     0.078 A 
ATOM     10  C   UNL     1      29.877 -10.171  16.255  1.00  0.00     0.223 A 
ENDROOT
BRANCH   1  11
ATOM     11  C   UNL     1      28.700  -9.634  14.083  1.00  0.00     0.091 A 
ATOM     12  C   UNL     1      28.331  -8.341  13.681  1.00  0.00     0.068 A 
ATOM     13  C   UNL     1      28.349  -7.979  12.331  1.00  0.00     0.162 A 
ATOM     14  C   UNL     1      29.126 -10.555  13.111  1.00  0.00     0.068 A 
ATOM     15  C   UNL     1      28.755  -8.910  11.361  1.00  0.00     0.200 A 
ATOM     16  C   UNL     1      29.149 -10.200  11.754  1.00  0.00     0.162 A 
BRANCH  13  17
ATOM     17  O   UNL     1      27.960  -6.688  11.973  1.00  0.00    -0.504 OA
ATOM     18  H   UNL     1      28.582  -6.053  11.487  1.00  0.00     0.293 HD
ENDBRANCH  13  17
BRANCH  15  19
ATOM     19  O   UNL     1      28.767  -8.543  10.014  1.00  0.00    -0.502 OA
ATOM     20  H   UNL     1      29.393  -8.970   9.343  1.00  0.00     0.293 HD
ENDBRANCH  15  19
BRANCH  16  21
ATOM     21  O   UNL     1      29.568 -11.125  10.798  1.00  0.00    -0.504 OA
ATOM     22  H   UNL     1      29.153 -12.047  10.733  1.00  0.00     0.293 HD
ENDBRANCH  16  21
ENDBRANCH   1  11
BRANCH  10  23
ATOM     23  O   UNL     1      31.124 -10.085  15.636  1.00  0.00    -0.500 OA
ATOM     24  H   UNL     1      31.981 -10.300  16.132  1.00  0.00     0.294 HD
ENDBRANCH  10  23
BRANCH   5  25
ATOM     25  O   UNL     1      24.662 -11.012  19.831  1.00  0.00    -0.507 OA
ATOM     26  H   UNL     1      24.468 -11.626  20.614  1.00  0.00     0.293 HD
ENDBRANCH   5  25
BRANCH   7  27
ATOM     27  O   UNL     1      29.433 -11.125  20.478  1.00  0.00    -0.507 OA
ATOM     28  H   UNL     1      29.371 -11.030  21.481  1.00  0.00     0.293 HD
ENDBRANCH   7  27
TORSDOF 7
ENDMDL
MODEL 3
REMARK VINA RESULT:    -2.113      1.116      7.163
REMARK INTER + INTRA:          -2.970
REMARK INTER:                  -2.590
REMARK INTRA:                  -0.379
REMARK UNBOUND:                -0.362
REMARK SMILES Oc1cc(O)c2cc(O)c(-c3cc(O)c(O)c(O)c3)[o+]c2c1.[Cl-]
REMARK SMILES IDX 10 1 20 2 21 3 22 4 2 5 3 6 4 7 6 8 7 9 8 10 11 11 12 12
REMARK SMILES IDX 13 13 19 14 15 15 17 16 14 17 16 19 18 21 9 23 1 25 5 27
REMARK H PARENT 14 18 16 20 18 22 9 24 1 26 5 28
REMARK Flexibility Score: inf
ROOT
ATOM      1  C   UNL     1      28.680  -9.571  14.532  1.00  0.00     0.402 A 
ATOM      2  O   UNL     1      29.595  -9.575  15.498  1.00  0.00    -0.202 OA
ATOM      3  C   UNL     1      29.309  -9.827  16.772  1.00  0.00     0.368 A 
ATOM      4  C   UNL     1      30.340  -9.811  17.715  1.00  0.00     0.162 A 
ATOM      5  C   UNL     1      30.069 -10.076  19.058  1.00  0.00     0.128 A 
ATOM      6  C   UNL     1      28.759 -10.357  19.464  1.00  0.00     0.093 A 
ATOM      7  C   UNL     1      27.710 -10.379  18.537  1.00  0.00     0.136 A 
ATOM      8  C   UNL     1      27.980 -10.108  17.170  1.00  0.00     0.125 A 
ATOM      9  C   UNL     1      26.990 -10.096  16.175  1.00  0.00     0.078 A 
ATOM     10  C   UNL     1      27.331  -9.816  14.849  1.00  0.00     0.223 A 
ENDROOT
BRANCH   1  11
ATOM     11  C   UNL     1      29.125  -9.285  13.148  1.00  0.00     0.091 A 
ATOM     12  C   UNL     1      29.347  -7.957  12.754  1.00  0.00     0.068 A 
ATOM     13  C   UNL     1      29.786  -7.658  11.461  1.00  0.00     0.162 A 
ATOM     14  C   UNL     1      29.386 -10.321  12.236  1.00  0.00     0.068 A 
ATOM     15  C   UNL     1      30.026  -8.697  10.545  1.00  0.00     0.200 A 
ATOM     16  C   UNL     1      29.829 -10.031  10.937  1.00  0.00     0.162 A 
BRANCH  13  17
ATOM     17  O   UNL     1      29.980  -6.324  11.105  1.00  0.00    -0.504 OA
ATOM     18  H   UNL     1      29.851  -5.996  10.155  1.00  0.00     0.293 HD
ENDBRANCH  13  17
BRANCH  15  19
ATOM     19  O   UNL     1      30.461  -8.391   9.254  1.00  0.00    -0.502 OA
ATOM     20  H   UNL     1      30.090  -7.608   8.731  1.00  0.00     0.293 HD
ENDBRANCH  15  19
BRANCH  16  21
ATOM     21  O   UNL     1      30.079 -11.067  10.037  1.00  0.00    -0.504 OA
ATOM     22  H   UNL     1      30.117 -12.034  10.338  1.00  0.00     0.293 HD
ENDBRANCH  16  21
ENDBRANCH   1  11
BRANCH  10  23
ATOM     23  O   UNL     1      26.341  -9.753  13.869  1.00  0.00    -0.500 OA
ATOM     24  H   UNL     1      26.342 -10.376  13.070  1.00  0.00     0.294 HD
ENDBRANCH  10  23
BRANCH   5  25
ATOM     25  O   UNL     1      31.110 -10.055  19.984  1.00  0.00    -0.507 OA
ATOM     26  H   UNL     1      32.065  -9.864  19.703  1.00  0.00     0.293 HD
ENDBRANCH   5  25
BRANCH   7  27
ATOM     27  O   UNL     1      26.431 -10.673  19.021  1.00  0.00    -0.507 OA
ATOM     28  H   UNL     1      25.985 -11.574  18.940  1.00  0.00     0.293 HD
ENDBRANCH   7  27
TORSDOF 7
ENDMDL
MODEL 4
REMARK VINA RESULT:    -2.091      2.181      3.364
REMARK INTER + INTRA:          -2.942
REMARK INTER:                  -2.565
REMARK INTRA:                  -0.377
REMARK UNBOUND:                -0.362
REMARK SMILES Oc1cc(O)c2cc(O)c(-c3cc(O)c(O)c(O)c3)[o+]c2c1.[Cl-]
REMARK SMILES IDX 10 1 20 2 21 3 22 4 2 5 3 6 4 7 6 8 7 9 8 10 11 11 12 12
REMARK SMILES IDX 13 13 19 14 15 15 17 16 14 17 16 19 18 21 9 23 1 25 5 27
REMARK H PARENT 14 18 16 20 18 22 9 24 1 26 5 28
REMARK Flexibility Score: inf
ROOT
ATOM      1  C   UNL     1      28.105  -9.699  16.850  1.00  0.00     0.402 A 
ATOM      2  O   UNL     1      28.995  -9.855  15.873  1.00  0.00    -0.202 OA
ATOM      3  C   UNL     1      28.660 -10.158  14.623  1.00  0.00     0.368 A 
ATOM      4  C   UNL     1      29.668 -10.298  13.665  1.00  0.00     0.162 A 
ATOM      5  C   UNL     1      29.345 -10.613  12.344  1.00  0.00     0.128 A 
ATOM      6  C   UNL     1      28.006 -10.790  11.976  1.00  0.00     0.093 A 
ATOM      7  C   UNL     1      26.979 -10.654  12.918  1.00  0.00     0.136 A 
ATOM      8  C   UNL     1      27.303 -10.337  14.263  1.00  0.00     0.125 A 
ATOM      9  C   UNL     1      26.341 -10.194  15.276  1.00  0.00     0.078 A 
ATOM     10  C   UNL     1      26.736  -9.885  16.580  1.00  0.00     0.223 A 
ENDROOT
BRANCH   1  11
ATOM     11  C   UNL     1      28.602  -9.351  18.201  1.00  0.00     0.091 A 
ATOM     12  C   UNL     1      28.905 -10.375  19.110  1.00  0.00     0.068 A 
ATOM     13  C   UNL     1      29.395 -10.078  20.386  1.00  0.00     0.162 A 
ATOM     14  C   UNL     1      28.833  -8.016  18.574  1.00  0.00     0.068 A 
ATOM     15  C   UNL     1      29.604  -8.740  20.762  1.00  0.00     0.200 A 
ATOM     16  C   UNL     1      29.326  -7.708  19.850  1.00  0.00     0.162 A 
BRANCH  13  17
ATOM     17  O   UNL     1      29.669 -11.125  21.265  1.00  0.00    -0.504 OA
ATOM     18  H   UNL     1      29.752 -12.085  20.950  1.00  0.00     0.293 HD
ENDBRANCH  13  17
BRANCH  15  19
ATOM     19  O   UNL     1      30.089  -8.450  22.038  1.00  0.00    -0.502 OA
ATOM     20  H   UNL     1      30.709  -9.077  22.535  1.00  0.00     0.293 HD
ENDBRANCH  15  19
BRANCH  16  21
ATOM     21  O   UNL     1      29.544  -6.379  20.212  1.00  0.00    -0.504 OA
ATOM     22  H   UNL     1      29.101  -5.970  21.027  1.00  0.00     0.293 HD
ENDBRANCH  16  21
ENDBRANCH   1  11
BRANCH  10  23
ATOM     23  O   UNL     1      25.786  -9.793  17.597  1.00  0.00    -0.500 OA
ATOM     24  H   UNL     1      25.138 -10.548  17.790  1.00  0.00     0.294 HD
ENDBRANCH  10  23
BRANCH   5  25
ATOM     25  O   UNL     1      30.364 -10.749  11.404  1.00  0.00    -0.507 OA
ATOM     26  H   UNL     1      31.070 -10.033  11.281  1.00  0.00     0.293 HD
ENDBRANCH   5  25
BRANCH   7  27
ATOM     27  O   UNL     1      25.667 -10.842  12.471  1.00  0.00    -0.507 OA
ATOM     28  H   UNL     1      24.846 -10.695  13.038  1.00  0.00     0.293 HD
ENDBRANCH   7  27
TORSDOF 7
ENDMDL
MODEL 5
REMARK VINA RESULT:    -2.042      2.213      3.139
REMARK INTER + INTRA:          -2.881
REMARK INTER:                  -2.514
REMARK INTRA:                  -0.367
REMARK UNBOUND:                -0.362
REMARK SMILES Oc1cc(O)c2cc(O)c(-c3cc(O)c(O)c(O)c3)[o+]c2c1.[Cl-]
REMARK SMILES IDX 10 1 20 2 21 3 22 4 2 5 3 6 4 7 6 8 7 9 8 10 11 11 12 12
REMARK SMILES IDX 13 13 19 14 15 15 17 16 14 17 16 19 18 21 9 23 1 25 5 27
REMARK H PARENT 14 18 16 20 18 22 9 24 1 26 5 28
REMARK Flexibility Score: inf
ROOT
ATOM      1  C   UNL     1      27.924  -9.852  15.984  1.00  0.00     0.402 A 
ATOM      2  O   UNL     1      28.767 -10.015  14.967  1.00  0.00    -0.202 OA
ATOM      3  C   UNL     1      28.372 -10.319  13.735  1.00  0.00     0.368 A 
ATOM      4  C   UNL     1      29.333 -10.467  12.731  1.00  0.00     0.162 A 
ATOM      5  C   UNL     1      28.947 -10.784  11.428  1.00  0.00     0.128 A 
ATOM      6  C   UNL     1      27.592 -10.954  11.124  1.00  0.00     0.093 A 
ATOM      7  C   UNL     1      26.611 -10.811  12.112  1.00  0.00     0.136 A 
ATOM      8  C   UNL     1      26.998 -10.491  13.439  1.00  0.00     0.125 A 
ATOM      9  C   UNL     1      26.086 -10.341  14.495  1.00  0.00     0.078 A 
ATOM     10  C   UNL     1      26.543 -10.031  15.779  1.00  0.00     0.223 A 
ENDROOT
BRANCH   1  11
ATOM     11  C   UNL     1      28.486  -9.503  17.309  1.00  0.00     0.091 A 
ATOM     12  C   UNL     1      28.715  -8.157  17.630  1.00  0.00     0.068 A 
ATOM     13  C   UNL     1      29.226  -7.796  18.881  1.00  0.00     0.162 A 
ATOM     14  C   UNL     1      28.742 -10.489  18.277  1.00  0.00     0.068 A 
ATOM     15  C   UNL     1      29.501  -8.788  19.838  1.00  0.00     0.200 A 
ATOM     16  C   UNL     1      29.253 -10.137  19.535  1.00  0.00     0.162 A 
BRANCH  13  17
ATOM     17  O   UNL     1      29.453  -6.448  19.154  1.00  0.00    -0.504 OA
ATOM     18  H   UNL     1      30.274  -5.961  18.815  1.00  0.00     0.293 HD
ENDBRANCH  13  17
BRANCH  15  19
ATOM     19  O   UNL     1      30.014  -8.421  21.083  1.00  0.00    -0.502 OA
ATOM     20  H   UNL     1      29.855  -8.973  21.917  1.00  0.00     0.293 HD
ENDBRANCH  15  19
BRANCH  16  21
ATOM     21  O   UNL     1      29.510 -11.125  20.485  1.00  0.00    -0.504 OA
ATOM     22  H   UNL     1      30.084 -11.932  20.271  1.00  0.00     0.293 HD
ENDBRANCH  16  21
ENDBRANCH   1  11
BRANCH  10  23
ATOM     23  O   UNL     1      25.642  -9.931  16.839  1.00  0.00    -0.500 OA
ATOM     24  H   UNL     1      24.690 -10.272  16.763  1.00  0.00     0.294 HD
ENDBRANCH  10  23
BRANCH   5  25
ATOM     25  O   UNL     1      29.920 -10.927  10.441  1.00  0.00    -0.507 OA
ATOM     26  H   UNL     1      30.833 -10.496  10.530  1.00  0.00     0.293 HD
ENDBRANCH   5  25
BRANCH   7  27
ATOM     27  O   UNL     1      25.279 -10.992  11.727  1.00  0.00    -0.507 OA
ATOM     28  H   UNL     1      24.796 -10.415  11.055  1.00  0.00     0.293 HD
ENDBRANCH   7  27
TORSDOF 7
ENDMDL
MODEL 6
REMARK VINA RESULT:    -2.007      1.245      7.221
REMARK INTER + INTRA:          -2.839
REMARK INTER:                  -2.462
REMARK INTRA:                  -0.377
REMARK UNBOUND:                -0.362
REMARK SMILES Oc1cc(O)c2cc(O)c(-c3cc(O)c(O)c(O)c3)[o+]c2c1.[Cl-]
REMARK SMILES IDX 10 1 20 2 21 3 22 4 2 5 3 6 4 7 6 8 7 9 8 10 11 11 12 12
REMARK SMILES IDX 13 13 19 14 15 15 17 16 14 17 16 19 18 21 9 23 1 25 5 27
REMARK H PARENT 14 18 16 20 18 22 9 24 1 26 5 28
REMARK Flexibility Score: inf
ROOT
ATOM      1  C   UNL     1      28.555  -9.532  15.054  1.00  0.00     0.402 A 
ATOM      2  O   UNL     1      29.369  -9.568  16.107  1.00  0.00    -0.202 OA
ATOM      3  C   UNL     1      28.971  -9.921  17.325  1.00  0.00     0.368 A 
ATOM      4  C   UNL     1      29.901  -9.930  18.368  1.00  0.00     0.162 A 
ATOM      5  C   UNL     1      29.512 -10.299  19.656  1.00  0.00     0.128 A 
ATOM      6  C   UNL     1      28.183 -10.661  19.906  1.00  0.00     0.093 A 
ATOM      7  C   UNL     1      27.233 -10.659  18.878  1.00  0.00     0.136 A 
ATOM      8  C   UNL     1      27.624 -10.283  17.566  1.00  0.00     0.125 A 
ATOM      9  C   UNL     1      26.737 -10.240  16.478  1.00  0.00     0.078 A 
ATOM     10  C   UNL     1      27.195  -9.853  15.216  1.00  0.00     0.223 A 
ENDROOT
BRANCH   1  11
ATOM     11  C   UNL     1      29.121  -9.132  13.745  1.00  0.00     0.091 A 
ATOM     12  C   UNL     1      29.539 -10.121  12.842  1.00  0.00     0.068 A 
ATOM     13  C   UNL     1      30.059  -9.773  11.591  1.00  0.00     0.162 A 
ATOM     14  C   UNL     1      29.197  -7.782  13.363  1.00  0.00     0.068 A 
ATOM     15  C   UNL     1      30.152  -8.421  11.222  1.00  0.00     0.200 A 
ATOM     16  C   UNL     1      29.715  -7.424  12.110  1.00  0.00     0.162 A 
BRANCH  13  17
ATOM     17  O   UNL     1      30.477 -10.786  10.729  1.00  0.00    -0.504 OA
ATOM     18  H   UNL     1      31.192 -10.635  10.027  1.00  0.00     0.293 HD
ENDBRANCH  13  17
BRANCH  15  19
ATOM     19  O   UNL     1      30.676  -8.081   9.974  1.00  0.00    -0.502 OA
ATOM     20  H   UNL     1      30.349  -7.279   9.451  1.00  0.00     0.293 HD
ENDBRANCH  15  19
BRANCH  16  21
ATOM     21  O   UNL     1      29.792  -6.081  11.745  1.00  0.00    -0.504 OA
ATOM     22  H   UNL     1      29.127  -5.397  12.089  1.00  0.00     0.293 HD
ENDBRANCH  16  21
ENDBRANCH   1  11
BRANCH  10  23
ATOM     23  O   UNL     1      26.304  -9.762  14.146  1.00  0.00    -0.500 OA
ATOM     24  H   UNL     1      26.616  -9.847  13.185  1.00  0.00     0.294 HD
ENDBRANCH  10  23
BRANCH   5  25
ATOM     25  O   UNL     1      30.454 -10.302  20.682  1.00  0.00    -0.507 OA
ATOM     26  H   UNL     1      30.714  -9.450  21.164  1.00  0.00     0.293 HD
ENDBRANCH   5  25
BRANCH   7  27
ATOM     27  O   UNL     1      25.927 -11.038  19.207  1.00  0.00    -0.507 OA
ATOM     28  H   UNL     1      25.171 -10.390  19.371  1.00  0.00     0.293 HD
ENDBRANCH   7  27
TORSDOF 7
ENDMDL
MODEL 7
REMARK VINA RESULT:    -1.974      2.326      3.097
REMARK INTER + INTRA:          -2.797
REMARK INTER:                  -2.456
REMARK INTRA:                  -0.341
REMARK UNBOUND:                -0.362
REMARK SMILES Oc1cc(O)c2cc(O)c(-c3cc(O)c(O)c(O)c3)[o+]c2c1.[Cl-]
REMARK SMILES IDX 10 1 20 2 21 3 22 4 2 5 3 6 4 7 6 8 7 9 8 10 11 11 12 12
REMARK SMILES IDX 13 13 19 14 15 15 17 16 14 17 16 19 18 21 9 23 1 25 5 27
REMARK H PARENT 14 18 16 20 18 22 9 24 1 26 5 28
REMARK Flexibility Score: inf
ROOT
ATOM      1  C   UNL     1      28.636  -9.806  15.487  1.00  0.00     0.402 A 
ATOM      2  O   UNL     1      27.536 -10.050  14.779  1.00  0.00    -0.202 OA
ATOM      3  C   UNL     1      27.553 -10.334  13.480  1.00  0.00     0.368 A 
ATOM      4  C   UNL     1      26.344 -10.579  12.823  1.00  0.00     0.162 A 
ATOM      5  C   UNL     1      26.332 -10.883  11.461  1.00  0.00     0.128 A 
ATOM      6  C   UNL     1      27.536 -10.943  10.749  1.00  0.00     0.093 A 
ATOM      7  C   UNL     1      28.759 -10.702  11.386  1.00  0.00     0.136 A 
ATOM      8  C   UNL     1      28.776 -10.390  12.770  1.00  0.00     0.125 A 
ATOM      9  C   UNL     1      29.953 -10.122  13.487  1.00  0.00     0.078 A 
ATOM     10  C   UNL     1      29.890  -9.817  14.850  1.00  0.00     0.223 A 
ENDROOT
BRANCH   1  11
ATOM     11  C   UNL     1      28.487  -9.511  16.931  1.00  0.00     0.091 A 
ATOM     12  C   UNL     1      27.954  -8.277  17.332  1.00  0.00     0.068 A 
ATOM     13  C   UNL     1      27.784  -7.978  18.688  1.00  0.00     0.162 A 
ATOM     14  C   UNL     1      28.816 -10.464  17.910  1.00  0.00     0.068 A 
ATOM     15  C   UNL     1      28.134  -8.927  19.664  1.00  0.00     0.200 A 
ATOM     16  C   UNL     1      28.647 -10.174  19.272  1.00  0.00     0.162 A 
BRANCH  13  17
ATOM     17  O   UNL     1      27.264  -6.734  19.045  1.00  0.00    -0.504 OA
ATOM     18  H   UNL     1      27.685  -5.866  18.735  1.00  0.00     0.293 HD
ENDBRANCH  13  17
BRANCH  15  19
ATOM     19  O   UNL     1      27.965  -8.620  21.015  1.00  0.00    -0.502 OA
ATOM     20  H   UNL     1      27.080  -8.302  21.390  1.00  0.00     0.293 HD
ENDBRANCH  15  19
BRANCH  16  21
ATOM     21  O   UNL     1      28.983 -11.125  20.234  1.00  0.00    -0.504 OA
ATOM     22  H   UNL     1      28.446 -11.976  20.351  1.00  0.00     0.293 HD
ENDBRANCH  16  21
ENDBRANCH   1  11
BRANCH  10  23
ATOM     23  O   UNL     1      31.054  -9.501  15.551  1.00  0.00    -0.500 OA
ATOM     24  H   UNL     1      31.166  -8.612  16.024  1.00  0.00     0.294 HD
ENDBRANCH  10  23
BRANCH   5  25
ATOM     25  O   UNL     1      25.117 -11.123  10.824  1.00  0.00    -0.507 OA
ATOM     26  H   UNL     1      24.568 -11.951  11.023  1.00  0.00     0.293 HD
ENDBRANCH   5  25
BRANCH   7  27
ATOM     27  O   UNL     1      29.917 -10.786  10.607  1.00  0.00    -0.507 OA
ATOM     28  H   UNL     1      30.721 -10.184  10.714  1.00  0.00     0.293 HD
ENDBRANCH   7  27
TORSDOF 7
ENDMDL
MODEL 8
REMARK VINA RESULT:    -1.924      1.591      7.298
REMARK INTER + INTRA:          -2.736
REMARK INTER:                  -2.513
REMARK INTRA:                  -0.223
REMARK UNBOUND:                -0.362
REMARK SMILES Oc1cc(O)c2cc(O)c(-c3cc(O)c(O)c(O)c3)[o+]c2c1.[Cl-]
REMARK SMILES IDX 10 1 20 2 21 3 22 4 2 5 3 6 4 7 6 8 7 9 8 10 11 11 12 12
REMARK SMILES IDX 13 13 19 14 15 15 17 16 14 17 16 19 18 21 9 23 1 25 5 27
REMARK H PARENT 14 18 16 20 18 22 9 24 1 26 5 28
REMARK Flexibility Score: inf
ROOT
ATOM      1  C   UNL     1      28.700  -9.824  14.633  1.00  0.00     0.402 A 
ATOM      2  O   UNL     1      27.523  -9.907  15.249  1.00  0.00    -0.202 OA
ATOM      3  C   UNL     1      27.396 -10.200  16.540  1.00  0.00     0.368 A 
ATOM      4  C   UNL     1      26.116 -10.262  17.099  1.00  0.00     0.162 A 
ATOM      5  C   UNL     1      25.952 -10.563  18.452  1.00  0.00     0.128 A 
ATOM      6  C   UNL     1      27.074 -10.805  19.253  1.00  0.00     0.093 A 
ATOM      7  C   UNL     1      28.366 -10.749  18.716  1.00  0.00     0.136 A 
ATOM      8  C   UNL     1      28.537 -10.445  17.340  1.00  0.00     0.125 A 
ATOM      9  C   UNL     1      29.792 -10.379  16.714  1.00  0.00     0.078 A 
ATOM     10  C   UNL     1      29.882 -10.079  15.352  1.00  0.00     0.223 A 
ENDROOT
BRANCH   1  11
ATOM     11  C   UNL     1      28.712  -9.480  13.192  1.00  0.00     0.091 A 
ATOM     12  C   UNL     1      29.130 -10.439  12.257  1.00  0.00     0.068 A 
ATOM     13  C   UNL     1      29.133 -10.150  10.889  1.00  0.00     0.162 A 
ATOM     14  C   UNL     1      28.258  -8.232  12.734  1.00  0.00     0.068 A 
ATOM     15  C   UNL     1      28.698  -8.892  10.437  1.00  0.00     0.200 A 
ATOM     16  C   UNL     1      28.255  -7.933  11.364  1.00  0.00     0.162 A 
BRANCH  13  17
ATOM     17  O   UNL     1      29.571 -11.125   9.994  1.00  0.00    -0.504 OA
ATOM     18  H   UNL     1      29.884 -12.038  10.303  1.00  0.00     0.293 HD
ENDBRANCH  13  17
BRANCH  15  19
ATOM     19  O   UNL     1      28.708  -8.609   9.070  1.00  0.00    -0.502 OA
ATOM     20  H   UNL     1      28.235  -7.802   8.683  1.00  0.00     0.293 HD
ENDBRANCH  15  19
BRANCH  16  21
ATOM     21  O   UNL     1      27.809  -6.689  10.922  1.00  0.00    -0.504 OA
ATOM     22  H   UNL     1      27.128  -6.602  10.176  1.00  0.00     0.293 HD
ENDBRANCH  16  21
ENDBRANCH   1  11
BRANCH  10  23
ATOM     23  O   UNL     1      31.125 -10.064  14.719  1.00  0.00    -0.500 OA
ATOM     24  H   UNL     1      31.909  -9.546  15.097  1.00  0.00     0.294 HD
ENDBRANCH  10  23
BRANCH   5  25
ATOM     25  O   UNL     1      24.669 -10.620  18.990  1.00  0.00    -0.507 OA
ATOM     26  H   UNL     1      24.406 -11.336  19.657  1.00  0.00     0.293 HD
ENDBRANCH   5  25
BRANCH   7  27
ATOM     27  O   UNL     1      29.435 -10.999  19.583  1.00  0.00    -0.507 OA
ATOM     28  H   UNL     1      29.586 -10.514  20.455  1.00  0.00     0.293 HD
ENDBRANCH   7  27
TORSDOF 7
ENDMDL
MODEL 9
REMARK VINA RESULT:     0.664     14.291     15.691
REMARK INTER + INTRA:           0.457
REMARK INTER:                  -0.004
REMARK INTRA:                   0.461
REMARK UNBOUND:                -0.362
REMARK SMILES Oc1cc(O)c2cc(O)c(-c3cc(O)c(O)c(O)c3)[o+]c2c1.[Cl-]
REMARK SMILES IDX 10 1 20 2 21 3 22 4 2 5 3 6 4 7 6 8 7 9 8 10 11 11 12 12
REMARK SMILES IDX 13 13 19 14 15 15 17 16 14 17 16 19 18 21 9 23 1 25 5 27
REMARK H PARENT 14 18 16 20 18 22 9 24 1 26 5 28
REMARK Flexibility Score: inf
ROOT
ATOM      1  C   UNL     1      15.784  -2.257  19.417  1.00  0.00     0.402 A 
ATOM      2  O   UNL     1      16.472  -3.331  19.037  1.00  0.00    -0.202 OA
ATOM      3  C   UNL     1      16.860  -3.542  17.783  1.00  0.00     0.368 A 
ATOM      4  C   UNL     1      17.582  -4.700  17.481  1.00  0.00     0.162 A 
ATOM      5  C   UNL     1      18.004  -4.946  16.174  1.00  0.00     0.128 A 
ATOM      6  C   UNL     1      17.703  -4.030  15.160  1.00  0.00     0.093 A 
ATOM      7  C   UNL     1      16.981  -2.863  15.437  1.00  0.00     0.136 A 
ATOM      8  C   UNL     1      16.548  -2.609  16.765  1.00  0.00     0.125 A 
ATOM      9  C   UNL     1      15.809  -1.474  17.132  1.00  0.00     0.078 A 
ATOM     10  C   UNL     1      15.412  -1.295  18.460  1.00  0.00     0.223 A 
ENDROOT
BRANCH   1  11
ATOM     11  C   UNL     1      15.419  -2.130  20.847  1.00  0.00     0.091 A 
ATOM     12  C   UNL     1      14.727  -0.991  21.285  1.00  0.00     0.068 A 
ATOM     13  C   UNL     1      14.352  -0.853  22.625  1.00  0.00     0.162 A 
ATOM     14  C   UNL     1      15.699  -3.154  21.766  1.00  0.00     0.068 A 
ATOM     15  C   UNL     1      14.654  -1.871  23.545  1.00  0.00     0.200 A 
ATOM     16  C   UNL     1      15.325  -3.026  23.112  1.00  0.00     0.162 A 
BRANCH  13  17
ATOM     17  O   UNL     1      13.679   0.302  23.021  1.00  0.00    -0.504 OA
ATOM     18  H   UNL     1      13.882   1.209  22.618  1.00  0.00     0.293 HD
ENDBRANCH  13  17
BRANCH  15  19
ATOM     19  O   UNL     1      14.279  -1.725  24.882  1.00  0.00    -0.502 OA
ATOM     20  H   UNL     1      13.603  -1.034  25.180  1.00  0.00     0.293 HD
ENDBRANCH  15  19
BRANCH  16  21
ATOM     21  O   UNL     1      15.615  -4.046  24.018  1.00  0.00    -0.504 OA
ATOM     22  H   UNL     1      15.805  -4.992  23.709  1.00  0.00     0.293 HD
ENDBRANCH  16  21
ENDBRANCH   1  11
BRANCH  10  23
ATOM     23  O   UNL     1      14.635  -0.192  18.816  1.00  0.00    -0.500 OA
ATOM     24  H   UNL     1      14.842   0.739  18.473  1.00  0.00     0.294 HD
ENDBRANCH  10  23
BRANCH   5  25
ATOM     25  O   UNL     1      18.723  -6.106  15.893  1.00  0.00    -0.507 OA
ATOM     26  H   UNL     1      19.698  -6.072  15.619  1.00  0.00     0.293 HD
ENDBRANCH   5  25
BRANCH   7  27
ATOM     27  O   UNL     1      16.725  -1.996  14.370  1.00  0.00    -0.507 OA
ATOM     28  H   UNL     1      16.455  -1.029  14.474  1.00  0.00     0.293 HD
ENDBRANCH   7  27
TORSDOF 7
ENDMDL
