MODEL 1
REMARK VINA RESULT:    -6.946      0.000      0.000
REMARK INTER + INTRA:         -10.240
REMARK INTER:                  -9.789
REMARK INTRA:                  -0.452
REMARK UNBOUND:                -0.452
REMARK SMILES C[C@@H](CO)CCC(=O)[C@@H](C)[C@H]1C(=O)C[C@@H]2[C@H]3CC=C4C[C@@H](O)CC[C@@]4(C)[C@H]3CC[C@@]21C
REMARK SMILES IDX 6 1 5 2 2 3 1 4 3 5 4 6 7 8 8 9 9 10 10 11 11 12 12 13 30 14
REMARK SMILES IDX 13 15 14 16 15 17 29 18 31 19 16 20 28 21 27 22 17 23 25 24
REMARK SMILES IDX 18 25 19 26 24 27 26 28 20 29 23 30 21 31 22 32
REMARK H PARENT 4 7 22 33
REMARK Flexibility Score: inf
ROOT
ATOM      1  C   UNL     1      11.492   6.784  50.174  1.00  0.00     0.076 C 
ENDROOT
BRANCH   1   2
ATOM      2  C   UNL     1      10.658   7.248  51.376  1.00  0.00     0.013 C 
BRANCH   2   3
ATOM      3  C   UNL     1       9.243   6.623  51.405  1.00  0.00     0.012 C 
ATOM      4  C   UNL     1       9.271   5.142  50.993  1.00  0.00     0.010 C 
BRANCH   3   5
ATOM      5  C   UNL     1       8.620   6.762  52.805  1.00  0.00     0.159 C 
BRANCH   5   6
ATOM      6  O   UNL     1       7.399   7.444  52.725  1.00  0.00    -0.396 OA
ATOM      7  H   UNL     1       6.869   7.151  53.512  1.00  0.00     0.210 HD
ENDBRANCH   5   6
ENDBRANCH   3   5
ENDBRANCH   2   3
ENDBRANCH   1   2
BRANCH   1   8
ATOM      8  C   UNL     1      11.689   7.917  49.197  1.00  0.00     0.136 C 
ATOM      9  O   UNL     1      12.042   9.009  49.618  1.00  0.00    -0.299 OA
BRANCH   8  10
ATOM     10  C   UNL     1      11.452   7.720  47.710  1.00  0.00     0.064 C 
ATOM     11  C   UNL     1      11.013   6.260  47.500  1.00  0.00     0.017 C 
BRANCH  10  12
ATOM     12  C   UNL     1      10.400   8.741  47.154  1.00  0.00     0.072 C 
ATOM     13  C   UNL     1      10.201   8.661  45.672  1.00  0.00     0.137 C 
ATOM     14  C   UNL     1       8.929   8.630  47.692  1.00  0.00    -0.019 C 
ATOM     15  O   UNL     1      11.107   8.495  44.870  1.00  0.00    -0.299 OA
ATOM     16  C   UNL     1       8.812   8.907  45.237  1.00  0.00     0.080 C 
ATOM     17  C   UNL     1       8.030   9.207  46.537  1.00  0.00     0.007 C 
ATOM     18  C   UNL     1       8.754   9.409  49.022  1.00  0.00     0.008 C 
ATOM     19  C   UNL     1       8.502   7.147  47.910  1.00  0.00     0.012 C 
ATOM     20  C   UNL     1       7.664  10.730  46.682  1.00  0.00     0.001 C 
ATOM     21  C   UNL     1       7.357   9.997  49.147  1.00  0.00     0.005 C 
ATOM     22  C   UNL     1       7.157  11.145  48.133  1.00  0.00     0.003 C 
ATOM     23  C   UNL     1       6.664  11.145  45.566  1.00  0.00     0.031 C 
ATOM     24  C   UNL     1       5.704  11.798  48.190  1.00  0.00    -0.008 C 
ATOM     25  C   UNL     1       5.256  10.820  45.947  1.00  0.00    -0.027 C 
ATOM     26  C   UNL     1       4.789  11.134  47.163  1.00  0.00    -0.065 C 
ATOM     27  C   UNL     1       5.029  11.664  49.597  1.00  0.00     0.014 C 
ATOM     28  C   UNL     1       5.819  13.319  47.881  1.00  0.00     0.016 C 
ATOM     29  C   UNL     1       3.376  10.744  47.544  1.00  0.00     0.063 C 
ATOM     30  C   UNL     1       3.585  12.205  49.647  1.00  0.00     0.033 C 
ATOM     31  C   UNL     1       2.734  11.844  48.406  1.00  0.00     0.118 C 
BRANCH  31  32
ATOM     32  O   UNL     1       1.454  11.437  48.818  1.00  0.00    -0.393 OA
ATOM     33  H   UNL     1       1.414  11.563  49.802  1.00  0.00     0.210 HD
ENDBRANCH  31  32
ENDBRANCH  10  12
ENDBRANCH   8  10
ENDBRANCH   1   8
TORSDOF 8
ENDMDL
MODEL 2
REMARK VINA RESULT:    -6.798      2.192      7.490
REMARK INTER + INTRA:         -10.031
REMARK INTER:                  -9.894
REMARK INTRA:                  -0.137
REMARK UNBOUND:                -0.452
REMARK SMILES C[C@@H](CO)CCC(=O)[C@@H](C)[C@H]1C(=O)C[C@@H]2[C@H]3CC=C4C[C@@H](O)CC[C@@]4(C)[C@H]3CC[C@@]21C
REMARK SMILES IDX 6 1 5 2 2 3 1 4 3 5 4 6 7 8 8 9 9 10 10 11 11 12 12 13 30 14
REMARK SMILES IDX 13 15 14 16 15 17 29 18 31 19 16 20 28 21 27 22 17 23 25 24
REMARK SMILES IDX 18 25 19 26 24 27 26 28 20 29 23 30 21 31 22 32
REMARK H PARENT 4 7 22 33
REMARK Flexibility Score: inf
ROOT
ATOM      1  C   UNL     1       3.466  11.059  46.810  1.00  0.00     0.076 C 
ENDROOT
BRANCH   1   2
ATOM      2  C   UNL     1       1.971  11.339  47.018  1.00  0.00     0.013 C 
BRANCH   2   3
ATOM      3  C   UNL     1       1.408  10.684  48.302  1.00  0.00     0.012 C 
ATOM      4  C   UNL     1       1.049   9.206  48.073  1.00  0.00     0.010 C 
BRANCH   3   5
ATOM      5  C   UNL     1       2.420  10.801  49.456  1.00  0.00     0.159 C 
BRANCH   5   6
ATOM      6  O   UNL     1       2.288  12.044  50.089  1.00  0.00    -0.396 OA
ATOM      7  H   UNL     1       1.494  12.477  49.680  1.00  0.00     0.210 HD
ENDBRANCH   5   6
ENDBRANCH   3   5
ENDBRANCH   2   3
ENDBRANCH   1   2
BRANCH   1   8
ATOM      8  C   UNL     1       4.245  12.349  46.766  1.00  0.00     0.136 C 
ATOM      9  O   UNL     1       3.690  13.364  46.370  1.00  0.00    -0.299 OA
BRANCH   8  10
ATOM     10  C   UNL     1       5.700  12.402  47.199  1.00  0.00     0.064 C 
ATOM     11  C   UNL     1       5.722  12.662  48.715  1.00  0.00     0.017 C 
BRANCH  10  12
ATOM     12  C   UNL     1       6.464  11.088  46.812  1.00  0.00     0.072 C 
ATOM     13  C   UNL     1       6.910  11.045  45.383  1.00  0.00     0.137 C 
ATOM     14  C   UNL     1       7.795  10.771  47.583  1.00  0.00    -0.019 C 
ATOM     15  O   UNL     1       6.237  11.444  44.446  1.00  0.00    -0.299 OA
ATOM     16  C   UNL     1       8.209  10.372  45.178  1.00  0.00     0.080 C 
ATOM     17  C   UNL     1       8.646   9.903  46.584  1.00  0.00     0.007 C 
ATOM     18  C   UNL     1       7.511  10.030  48.916  1.00  0.00     0.008 C 
ATOM     19  C   UNL     1       8.613  12.063  47.882  1.00  0.00     0.012 C 
ATOM     20  C   UNL     1       8.502   8.348  46.772  1.00  0.00     0.001 C 
ATOM     21  C   UNL     1       8.624   9.052  49.261  1.00  0.00     0.005 C 
ATOM     22  C   UNL     1       8.622   7.857  48.282  1.00  0.00     0.003 C 
ATOM     23  C   UNL     1       9.491   7.605  45.829  1.00  0.00     0.031 C 
ATOM     24  C   UNL     1       9.779   6.798  48.568  1.00  0.00    -0.008 C 
ATOM     25  C   UNL     1      10.852   7.504  46.438  1.00  0.00    -0.027 C 
ATOM     26  C   UNL     1      11.003   7.113  47.711  1.00  0.00    -0.065 C 
ATOM     27  C   UNL     1      10.230   6.778  50.067  1.00  0.00     0.014 C 
ATOM     28  C   UNL     1       9.255   5.372  48.229  1.00  0.00     0.016 C 
ATOM     29  C   UNL     1      12.388   7.072  48.321  1.00  0.00     0.063 C 
ATOM     30  C   UNL     1      11.414   5.829  50.347  1.00  0.00     0.033 C 
ATOM     31  C   UNL     1      12.520   5.865  49.265  1.00  0.00     0.118 C 
BRANCH  31  32
ATOM     32  O   UNL     1      13.781   5.882  49.884  1.00  0.00    -0.393 OA
ATOM     33  H   UNL     1      14.442   6.128  49.186  1.00  0.00     0.210 HD
ENDBRANCH  31  32
ENDBRANCH  10  12
ENDBRANCH   8  10
ENDBRANCH   1   8
TORSDOF 8
ENDMDL
MODEL 3
REMARK VINA RESULT:    -6.713      0.643      1.020
REMARK INTER + INTRA:          -9.912
REMARK INTER:                  -9.534
REMARK INTRA:                  -0.378
REMARK UNBOUND:                -0.452
REMARK SMILES C[C@@H](CO)CCC(=O)[C@@H](C)[C@H]1C(=O)C[C@@H]2[C@H]3CC=C4C[C@@H](O)CC[C@@]4(C)[C@H]3CC[C@@]21C
REMARK SMILES IDX 6 1 5 2 2 3 1 4 3 5 4 6 7 8 8 9 9 10 10 11 11 12 12 13 30 14
REMARK SMILES IDX 13 15 14 16 15 17 29 18 31 19 16 20 28 21 27 22 17 23 25 24
REMARK SMILES IDX 18 25 19 26 24 27 26 28 20 29 23 30 21 31 22 32
REMARK H PARENT 4 7 22 33
REMARK Flexibility Score: inf
ROOT
ATOM      1  C   UNL     1      11.533   7.155  50.245  1.00  0.00     0.076 C 
ENDROOT
BRANCH   1   2
ATOM      2  C   UNL     1      11.759   7.798  51.620  1.00  0.00     0.013 C 
BRANCH   2   3
ATOM      3  C   UNL     1      10.439   8.078  52.379  1.00  0.00     0.012 C 
ATOM      4  C   UNL     1      10.083   9.574  52.361  1.00  0.00     0.010 C 
BRANCH   3   5
ATOM      5  C   UNL     1       9.285   7.261  51.773  1.00  0.00     0.159 C 
BRANCH   5   6
ATOM      6  O   UNL     1       8.055   7.859  52.081  1.00  0.00    -0.396 OA
ATOM      7  H   UNL     1       8.251   8.818  52.246  1.00  0.00     0.210 HD
ENDBRANCH   5   6
ENDBRANCH   3   5
ENDBRANCH   2   3
ENDBRANCH   1   2
BRANCH   1   8
ATOM      8  C   UNL     1      11.750   8.165  49.146  1.00  0.00     0.136 C 
ATOM      9  O   UNL     1      12.170   9.276  49.435  1.00  0.00    -0.299 OA
BRANCH   8  10
ATOM     10  C   UNL     1      11.451   7.823  47.697  1.00  0.00     0.064 C 
ATOM     11  C   UNL     1      11.011   6.349  47.650  1.00  0.00     0.017 C 
BRANCH  10  12
ATOM     12  C   UNL     1      10.369   8.783  47.090  1.00  0.00     0.072 C 
ATOM     13  C   UNL     1      10.105   8.554  45.634  1.00  0.00     0.137 C 
ATOM     14  C   UNL     1       8.925   8.725  47.702  1.00  0.00    -0.019 C 
ATOM     15  O   UNL     1      10.974   8.310  44.812  1.00  0.00    -0.299 OA
ATOM     16  C   UNL     1       8.696   8.756  45.239  1.00  0.00     0.080 C 
ATOM     17  C   UNL     1       7.972   9.184  46.537  1.00  0.00     0.007 C 
ATOM     18  C   UNL     1       8.806   9.634  48.954  1.00  0.00     0.008 C 
ATOM     19  C   UNL     1       8.515   7.272  48.086  1.00  0.00     0.012 C 
ATOM     20  C   UNL     1       7.605  10.713  46.545  1.00  0.00     0.001 C 
ATOM     21  C   UNL     1       7.413  10.231  49.082  1.00  0.00     0.005 C 
ATOM     22  C   UNL     1       7.162  11.272  47.969  1.00  0.00     0.003 C 
ATOM     23  C   UNL     1       6.554  11.014  45.439  1.00  0.00     0.031 C 
ATOM     24  C   UNL     1       5.709  11.927  48.026  1.00  0.00    -0.008 C 
ATOM     25  C   UNL     1       5.166  10.728  45.915  1.00  0.00    -0.027 C 
ATOM     26  C   UNL     1       4.753  11.163  47.113  1.00  0.00    -0.065 C 
ATOM     27  C   UNL     1       5.099  11.934  49.468  1.00  0.00     0.014 C 
ATOM     28  C   UNL     1       5.804  13.409  47.561  1.00  0.00     0.016 C 
ATOM     29  C   UNL     1       3.360  10.813  47.595  1.00  0.00     0.063 C 
ATOM     30  C   UNL     1       3.656  12.477  49.530  1.00  0.00     0.033 C 
ATOM     31  C   UNL     1       2.752  11.993  48.370  1.00  0.00     0.118 C 
BRANCH  31  32
ATOM     32  O   UNL     1       1.494  11.629  48.879  1.00  0.00    -0.393 OA
ATOM     33  H   UNL     1       1.268  10.745  48.487  1.00  0.00     0.210 HD
ENDBRANCH  31  32
ENDBRANCH  10  12
ENDBRANCH   8  10
ENDBRANCH   1   8
TORSDOF 8
ENDMDL
MODEL 4
REMARK VINA RESULT:    -6.704      2.113      3.349
REMARK INTER + INTRA:          -9.900
REMARK INTER:                  -9.282
REMARK INTRA:                  -0.618
REMARK UNBOUND:                -0.452
REMARK SMILES C[C@@H](CO)CCC(=O)[C@@H](C)[C@H]1C(=O)C[C@@H]2[C@H]3CC=C4C[C@@H](O)CC[C@@]4(C)[C@H]3CC[C@@]21C
REMARK SMILES IDX 6 1 5 2 2 3 1 4 3 5 4 6 7 8 8 9 9 10 10 11 11 12 12 13 30 14
REMARK SMILES IDX 13 15 14 16 15 17 29 18 31 19 16 20 28 21 27 22 17 23 25 24
REMARK SMILES IDX 18 25 19 26 24 27 26 28 20 29 23 30 21 31 22 32
REMARK H PARENT 4 7 22 33
REMARK Flexibility Score: inf
ROOT
ATOM      1  C   UNL     1      11.835   8.285  48.146  1.00  0.00     0.076 C 
ENDROOT
BRANCH   1   2
ATOM      2  C   UNL     1      11.172   6.911  47.982  1.00  0.00     0.013 C 
BRANCH   2   3
ATOM      3  C   UNL     1       9.734   6.862  48.554  1.00  0.00     0.012 C 
ATOM      4  C   UNL     1       9.350   8.188  49.230  1.00  0.00     0.010 C 
BRANCH   3   5
ATOM      5  C   UNL     1       8.722   6.532  47.442  1.00  0.00     0.159 C 
BRANCH   5   6
ATOM      6  O   UNL     1       8.158   5.268  47.663  1.00  0.00    -0.396 OA
ATOM      7  H   UNL     1       7.216   5.431  47.929  1.00  0.00     0.210 HD
ENDBRANCH   5   6
ENDBRANCH   3   5
ENDBRANCH   2   3
ENDBRANCH   1   2
BRANCH   1   8
ATOM      8  C   UNL     1      12.339   8.792  46.819  1.00  0.00     0.136 C 
ATOM      9  O   UNL     1      13.462   8.477  46.450  1.00  0.00    -0.299 OA
BRANCH   8  10
ATOM     10  C   UNL     1      11.480   9.687  45.943  1.00  0.00     0.064 C 
ATOM     11  C   UNL     1      10.826   8.796  44.872  1.00  0.00     0.017 C 
BRANCH  10  12
ATOM     12  C   UNL     1      10.418  10.473  46.788  1.00  0.00     0.072 C 
ATOM     13  C   UNL     1      10.912  11.784  47.314  1.00  0.00     0.137 C 
ATOM     14  C   UNL     1       9.083  10.885  46.071  1.00  0.00    -0.019 C 
ATOM     15  O   UNL     1      12.034  11.962  47.760  1.00  0.00    -0.299 OA
ATOM     16  C   UNL     1       9.883  12.844  47.351  1.00  0.00     0.080 C 
ATOM     17  C   UNL     1       8.591  12.169  46.836  1.00  0.00     0.007 C 
ATOM     18  C   UNL     1       8.041   9.736  46.115  1.00  0.00     0.008 C 
ATOM     19  C   UNL     1       9.325  11.298  44.588  1.00  0.00     0.012 C 
ATOM     20  C   UNL     1       7.554  11.896  47.987  1.00  0.00     0.001 C 
ATOM     21  C   UNL     1       6.620  10.272  46.200  1.00  0.00     0.005 C 
ATOM     22  C   UNL     1       6.364  10.921  47.578  1.00  0.00     0.003 C 
ATOM     23  C   UNL     1       7.040  13.244  48.569  1.00  0.00     0.031 C 
ATOM     24  C   UNL     1       4.898  11.528  47.733  1.00  0.00    -0.008 C 
ATOM     25  C   UNL     1       5.917  13.797  47.753  1.00  0.00    -0.027 C 
ATOM     26  C   UNL     1       4.901  13.011  47.370  1.00  0.00    -0.065 C 
ATOM     27  C   UNL     1       3.842  10.810  46.827  1.00  0.00     0.014 C 
ATOM     28  C   UNL     1       4.431  11.351  49.207  1.00  0.00     0.016 C 
ATOM     29  C   UNL     1       3.803  13.582  46.497  1.00  0.00     0.063 C 
ATOM     30  C   UNL     1       2.436  11.442  46.890  1.00  0.00     0.033 C 
ATOM     31  C   UNL     1       2.442  12.990  46.899  1.00  0.00     0.118 C 
BRANCH  31  32
ATOM     32  O   UNL     1       1.443  13.467  46.032  1.00  0.00    -0.393 OA
ATOM     33  H   UNL     1       0.571  13.306  46.480  1.00  0.00     0.210 HD
ENDBRANCH  31  32
ENDBRANCH  10  12
ENDBRANCH   8  10
ENDBRANCH   1   8
TORSDOF 8
ENDMDL
MODEL 5
REMARK VINA RESULT:    -6.640      3.860      8.520
REMARK INTER + INTRA:          -9.808
REMARK INTER:                  -9.329
REMARK INTRA:                  -0.479
REMARK UNBOUND:                -0.452
REMARK SMILES C[C@@H](CO)CCC(=O)[C@@H](C)[C@H]1C(=O)C[C@@H]2[C@H]3CC=C4C[C@@H](O)CC[C@@]4(C)[C@H]3CC[C@@]21C
REMARK SMILES IDX 6 1 5 2 2 3 1 4 3 5 4 6 7 8 8 9 9 10 10 11 11 12 12 13 30 14
REMARK SMILES IDX 13 15 14 16 15 17 29 18 31 19 16 20 28 21 27 22 17 23 25 24
REMARK SMILES IDX 18 25 19 26 24 27 26 28 20 29 23 30 21 31 22 32
REMARK H PARENT 4 7 22 33
REMARK Flexibility Score: inf
ROOT
ATOM      1  C   UNL     1       0.830   9.303  47.141  1.00  0.00     0.076 C 
ENDROOT
BRANCH   1   2
ATOM      2  C   UNL     1      -0.503   8.808  46.563  1.00  0.00     0.013 C 
BRANCH   2   3
ATOM      3  C   UNL     1      -0.576   8.936  45.022  1.00  0.00     0.012 C 
ATOM      4  C   UNL     1      -1.167   7.672  44.377  1.00  0.00     0.010 C 
BRANCH   3   5
ATOM      5  C   UNL     1      -1.413  10.165  44.622  1.00  0.00     0.159 C 
BRANCH   5   6
ATOM      6  O   UNL     1      -0.663  11.336  44.796  1.00  0.00    -0.396 OA
ATOM      7  H   UNL     1      -1.323  12.068  44.917  1.00  0.00     0.210 HD
ENDBRANCH   5   6
ENDBRANCH   3   5
ENDBRANCH   2   3
ENDBRANCH   1   2
BRANCH   1   8
ATOM      8  C   UNL     1       0.637  10.604  47.878  1.00  0.00     0.136 C 
ATOM      9  O   UNL     1      -0.479  11.103  47.921  1.00  0.00    -0.299 OA
BRANCH   8  10
ATOM     10  C   UNL     1       1.802  11.301  48.558  1.00  0.00     0.064 C 
ATOM     11  C   UNL     1       2.287  10.387  49.697  1.00  0.00     0.017 C 
BRANCH  10  12
ATOM     12  C   UNL     1       2.947  11.636  47.540  1.00  0.00     0.072 C 
ATOM     13  C   UNL     1       2.622  12.763  46.612  1.00  0.00     0.137 C 
ATOM     14  C   UNL     1       4.332  12.081  48.130  1.00  0.00    -0.019 C 
ATOM     15  O   UNL     1       1.526  12.931  46.098  1.00  0.00    -0.299 OA
ATOM     16  C   UNL     1       3.779  13.617  46.271  1.00  0.00     0.080 C 
ATOM     17  C   UNL     1       4.978  12.982  47.013  1.00  0.00     0.007 C 
ATOM     18  C   UNL     1       5.216  10.856  48.484  1.00  0.00     0.008 C 
ATOM     19  C   UNL     1       4.163  12.971  49.397  1.00  0.00     0.012 C 
ATOM     20  C   UNL     1       5.957  12.229  46.039  1.00  0.00     0.001 C 
ATOM     21  C   UNL     1       6.694  11.152  48.276  1.00  0.00     0.005 C 
ATOM     22  C   UNL     1       7.015  11.291  46.772  1.00  0.00     0.003 C 
ATOM     23  C   UNL     1       6.635  13.244  45.076  1.00  0.00     0.031 C 
ATOM     24  C   UNL     1       8.546  11.626  46.477  1.00  0.00    -0.008 C 
ATOM     25  C   UNL     1       7.830  13.880  45.709  1.00  0.00    -0.027 C 
ATOM     26  C   UNL     1       8.739  13.135  46.352  1.00  0.00    -0.065 C 
ATOM     27  C   UNL     1       9.510  11.106  47.596  1.00  0.00     0.014 C 
ATOM     28  C   UNL     1       8.969  10.932  45.150  1.00  0.00     0.016 C 
ATOM     29  C   UNL     1       9.913  13.810  47.032  1.00  0.00     0.063 C 
ATOM     30  C   UNL     1      10.986  11.501  47.378  1.00  0.00     0.033 C 
ATOM     31  C   UNL     1      11.181  12.954  46.880  1.00  0.00     0.118 C 
BRANCH  31  32
ATOM     32  O   UNL     1      12.243  13.550  47.580  1.00  0.00    -0.393 OA
ATOM     33  H   UNL     1      12.020  14.512  47.678  1.00  0.00     0.210 HD
ENDBRANCH  31  32
ENDBRANCH  10  12
ENDBRANCH   8  10
ENDBRANCH   1   8
TORSDOF 8
ENDMDL
MODEL 6
REMARK VINA RESULT:    -6.535      2.161      4.064
REMARK INTER + INTRA:          -9.661
REMARK INTER:                  -9.270
REMARK INTRA:                  -0.391
REMARK UNBOUND:                -0.452
REMARK SMILES C[C@@H](CO)CCC(=O)[C@@H](C)[C@H]1C(=O)C[C@@H]2[C@H]3CC=C4C[C@@H](O)CC[C@@]4(C)[C@H]3CC[C@@]21C
REMARK SMILES IDX 6 1 5 2 2 3 1 4 3 5 4 6 7 8 8 9 9 10 10 11 11 12 12 13 30 14
REMARK SMILES IDX 13 15 14 16 15 17 29 18 31 19 16 20 28 21 27 22 17 23 25 24
REMARK SMILES IDX 18 25 19 26 24 27 26 28 20 29 23 30 21 31 22 32
REMARK H PARENT 4 7 22 33
REMARK Flexibility Score: inf
ROOT
ATOM      1  C   UNL     1      13.232  10.206  47.251  1.00  0.00     0.076 C 
ENDROOT
BRANCH   1   2
ATOM      2  C   UNL     1      13.382  10.728  45.815  1.00  0.00     0.013 C 
BRANCH   2   3
ATOM      3  C   UNL     1      12.444  11.919  45.506  1.00  0.00     0.012 C 
ATOM      4  C   UNL     1      13.017  13.242  46.041  1.00  0.00     0.010 C 
BRANCH   3   5
ATOM      5  C   UNL     1      12.198  12.033  43.991  1.00  0.00     0.159 C 
BRANCH   5   6
ATOM      6  O   UNL     1      10.829  12.184  43.734  1.00  0.00    -0.396 OA
ATOM      7  H   UNL     1      10.376  11.447  44.222  1.00  0.00     0.210 HD
ENDBRANCH   5   6
ENDBRANCH   3   5
ENDBRANCH   2   3
ENDBRANCH   1   2
BRANCH   1   8
ATOM      8  C   UNL     1      12.884   8.739  47.248  1.00  0.00     0.136 C 
ATOM      9  O   UNL     1      13.726   7.929  46.886  1.00  0.00    -0.299 OA
BRANCH   8  10
ATOM     10  C   UNL     1      11.510   8.258  47.681  1.00  0.00     0.064 C 
ATOM     11  C   UNL     1      11.479   8.268  49.219  1.00  0.00     0.017 C 
BRANCH  10  12
ATOM     12  C   UNL     1      10.369   9.137  47.060  1.00  0.00     0.072 C 
ATOM     13  C   UNL     1      10.085   8.834  45.622  1.00  0.00     0.137 C 
ATOM     14  C   UNL     1       8.943   9.036  47.708  1.00  0.00    -0.019 C 
ATOM     15  O   UNL     1      10.947   8.596  44.790  1.00  0.00    -0.299 OA
ATOM     16  C   UNL     1       8.659   8.949  45.253  1.00  0.00     0.080 C 
ATOM     17  C   UNL     1       7.943   9.397  46.548  1.00  0.00     0.007 C 
ATOM     18  C   UNL     1       8.807   9.992  48.923  1.00  0.00     0.008 C 
ATOM     19  C   UNL     1       8.615   7.583  48.163  1.00  0.00     0.012 C 
ATOM     20  C   UNL     1       7.502  10.906  46.501  1.00  0.00     0.001 C 
ATOM     21  C   UNL     1       7.389  10.526  49.059  1.00  0.00     0.005 C 
ATOM     22  C   UNL     1       7.063  11.504  47.910  1.00  0.00     0.003 C 
ATOM     23  C   UNL     1       6.414  11.108  45.408  1.00  0.00     0.031 C 
ATOM     24  C   UNL     1       5.581  12.089  47.973  1.00  0.00    -0.008 C 
ATOM     25  C   UNL     1       5.052  10.776  45.928  1.00  0.00    -0.027 C 
ATOM     26  C   UNL     1       4.644  11.241  47.117  1.00  0.00    -0.065 C 
ATOM     27  C   UNL     1       5.003  12.129  49.428  1.00  0.00     0.014 C 
ATOM     28  C   UNL     1       5.592  13.553  47.445  1.00  0.00     0.016 C 
ATOM     29  C   UNL     1       3.281  10.845  47.646  1.00  0.00     0.063 C 
ATOM     30  C   UNL     1       3.537  12.604  49.502  1.00  0.00     0.033 C 
ATOM     31  C   UNL     1       2.632  12.027  48.385  1.00  0.00     0.118 C 
BRANCH  31  32
ATOM     32  O   UNL     1       1.405  11.625  48.939  1.00  0.00    -0.393 OA
ATOM     33  H   UNL     1       1.519  11.626  49.925  1.00  0.00     0.210 HD
ENDBRANCH  31  32
ENDBRANCH  10  12
ENDBRANCH   8  10
ENDBRANCH   1   8
TORSDOF 8
ENDMDL
MODEL 7
REMARK VINA RESULT:    -6.441      3.642      6.820
REMARK INTER + INTRA:          -9.528
REMARK INTER:                  -9.392
REMARK INTRA:                  -0.137
REMARK UNBOUND:                -0.452
REMARK SMILES C[C@@H](CO)CCC(=O)[C@@H](C)[C@H]1C(=O)C[C@@H]2[C@H]3CC=C4C[C@@H](O)CC[C@@]4(C)[C@H]3CC[C@@]21C
REMARK SMILES IDX 6 1 5 2 2 3 1 4 3 5 4 6 7 8 8 9 9 10 10 11 11 12 12 13 30 14
REMARK SMILES IDX 13 15 14 16 15 17 29 18 31 19 16 20 28 21 27 22 17 23 25 24
REMARK SMILES IDX 18 25 19 26 24 27 26 28 20 29 23 30 21 31 22 32
REMARK H PARENT 4 7 22 33
REMARK Flexibility Score: inf
ROOT
ATOM      1  C   UNL     1       8.872   3.591  54.580  1.00  0.00     0.076 C 
ENDROOT
BRANCH   1   2
ATOM      2  C   UNL     1       7.802   3.645  53.480  1.00  0.00     0.013 C 
BRANCH   2   3
ATOM      3  C   UNL     1       6.907   4.905  53.571  1.00  0.00     0.012 C 
ATOM      4  C   UNL     1       7.673   6.173  53.159  1.00  0.00     0.010 C 
BRANCH   3   5
ATOM      5  C   UNL     1       5.656   4.742  52.690  1.00  0.00     0.159 C 
BRANCH   5   6
ATOM      6  O   UNL     1       4.961   3.579  53.049  1.00  0.00    -0.396 OA
ATOM      7  H   UNL     1       4.505   3.267  52.224  1.00  0.00     0.210 HD
ENDBRANCH   5   6
ENDBRANCH   3   5
ENDBRANCH   2   3
ENDBRANCH   1   2
BRANCH   1   8
ATOM      8  C   UNL     1      10.106   2.881  54.083  1.00  0.00     0.136 C 
ATOM      9  O   UNL     1      10.048   1.682  53.849  1.00  0.00    -0.299 OA
BRANCH   8  10
ATOM     10  C   UNL     1      11.412   3.628  53.877  1.00  0.00     0.064 C 
ATOM     11  C   UNL     1      12.345   2.715  53.064  1.00  0.00     0.017 C 
BRANCH  10  12
ATOM     12  C   UNL     1      11.179   5.012  53.177  1.00  0.00     0.072 C 
ATOM     13  C   UNL     1      12.091   6.097  53.660  1.00  0.00     0.137 C 
ATOM     14  C   UNL     1      11.381   5.079  51.621  1.00  0.00    -0.019 C 
ATOM     15  O   UNL     1      12.406   6.254  54.829  1.00  0.00    -0.299 OA
ATOM     16  C   UNL     1      12.505   7.049  52.608  1.00  0.00     0.080 C 
ATOM     17  C   UNL     1      11.782   6.572  51.327  1.00  0.00     0.007 C 
ATOM     18  C   UNL     1      10.094   4.654  50.866  1.00  0.00     0.008 C 
ATOM     19  C   UNL     1      12.567   4.183  51.151  1.00  0.00     0.012 C 
ATOM     20  C   UNL     1      10.586   7.511  50.925  1.00  0.00     0.001 C 
ATOM     21  C   UNL     1       9.937   5.411  49.556  1.00  0.00     0.005 C 
ATOM     22  C   UNL     1       9.615   6.898  49.822  1.00  0.00     0.003 C 
ATOM     23  C   UNL     1      11.124   8.914  50.525  1.00  0.00     0.031 C 
ATOM     24  C   UNL     1       9.459   7.763  48.491  1.00  0.00    -0.008 C 
ATOM     25  C   UNL     1      11.563   8.943  49.097  1.00  0.00    -0.027 C 
ATOM     26  C   UNL     1      10.789   8.424  48.135  1.00  0.00    -0.065 C 
ATOM     27  C   UNL     1       8.997   6.911  47.261  1.00  0.00     0.014 C 
ATOM     28  C   UNL     1       8.376   8.857  48.723  1.00  0.00     0.016 C 
ATOM     29  C   UNL     1      11.281   8.415  46.702  1.00  0.00     0.063 C 
ATOM     30  C   UNL     1       8.931   7.709  45.942  1.00  0.00     0.033 C 
ATOM     31  C   UNL     1      10.115   8.684  45.736  1.00  0.00     0.118 C 
BRANCH  31  32
ATOM     32  O   UNL     1      10.569   8.596  44.409  1.00  0.00    -0.393 OA
ATOM     33  H   UNL     1      11.267   9.292  44.296  1.00  0.00     0.210 HD
ENDBRANCH  31  32
ENDBRANCH  10  12
ENDBRANCH   8  10
ENDBRANCH   1   8
TORSDOF 8
ENDMDL
MODEL 8
REMARK VINA RESULT:    -6.439      1.948      2.877
REMARK INTER + INTRA:          -9.526
REMARK INTER:                  -9.294
REMARK INTRA:                  -0.232
REMARK UNBOUND:                -0.452
REMARK SMILES C[C@@H](CO)CCC(=O)[C@@H](C)[C@H]1C(=O)C[C@@H]2[C@H]3CC=C4C[C@@H](O)CC[C@@]4(C)[C@H]3CC[C@@]21C
REMARK SMILES IDX 6 1 5 2 2 3 1 4 3 5 4 6 7 8 8 9 9 10 10 11 11 12 12 13 30 14
REMARK SMILES IDX 13 15 14 16 15 17 29 18 31 19 16 20 28 21 27 22 17 23 25 24
REMARK SMILES IDX 18 25 19 26 24 27 26 28 20 29 23 30 21 31 22 32
REMARK H PARENT 4 7 22 33
REMARK Flexibility Score: inf
ROOT
ATOM      1  C   UNL     1      13.890   7.356  47.762  1.00  0.00     0.076 C 
ENDROOT
BRANCH   1   2
ATOM      2  C   UNL     1      13.246   5.963  47.729  1.00  0.00     0.013 C 
BRANCH   2   3
ATOM      3  C   UNL     1      13.993   4.933  48.609  1.00  0.00     0.012 C 
ATOM      4  C   UNL     1      13.310   4.756  49.975  1.00  0.00     0.010 C 
BRANCH   3   5
ATOM      5  C   UNL     1      14.082   3.574  47.891  1.00  0.00     0.159 C 
BRANCH   5   6
ATOM      6  O   UNL     1      13.386   3.624  46.676  1.00  0.00    -0.396 OA
ATOM      7  H   UNL     1      13.805   2.940  46.092  1.00  0.00     0.210 HD
ENDBRANCH   5   6
ENDBRANCH   3   5
ENDBRANCH   2   3
ENDBRANCH   1   2
BRANCH   1   8
ATOM      8  C   UNL     1      12.848   8.416  48.015  1.00  0.00     0.136 C 
ATOM      9  O   UNL     1      13.159   9.593  47.903  1.00  0.00    -0.299 OA
BRANCH   8  10
ATOM     10  C   UNL     1      11.429   8.043  48.409  1.00  0.00     0.064 C 
ATOM     11  C   UNL     1      11.331   8.150  49.941  1.00  0.00     0.017 C 
BRANCH  10  12
ATOM     12  C   UNL     1      10.373   8.946  47.683  1.00  0.00     0.072 C 
ATOM     13  C   UNL     1      10.238   8.664  46.219  1.00  0.00     0.137 C 
ATOM     14  C   UNL     1       8.885   8.858  48.176  1.00  0.00    -0.019 C 
ATOM     15  O   UNL     1      11.180   8.424  45.480  1.00  0.00    -0.299 OA
ATOM     16  C   UNL     1       8.861   8.805  45.703  1.00  0.00     0.080 C 
ATOM     17  C   UNL     1       8.018   9.247  46.921  1.00  0.00     0.007 C 
ATOM     18  C   UNL     1       8.633   9.801  49.382  1.00  0.00     0.008 C 
ATOM     19  C   UNL     1       8.491   7.404  48.573  1.00  0.00     0.012 C 
ATOM     20  C   UNL     1       7.604  10.763  46.848  1.00  0.00     0.001 C 
ATOM     21  C   UNL     1       7.216  10.353  49.375  1.00  0.00     0.005 C 
ATOM     22  C   UNL     1       7.026  11.350  48.211  1.00  0.00     0.003 C 
ATOM     23  C   UNL     1       6.640  10.994  45.649  1.00  0.00     0.031 C 
ATOM     24  C   UNL     1       5.554  11.956  48.125  1.00  0.00    -0.008 C 
ATOM     25  C   UNL     1       5.227  10.675  46.018  1.00  0.00    -0.027 C 
ATOM     26  C   UNL     1       4.701  11.132  47.163  1.00  0.00    -0.065 C 
ATOM     27  C   UNL     1       4.826  11.987  49.511  1.00  0.00     0.014 C 
ATOM     28  C   UNL     1       5.640  13.426  47.620  1.00  0.00     0.016 C 
ATOM     29  C   UNL     1       3.285  10.749  47.540  1.00  0.00     0.063 C 
ATOM     30  C   UNL     1       3.366  12.481  49.435  1.00  0.00     0.033 C 
ATOM     31  C   UNL     1       2.577  11.931  48.222  1.00  0.00     0.118 C 
BRANCH  31  32
ATOM     32  O   UNL     1       1.293  11.540  48.637  1.00  0.00    -0.393 OA
ATOM     33  H   UNL     1       0.847  11.133  47.849  1.00  0.00     0.210 HD
ENDBRANCH  31  32
ENDBRANCH  10  12
ENDBRANCH   8  10
ENDBRANCH   1   8
TORSDOF 8
ENDMDL
MODEL 9
REMARK VINA RESULT:    -6.392      2.454      7.364
REMARK INTER + INTRA:          -9.459
REMARK INTER:                  -8.892
REMARK INTRA:                  -0.567
REMARK UNBOUND:                -0.452
REMARK SMILES C[C@@H](CO)CCC(=O)[C@@H](C)[C@H]1C(=O)C[C@@H]2[C@H]3CC=C4C[C@@H](O)CC[C@@]4(C)[C@H]3CC[C@@]21C
REMARK SMILES IDX 6 1 5 2 2 3 1 4 3 5 4 6 7 8 8 9 9 10 10 11 11 12 12 13 30 14
REMARK SMILES IDX 13 15 14 16 15 17 29 18 31 19 16 20 28 21 27 22 17 23 25 24
REMARK SMILES IDX 18 25 19 26 24 27 26 28 20 29 23 30 21 31 22 32
REMARK H PARENT 4 7 22 33
REMARK Flexibility Score: inf
ROOT
ATOM      1  C   UNL     1       7.041  12.715  48.212  1.00  0.00     0.076 C 
ENDROOT
BRANCH   1   2
ATOM      2  C   UNL     1       5.521  12.719  47.998  1.00  0.00     0.013 C 
BRANCH   2   3
ATOM      3  C   UNL     1       4.899  11.303  48.063  1.00  0.00     0.012 C 
ATOM      4  C   UNL     1       3.933  11.163  49.251  1.00  0.00     0.010 C 
BRANCH   3   5
ATOM      5  C   UNL     1       4.162  10.978  46.751  1.00  0.00     0.159 C 
BRANCH   5   6
ATOM      6  O   UNL     1       5.060  10.458  45.809  1.00  0.00    -0.396 OA
ATOM      7  H   UNL     1       5.792  11.124  45.732  1.00  0.00     0.210 HD
ENDBRANCH   5   6
ENDBRANCH   3   5
ENDBRANCH   2   3
ENDBRANCH   1   2
BRANCH   1   8
ATOM      8  C   UNL     1       7.754  12.353  46.933  1.00  0.00     0.136 C 
ATOM      9  O   UNL     1       7.283  12.722  45.866  1.00  0.00    -0.299 OA
BRANCH   8  10
ATOM     10  C   UNL     1       9.036  11.540  46.953  1.00  0.00     0.064 C 
ATOM     11  C   UNL     1      10.002  12.224  47.936  1.00  0.00     0.017 C 
BRANCH  10  12
ATOM     12  C   UNL     1       8.764  10.043  47.335  1.00  0.00     0.072 C 
ATOM     13  C   UNL     1       8.403   9.177  46.169  1.00  0.00     0.137 C 
ATOM     14  C   UNL     1       9.940   9.239  47.994  1.00  0.00    -0.019 C 
ATOM     15  O   UNL     1       7.672   9.529  45.256  1.00  0.00    -0.299 OA
ATOM     16  C   UNL     1       8.925   7.797  46.260  1.00  0.00     0.080 C 
ATOM     17  C   UNL     1       9.667   7.737  47.615  1.00  0.00     0.007 C 
ATOM     18  C   UNL     1       9.984   9.461  49.529  1.00  0.00     0.008 C 
ATOM     19  C   UNL     1      11.320   9.624  47.383  1.00  0.00     0.012 C 
ATOM     20  C   UNL     1       8.876   6.914  48.698  1.00  0.00     0.001 C 
ATOM     21  C   UNL     1      10.474   8.221  50.261  1.00  0.00     0.005 C 
ATOM     22  C   UNL     1       9.423   7.092  50.182  1.00  0.00     0.003 C 
ATOM     23  C   UNL     1       8.793   5.420  48.274  1.00  0.00     0.031 C 
ATOM     24  C   UNL     1       9.878   5.748  50.910  1.00  0.00    -0.008 C 
ATOM     25  C   UNL     1      10.023   4.671  48.672  1.00  0.00    -0.027 C 
ATOM     26  C   UNL     1      10.532   4.801  49.905  1.00  0.00    -0.065 C 
ATOM     27  C   UNL     1      10.897   5.998  52.072  1.00  0.00     0.014 C 
ATOM     28  C   UNL     1       8.628   5.064  51.537  1.00  0.00     0.016 C 
ATOM     29  C   UNL     1      11.810   4.075  50.267  1.00  0.00     0.063 C 
ATOM     30  C   UNL     1      11.422   4.704  52.728  1.00  0.00     0.033 C 
ATOM     31  C   UNL     1      11.746   3.575  51.720  1.00  0.00     0.118 C 
BRANCH  31  32
ATOM     32  O   UNL     1      12.967   2.972  52.068  1.00  0.00    -0.393 OA
ATOM     33  H   UNL     1      13.539   3.683  52.459  1.00  0.00     0.210 HD
ENDBRANCH  31  32
ENDBRANCH  10  12
ENDBRANCH   8  10
ENDBRANCH   1   8
TORSDOF 8
ENDMDL
