MODEL 1
REMARK VINA RESULT:    -5.347      0.000      0.000
REMARK INTER + INTRA:          -8.152
REMARK INTER:                  -7.691
REMARK INTRA:                  -0.461
REMARK UNBOUND:                -0.461
REMARK SMILES O=C(CO)[C@H](O)[C@H](O)[C@@H](O)CO
REMARK SMILES IDX 7 1 9 2 11 3 12 4 10 6 5 8 2 9 1 10 3 11 4 12 6 14 8 16
REMARK H PARENT 12 5 10 7 4 13 6 15 8 17
REMARK Flexibility Score: inf
ROOT
ATOM      1  C   UNL     1      53.199   5.679 136.899  1.00  0.00     0.181 C 
ENDROOT
BRANCH   1   2
ATOM      2  C   UNL     1      53.430   4.326 137.621  1.00  0.00     0.171 C 
BRANCH   2   3
ATOM      3  C   UNL     1      52.108   3.680 138.059  1.00  0.00     0.190 C 
BRANCH   3   4
ATOM      4  O   UNL     1      52.344   2.702 139.034  1.00  0.00    -0.394 OA
ATOM      5  H   UNL     1      52.570   3.193 139.867  1.00  0.00     0.210 HD
ENDBRANCH   3   4
ENDBRANCH   2   3
BRANCH   2   6
ATOM      6  O   UNL     1      54.234   4.514 138.759  1.00  0.00    -0.388 OA
ATOM      7  H   UNL     1      53.798   4.031 139.509  1.00  0.00     0.211 HD
ENDBRANCH   2   6
ENDBRANCH   1   2
BRANCH   1   8
ATOM      8  C   UNL     1      52.453   6.695 137.802  1.00  0.00     0.214 C 
BRANCH   8   9
ATOM      9  C   UNL     1      52.387   8.064 137.149  1.00  0.00     0.189 C 
ATOM     10  O   UNL     1      52.194   8.135 135.944  1.00  0.00    -0.294 OA
BRANCH   9  11
ATOM     11  C   UNL     1      52.538   9.330 137.954  1.00  0.00     0.234 C 
BRANCH  11  12
ATOM     12  O   UNL     1      53.756   9.332 138.648  1.00  0.00    -0.388 OA
ATOM     13  H   UNL     1      53.525   9.431 139.607  1.00  0.00     0.211 HD
ENDBRANCH  11  12
ENDBRANCH   9  11
ENDBRANCH   8   9
BRANCH   8  14
ATOM     14  O   UNL     1      53.034   6.773 139.082  1.00  0.00    -0.382 OA
ATOM     15  H   UNL     1      52.795   7.654 139.474  1.00  0.00     0.211 HD
ENDBRANCH   8  14
ENDBRANCH   1   8
BRANCH   1  16
ATOM     16  O   UNL     1      52.449   5.465 135.727  1.00  0.00    -0.387 OA
ATOM     17  H   UNL     1      51.830   4.710 135.906  1.00  0.00     0.211 HD
ENDBRANCH   1  16
TORSDOF 10
ENDMDL
MODEL 2
REMARK VINA RESULT:    -4.877      1.334      4.363
REMARK INTER + INTRA:          -7.476
REMARK INTER:                  -6.831
REMARK INTRA:                  -0.645
REMARK UNBOUND:                -0.461
REMARK SMILES O=C(CO)[C@H](O)[C@H](O)[C@@H](O)CO
REMARK SMILES IDX 7 1 9 2 11 3 12 4 10 6 5 8 2 9 1 10 3 11 4 12 6 14 8 16
REMARK H PARENT 12 5 10 7 4 13 6 15 8 17
REMARK Flexibility Score: inf
ROOT
ATOM      1  C   UNL     1      53.613   5.868 136.759  1.00  0.00     0.181 C 
ENDROOT
BRANCH   1   2
ATOM      2  C   UNL     1      52.621   6.911 137.337  1.00  0.00     0.171 C 
BRANCH   2   3
ATOM      3  C   UNL     1      51.976   7.759 136.233  1.00  0.00     0.190 C 
BRANCH   3   4
ATOM      4  O   UNL     1      52.602   7.514 135.004  1.00  0.00    -0.394 OA
ATOM      5  H   UNL     1      52.008   7.902 134.310  1.00  0.00     0.210 HD
ENDBRANCH   3   4
ENDBRANCH   2   3
BRANCH   2   6
ATOM      6  O   UNL     1      53.286   7.770 138.230  1.00  0.00    -0.388 OA
ATOM      7  H   UNL     1      52.847   8.658 138.163  1.00  0.00     0.211 HD
ENDBRANCH   2   6
ENDBRANCH   1   2
BRANCH   1   8
ATOM      8  C   UNL     1      53.829   4.678 137.728  1.00  0.00     0.214 C 
BRANCH   8   9
ATOM      9  C   UNL     1      52.681   3.688 137.645  1.00  0.00     0.189 C 
ATOM     10  O   UNL     1      51.875   3.793 136.732  1.00  0.00    -0.294 OA
BRANCH   9  11
ATOM     11  C   UNL     1      52.524   2.575 138.650  1.00  0.00     0.234 C 
BRANCH  11  12
ATOM     12  O   UNL     1      53.640   2.512 139.496  1.00  0.00    -0.388 OA
ATOM     13  H   UNL     1      53.595   1.628 139.945  1.00  0.00     0.211 HD
ENDBRANCH  11  12
ENDBRANCH   9  11
ENDBRANCH   8   9
BRANCH   8  14
ATOM     14  O   UNL     1      54.022   5.118 139.052  1.00  0.00    -0.382 OA
ATOM     15  H   UNL     1      54.497   4.400 139.547  1.00  0.00     0.211 HD
ENDBRANCH   8  14
ENDBRANCH   1   8
BRANCH   1  16
ATOM     16  O   UNL     1      54.852   6.488 136.504  1.00  0.00    -0.387 OA
ATOM     17  H   UNL     1      55.562   5.848 136.771  1.00  0.00     0.211 HD
ENDBRANCH   1  16
TORSDOF 10
ENDMDL
MODEL 3
REMARK VINA RESULT:    -4.651     21.016     21.989
REMARK INTER + INTRA:          -7.152
REMARK INTER:                  -6.511
REMARK INTRA:                  -0.641
REMARK UNBOUND:                -0.461
REMARK SMILES O=C(CO)[C@H](O)[C@H](O)[C@@H](O)CO
REMARK SMILES IDX 7 1 9 2 11 3 12 4 10 6 5 8 2 9 1 10 3 11 4 12 6 14 8 16
REMARK H PARENT 12 5 10 7 4 13 6 15 8 17
REMARK Flexibility Score: inf
ROOT
ATOM      1  C   UNL     1      70.483   4.164 123.595  1.00  0.00     0.181 C 
ENDROOT
BRANCH   1   2
ATOM      2  C   UNL     1      71.853   4.764 124.009  1.00  0.00     0.171 C 
BRANCH   2   3
ATOM      3  C   UNL     1      71.972   4.916 125.531  1.00  0.00     0.190 C 
BRANCH   3   4
ATOM      4  O   UNL     1      72.023   3.657 126.143  1.00  0.00    -0.394 OA
ATOM      5  H   UNL     1      71.195   3.580 126.685  1.00  0.00     0.210 HD
ENDBRANCH   3   4
ENDBRANCH   2   3
BRANCH   2   6
ATOM      6  O   UNL     1      72.027   6.027 123.418  1.00  0.00    -0.388 OA
ATOM      7  H   UNL     1      71.186   6.244 122.937  1.00  0.00     0.211 HD
ENDBRANCH   2   6
ENDBRANCH   1   2
BRANCH   1   8
ATOM      8  C   UNL     1      69.303   5.077 124.014  1.00  0.00     0.214 C 
BRANCH   8   9
ATOM      9  C   UNL     1      67.970   4.381 123.807  1.00  0.00     0.189 C 
ATOM     10  O   UNL     1      67.963   3.220 123.423  1.00  0.00    -0.294 OA
BRANCH   9  11
ATOM     11  C   UNL     1      66.663   5.081 124.078  1.00  0.00     0.234 C 
BRANCH  11  12
ATOM     12  O   UNL     1      66.351   5.967 123.037  1.00  0.00    -0.388 OA
ATOM     13  H   UNL     1      67.219   6.314 122.703  1.00  0.00     0.211 HD
ENDBRANCH  11  12
ENDBRANCH   9  11
ENDBRANCH   8   9
BRANCH   8  14
ATOM     14  O   UNL     1      69.338   6.312 123.337  1.00  0.00    -0.382 OA
ATOM     15  H   UNL     1      70.074   6.275 122.670  1.00  0.00     0.211 HD
ENDBRANCH   8  14
ENDBRANCH   1   8
BRANCH   1  16
ATOM     16  O   UNL     1      70.323   2.899 124.192  1.00  0.00    -0.387 OA
ATOM     17  H   UNL     1      70.314   2.226 123.463  1.00  0.00     0.211 HD
ENDBRANCH   1  16
TORSDOF 10
ENDMDL
MODEL 4
REMARK VINA RESULT:    -4.463     20.837     21.985
REMARK INTER + INTRA:          -6.881
REMARK INTER:                  -6.046
REMARK INTRA:                  -0.835
REMARK UNBOUND:                -0.461
REMARK SMILES O=C(CO)[C@H](O)[C@H](O)[C@@H](O)CO
REMARK SMILES IDX 7 1 9 2 11 3 12 4 10 6 5 8 2 9 1 10 3 11 4 12 6 14 8 16
REMARK H PARENT 12 5 10 7 4 13 6 15 8 17
REMARK Flexibility Score: inf
ROOT
ATOM      1  C   UNL     1      68.569   3.964 123.961  1.00  0.00     0.181 C 
ENDROOT
BRANCH   1   2
ATOM      2  C   UNL     1      68.039   5.407 124.171  1.00  0.00     0.171 C 
BRANCH   2   3
ATOM      3  C   UNL     1      66.528   5.502 123.922  1.00  0.00     0.190 C 
BRANCH   3   4
ATOM      4  O   UNL     1      66.276   6.112 122.686  1.00  0.00    -0.394 OA
ATOM      5  H   UNL     1      66.050   5.377 122.057  1.00  0.00     0.210 HD
ENDBRANCH   3   4
ENDBRANCH   2   3
BRANCH   2   6
ATOM      6  O   UNL     1      68.693   6.295 123.299  1.00  0.00    -0.388 OA
ATOM      7  H   UNL     1      69.370   5.769 122.798  1.00  0.00     0.211 HD
ENDBRANCH   2   6
ENDBRANCH   1   2
BRANCH   1   8
ATOM      8  C   UNL     1      70.100   3.941 123.725  1.00  0.00     0.214 C 
BRANCH   8   9
ATOM      9  C   UNL     1      70.639   2.522 123.759  1.00  0.00     0.189 C 
ATOM     10  O   UNL     1      70.042   1.648 123.146  1.00  0.00    -0.294 OA
BRANCH   9  11
ATOM     11  C   UNL     1      71.895   2.172 124.517  1.00  0.00     0.234 C 
BRANCH  11  12
ATOM     12  O   UNL     1      71.805   2.602 125.848  1.00  0.00    -0.388 OA
ATOM     13  H   UNL     1      72.202   3.511 125.871  1.00  0.00     0.211 HD
ENDBRANCH  11  12
ENDBRANCH   9  11
ENDBRANCH   8   9
BRANCH   8  14
ATOM     14  O   UNL     1      70.779   4.761 124.647  1.00  0.00    -0.382 OA
ATOM     15  H   UNL     1      70.517   4.475 125.562  1.00  0.00     0.211 HD
ENDBRANCH   8  14
ENDBRANCH   1   8
BRANCH   1  16
ATOM     16  O   UNL     1      67.922   3.382 122.854  1.00  0.00    -0.387 OA
ATOM     17  H   UNL     1      67.113   2.918 123.195  1.00  0.00     0.211 HD
ENDBRANCH   1  16
TORSDOF 10
ENDMDL
MODEL 5
REMARK VINA RESULT:    -4.344     12.760     14.125
REMARK INTER + INTRA:          -6.710
REMARK INTER:                  -6.111
REMARK INTRA:                  -0.599
REMARK UNBOUND:                -0.461
REMARK SMILES O=C(CO)[C@H](O)[C@H](O)[C@@H](O)CO
REMARK SMILES IDX 7 1 9 2 11 3 12 4 10 6 5 8 2 9 1 10 3 11 4 12 6 14 8 16
REMARK H PARENT 12 5 10 7 4 13 6 15 8 17
REMARK Flexibility Score: inf
ROOT
ATOM      1  C   UNL     1      53.029   4.433 124.382  1.00  0.00     0.181 C 
ENDROOT
BRANCH   1   2
ATOM      2  C   UNL     1      52.982   2.995 124.962  1.00  0.00     0.171 C 
BRANCH   2   3
ATOM      3  C   UNL     1      52.978   2.998 126.496  1.00  0.00     0.190 C 
BRANCH   3   4
ATOM      4  O   UNL     1      53.529   1.807 126.987  1.00  0.00    -0.394 OA
ATOM      5  H   UNL     1      54.479   2.007 127.192  1.00  0.00     0.210 HD
ENDBRANCH   3   4
ENDBRANCH   2   3
BRANCH   2   6
ATOM      6  O   UNL     1      54.094   2.257 124.519  1.00  0.00    -0.388 OA
ATOM      7  H   UNL     1      53.997   1.337 124.879  1.00  0.00     0.211 HD
ENDBRANCH   2   6
ENDBRANCH   1   2
BRANCH   1   8
ATOM      8  C   UNL     1      53.371   4.434 122.870  1.00  0.00     0.214 C 
BRANCH   8   9
ATOM      9  C   UNL     1      53.281   5.834 122.288  1.00  0.00     0.189 C 
ATOM     10  O   UNL     1      52.181   6.353 122.165  1.00  0.00    -0.294 OA
BRANCH   9  11
ATOM     11  C   UNL     1      54.513   6.598 121.876  1.00  0.00     0.234 C 
BRANCH  11  12
ATOM     12  O   UNL     1      55.212   7.055 123.002  1.00  0.00    -0.388 OA
ATOM     13  H   UNL     1      56.005   6.466 123.091  1.00  0.00     0.211 HD
ENDBRANCH  11  12
ENDBRANCH   9  11
ENDBRANCH   8   9
BRANCH   8  14
ATOM     14  O   UNL     1      52.555   3.536 122.154  1.00  0.00    -0.382 OA
ATOM     15  H   UNL     1      52.525   2.681 122.659  1.00  0.00     0.211 HD
ENDBRANCH   8  14
ENDBRANCH   1   8
BRANCH   1  16
ATOM     16  O   UNL     1      53.994   5.189 125.075  1.00  0.00    -0.387 OA
ATOM     17  H   UNL     1      54.136   6.027 124.562  1.00  0.00     0.211 HD
ENDBRANCH   1  16
TORSDOF 10
ENDMDL
MODEL 6
REMARK VINA RESULT:    -4.231      1.053      4.591
REMARK INTER + INTRA:          -6.547
REMARK INTER:                  -6.431
REMARK INTRA:                  -0.116
REMARK UNBOUND:                -0.461
REMARK SMILES O=C(CO)[C@H](O)[C@H](O)[C@@H](O)CO
REMARK SMILES IDX 7 1 9 2 11 3 12 4 10 6 5 8 2 9 1 10 3 11 4 12 6 14 8 16
REMARK H PARENT 12 5 10 7 4 13 6 15 8 17
REMARK Flexibility Score: inf
ROOT
ATOM      1  C   UNL     1      52.439   5.975 136.679  1.00  0.00     0.181 C 
ENDROOT
BRANCH   1   2
ATOM      2  C   UNL     1      52.745   7.413 136.183  1.00  0.00     0.171 C 
BRANCH   2   3
ATOM      3  C   UNL     1      51.884   8.460 136.903  1.00  0.00     0.190 C 
BRANCH   3   4
ATOM      4  O   UNL     1      52.626   9.089 137.911  1.00  0.00    -0.394 OA
ATOM      5  H   UNL     1      53.053   8.361 138.433  1.00  0.00     0.210 HD
ENDBRANCH   3   4
ENDBRANCH   2   3
BRANCH   2   6
ATOM      6  O   UNL     1      52.505   7.511 134.801  1.00  0.00    -0.388 OA
ATOM      7  H   UNL     1      52.789   8.419 134.518  1.00  0.00     0.211 HD
ENDBRANCH   2   6
ENDBRANCH   1   2
BRANCH   1   8
ATOM      8  C   UNL     1      53.375   5.554 137.840  1.00  0.00     0.214 C 
BRANCH   8   9
ATOM      9  C   UNL     1      53.289   4.061 138.100  1.00  0.00     0.189 C 
ATOM     10  O   UNL     1      54.319   3.439 138.317  1.00  0.00    -0.294 OA
BRANCH   9  11
ATOM     11  C   UNL     1      51.967   3.336 138.111  1.00  0.00     0.234 C 
BRANCH  11  12
ATOM     12  O   UNL     1      52.141   1.986 137.777  1.00  0.00    -0.388 OA
ATOM     13  H   UNL     1      51.488   1.481 138.327  1.00  0.00     0.211 HD
ENDBRANCH  11  12
ENDBRANCH   9  11
ENDBRANCH   8   9
BRANCH   8  14
ATOM     14  O   UNL     1      53.108   6.287 139.012  1.00  0.00    -0.382 OA
ATOM     15  H   UNL     1      52.276   6.810 138.864  1.00  0.00     0.211 HD
ENDBRANCH   8  14
ENDBRANCH   1   8
BRANCH   1  16
ATOM     16  O   UNL     1      52.588   5.068 135.612  1.00  0.00    -0.387 OA
ATOM     17  H   UNL     1      53.561   4.977 135.437  1.00  0.00     0.211 HD
ENDBRANCH   1  16
TORSDOF 10
ENDMDL
MODEL 7
REMARK VINA RESULT:    -4.213     20.751     21.859
REMARK INTER + INTRA:          -6.521
REMARK INTER:                  -6.365
REMARK INTRA:                  -0.157
REMARK UNBOUND:                -0.461
REMARK SMILES O=C(CO)[C@H](O)[C@H](O)[C@@H](O)CO
REMARK SMILES IDX 7 1 9 2 11 3 12 4 10 6 5 8 2 9 1 10 3 11 4 12 6 14 8 16
REMARK H PARENT 12 5 10 7 4 13 6 15 8 17
REMARK Flexibility Score: inf
ROOT
ATOM      1  C   UNL     1      68.858   4.265 123.762  1.00  0.00     0.181 C 
ENDROOT
BRANCH   1   2
ATOM      2  C   UNL     1      67.350   4.067 123.457  1.00  0.00     0.171 C 
BRANCH   2   3
ATOM      3  C   UNL     1      66.512   5.267 123.918  1.00  0.00     0.190 C 
BRANCH   3   4
ATOM      4  O   UNL     1      66.300   6.149 122.851  1.00  0.00    -0.394 OA
ATOM      5  H   UNL     1      67.140   6.150 122.323  1.00  0.00     0.210 HD
ENDBRANCH   3   4
ENDBRANCH   2   3
BRANCH   2   6
ATOM      6  O   UNL     1      66.873   2.913 124.103  1.00  0.00    -0.388 OA
ATOM      7  H   UNL     1      67.507   2.178 123.896  1.00  0.00     0.211 HD
ENDBRANCH   2   6
ENDBRANCH   1   2
BRANCH   1   8
ATOM      8  C   UNL     1      69.623   2.917 123.792  1.00  0.00     0.214 C 
BRANCH   8   9
ATOM      9  C   UNL     1      71.073   3.118 124.196  1.00  0.00     0.189 C 
ATOM     10  O   UNL     1      71.711   2.157 124.602  1.00  0.00    -0.294 OA
BRANCH   9  11
ATOM     11  C   UNL     1      71.742   4.465 124.093  1.00  0.00     0.234 C 
BRANCH  11  12
ATOM     12  O   UNL     1      72.096   4.939 125.363  1.00  0.00    -0.388 OA
ATOM     13  H   UNL     1      71.497   4.478 126.006  1.00  0.00     0.211 HD
ENDBRANCH  11  12
ENDBRANCH   9  11
ENDBRANCH   8   9
BRANCH   8  14
ATOM     14  O   UNL     1      69.531   2.243 122.559  1.00  0.00    -0.382 OA
ATOM     15  H   UNL     1      69.158   2.876 121.890  1.00  0.00     0.211 HD
ENDBRANCH   8  14
ENDBRANCH   1   8
BRANCH   1  16
ATOM     16  O   UNL     1      69.007   4.908 125.006  1.00  0.00    -0.387 OA
ATOM     17  H   UNL     1      68.168   4.762 125.516  1.00  0.00     0.211 HD
ENDBRANCH   1  16
TORSDOF 10
ENDMDL
MODEL 8
REMARK VINA RESULT:    -4.185     20.550     21.580
REMARK INTER + INTRA:          -6.482
REMARK INTER:                  -6.077
REMARK INTRA:                  -0.405
REMARK UNBOUND:                -0.461
REMARK SMILES O=C(CO)[C@H](O)[C@H](O)[C@@H](O)CO
REMARK SMILES IDX 7 1 9 2 11 3 12 4 10 6 5 8 2 9 1 10 3 11 4 12 6 14 8 16
REMARK H PARENT 12 5 10 7 4 13 6 15 8 17
REMARK Flexibility Score: inf
ROOT
ATOM      1  C   UNL     1      68.516   5.680 124.321  1.00  0.00     0.181 C 
ENDROOT
BRANCH   1   2
ATOM      2  C   UNL     1      67.119   5.145 123.910  1.00  0.00     0.171 C 
BRANCH   2   3
ATOM      3  C   UNL     1      67.206   3.751 123.276  1.00  0.00     0.190 C 
BRANCH   3   4
ATOM      4  O   UNL     1      66.776   2.776 124.186  1.00  0.00    -0.394 OA
ATOM      5  H   UNL     1      67.242   2.972 125.040  1.00  0.00     0.210 HD
ENDBRANCH   3   4
ENDBRANCH   2   3
BRANCH   2   6
ATOM      6  O   UNL     1      66.518   6.020 122.987  1.00  0.00    -0.388 OA
ATOM      7  H   UNL     1      66.147   6.781 123.505  1.00  0.00     0.211 HD
ENDBRANCH   2   6
ENDBRANCH   1   2
BRANCH   1   8
ATOM      8  C   UNL     1      69.618   5.244 123.321  1.00  0.00     0.214 C 
BRANCH   8   9
ATOM      9  C   UNL     1      70.615   4.308 123.978  1.00  0.00     0.189 C 
ATOM     10  O   UNL     1      70.428   3.101 123.909  1.00  0.00    -0.294 OA
BRANCH   9  11
ATOM     11  C   UNL     1      71.834   4.830 124.697  1.00  0.00     0.234 C 
BRANCH  11  12
ATOM     12  O   UNL     1      71.830   4.421 126.037  1.00  0.00    -0.388 OA
ATOM     13  H   UNL     1      70.880   4.426 126.324  1.00  0.00     0.211 HD
ENDBRANCH  11  12
ENDBRANCH   9  11
ENDBRANCH   8   9
BRANCH   8  14
ATOM     14  O   UNL     1      70.268   6.356 122.751  1.00  0.00    -0.382 OA
ATOM     15  H   UNL     1      70.619   6.918 123.491  1.00  0.00     0.211 HD
ENDBRANCH   8  14
ENDBRANCH   1   8
BRANCH   1  16
ATOM     16  O   UNL     1      68.843   5.203 125.605  1.00  0.00    -0.387 OA
ATOM     17  H   UNL     1      68.017   5.245 126.154  1.00  0.00     0.211 HD
ENDBRANCH   1  16
TORSDOF 10
ENDMDL
MODEL 9
REMARK VINA RESULT:    -4.106      1.029      4.462
REMARK INTER + INTRA:          -6.367
REMARK INTER:                  -6.426
REMARK INTRA:                   0.059
REMARK UNBOUND:                -0.461
REMARK SMILES O=C(CO)[C@H](O)[C@H](O)[C@@H](O)CO
REMARK SMILES IDX 7 1 9 2 11 3 12 4 10 6 5 8 2 9 1 10 3 11 4 12 6 14 8 16
REMARK H PARENT 12 5 10 7 4 13 6 15 8 17
REMARK Flexibility Score: inf
ROOT
ATOM      1  C   UNL     1      52.881   6.749 136.686  1.00  0.00     0.181 C 
ENDROOT
BRANCH   1   2
ATOM      2  C   UNL     1      52.420   7.454 137.989  1.00  0.00     0.171 C 
BRANCH   2   3
ATOM      3  C   UNL     1      52.700   8.963 137.952  1.00  0.00     0.190 C 
BRANCH   3   4
ATOM      4  O   UNL     1      53.812   9.271 138.745  1.00  0.00    -0.394 OA
ATOM      5  H   UNL     1      53.492   9.916 139.428  1.00  0.00     0.210 HD
ENDBRANCH   3   4
ENDBRANCH   2   3
BRANCH   2   6
ATOM      6  O   UNL     1      53.085   6.904 139.099  1.00  0.00    -0.388 OA
ATOM      7  H   UNL     1      53.434   7.662 139.637  1.00  0.00     0.211 HD
ENDBRANCH   2   6
ENDBRANCH   1   2
BRANCH   1   8
ATOM      8  C   UNL     1      52.292   5.321 136.564  1.00  0.00     0.214 C 
BRANCH   8   9
ATOM      9  C   UNL     1      52.981   4.360 137.516  1.00  0.00     0.189 C 
ATOM     10  O   UNL     1      54.187   4.465 137.692  1.00  0.00    -0.294 OA
BRANCH   9  11
ATOM     11  C   UNL     1      52.212   3.295 138.257  1.00  0.00     0.234 C 
BRANCH  11  12
ATOM     12  O   UNL     1      53.064   2.564 139.096  1.00  0.00    -0.388 OA
ATOM     13  H   UNL     1      53.947   3.014 139.051  1.00  0.00     0.211 HD
ENDBRANCH  11  12
ENDBRANCH   9  11
ENDBRANCH   8   9
BRANCH   8  14
ATOM     14  O   UNL     1      52.352   4.848 135.239  1.00  0.00    -0.382 OA
ATOM     15  H   UNL     1      52.152   3.875 135.251  1.00  0.00     0.211 HD
ENDBRANCH   8  14
ENDBRANCH   1   8
BRANCH   1  16
ATOM     16  O   UNL     1      54.287   6.673 136.664  1.00  0.00    -0.387 OA
ATOM     17  H   UNL     1      54.618   7.093 137.500  1.00  0.00     0.211 HD
ENDBRANCH   1  16
TORSDOF 10
ENDMDL
