MODEL 1
REMARK VINA RESULT:    -6.551      0.000      0.000
REMARK INTER + INTRA:         -10.927
REMARK INTER:                  -9.614
REMARK INTRA:                  -1.312
REMARK UNBOUND:                -1.312
REMARK SMILES Cc1cc2c(C(C)C)c(O)c(O)c(C=O)c2c(O)c1-c1c(C)cc2c(C(C)C)c(O)c(O)c(C=O)c2c1O
REMARK SMILES IDX 1 1 2 2 3 3 4 4 16 5 13 6 11 7 9 8 5 9 17 10 19 11 20 12
REMARK SMILES IDX 37 13 21 14 36 15 23 16 22 17 24 18 33 19 25 20 31 21 29 22
REMARK SMILES IDX 38 23 34 25 35 26 26 27 27 28 28 29 32 30 30 32 18 34 6 36
REMARK SMILES IDX 7 37 8 38 14 39 15 40 10 41 12 43
REMARK H PARENT 38 24 32 31 30 33 18 35 10 42 12 44
REMARK Flexibility Score: inf
ROOT
ATOM      1  C   UNL     1      -3.951  42.970 100.234  1.00  0.00     0.045 C 
ATOM      2  C   UNL     1      -4.673  44.288 100.368  1.00  0.00    -0.039 A 
ATOM      3  C   UNL     1      -5.516  44.502 101.459  1.00  0.00     0.013 A 
ATOM      4  C   UNL     1      -6.204  45.721 101.639  1.00  0.00    -0.006 A 
ATOM      5  C   UNL     1      -6.137  46.706 100.609  1.00  0.00     0.039 A 
ATOM      6  C   UNL     1      -7.004  47.837 100.679  1.00  0.00     0.072 A 
ATOM      7  C   UNL     1      -7.903  47.965 101.757  1.00  0.00     0.169 A 
ATOM      8  C   UNL     1      -7.882  47.048 102.814  1.00  0.00     0.162 A 
ATOM      9  C   UNL     1      -6.976  45.966 102.815  1.00  0.00     0.008 A 
ATOM     10  C   UNL     1      -5.194  46.527  99.552  1.00  0.00     0.132 A 
ATOM     11  C   UNL     1      -4.479  45.316  99.431  1.00  0.00     0.031 A 
ENDROOT
BRANCH  11  12
ATOM     12  C   UNL     1      -3.533  45.117  98.302  1.00  0.00     0.031 A 
ATOM     13  C   UNL     1      -3.963  44.472  97.122  1.00  0.00     0.132 A 
ATOM     14  C   UNL     1      -2.203  45.555  98.417  1.00  0.00    -0.039 A 
ATOM     15  C   UNL     1      -3.043  44.225  96.063  1.00  0.00     0.039 A 
ATOM     16  C   UNL     1      -1.341  45.427  97.326  1.00  0.00     0.013 A 
ATOM     17  C   UNL     1      -1.695  46.166  99.699  1.00  0.00     0.045 C 
ATOM     18  C   UNL     1      -1.761  44.844  96.112  1.00  0.00    -0.006 A 
ATOM     19  C   UNL     1      -3.373  43.413  94.942  1.00  0.00     0.072 A 
ATOM     20  C   UNL     1      -0.918  44.835  94.959  1.00  0.00     0.008 A 
ATOM     21  C   UNL     1      -2.492  43.318  93.852  1.00  0.00     0.169 A 
ATOM     22  C   UNL     1      -1.257  43.994  93.873  1.00  0.00     0.162 A 
BRANCH  13  23
ATOM     23  O   UNL     1      -5.309  44.116  96.980  1.00  0.00    -0.507 OA
ATOM     24  H   UNL     1      -6.027  44.747  96.646  1.00  0.00     0.293 HD
ENDBRANCH  13  23
BRANCH  19  25
ATOM     25  C   UNL     1      -4.566  42.536  94.905  1.00  0.00     0.264 C 
ATOM     26  O   UNL     1      -5.569  42.843  94.208  1.00  0.00    -0.298 OA
ENDBRANCH  19  25
BRANCH  20  27
ATOM     27  C   UNL     1       0.342  45.716  94.880  1.00  0.00     0.017 C 
ATOM     28  C   UNL     1      -0.028  47.201  94.833  1.00  0.00     0.012 C 
ATOM     29  C   UNL     1       1.369  45.426  95.990  1.00  0.00     0.012 C 
ENDBRANCH  20  27
BRANCH  21  30
ATOM     30  O   UNL     1      -2.878  42.534  92.757  1.00  0.00    -0.504 OA
ATOM     31  H   UNL     1      -3.832  42.292  92.533  1.00  0.00     0.293 HD
ENDBRANCH  21  30
BRANCH  22  32
ATOM     32  O   UNL     1      -0.325  43.813  92.846  1.00  0.00    -0.504 OA
ATOM     33  H   UNL     1       0.667  43.691  92.983  1.00  0.00     0.293 HD
ENDBRANCH  22  32
ENDBRANCH  11  12
BRANCH  10  34
ATOM     34  O   UNL     1      -4.946  47.562  98.644  1.00  0.00    -0.507 OA
ATOM     35  H   UNL     1      -5.670  48.138  98.232  1.00  0.00     0.293 HD
ENDBRANCH  10  34
BRANCH   9  36
ATOM     36  C   UNL     1      -6.851  45.076 104.065  1.00  0.00     0.017 C 
ATOM     37  C   UNL     1      -5.442  45.160 104.658  1.00  0.00     0.012 C 
ATOM     38  C   UNL     1      -7.273  43.615 103.826  1.00  0.00     0.012 C 
ENDBRANCH   9  36
BRANCH   6  39
ATOM     39  C   UNL     1      -7.063  48.841  99.596  1.00  0.00     0.264 C 
ATOM     40  O   UNL     1      -6.600  50.000  99.771  1.00  0.00    -0.298 OA
ENDBRANCH   6  39
BRANCH   8  41
ATOM     41  O   UNL     1      -8.791  47.197 103.864  1.00  0.00    -0.504 OA
ATOM     42  H   UNL     1      -8.796  46.596 104.680  1.00  0.00     0.293 HD
ENDBRANCH   8  41
BRANCH   7  43
ATOM     43  O   UNL     1      -8.855  48.992 101.800  1.00  0.00    -0.504 OA
ATOM     44  H   UNL     1      -8.711  49.915 101.414  1.00  0.00     0.293 HD
ENDBRANCH   7  43
TORSDOF 11
ENDMDL
MODEL 2
REMARK VINA RESULT:    -6.485      1.654      2.978
REMARK INTER + INTRA:         -10.831
REMARK INTER:                  -9.541
REMARK INTRA:                  -1.290
REMARK UNBOUND:                -1.312
REMARK SMILES Cc1cc2c(C(C)C)c(O)c(O)c(C=O)c2c(O)c1-c1c(C)cc2c(C(C)C)c(O)c(O)c(C=O)c2c1O
REMARK SMILES IDX 1 1 2 2 3 3 4 4 16 5 13 6 11 7 9 8 5 9 17 10 19 11 20 12
REMARK SMILES IDX 37 13 21 14 36 15 23 16 22 17 24 18 33 19 25 20 31 21 29 22
REMARK SMILES IDX 38 23 34 25 35 26 26 27 27 28 28 29 32 30 30 32 18 34 6 36
REMARK SMILES IDX 7 37 8 38 14 39 15 40 10 41 12 43
REMARK H PARENT 38 24 32 31 30 33 18 35 10 42 12 44
REMARK Flexibility Score: inf
ROOT
ATOM      1  C   UNL     1      -5.129  47.681  97.970  1.00  0.00     0.045 C 
ATOM      2  C   UNL     1      -5.253  46.671  99.084  1.00  0.00    -0.039 A 
ATOM      3  C   UNL     1      -6.234  46.845 100.061  1.00  0.00     0.013 A 
ATOM      4  C   UNL     1      -6.403  45.924 101.117  1.00  0.00    -0.006 A 
ATOM      5  C   UNL     1      -5.460  44.863 101.260  1.00  0.00     0.039 A 
ATOM      6  C   UNL     1      -5.490  44.067 102.444  1.00  0.00     0.072 A 
ATOM      7  C   UNL     1      -6.445  44.339 103.446  1.00  0.00     0.169 A 
ATOM      8  C   UNL     1      -7.431  45.311 103.245  1.00  0.00     0.162 A 
ATOM      9  C   UNL     1      -7.479  46.055 102.047  1.00  0.00     0.008 A 
ATOM     10  C   UNL     1      -4.529  44.628 100.203  1.00  0.00     0.132 A 
ATOM     11  C   UNL     1      -4.422  45.540  99.131  1.00  0.00     0.031 A 
ENDROOT
BRANCH  11  12
ATOM     12  C   UNL     1      -3.419  45.316  98.058  1.00  0.00     0.031 A 
ATOM     13  C   UNL     1      -3.787  44.648  96.870  1.00  0.00     0.132 A 
ATOM     14  C   UNL     1      -2.096  45.755  98.233  1.00  0.00    -0.039 A 
ATOM     15  C   UNL     1      -2.814  44.379  95.866  1.00  0.00     0.039 A 
ATOM     16  C   UNL     1      -1.177  45.604  97.193  1.00  0.00     0.013 A 
ATOM     17  C   UNL     1      -1.654  46.391  99.528  1.00  0.00     0.045 C 
ATOM     18  C   UNL     1      -1.535  44.997  95.970  1.00  0.00    -0.006 A 
ATOM     19  C   UNL     1      -3.086  43.545  94.745  1.00  0.00     0.072 A 
ATOM     20  C   UNL     1      -0.632  44.964  94.863  1.00  0.00     0.008 A 
ATOM     21  C   UNL     1      -2.150  43.427  93.705  1.00  0.00     0.169 A 
ATOM     22  C   UNL     1      -0.915  44.102  93.778  1.00  0.00     0.162 A 
BRANCH  13  23
ATOM     23  O   UNL     1      -5.125  44.291  96.665  1.00  0.00    -0.507 OA
ATOM     24  H   UNL     1      -5.905  44.738  97.130  1.00  0.00     0.293 HD
ENDBRANCH  13  23
BRANCH  19  25
ATOM     25  C   UNL     1      -4.278  42.670  94.664  1.00  0.00     0.264 C 
ATOM     26  O   UNL     1      -5.296  43.027  94.015  1.00  0.00    -0.298 OA
ENDBRANCH  19  25
BRANCH  20  27
ATOM     27  C   UNL     1       0.632  45.841  94.833  1.00  0.00     0.017 C 
ATOM     28  C   UNL     1       0.269  47.327  94.745  1.00  0.00     0.012 C 
ATOM     29  C   UNL     1       1.603  45.567  95.997  1.00  0.00     0.012 C 
ENDBRANCH  20  27
BRANCH  21  30
ATOM     30  O   UNL     1      -2.479  42.621  92.608  1.00  0.00    -0.504 OA
ATOM     31  H   UNL     1      -2.826  42.968  91.726  1.00  0.00     0.293 HD
ENDBRANCH  21  30
BRANCH  22  32
ATOM     32  O   UNL     1       0.068  43.899  92.805  1.00  0.00    -0.504 OA
ATOM     33  H   UNL     1       0.962  43.461  92.972  1.00  0.00     0.293 HD
ENDBRANCH  22  32
ENDBRANCH  11  12
BRANCH  10  34
ATOM     34  O   UNL     1      -3.735  43.477 100.204  1.00  0.00    -0.507 OA
ATOM     35  H   UNL     1      -2.996  43.300  99.535  1.00  0.00     0.293 HD
ENDBRANCH  10  34
BRANCH   9  36
ATOM     36  C   UNL     1      -8.671  46.991 101.776  1.00  0.00     0.017 C 
ATOM     37  C   UNL     1      -8.623  48.218 102.691  1.00  0.00     0.012 C 
ATOM     38  C   UNL     1     -10.038  46.286 101.855  1.00  0.00     0.012 C 
ENDBRANCH   9  36
BRANCH   6  39
ATOM     39  C   UNL     1      -4.480  43.021 102.706  1.00  0.00     0.264 C 
ATOM     40  O   UNL     1      -3.475  43.267 103.425  1.00  0.00    -0.298 OA
ENDBRANCH   6  39
BRANCH   8  41
ATOM     41  O   UNL     1      -8.358  45.563 104.259  1.00  0.00    -0.504 OA
ATOM     42  H   UNL     1      -9.106  44.923 104.495  1.00  0.00     0.293 HD
ENDBRANCH   8  41
BRANCH   7  43
ATOM     43  O   UNL     1      -6.430  43.666 104.674  1.00  0.00    -0.504 OA
ATOM     44  H   UNL     1      -5.974  42.777 104.828  1.00  0.00     0.293 HD
ENDBRANCH   7  43
TORSDOF 11
ENDMDL
MODEL 3
REMARK VINA RESULT:    -6.441      3.177      5.067
REMARK INTER + INTRA:         -10.765
REMARK INTER:                  -9.580
REMARK INTRA:                  -1.185
REMARK UNBOUND:                -1.312
REMARK SMILES Cc1cc2c(C(C)C)c(O)c(O)c(C=O)c2c(O)c1-c1c(C)cc2c(C(C)C)c(O)c(O)c(C=O)c2c1O
REMARK SMILES IDX 1 1 2 2 3 3 4 4 16 5 13 6 11 7 9 8 5 9 17 10 19 11 20 12
REMARK SMILES IDX 37 13 21 14 36 15 23 16 22 17 24 18 33 19 25 20 31 21 29 22
REMARK SMILES IDX 38 23 34 25 35 26 26 27 27 28 28 29 32 30 30 32 18 34 6 36
REMARK SMILES IDX 7 37 8 38 14 39 15 40 10 41 12 43
REMARK H PARENT 38 24 32 31 30 33 18 35 10 42 12 44
REMARK Flexibility Score: inf
ROOT
ATOM      1  C   UNL     1      -3.927  48.257  99.257  1.00  0.00     0.045 C 
ATOM      2  C   UNL     1      -3.735  47.378 100.468  1.00  0.00    -0.039 A 
ATOM      3  C   UNL     1      -3.681  47.958 101.735  1.00  0.00     0.013 A 
ATOM      4  C   UNL     1      -3.516  47.182 102.903  1.00  0.00    -0.006 A 
ATOM      5  C   UNL     1      -3.266  45.783 102.767  1.00  0.00     0.039 A 
ATOM      6  C   UNL     1      -2.876  45.037 103.919  1.00  0.00     0.072 A 
ATOM      7  C   UNL     1      -2.749  45.687 105.164  1.00  0.00     0.169 A 
ATOM      8  C   UNL     1      -3.102  47.033 105.303  1.00  0.00     0.162 A 
ATOM      9  C   UNL     1      -3.572  47.776 104.200  1.00  0.00     0.008 A 
ATOM     10  C   UNL     1      -3.428  45.181 101.483  1.00  0.00     0.132 A 
ATOM     11  C   UNL     1      -3.647  45.982 100.342  1.00  0.00     0.031 A 
ENDROOT
BRANCH  11  12
ATOM     12  C   UNL     1      -3.768  45.354  99.000  1.00  0.00     0.031 A 
ATOM     13  C   UNL     1      -2.626  45.193  98.186  1.00  0.00     0.132 A 
ATOM     14  C   UNL     1      -5.026  44.936  98.533  1.00  0.00    -0.039 A 
ATOM     15  C   UNL     1      -2.748  44.647  96.876  1.00  0.00     0.039 A 
ATOM     16  C   UNL     1      -5.120  44.284  97.302  1.00  0.00     0.013 A 
ATOM     17  C   UNL     1      -6.275  45.177  99.343  1.00  0.00     0.045 C 
ATOM     18  C   UNL     1      -3.985  44.053  96.495  1.00  0.00    -0.006 A 
ATOM     19  C   UNL     1      -1.668  44.643  95.949  1.00  0.00     0.072 A 
ATOM     20  C   UNL     1      -4.066  43.271  95.303  1.00  0.00     0.008 A 
ATOM     21  C   UNL     1      -1.787  43.963  94.726  1.00  0.00     0.169 A 
ATOM     22  C   UNL     1      -2.989  43.312  94.387  1.00  0.00     0.162 A 
BRANCH  13  23
ATOM     23  O   UNL     1      -1.365  45.531  98.691  1.00  0.00    -0.507 OA
ATOM     24  H   UNL     1      -0.962  46.457  98.625  1.00  0.00     0.293 HD
ENDBRANCH  13  23
BRANCH  19  25
ATOM     25  C   UNL     1      -0.435  45.439  96.146  1.00  0.00     0.264 C 
ATOM     26  O   UNL     1      -0.195  46.443  95.425  1.00  0.00    -0.298 OA
ENDBRANCH  19  25
BRANCH  20  27
ATOM     27  C   UNL     1      -5.295  42.394  95.000  1.00  0.00     0.017 C 
ATOM     28  C   UNL     1      -5.417  41.251  96.013  1.00  0.00     0.012 C 
ATOM     29  C   UNL     1      -6.608  43.190  94.886  1.00  0.00     0.012 C 
ENDBRANCH  20  27
BRANCH  21  30
ATOM     30  O   UNL     1      -0.684  43.959  93.863  1.00  0.00    -0.504 OA
ATOM     31  H   UNL     1      -0.561  43.319  93.093  1.00  0.00     0.293 HD
ENDBRANCH  21  30
BRANCH  22  32
ATOM     32  O   UNL     1      -3.156  42.732  93.125  1.00  0.00    -0.504 OA
ATOM     33  H   UNL     1      -4.027  42.363  92.771  1.00  0.00     0.293 HD
ENDBRANCH  22  32
ENDBRANCH  11  12
BRANCH  10  34
ATOM     34  O   UNL     1      -3.402  43.789 101.347  1.00  0.00    -0.507 OA
ATOM     35  H   UNL     1      -4.149  43.248 100.929  1.00  0.00     0.293 HD
ENDBRANCH  10  34
BRANCH   9  36
ATOM     36  C   UNL     1      -4.118  49.199 104.414  1.00  0.00     0.017 C 
ATOM     37  C   UNL     1      -2.991  50.169 104.778  1.00  0.00     0.012 C 
ATOM     38  C   UNL     1      -5.271  49.270 105.432  1.00  0.00     0.012 C 
ENDBRANCH   9  36
BRANCH   6  39
ATOM     39  C   UNL     1      -2.501  43.610 103.832  1.00  0.00     0.264 C 
ATOM     40  O   UNL     1      -1.294  43.272 103.711  1.00  0.00    -0.298 OA
ENDBRANCH   6  39
BRANCH   8  41
ATOM     41  O   UNL     1      -2.956  47.651 106.548  1.00  0.00    -0.504 OA
ATOM     42  H   UNL     1      -3.067  47.159 107.426  1.00  0.00     0.293 HD
ENDBRANCH   8  41
BRANCH   7  43
ATOM     43  O   UNL     1      -2.250  45.020 106.291  1.00  0.00    -0.504 OA
ATOM     44  H   UNL     1      -1.630  44.223 106.249  1.00  0.00     0.293 HD
ENDBRANCH   7  43
TORSDOF 11
ENDMDL
MODEL 4
REMARK VINA RESULT:    -6.355      1.843      9.079
REMARK INTER + INTRA:         -10.639
REMARK INTER:                  -9.329
REMARK INTRA:                  -1.311
REMARK UNBOUND:                -1.312
REMARK SMILES Cc1cc2c(C(C)C)c(O)c(O)c(C=O)c2c(O)c1-c1c(C)cc2c(C(C)C)c(O)c(O)c(C=O)c2c1O
REMARK SMILES IDX 1 1 2 2 3 3 4 4 16 5 13 6 11 7 9 8 5 9 17 10 19 11 20 12
REMARK SMILES IDX 37 13 21 14 36 15 23 16 22 17 24 18 33 19 25 20 31 21 29 22
REMARK SMILES IDX 38 23 34 25 35 26 26 27 27 28 28 29 32 30 30 32 18 34 6 36
REMARK SMILES IDX 7 37 8 38 14 39 15 40 10 41 12 43
REMARK H PARENT 38 24 32 31 30 33 18 35 10 42 12 44
REMARK Flexibility Score: inf
ROOT
ATOM      1  C   UNL     1      -5.752  44.020  96.303  1.00  0.00     0.045 C 
ATOM      2  C   UNL     1      -4.333  44.525  96.389  1.00  0.00    -0.039 A 
ATOM      3  C   UNL     1      -3.441  44.242  95.354  1.00  0.00     0.013 A 
ATOM      4  C   UNL     1      -2.106  44.701  95.376  1.00  0.00    -0.006 A 
ATOM      5  C   UNL     1      -1.625  45.356  96.549  1.00  0.00     0.039 A 
ATOM      6  C   UNL     1      -0.228  45.620  96.669  1.00  0.00     0.072 A 
ATOM      7  C   UNL     1       0.648  45.235  95.633  1.00  0.00     0.169 A 
ATOM      8  C   UNL     1       0.150  44.692  94.444  1.00  0.00     0.162 A 
ATOM      9  C   UNL     1      -1.236  44.499  94.262  1.00  0.00     0.008 A 
ATOM     10  C   UNL     1      -2.565  45.736  97.555  1.00  0.00     0.132 A 
ATOM     11  C   UNL     1      -3.907  45.306  97.475  1.00  0.00     0.031 A 
ENDROOT
BRANCH  11  12
ATOM     12  C   UNL     1      -4.871  45.664  98.549  1.00  0.00     0.031 A 
ATOM     13  C   UNL     1      -5.537  46.909  98.519  1.00  0.00     0.132 A 
ATOM     14  C   UNL     1      -5.106  44.769  99.606  1.00  0.00    -0.039 A 
ATOM     15  C   UNL     1      -6.415  47.279  99.577  1.00  0.00     0.039 A 
ATOM     16  C   UNL     1      -6.064  45.083 100.572  1.00  0.00     0.013 A 
ATOM     17  C   UNL     1      -4.341  43.473  99.711  1.00  0.00     0.045 C 
ATOM     18  C   UNL     1      -6.791  46.292 100.532  1.00  0.00    -0.006 A 
ATOM     19  C   UNL     1      -6.957  48.590  99.693  1.00  0.00     0.072 A 
ATOM     20  C   UNL     1      -7.860  46.548 101.443  1.00  0.00     0.008 A 
ATOM     21  C   UNL     1      -7.933  48.870 100.664  1.00  0.00     0.169 A 
ATOM     22  C   UNL     1      -8.356  47.868 101.558  1.00  0.00     0.162 A 
BRANCH  13  23
ATOM     23  O   UNL     1      -5.365  47.757  97.419  1.00  0.00    -0.507 OA
ATOM     24  H   UNL     1      -4.819  48.610  97.445  1.00  0.00     0.293 HD
ENDBRANCH  13  23
BRANCH  19  25
ATOM     25  C   UNL     1      -6.451  49.743  98.913  1.00  0.00     0.264 C 
ATOM     26  O   UNL     1      -7.117  50.212  97.952  1.00  0.00    -0.298 OA
ENDBRANCH  19  25
BRANCH  20  27
ATOM     27  C   UNL     1      -8.474  45.424 102.297  1.00  0.00     0.017 C 
ATOM     28  C   UNL     1      -7.902  45.438 103.718  1.00  0.00     0.012 C 
ATOM     29  C   UNL     1     -10.014  45.428 102.309  1.00  0.00     0.012 C 
ENDBRANCH  20  27
BRANCH  21  30
ATOM     30  O   UNL     1      -8.460  50.167 100.715  1.00  0.00    -0.504 OA
ATOM     31  H   UNL     1      -9.102  50.552 100.039  1.00  0.00     0.293 HD
ENDBRANCH  21  30
BRANCH  22  32
ATOM     32  O   UNL     1      -9.240  48.166 102.600  1.00  0.00    -0.504 OA
ATOM     33  H   UNL     1      -9.632  47.487 103.236  1.00  0.00     0.293 HD
ENDBRANCH  22  32
ENDBRANCH  11  12
BRANCH  10  34
ATOM     34  O   UNL     1      -2.173  46.562  98.613  1.00  0.00    -0.507 OA
ATOM     35  H   UNL     1      -1.871  46.218  99.516  1.00  0.00     0.293 HD
ENDBRANCH  10  34
BRANCH   9  36
ATOM     36  C   UNL     1      -1.773  44.067  92.886  1.00  0.00     0.017 C 
ATOM     37  C   UNL     1      -1.168  42.726  92.458  1.00  0.00     0.012 C 
ATOM     38  C   UNL     1      -1.597  45.136  91.792  1.00  0.00     0.012 C 
ENDBRANCH   9  36
BRANCH   6  39
ATOM     39  C   UNL     1       0.353  46.199  97.898  1.00  0.00     0.264 C 
ATOM     40  O   UNL     1       0.802  47.376  97.901  1.00  0.00    -0.298 OA
ENDBRANCH   6  39
BRANCH   8  41
ATOM     41  O   UNL     1       1.043  44.313  93.440  1.00  0.00    -0.504 OA
ATOM     42  H   UNL     1       0.807  44.325  92.455  1.00  0.00     0.293 HD
ENDBRANCH   8  41
BRANCH   7  43
ATOM     43  O   UNL     1       2.037  45.362  95.764  1.00  0.00    -0.504 OA
ATOM     44  H   UNL     1       2.624  45.867  95.114  1.00  0.00     0.293 HD
ENDBRANCH   7  43
TORSDOF 11
ENDMDL
MODEL 5
REMARK VINA RESULT:    -5.999      1.640      3.002
REMARK INTER + INTRA:         -10.117
REMARK INTER:                  -9.127
REMARK INTRA:                  -0.990
REMARK UNBOUND:                -1.312
REMARK SMILES Cc1cc2c(C(C)C)c(O)c(O)c(C=O)c2c(O)c1-c1c(C)cc2c(C(C)C)c(O)c(O)c(C=O)c2c1O
REMARK SMILES IDX 1 1 2 2 3 3 4 4 16 5 13 6 11 7 9 8 5 9 17 10 19 11 20 12
REMARK SMILES IDX 37 13 21 14 36 15 23 16 22 17 24 18 33 19 25 20 31 21 29 22
REMARK SMILES IDX 38 23 34 25 35 26 26 27 27 28 28 29 32 30 30 32 18 34 6 36
REMARK SMILES IDX 7 37 8 38 14 39 15 40 10 41 12 43
REMARK H PARENT 38 24 32 31 30 33 18 35 10 42 12 44
REMARK Flexibility Score: inf
ROOT
ATOM      1  C   UNL     1      -4.087  42.995  99.978  1.00  0.00     0.045 C 
ATOM      2  C   UNL     1      -4.792  44.309 100.212  1.00  0.00    -0.039 A 
ATOM      3  C   UNL     1      -5.522  44.497 101.385  1.00  0.00     0.013 A 
ATOM      4  C   UNL     1      -6.189  45.710 101.660  1.00  0.00    -0.006 A 
ATOM      5  C   UNL     1      -6.225  46.717 100.650  1.00  0.00     0.039 A 
ATOM      6  C   UNL     1      -7.081  47.845 100.830  1.00  0.00     0.072 A 
ATOM      7  C   UNL     1      -7.868  47.947 101.996  1.00  0.00     0.169 A 
ATOM      8  C   UNL     1      -7.741  47.008 103.025  1.00  0.00     0.162 A 
ATOM      9  C   UNL     1      -6.840  45.928 102.912  1.00  0.00     0.008 A 
ATOM     10  C   UNL     1      -5.392  46.564  99.501  1.00  0.00     0.132 A 
ATOM     11  C   UNL     1      -4.693  45.357  99.283  1.00  0.00     0.031 A 
ENDROOT
BRANCH  11  12
ATOM     12  C   UNL     1      -3.864  45.185  98.061  1.00  0.00     0.031 A 
ATOM     13  C   UNL     1      -2.479  45.456  98.098  1.00  0.00     0.132 A 
ATOM     14  C   UNL     1      -4.464  44.768  96.860  1.00  0.00    -0.039 A 
ATOM     15  C   UNL     1      -1.694  45.349  96.915  1.00  0.00     0.039 A 
ATOM     16  C   UNL     1      -3.668  44.541  95.736  1.00  0.00     0.013 A 
ATOM     17  C   UNL     1      -5.956  44.559  96.769  1.00  0.00     0.045 C 
ATOM     18  C   UNL     1      -2.271  44.743  95.763  1.00  0.00    -0.006 A 
ATOM     19  C   UNL     1      -0.344  45.795  96.855  1.00  0.00     0.072 A 
ATOM     20  C   UNL     1      -1.446  44.384  94.654  1.00  0.00     0.008 A 
ATOM     21  C   UNL     1       0.438  45.536  95.717  1.00  0.00     0.169 A 
ATOM     22  C   UNL     1      -0.118  44.868  94.608  1.00  0.00     0.162 A 
BRANCH  13  23
ATOM     23  O   UNL     1      -1.873  45.786  99.316  1.00  0.00    -0.507 OA
ATOM     24  H   UNL     1      -0.885  45.981  99.420  1.00  0.00     0.293 HD
ENDBRANCH  13  23
BRANCH  19  25
ATOM     25  C   UNL     1       0.270  46.649  97.898  1.00  0.00     0.264 C 
ATOM     26  O   UNL     1       0.574  47.846  97.653  1.00  0.00    -0.298 OA
ENDBRANCH  19  25
BRANCH  20  27
ATOM     27  C   UNL     1      -1.973  43.489  93.518  1.00  0.00     0.017 C 
ATOM     28  C   UNL     1      -2.386  44.329  92.305  1.00  0.00     0.012 C 
ATOM     29  C   UNL     1      -1.004  42.361  93.119  1.00  0.00     0.012 C 
ENDBRANCH  20  27
BRANCH  21  30
ATOM     30  O   UNL     1       1.771  45.964  95.720  1.00  0.00    -0.504 OA
ATOM     31  H   UNL     1       2.507  45.544  96.268  1.00  0.00     0.293 HD
ENDBRANCH  21  30
BRANCH  22  32
ATOM     32  O   UNL     1       0.617  44.708  93.429  1.00  0.00    -0.504 OA
ATOM     33  H   UNL     1       0.671  43.853  92.895  1.00  0.00     0.293 HD
ENDBRANCH  22  32
ENDBRANCH  11  12
BRANCH  10  34
ATOM     34  O   UNL     1      -5.236  47.619  98.595  1.00  0.00    -0.507 OA
ATOM     35  H   UNL     1      -4.395  48.177  98.519  1.00  0.00     0.293 HD
ENDBRANCH  10  34
BRANCH   9  36
ATOM     36  C   UNL     1      -6.591  45.012 104.123  1.00  0.00     0.017 C 
ATOM     37  C   UNL     1      -5.099  44.948 104.464  1.00  0.00     0.012 C 
ATOM     38  C   UNL     1      -7.191  43.603 103.965  1.00  0.00     0.012 C 
ENDBRANCH   9  36
BRANCH   6  39
ATOM     39  C   UNL     1      -7.248  48.872  99.781  1.00  0.00     0.264 C 
ATOM     40  O   UNL     1      -8.395  49.179  99.362  1.00  0.00    -0.298 OA
ENDBRANCH   6  39
BRANCH   8  41
ATOM     41  O   UNL     1      -8.541  47.131 104.164  1.00  0.00    -0.504 OA
ATOM     42  H   UNL     1      -9.097  47.954 104.363  1.00  0.00     0.293 HD
ENDBRANCH   8  41
BRANCH   7  43
ATOM     43  O   UNL     1      -8.811  48.971 102.155  1.00  0.00    -0.504 OA
ATOM     44  H   UNL     1      -9.755  48.933 101.796  1.00  0.00     0.293 HD
ENDBRANCH   7  43
TORSDOF 11
ENDMDL
MODEL 6
REMARK VINA RESULT:    -5.880      2.228      3.945
REMARK INTER + INTRA:          -9.942
REMARK INTER:                  -8.691
REMARK INTRA:                  -1.251
REMARK UNBOUND:                -1.312
REMARK SMILES Cc1cc2c(C(C)C)c(O)c(O)c(C=O)c2c(O)c1-c1c(C)cc2c(C(C)C)c(O)c(O)c(C=O)c2c1O
REMARK SMILES IDX 1 1 2 2 3 3 4 4 16 5 13 6 11 7 9 8 5 9 17 10 19 11 20 12
REMARK SMILES IDX 37 13 21 14 36 15 23 16 22 17 24 18 33 19 25 20 31 21 29 22
REMARK SMILES IDX 38 23 34 25 35 26 26 27 27 28 28 29 32 30 30 32 18 34 6 36
REMARK SMILES IDX 7 37 8 38 14 39 15 40 10 41 12 43
REMARK H PARENT 38 24 32 31 30 33 18 35 10 42 12 44
REMARK Flexibility Score: inf
ROOT
ATOM      1  C   UNL     1      -4.388  43.163  97.210  1.00  0.00     0.045 C 
ATOM      2  C   UNL     1      -4.697  44.606  97.528  1.00  0.00    -0.039 A 
ATOM      3  C   UNL     1      -5.557  44.906  98.584  1.00  0.00     0.013 A 
ATOM      4  C   UNL     1      -5.869  46.238  98.934  1.00  0.00    -0.006 A 
ATOM      5  C   UNL     1      -5.397  47.295  98.099  1.00  0.00     0.039 A 
ATOM      6  C   UNL     1      -5.891  48.616  98.312  1.00  0.00     0.072 A 
ATOM      7  C   UNL     1      -6.829  48.856  99.338  1.00  0.00     0.169 A 
ATOM      8  C   UNL     1      -7.200  47.832 100.216  1.00  0.00     0.162 A 
ATOM      9  C   UNL     1      -6.662  46.534 100.083  1.00  0.00     0.008 A 
ATOM     10  C   UNL     1      -4.435  46.991  97.089  1.00  0.00     0.132 A 
ATOM     11  C   UNL     1      -4.102  45.650  96.801  1.00  0.00     0.031 A 
ENDROOT
BRANCH  11  12
ATOM     12  C   UNL     1      -3.136  45.336  95.716  1.00  0.00     0.031 A 
ATOM     13  C   UNL     1      -1.748  45.452  95.946  1.00  0.00     0.132 A 
ATOM     14  C   UNL     1      -3.606  44.941  94.452  1.00  0.00    -0.039 A 
ATOM     15  C   UNL     1      -0.822  45.211  94.891  1.00  0.00     0.039 A 
ATOM     16  C   UNL     1      -2.691  44.580  93.460  1.00  0.00     0.013 A 
ATOM     17  C   UNL     1      -5.084  44.896  94.152  1.00  0.00     0.045 C 
ATOM     18  C   UNL     1      -1.298  44.626  93.683  1.00  0.00    -0.006 A 
ATOM     19  C   UNL     1       0.566  45.500  95.016  1.00  0.00     0.072 A 
ATOM     20  C   UNL     1      -0.373  44.132  92.714  1.00  0.00     0.008 A 
ATOM     21  C   UNL     1       1.464  45.109  94.009  1.00  0.00     0.169 A 
ATOM     22  C   UNL     1       0.996  44.463  92.848  1.00  0.00     0.162 A 
BRANCH  13  23
ATOM     23  O   UNL     1      -1.285  45.762  97.230  1.00  0.00    -0.507 OA
ATOM     24  H   UNL     1      -1.849  45.682  98.067  1.00  0.00     0.293 HD
ENDBRANCH  13  23
BRANCH  19  25
ATOM     25  C   UNL     1       1.122  46.322  96.115  1.00  0.00     0.264 C 
ATOM     26  O   UNL     1       1.704  45.782  97.092  1.00  0.00    -0.298 OA
ENDBRANCH  19  25
BRANCH  20  27
ATOM     27  C   UNL     1      -0.836  43.256  91.536  1.00  0.00     0.017 C 
ATOM     28  C   UNL     1      -0.747  44.024  90.213  1.00  0.00     0.012 C 
ATOM     29  C   UNL     1      -0.110  41.901  91.451  1.00  0.00     0.012 C 
ENDBRANCH  20  27
BRANCH  21  30
ATOM     30  O   UNL     1       2.824  45.386  94.194  1.00  0.00    -0.504 OA
ATOM     31  H   UNL     1       3.262  46.271  93.988  1.00  0.00     0.293 HD
ENDBRANCH  21  30
BRANCH  22  32
ATOM     32  O   UNL     1       1.865  44.174  91.792  1.00  0.00    -0.504 OA
ATOM     33  H   UNL     1       2.870  44.254  91.834  1.00  0.00     0.293 HD
ENDBRANCH  22  32
ENDBRANCH  11  12
BRANCH  10  34
ATOM     34  O   UNL     1      -3.790  48.020  96.394  1.00  0.00    -0.507 OA
ATOM     35  H   UNL     1      -4.141  48.968  96.336  1.00  0.00     0.293 HD
ENDBRANCH  10  34
BRANCH   9  36
ATOM     36  C   UNL     1      -6.949  45.474 101.162  1.00  0.00     0.017 C 
ATOM     37  C   UNL     1      -8.424  45.061 101.147  1.00  0.00     0.012 C 
ATOM     38  C   UNL     1      -6.499  45.894 102.574  1.00  0.00     0.012 C 
ENDBRANCH   9  36
BRANCH   6  39
ATOM     39  C   UNL     1      -5.527  49.737  97.422  1.00  0.00     0.264 C 
ATOM     40  O   UNL     1      -4.767  50.656  97.827  1.00  0.00    -0.298 OA
ENDBRANCH   6  39
BRANCH   8  41
ATOM     41  O   UNL     1      -8.138  48.098 101.217  1.00  0.00    -0.504 OA
ATOM     42  H   UNL     1      -8.947  48.690 101.074  1.00  0.00     0.293 HD
ENDBRANCH   8  41
BRANCH   7  43
ATOM     43  O   UNL     1      -7.432  50.109  99.501  1.00  0.00    -0.504 OA
ATOM     44  H   UNL     1      -7.247  50.909  98.911  1.00  0.00     0.293 HD
ENDBRANCH   7  43
TORSDOF 11
ENDMDL
MODEL 7
REMARK VINA RESULT:    -5.824      3.373      8.855
REMARK INTER + INTRA:          -9.860
REMARK INTER:                  -8.508
REMARK INTRA:                  -1.352
REMARK UNBOUND:                -1.312
REMARK SMILES Cc1cc2c(C(C)C)c(O)c(O)c(C=O)c2c(O)c1-c1c(C)cc2c(C(C)C)c(O)c(O)c(C=O)c2c1O
REMARK SMILES IDX 1 1 2 2 3 3 4 4 16 5 13 6 11 7 9 8 5 9 17 10 19 11 20 12
REMARK SMILES IDX 37 13 21 14 36 15 23 16 22 17 24 18 33 19 25 20 31 21 29 22
REMARK SMILES IDX 38 23 34 25 35 26 26 27 27 28 28 29 32 30 30 32 18 34 6 36
REMARK SMILES IDX 7 37 8 38 14 39 15 40 10 41 12 43
REMARK H PARENT 38 24 32 31 30 33 18 35 10 42 12 44
REMARK Flexibility Score: inf
ROOT
ATOM      1  C   UNL     1      -5.749  44.592 100.031  1.00  0.00     0.045 C 
ATOM      2  C   UNL     1      -4.542  44.794  99.148  1.00  0.00    -0.039 A 
ATOM      3  C   UNL     1      -4.500  44.186  97.893  1.00  0.00     0.013 A 
ATOM      4  C   UNL     1      -3.402  44.353  97.022  1.00  0.00    -0.006 A 
ATOM      5  C   UNL     1      -2.251  45.052  97.495  1.00  0.00     0.039 A 
ATOM      6  C   UNL     1      -1.059  45.030  96.710  1.00  0.00     0.072 A 
ATOM      7  C   UNL     1      -1.039  44.327  95.488  1.00  0.00     0.169 A 
ATOM      8  C   UNL     1      -2.205  43.738  94.986  1.00  0.00     0.162 A 
ATOM      9  C   UNL     1      -3.420  43.816  95.699  1.00  0.00     0.008 A 
ATOM     10  C   UNL     1      -2.341  45.759  98.732  1.00  0.00     0.132 A 
ATOM     11  C   UNL     1      -3.477  45.615  99.555  1.00  0.00     0.031 A 
ENDROOT
BRANCH  11  12
ATOM     12  C   UNL     1      -3.546  46.315 100.864  1.00  0.00     0.031 A 
ATOM     13  C   UNL     1      -3.101  45.670 102.039  1.00  0.00     0.132 A 
ATOM     14  C   UNL     1      -4.071  47.616 100.936  1.00  0.00    -0.039 A 
ATOM     15  C   UNL     1      -3.221  46.316 103.302  1.00  0.00     0.039 A 
ATOM     16  C   UNL     1      -4.067  48.293 102.157  1.00  0.00     0.013 A 
ATOM     17  C   UNL     1      -4.636  48.294  99.712  1.00  0.00     0.045 C 
ATOM     18  C   UNL     1      -3.570  47.696 103.335  1.00  0.00    -0.006 A 
ATOM     19  C   UNL     1      -2.970  45.640 104.530  1.00  0.00     0.072 A 
ATOM     20  C   UNL     1      -3.446  48.437 104.550  1.00  0.00     0.008 A 
ATOM     21  C   UNL     1      -2.955  46.352 105.740  1.00  0.00     0.169 A 
ATOM     22  C   UNL     1      -3.227  47.734 105.758  1.00  0.00     0.162 A 
BRANCH  13  23
ATOM     23  O   UNL     1      -2.499  44.410 101.948  1.00  0.00    -0.507 OA
ATOM     24  H   UNL     1      -2.910  43.623 101.462  1.00  0.00     0.293 HD
ENDBRANCH  13  23
BRANCH  19  25
ATOM     25  C   UNL     1      -2.843  44.168 104.627  1.00  0.00     0.264 C 
ATOM     26  O   UNL     1      -1.712  43.616 104.595  1.00  0.00    -0.298 OA
ENDBRANCH  19  25
BRANCH  20  27
ATOM     27  C   UNL     1      -3.547  49.973 104.567  1.00  0.00     0.017 C 
ATOM     28  C   UNL     1      -4.827  50.431 105.273  1.00  0.00     0.012 C 
ATOM     29  C   UNL     1      -2.303  50.668 105.150  1.00  0.00     0.012 C 
ENDBRANCH  20  27
BRANCH  21  30
ATOM     30  O   UNL     1      -2.669  45.648 106.917  1.00  0.00    -0.504 OA
ATOM     31  H   UNL     1      -3.346  45.428 107.632  1.00  0.00     0.293 HD
ENDBRANCH  21  30
BRANCH  22  32
ATOM     32  O   UNL     1      -3.328  48.427 106.968  1.00  0.00    -0.504 OA
ATOM     33  H   UNL     1      -2.770  49.229 107.221  1.00  0.00     0.293 HD
ENDBRANCH  22  32
ENDBRANCH  11  12
BRANCH  10  34
ATOM     34  O   UNL     1      -1.316  46.626  99.126  1.00  0.00    -0.507 OA
ATOM     35  H   UNL     1      -1.203  47.567  98.769  1.00  0.00     0.293 HD
ENDBRANCH  10  34
BRANCH   9  36
ATOM     36  C   UNL     1      -4.721  43.316  95.047  1.00  0.00     0.017 C 
ATOM     37  C   UNL     1      -5.811  44.390  95.105  1.00  0.00     0.012 C 
ATOM     38  C   UNL     1      -5.222  41.977  95.619  1.00  0.00     0.012 C 
ENDBRANCH   9  36
BRANCH   6  39
ATOM     39  C   UNL     1       0.198  45.643  97.186  1.00  0.00     0.264 C 
ATOM     40  O   UNL     1       0.640  46.695  96.653  1.00  0.00    -0.298 OA
ENDBRANCH   6  39
BRANCH   8  41
ATOM     41  O   UNL     1      -2.151  43.041  93.777  1.00  0.00    -0.504 OA
ATOM     42  H   UNL     1      -2.957  42.592  93.360  1.00  0.00     0.293 HD
ENDBRANCH   8  41
BRANCH   7  43
ATOM     43  O   UNL     1       0.142  44.176  94.749  1.00  0.00    -0.504 OA
ATOM     44  H   UNL     1       0.494  43.288  94.419  1.00  0.00     0.293 HD
ENDBRANCH   7  43
TORSDOF 11
ENDMDL
MODEL 8
REMARK VINA RESULT:    -5.771      1.993      9.093
REMARK INTER + INTRA:          -9.783
REMARK INTER:                  -8.693
REMARK INTRA:                  -1.089
REMARK UNBOUND:                -1.312
REMARK SMILES Cc1cc2c(C(C)C)c(O)c(O)c(C=O)c2c(O)c1-c1c(C)cc2c(C(C)C)c(O)c(O)c(C=O)c2c1O
REMARK SMILES IDX 1 1 2 2 3 3 4 4 16 5 13 6 11 7 9 8 5 9 17 10 19 11 20 12
REMARK SMILES IDX 37 13 21 14 36 15 23 16 22 17 24 18 33 19 25 20 31 21 29 22
REMARK SMILES IDX 38 23 34 25 35 26 26 27 27 28 28 29 32 30 30 32 18 34 6 36
REMARK SMILES IDX 7 37 8 38 14 39 15 40 10 41 12 43
REMARK H PARENT 38 24 32 31 30 33 18 35 10 42 12 44
REMARK Flexibility Score: inf
ROOT
ATOM      1  C   UNL     1      -2.314  47.555  99.494  1.00  0.00     0.045 C 
ATOM      2  C   UNL     1      -2.235  46.530  98.390  1.00  0.00    -0.039 A 
ATOM      3  C   UNL     1      -1.156  46.555  97.507  1.00  0.00     0.013 A 
ATOM      4  C   UNL     1      -1.025  45.611  96.465  1.00  0.00    -0.006 A 
ATOM      5  C   UNL     1      -2.094  44.695  96.231  1.00  0.00     0.039 A 
ATOM      6  C   UNL     1      -2.072  43.896  95.049  1.00  0.00     0.072 A 
ATOM      7  C   UNL     1      -1.001  44.020  94.140  1.00  0.00     0.169 A 
ATOM      8  C   UNL     1       0.092  44.842  94.435  1.00  0.00     0.162 A 
ATOM      9  C   UNL     1       0.138  45.580  95.637  1.00  0.00     0.008 A 
ATOM     10  C   UNL     1      -3.141  44.604  97.197  1.00  0.00     0.132 A 
ATOM     11  C   UNL     1      -3.212  45.529  98.261  1.00  0.00     0.031 A 
ENDROOT
BRANCH  11  12
ATOM     12  C   UNL     1      -4.331  45.460  99.237  1.00  0.00     0.031 A 
ATOM     13  C   UNL     1      -4.144  44.828 100.486  1.00  0.00     0.132 A 
ATOM     14  C   UNL     1      -5.582  46.009  98.910  1.00  0.00    -0.039 A 
ATOM     15  C   UNL     1      -5.230  44.707 101.399  1.00  0.00     0.039 A 
ATOM     16  C   UNL     1      -6.605  46.002  99.860  1.00  0.00     0.013 A 
ATOM     17  C   UNL     1      -5.835  46.610  97.549  1.00  0.00     0.045 C 
ATOM     18  C   UNL     1      -6.427  45.433 101.139  1.00  0.00    -0.006 A 
ATOM     19  C   UNL     1      -5.148  43.914 102.579  1.00  0.00     0.072 A 
ATOM     20  C   UNL     1      -7.430  45.546 102.150  1.00  0.00     0.008 A 
ATOM     21  C   UNL     1      -6.187  43.942 103.524  1.00  0.00     0.169 A 
ATOM     22  C   UNL     1      -7.337  44.722 103.296  1.00  0.00     0.162 A 
BRANCH  13  23
ATOM     23  O   UNL     1      -2.873  44.361 100.840  1.00  0.00    -0.507 OA
ATOM     24  H   UNL     1      -2.028  44.912 100.762  1.00  0.00     0.293 HD
ENDBRANCH  13  23
BRANCH  19  25
ATOM     25  C   UNL     1      -4.061  42.939 102.820  1.00  0.00     0.264 C 
ATOM     26  O   UNL     1      -3.150  43.183 103.654  1.00  0.00    -0.298 OA
ENDBRANCH  19  25
BRANCH  20  27
ATOM     27  C   UNL     1      -8.600  46.536 102.012  1.00  0.00     0.017 C 
ATOM     28  C   UNL     1      -9.941  45.798 101.954  1.00  0.00     0.012 C 
ATOM     29  C   UNL     1      -8.609  47.635 103.091  1.00  0.00     0.012 C 
ENDBRANCH  20  27
BRANCH  21  30
ATOM     30  O   UNL     1      -6.044  43.171 104.685  1.00  0.00    -0.504 OA
ATOM     31  H   UNL     1      -5.873  43.548 105.605  1.00  0.00     0.293 HD
ENDBRANCH  21  30
BRANCH  22  32
ATOM     32  O   UNL     1      -8.424  44.666 104.174  1.00  0.00    -0.504 OA
ATOM     33  H   UNL     1      -8.924  45.470 104.524  1.00  0.00     0.293 HD
ENDBRANCH  22  32
ENDBRANCH  11  12
BRANCH  10  34
ATOM     34  O   UNL     1      -4.089  43.579  97.118  1.00  0.00    -0.507 OA
ATOM     35  H   UNL     1      -3.873  42.630  96.840  1.00  0.00     0.293 HD
ENDBRANCH  10  34
BRANCH   9  36
ATOM     36  C   UNL     1       1.422  46.337  96.020  1.00  0.00     0.017 C 
ATOM     37  C   UNL     1       1.481  47.702  95.328  1.00  0.00     0.012 C 
ATOM     38  C   UNL     1       2.710  45.528  95.776  1.00  0.00     0.012 C 
ENDBRANCH   9  36
BRANCH   6  39
ATOM     39  C   UNL     1      -3.194  43.004  94.691  1.00  0.00     0.264 C 
ATOM     40  O   UNL     1      -4.078  43.381  93.878  1.00  0.00    -0.298 OA
ENDBRANCH   6  39
BRANCH   8  41
ATOM     41  O   UNL     1       1.133  44.951  93.511  1.00  0.00    -0.504 OA
ATOM     42  H   UNL     1       1.088  44.561  92.578  1.00  0.00     0.293 HD
ENDBRANCH   8  41
BRANCH   7  43
ATOM     43  O   UNL     1      -1.001  43.347  92.911  1.00  0.00    -0.504 OA
ATOM     44  H   UNL     1      -0.343  42.623  92.661  1.00  0.00     0.293 HD
ENDBRANCH   7  43
TORSDOF 11
ENDMDL
MODEL 9
REMARK VINA RESULT:    -5.620      2.241      4.304
REMARK INTER + INTRA:          -9.561
REMARK INTER:                  -8.434
REMARK INTRA:                  -1.127
REMARK UNBOUND:                -1.312
REMARK SMILES Cc1cc2c(C(C)C)c(O)c(O)c(C=O)c2c(O)c1-c1c(C)cc2c(C(C)C)c(O)c(O)c(C=O)c2c1O
REMARK SMILES IDX 1 1 2 2 3 3 4 4 16 5 13 6 11 7 9 8 5 9 17 10 19 11 20 12
REMARK SMILES IDX 37 13 21 14 36 15 23 16 22 17 24 18 33 19 25 20 31 21 29 22
REMARK SMILES IDX 38 23 34 25 35 26 26 27 27 28 28 29 32 30 30 32 18 34 6 36
REMARK SMILES IDX 7 37 8 38 14 39 15 40 10 41 12 43
REMARK H PARENT 38 24 32 31 30 33 18 35 10 42 12 44
REMARK Flexibility Score: inf
ROOT
ATOM      1  C   UNL     1      -5.129  47.752  97.267  1.00  0.00     0.045 C 
ATOM      2  C   UNL     1      -5.157  46.709  98.358  1.00  0.00    -0.039 A 
ATOM      3  C   UNL     1      -5.998  46.888  99.456  1.00  0.00     0.013 A 
ATOM      4  C   UNL     1      -6.073  45.937 100.497  1.00  0.00    -0.006 A 
ATOM      5  C   UNL     1      -5.167  44.834 100.486  1.00  0.00     0.039 A 
ATOM      6  C   UNL     1      -5.083  43.999 101.641  1.00  0.00     0.072 A 
ATOM      7  C   UNL     1      -5.891  44.273 102.763  1.00  0.00     0.169 A 
ATOM      8  C   UNL     1      -6.850  45.291 102.719  1.00  0.00     0.162 A 
ATOM      9  C   UNL     1      -7.016  46.078 101.560  1.00  0.00     0.008 A 
ATOM     10  C   UNL     1      -4.389  44.600  99.313  1.00  0.00     0.132 A 
ATOM     11  C   UNL     1      -4.377  45.545  98.264  1.00  0.00     0.031 A 
ENDROOT
BRANCH  11  12
ATOM     12  C   UNL     1      -3.528  45.320  97.065  1.00  0.00     0.031 A 
ATOM     13  C   UNL     1      -2.150  45.626  97.104  1.00  0.00     0.132 A 
ATOM     14  C   UNL     1      -4.102  44.819  95.885  1.00  0.00    -0.039 A 
ATOM     15  C   UNL     1      -1.347  45.468  95.939  1.00  0.00     0.039 A 
ATOM     16  C   UNL     1      -3.285  44.545  94.786  1.00  0.00     0.013 A 
ATOM     17  C   UNL     1      -5.587  44.569  95.787  1.00  0.00     0.045 C 
ATOM     18  C   UNL     1      -1.893  44.781  94.818  1.00  0.00    -0.006 A 
ATOM     19  C   UNL     1      -0.006  45.942  95.869  1.00  0.00     0.072 A 
ATOM     20  C   UNL     1      -1.045  44.376  93.743  1.00  0.00     0.008 A 
ATOM     21  C   UNL     1       0.797  45.634  94.759  1.00  0.00     0.169 A 
ATOM     22  C   UNL     1       0.272  44.888  93.685  1.00  0.00     0.162 A 
BRANCH  13  23
ATOM     23  O   UNL     1      -1.569  46.041  98.307  1.00  0.00    -0.507 OA
ATOM     24  H   UNL     1      -1.425  47.011  98.559  1.00  0.00     0.293 HD
ENDBRANCH  13  23
BRANCH  19  25
ATOM     25  C   UNL     1       0.573  46.870  96.867  1.00  0.00     0.264 C 
ATOM     26  O   UNL     1       1.514  46.502  97.619  1.00  0.00    -0.298 OA
ENDBRANCH  19  25
BRANCH  20  27
ATOM     27  C   UNL     1      -1.536  43.404  92.655  1.00  0.00     0.017 C 
ATOM     28  C   UNL     1      -1.832  44.146  91.348  1.00  0.00     0.012 C 
ATOM     29  C   UNL     1      -0.593  42.209  92.424  1.00  0.00     0.012 C 
ENDBRANCH  20  27
BRANCH  21  30
ATOM     30  O   UNL     1       2.120  46.094  94.753  1.00  0.00    -0.504 OA
ATOM     31  H   UNL     1       2.875  45.661  94.242  1.00  0.00     0.293 HD
ENDBRANCH  21  30
BRANCH  22  32
ATOM     32  O   UNL     1       1.026  44.677  92.526  1.00  0.00    -0.504 OA
ATOM     33  H   UNL     1       0.655  44.339  91.651  1.00  0.00     0.293 HD
ENDBRANCH  22  32
ENDBRANCH  11  12
BRANCH  10  34
ATOM     34  O   UNL     1      -3.652  43.419  99.178  1.00  0.00    -0.507 OA
ATOM     35  H   UNL     1      -3.786  42.752  98.428  1.00  0.00     0.293 HD
ENDBRANCH  10  34
BRANCH   9  36
ATOM     36  C   UNL     1      -8.190  47.070 101.472  1.00  0.00     0.017 C 
ATOM     37  C   UNL     1      -8.026  48.205 102.486  1.00  0.00     0.012 C 
ATOM     38  C   UNL     1      -9.572  46.401 101.598  1.00  0.00     0.012 C 
ENDBRANCH   9  36
BRANCH   6  39
ATOM     39  C   UNL     1      -4.095  42.905 101.739  1.00  0.00     0.264 C 
ATOM     40  O   UNL     1      -3.031  43.060 102.395  1.00  0.00    -0.298 OA
ENDBRANCH   6  39
BRANCH   8  41
ATOM     41  O   UNL     1      -7.630  45.543 103.850  1.00  0.00    -0.504 OA
ATOM     42  H   UNL     1      -7.813  44.847 104.562  1.00  0.00     0.293 HD
ENDBRANCH   8  41
BRANCH   7  43
ATOM     43  O   UNL     1      -5.751  43.557 103.959  1.00  0.00    -0.504 OA
ATOM     44  H   UNL     1      -5.539  43.980 104.852  1.00  0.00     0.293 HD
ENDBRANCH   7  43
TORSDOF 11
ENDMDL
