MODEL 1
REMARK VINA RESULT:    -4.251      0.000      0.000
REMARK INTER + INTRA:         -12.121
REMARK INTER:                  -9.222
REMARK INTRA:                  -2.899
REMARK UNBOUND:                -2.899
REMARK SMILES CCCCCCCCCCCCCCCCCCCCCC(=O)[O-]
REMARK SMILES IDX 12 1 11 2 10 3 9 4 8 5 7 6 6 7 5 8 4 9 3 10 2 11 1 12 13 13
REMARK SMILES IDX 14 14 15 15 16 16 17 17 18 18 19 19 20 20 21 21 22 22 23 23
REMARK SMILES IDX 24 24
REMARK H PARENT
REMARK Flexibility Score: inf
ROOT
ATOM      1  C   UNL     1      68.779 -35.009   7.506  1.00  0.00     0.000 C 
ENDROOT
BRANCH   1   2
ATOM      2  C   UNL     1      69.535 -33.720   7.129  1.00  0.00     0.000 C 
BRANCH   2   3
ATOM      3  C   UNL     1      70.310 -33.787   5.799  1.00  0.00     0.000 C 
BRANCH   3   4
ATOM      4  C   UNL     1      71.657 -33.038   5.783  1.00  0.00    -0.000 C 
BRANCH   4   5
ATOM      5  C   UNL     1      72.878 -33.945   6.052  1.00  0.00    -0.000 C 
BRANCH   5   6
ATOM      6  C   UNL     1      72.613 -35.417   5.696  1.00  0.00    -0.000 C 
BRANCH   6   7
ATOM      7  C   UNL     1      72.860 -36.358   6.895  1.00  0.00    -0.000 C 
BRANCH   7   8
ATOM      8  C   UNL     1      72.494 -35.734   8.252  1.00  0.00    -0.000 C 
BRANCH   8   9
ATOM      9  C   UNL     1      72.416 -36.767   9.385  1.00  0.00    -0.000 C 
BRANCH   9  10
ATOM     10  C   UNL     1      70.965 -37.209   9.623  1.00  0.00    -0.000 C 
BRANCH  10  11
ATOM     11  C   UNL     1      70.790 -37.992  10.934  1.00  0.00    -0.003 C 
ATOM     12  C   UNL     1      72.117 -38.272  11.640  1.00  0.00     0.004 C 
ENDBRANCH  10  11
ENDBRANCH   9  10
ENDBRANCH   8   9
ENDBRANCH   7   8
ENDBRANCH   6   7
ENDBRANCH   5   6
ENDBRANCH   4   5
ENDBRANCH   3   4
ENDBRANCH   2   3
ENDBRANCH   1   2
BRANCH   1  13
ATOM     13  C   UNL     1      69.123 -36.193   6.590  1.00  0.00     0.000 C 
BRANCH  13  14
ATOM     14  C   UNL     1      67.895 -37.091   6.373  1.00  0.00     0.000 C 
BRANCH  14  15
ATOM     15  C   UNL     1      66.732 -36.752   7.317  1.00  0.00     0.000 C 
BRANCH  15  16
ATOM     16  C   UNL     1      66.359 -37.919   8.249  1.00  0.00     0.000 C 
BRANCH  16  17
ATOM     17  C   UNL     1      67.422 -38.162   9.334  1.00  0.00     0.000 C 
BRANCH  17  18
ATOM     18  C   UNL     1      67.090 -37.435  10.650  1.00  0.00     0.000 C 
BRANCH  18  19
ATOM     19  C   UNL     1      65.594 -37.516  11.007  1.00  0.00     0.000 C 
BRANCH  19  20
ATOM     20  C   UNL     1      65.217 -36.776  12.306  1.00  0.00     0.006 C 
BRANCH  20  21
ATOM     21  C   UNL     1      65.626 -35.293  12.314  1.00  0.00     0.053 C 
BRANCH  21  22
ATOM     22  C   UNL     1      64.554 -34.418  11.738  1.00  0.00     0.041 C 
ATOM     23  O   UNL     1      64.423 -34.310  10.490  1.00  0.00    -0.550 OA
ATOM     24  O   UNL     1      63.730 -33.684  12.581  1.00  0.00    -0.550 OA
ENDBRANCH  21  22
ENDBRANCH  20  21
ENDBRANCH  19  20
ENDBRANCH  18  19
ENDBRANCH  17  18
ENDBRANCH  16  17
ENDBRANCH  15  16
ENDBRANCH  14  15
ENDBRANCH  13  14
ENDBRANCH   1  13
TORSDOF 20
ENDMDL
MODEL 2
REMARK VINA RESULT:    -4.239      1.442      4.203
REMARK INTER + INTRA:         -12.095
REMARK INTER:                  -9.625
REMARK INTRA:                  -2.470
REMARK UNBOUND:                -2.899
REMARK SMILES CCCCCCCCCCCCCCCCCCCCCC(=O)[O-]
REMARK SMILES IDX 12 1 11 2 10 3 9 4 8 5 7 6 6 7 5 8 4 9 3 10 2 11 1 12 13 13
REMARK SMILES IDX 14 14 15 15 16 16 17 17 18 18 19 19 20 20 21 21 22 22 23 23
REMARK SMILES IDX 24 24
REMARK H PARENT
REMARK Flexibility Score: inf
ROOT
ATOM      1  C   UNL     1      69.894 -37.855  10.417  1.00  0.00     0.000 C 
ENDROOT
BRANCH   1   2
ATOM      2  C   UNL     1      70.917 -38.875  10.952  1.00  0.00     0.000 C 
BRANCH   2   3
ATOM      3  C   UNL     1      72.164 -38.259  11.615  1.00  0.00     0.000 C 
BRANCH   3   4
ATOM      4  C   UNL     1      72.846 -37.131  10.817  1.00  0.00    -0.000 C 
BRANCH   4   5
ATOM      5  C   UNL     1      74.311 -37.434  10.435  1.00  0.00    -0.000 C 
BRANCH   5   6
ATOM      6  C   UNL     1      74.701 -36.849   9.068  1.00  0.00    -0.000 C 
BRANCH   6   7
ATOM      7  C   UNL     1      73.469 -36.370   8.269  1.00  0.00    -0.000 C 
BRANCH   7   8
ATOM      8  C   UNL     1      73.790 -35.985   6.815  1.00  0.00    -0.000 C 
BRANCH   8   9
ATOM      9  C   UNL     1      72.632 -36.273   5.850  1.00  0.00    -0.000 C 
BRANCH   9  10
ATOM     10  C   UNL     1      72.020 -34.965   5.324  1.00  0.00    -0.000 C 
BRANCH  10  11
ATOM     11  C   UNL     1      72.551 -33.724   6.058  1.00  0.00    -0.003 C 
ATOM     12  C   UNL     1      71.480 -33.030   6.900  1.00  0.00     0.004 C 
ENDBRANCH  10  11
ENDBRANCH   9  10
ENDBRANCH   8   9
ENDBRANCH   7   8
ENDBRANCH   6   7
ENDBRANCH   5   6
ENDBRANCH   4   5
ENDBRANCH   3   4
ENDBRANCH   2   3
ENDBRANCH   1   2
BRANCH   1  13
ATOM     13  C   UNL     1      69.809 -37.841   8.883  1.00  0.00     0.000 C 
BRANCH  13  14
ATOM     14  C   UNL     1      70.034 -36.424   8.335  1.00  0.00     0.000 C 
BRANCH  14  15
ATOM     15  C   UNL     1      68.998 -36.021   7.275  1.00  0.00     0.000 C 
BRANCH  15  16
ATOM     16  C   UNL     1      67.774 -35.307   7.876  1.00  0.00     0.000 C 
BRANCH  16  17
ATOM     17  C   UNL     1      66.553 -36.236   7.992  1.00  0.00     0.000 C 
BRANCH  17  18
ATOM     18  C   UNL     1      65.774 -36.014   9.300  1.00  0.00     0.000 C 
BRANCH  18  19
ATOM     19  C   UNL     1      66.083 -37.088  10.361  1.00  0.00     0.000 C 
BRANCH  19  20
ATOM     20  C   UNL     1      66.221 -36.535  11.794  1.00  0.00     0.006 C 
BRANCH  20  21
ATOM     21  C   UNL     1      65.003 -36.824  12.688  1.00  0.00     0.053 C 
BRANCH  21  22
ATOM     22  C   UNL     1      64.658 -35.649  13.552  1.00  0.00     0.041 C 
ATOM     23  O   UNL     1      63.721 -34.873  13.225  1.00  0.00    -0.550 OA
ATOM     24  O   UNL     1      65.403 -35.385  14.693  1.00  0.00    -0.550 OA
ENDBRANCH  21  22
ENDBRANCH  20  21
ENDBRANCH  19  20
ENDBRANCH  18  19
ENDBRANCH  17  18
ENDBRANCH  16  17
ENDBRANCH  15  16
ENDBRANCH  14  15
ENDBRANCH  13  14
ENDBRANCH   1  13
TORSDOF 20
ENDMDL
MODEL 3
REMARK VINA RESULT:    -4.235      1.186      4.400
REMARK INTER + INTRA:         -12.084
REMARK INTER:                  -9.787
REMARK INTRA:                  -2.297
REMARK UNBOUND:                -2.899
REMARK SMILES CCCCCCCCCCCCCCCCCCCCCC(=O)[O-]
REMARK SMILES IDX 12 1 11 2 10 3 9 4 8 5 7 6 6 7 5 8 4 9 3 10 2 11 1 12 13 13
REMARK SMILES IDX 14 14 15 15 16 16 17 17 18 18 19 19 20 20 21 21 22 22 23 23
REMARK SMILES IDX 24 24
REMARK H PARENT
REMARK Flexibility Score: inf
ROOT
ATOM      1  C   UNL     1      70.862 -38.610  11.635  1.00  0.00     0.000 C 
ENDROOT
BRANCH   1   2
ATOM      2  C   UNL     1      72.302 -38.176  11.300  1.00  0.00     0.000 C 
BRANCH   2   3
ATOM      3  C   UNL     1      72.414 -37.025  10.281  1.00  0.00     0.000 C 
BRANCH   3   4
ATOM      4  C   UNL     1      71.228 -36.891   9.306  1.00  0.00    -0.000 C 
BRANCH   4   5
ATOM      5  C   UNL     1      71.596 -36.220   7.964  1.00  0.00    -0.000 C 
BRANCH   5   6
ATOM      6  C   UNL     1      70.404 -36.138   6.996  1.00  0.00    -0.000 C 
BRANCH   6   7
ATOM      7  C   UNL     1      69.309 -35.176   7.503  1.00  0.00    -0.000 C 
BRANCH   7   8
ATOM      8  C   UNL     1      69.562 -33.705   7.131  1.00  0.00    -0.000 C 
BRANCH   8   9
ATOM      9  C   UNL     1      70.369 -33.546   5.835  1.00  0.00    -0.000 C 
BRANCH   9  10
ATOM     10  C   UNL     1      71.736 -32.904   6.118  1.00  0.00    -0.000 C 
BRANCH  10  11
ATOM     11  C   UNL     1      72.769 -33.196   5.018  1.00  0.00    -0.003 C 
ATOM     12  C   UNL     1      73.668 -34.387   5.350  1.00  0.00     0.004 C 
ENDBRANCH  10  11
ENDBRANCH   9  10
ENDBRANCH   8   9
ENDBRANCH   7   8
ENDBRANCH   6   7
ENDBRANCH   5   6
ENDBRANCH   4   5
ENDBRANCH   3   4
ENDBRANCH   2   3
ENDBRANCH   1   2
BRANCH   1  13
ATOM     13  C   UNL     1      70.572 -40.068  11.248  1.00  0.00     0.000 C 
BRANCH  13  14
ATOM     14  C   UNL     1      69.951 -40.148   9.845  1.00  0.00     0.000 C 
BRANCH  14  15
ATOM     15  C   UNL     1      68.430 -39.934   9.851  1.00  0.00     0.000 C 
BRANCH  15  16
ATOM     16  C   UNL     1      67.915 -39.270   8.562  1.00  0.00     0.000 C 
BRANCH  16  17
ATOM     17  C   UNL     1      67.424 -37.831   8.801  1.00  0.00     0.000 C 
BRANCH  17  18
ATOM     18  C   UNL     1      67.352 -37.481  10.299  1.00  0.00     0.000 C 
BRANCH  18  19
ATOM     19  C   UNL     1      65.935 -37.068  10.740  1.00  0.00     0.000 C 
BRANCH  19  20
ATOM     20  C   UNL     1      65.792 -36.833  12.257  1.00  0.00     0.006 C 
BRANCH  20  21
ATOM     21  C   UNL     1      65.749 -35.347  12.652  1.00  0.00     0.053 C 
BRANCH  21  22
ATOM     22  C   UNL     1      64.343 -34.858  12.823  1.00  0.00     0.041 C 
ATOM     23  O   UNL     1      63.971 -33.786  12.275  1.00  0.00    -0.550 OA
ATOM     24  O   UNL     1      63.458 -35.561  13.628  1.00  0.00    -0.550 OA
ENDBRANCH  21  22
ENDBRANCH  20  21
ENDBRANCH  19  20
ENDBRANCH  18  19
ENDBRANCH  17  18
ENDBRANCH  16  17
ENDBRANCH  15  16
ENDBRANCH  14  15
ENDBRANCH  13  14
ENDBRANCH   1  13
TORSDOF 20
ENDMDL
MODEL 4
REMARK VINA RESULT:    -4.195      1.305      4.039
REMARK INTER + INTRA:         -11.997
REMARK INTER:                  -9.790
REMARK INTRA:                  -2.207
REMARK UNBOUND:                -2.899
REMARK SMILES CCCCCCCCCCCCCCCCCCCCCC(=O)[O-]
REMARK SMILES IDX 12 1 11 2 10 3 9 4 8 5 7 6 6 7 5 8 4 9 3 10 2 11 1 12 13 13
REMARK SMILES IDX 14 14 15 15 16 16 17 17 18 18 19 19 20 20 21 21 22 22 23 23
REMARK SMILES IDX 24 24
REMARK H PARENT
REMARK Flexibility Score: inf
ROOT
ATOM      1  C   UNL     1      72.188 -38.193  11.704  1.00  0.00     0.000 C 
ENDROOT
BRANCH   1   2
ATOM      2  C   UNL     1      72.892 -37.074  10.913  1.00  0.00     0.000 C 
BRANCH   2   3
ATOM      3  C   UNL     1      74.312 -37.419  10.423  1.00  0.00     0.000 C 
BRANCH   3   4
ATOM      4  C   UNL     1      74.678 -36.875   9.028  1.00  0.00    -0.000 C 
BRANCH   4   5
ATOM      5  C   UNL     1      73.477 -36.298   8.248  1.00  0.00    -0.000 C 
BRANCH   5   6
ATOM      6  C   UNL     1      73.810 -36.012   6.774  1.00  0.00    -0.000 C 
BRANCH   6   7
ATOM      7  C   UNL     1      73.156 -34.706   6.274  1.00  0.00    -0.000 C 
BRANCH   7   8
ATOM      8  C   UNL     1      72.254 -34.030   7.321  1.00  0.00    -0.000 C 
BRANCH   8   9
ATOM      9  C   UNL     1      71.452 -32.852   6.749  1.00  0.00    -0.000 C 
BRANCH   9  10
ATOM     10  C   UNL     1      70.094 -33.326   6.210  1.00  0.00    -0.000 C 
BRANCH  10  11
ATOM     11  C   UNL     1      69.703 -34.720   6.725  1.00  0.00    -0.003 C 
ATOM     12  C   UNL     1      68.545 -34.681   7.722  1.00  0.00     0.004 C 
ENDBRANCH  10  11
ENDBRANCH   9  10
ENDBRANCH   8   9
ENDBRANCH   7   8
ENDBRANCH   6   7
ENDBRANCH   5   6
ENDBRANCH   4   5
ENDBRANCH   3   4
ENDBRANCH   2   3
ENDBRANCH   1   2
BRANCH   1  13
ATOM     13  C   UNL     1      70.891 -38.673  11.035  1.00  0.00     0.000 C 
BRANCH  13  14
ATOM     14  C   UNL     1      70.298 -37.573  10.140  1.00  0.00     0.000 C 
BRANCH  14  15
ATOM     15  C   UNL     1      69.758 -38.113   8.808  1.00  0.00     0.000 C 
BRANCH  15  16
ATOM     16  C   UNL     1      69.027 -39.459   8.961  1.00  0.00     0.000 C 
BRANCH  16  17
ATOM     17  C   UNL     1      67.530 -39.353   8.625  1.00  0.00     0.000 C 
BRANCH  17  18
ATOM     18  C   UNL     1      66.819 -38.276   9.463  1.00  0.00     0.000 C 
BRANCH  18  19
ATOM     19  C   UNL     1      65.950 -38.878  10.584  1.00  0.00     0.000 C 
BRANCH  19  20
ATOM     20  C   UNL     1      65.196 -37.831  11.427  1.00  0.00     0.006 C 
BRANCH  20  21
ATOM     21  C   UNL     1      66.051 -36.609  11.805  1.00  0.00     0.053 C 
BRANCH  21  22
ATOM     22  C   UNL     1      65.437 -35.331  11.321  1.00  0.00     0.041 C 
ATOM     23  O   UNL     1      65.443 -35.046  10.094  1.00  0.00    -0.550 OA
ATOM     24  O   UNL     1      64.901 -34.431  12.232  1.00  0.00    -0.550 OA
ENDBRANCH  21  22
ENDBRANCH  20  21
ENDBRANCH  19  20
ENDBRANCH  18  19
ENDBRANCH  17  18
ENDBRANCH  16  17
ENDBRANCH  15  16
ENDBRANCH  14  15
ENDBRANCH  13  14
ENDBRANCH   1  13
TORSDOF 20
ENDMDL
MODEL 5
REMARK VINA RESULT:    -4.152      1.165      2.070
REMARK INTER + INTRA:         -11.906
REMARK INTER:                  -9.450
REMARK INTRA:                  -2.456
REMARK UNBOUND:                -2.899
REMARK SMILES CCCCCCCCCCCCCCCCCCCCCC(=O)[O-]
REMARK SMILES IDX 12 1 11 2 10 3 9 4 8 5 7 6 6 7 5 8 4 9 3 10 2 11 1 12 13 13
REMARK SMILES IDX 14 14 15 15 16 16 17 17 18 18 19 19 20 20 21 21 22 22 23 23
REMARK SMILES IDX 24 24
REMARK H PARENT
REMARK Flexibility Score: inf
ROOT
ATOM      1  C   UNL     1      70.002 -33.638   6.402  1.00  0.00     0.000 C 
ENDROOT
BRANCH   1   2
ATOM      2  C   UNL     1      71.295 -33.092   7.036  1.00  0.00     0.000 C 
BRANCH   2   3
ATOM      3  C   UNL     1      72.568 -33.898   6.714  1.00  0.00     0.000 C 
BRANCH   3   4
ATOM      4  C   UNL     1      72.339 -35.212   5.942  1.00  0.00    -0.000 C 
BRANCH   4   5
ATOM      5  C   UNL     1      72.843 -36.468   6.685  1.00  0.00    -0.000 C 
BRANCH   5   6
ATOM      6  C   UNL     1      72.962 -36.252   8.202  1.00  0.00    -0.000 C 
BRANCH   6   7
ATOM      7  C   UNL     1      74.293 -36.795   8.764  1.00  0.00    -0.000 C 
BRANCH   7   8
ATOM      8  C   UNL     1      74.192 -37.288  10.218  1.00  0.00    -0.000 C 
BRANCH   8   9
ATOM      9  C   UNL     1      72.845 -36.951  10.872  1.00  0.00    -0.000 C 
BRANCH   9  10
ATOM     10  C   UNL     1      72.380 -38.095  11.785  1.00  0.00    -0.000 C 
BRANCH  10  11
ATOM     11  C   UNL     1      71.269 -38.947  11.151  1.00  0.00    -0.003 C 
ATOM     12  C   UNL     1      70.380 -38.149  10.198  1.00  0.00     0.004 C 
ENDBRANCH  10  11
ENDBRANCH   9  10
ENDBRANCH   8   9
ENDBRANCH   7   8
ENDBRANCH   6   7
ENDBRANCH   5   6
ENDBRANCH   4   5
ENDBRANCH   3   4
ENDBRANCH   2   3
ENDBRANCH   1   2
BRANCH   1  13
ATOM     13  C   UNL     1      69.010 -34.183   7.440  1.00  0.00     0.000 C 
BRANCH  13  14
ATOM     14  C   UNL     1      69.183 -35.699   7.620  1.00  0.00     0.000 C 
BRANCH  14  15
ATOM     15  C   UNL     1      67.876 -36.478   7.416  1.00  0.00     0.000 C 
BRANCH  15  16
ATOM     16  C   UNL     1      66.851 -36.229   8.537  1.00  0.00     0.000 C 
BRANCH  16  17
ATOM     17  C   UNL     1      66.435 -37.528   9.249  1.00  0.00     0.000 C 
BRANCH  17  18
ATOM     18  C   UNL     1      66.851 -37.540  10.731  1.00  0.00     0.000 C 
BRANCH  18  19
ATOM     19  C   UNL     1      66.109 -36.476  11.561  1.00  0.00     0.000 C 
BRANCH  19  20
ATOM     20  C   UNL     1      64.675 -36.877  11.959  1.00  0.00     0.006 C 
BRANCH  20  21
ATOM     21  C   UNL     1      63.680 -35.703  11.951  1.00  0.00     0.053 C 
BRANCH  21  22
ATOM     22  C   UNL     1      63.699 -34.967  10.647  1.00  0.00     0.041 C 
ATOM     23  O   UNL     1      63.895 -33.723  10.621  1.00  0.00    -0.550 OA
ATOM     24  O   UNL     1      63.452 -35.648   9.462  1.00  0.00    -0.550 OA
ENDBRANCH  21  22
ENDBRANCH  20  21
ENDBRANCH  19  20
ENDBRANCH  18  19
ENDBRANCH  17  18
ENDBRANCH  16  17
ENDBRANCH  15  16
ENDBRANCH  14  15
ENDBRANCH  13  14
ENDBRANCH   1  13
TORSDOF 20
ENDMDL
MODEL 6
REMARK VINA RESULT:    -4.115      1.359      4.011
REMARK INTER + INTRA:         -11.824
REMARK INTER:                  -9.459
REMARK INTRA:                  -2.365
REMARK UNBOUND:                -2.899
REMARK SMILES CCCCCCCCCCCCCCCCCCCCCC(=O)[O-]
REMARK SMILES IDX 12 1 11 2 10 3 9 4 8 5 7 6 6 7 5 8 4 9 3 10 2 11 1 12 13 13
REMARK SMILES IDX 14 14 15 15 16 16 17 17 18 18 19 19 20 20 21 21 22 22 23 23
REMARK SMILES IDX 24 24
REMARK H PARENT
REMARK Flexibility Score: inf
ROOT
ATOM      1  C   UNL     1      71.009 -38.494  11.681  1.00  0.00     0.000 C 
ENDROOT
BRANCH   1   2
ATOM      2  C   UNL     1      72.511 -38.161  11.605  1.00  0.00     0.000 C 
BRANCH   2   3
ATOM      3  C   UNL     1      72.895 -37.136  10.520  1.00  0.00     0.000 C 
BRANCH   3   4
ATOM      4  C   UNL     1      74.371 -37.168  10.077  1.00  0.00    -0.000 C 
BRANCH   4   5
ATOM      5  C   UNL     1      74.586 -36.790   8.595  1.00  0.00    -0.000 C 
BRANCH   5   6
ATOM      6  C   UNL     1      73.397 -36.015   8.002  1.00  0.00    -0.000 C 
BRANCH   6   7
ATOM      7  C   UNL     1      73.047 -36.491   6.576  1.00  0.00    -0.000 C 
BRANCH   7   8
ATOM      8  C   UNL     1      71.590 -36.963   6.426  1.00  0.00    -0.000 C 
BRANCH   8   9
ATOM      9  C   UNL     1      70.661 -36.394   7.506  1.00  0.00    -0.000 C 
BRANCH   9  10
ATOM     10  C   UNL     1      69.381 -35.820   6.880  1.00  0.00    -0.000 C 
BRANCH  10  11
ATOM     11  C   UNL     1      69.042 -34.415   7.402  1.00  0.00    -0.003 C 
ATOM     12  C   UNL     1      69.916 -33.324   6.782  1.00  0.00     0.004 C 
ENDBRANCH  10  11
ENDBRANCH   9  10
ENDBRANCH   8   9
ENDBRANCH   7   8
ENDBRANCH   6   7
ENDBRANCH   5   6
ENDBRANCH   4   5
ENDBRANCH   3   4
ENDBRANCH   2   3
ENDBRANCH   1   2
BRANCH   1  13
ATOM     13  C   UNL     1      70.623 -39.710  10.826  1.00  0.00     0.000 C 
BRANCH  13  14
ATOM     14  C   UNL     1      69.630 -39.311   9.723  1.00  0.00     0.000 C 
BRANCH  14  15
ATOM     15  C   UNL     1      68.816 -38.057  10.077  1.00  0.00     0.000 C 
BRANCH  15  16
ATOM     16  C   UNL     1      67.309 -38.232   9.821  1.00  0.00     0.000 C 
BRANCH  16  17
ATOM     17  C   UNL     1      66.675 -36.985   9.182  1.00  0.00     0.000 C 
BRANCH  17  18
ATOM     18  C   UNL     1      65.535 -36.405  10.040  1.00  0.00     0.000 C 
BRANCH  18  19
ATOM     19  C   UNL     1      65.327 -37.187  11.351  1.00  0.00     0.000 C 
BRANCH  19  20
ATOM     20  C   UNL     1      65.734 -36.410  12.618  1.00  0.00     0.006 C 
BRANCH  20  21
ATOM     21  C   UNL     1      65.354 -34.920  12.580  1.00  0.00     0.053 C 
BRANCH  21  22
ATOM     22  C   UNL     1      64.018 -34.671  13.212  1.00  0.00     0.041 C 
ATOM     23  O   UNL     1      63.157 -33.966  12.623  1.00  0.00    -0.550 OA
ATOM     24  O   UNL     1      63.744 -35.178  14.475  1.00  0.00    -0.550 OA
ENDBRANCH  21  22
ENDBRANCH  20  21
ENDBRANCH  19  20
ENDBRANCH  18  19
ENDBRANCH  17  18
ENDBRANCH  16  17
ENDBRANCH  15  16
ENDBRANCH  14  15
ENDBRANCH  13  14
ENDBRANCH   1  13
TORSDOF 20
ENDMDL
MODEL 7
REMARK VINA RESULT:    -4.002      3.457      7.190
REMARK INTER + INTRA:         -11.580
REMARK INTER:                  -9.028
REMARK INTRA:                  -2.552
REMARK UNBOUND:                -2.899
REMARK SMILES CCCCCCCCCCCCCCCCCCCCCC(=O)[O-]
REMARK SMILES IDX 12 1 11 2 10 3 9 4 8 5 7 6 6 7 5 8 4 9 3 10 2 11 1 12 13 13
REMARK SMILES IDX 14 14 15 15 16 16 17 17 18 18 19 19 20 20 21 21 22 22 23 23
REMARK SMILES IDX 24 24
REMARK H PARENT
REMARK Flexibility Score: inf
ROOT
ATOM      1  C   UNL     1      69.587 -33.723   7.116  1.00  0.00     0.000 C 
ENDROOT
BRANCH   1   2
ATOM      2  C   UNL     1      69.957 -35.179   7.453  1.00  0.00     0.000 C 
BRANCH   2   3
ATOM      3  C   UNL     1      69.504 -36.223   6.414  1.00  0.00     0.000 C 
BRANCH   3   4
ATOM      4  C   UNL     1      68.046 -36.703   6.555  1.00  0.00    -0.000 C 
BRANCH   4   5
ATOM      5  C   UNL     1      67.251 -35.971   7.659  1.00  0.00    -0.000 C 
BRANCH   5   6
ATOM      6  C   UNL     1      66.033 -36.774   8.143  1.00  0.00    -0.000 C 
BRANCH   6   7
ATOM      7  C   UNL     1      65.820 -36.644   9.667  1.00  0.00    -0.000 C 
BRANCH   7   8
ATOM      8  C   UNL     1      66.359 -37.842  10.468  1.00  0.00    -0.000 C 
BRANCH   8   9
ATOM      9  C   UNL     1      67.040 -38.896   9.584  1.00  0.00    -0.000 C 
BRANCH   9  10
ATOM     10  C   UNL     1      68.498 -39.113  10.017  1.00  0.00    -0.000 C 
BRANCH  10  11
ATOM     11  C   UNL     1      69.211 -37.802  10.383  1.00  0.00    -0.003 C 
ATOM     12  C   UNL     1      70.658 -37.758   9.893  1.00  0.00     0.004 C 
ENDBRANCH  10  11
ENDBRANCH   9  10
ENDBRANCH   8   9
ENDBRANCH   7   8
ENDBRANCH   6   7
ENDBRANCH   5   6
ENDBRANCH   4   5
ENDBRANCH   3   4
ENDBRANCH   2   3
ENDBRANCH   1   2
BRANCH   1  13
ATOM     13  C   UNL     1      70.267 -33.214   5.836  1.00  0.00     0.000 C 
BRANCH  13  14
ATOM     14  C   UNL     1      71.762 -32.953   6.078  1.00  0.00     0.000 C 
BRANCH  14  15
ATOM     15  C   UNL     1      72.653 -33.491   4.949  1.00  0.00     0.000 C 
BRANCH  15  16
ATOM     16  C   UNL     1      73.731 -34.467   5.454  1.00  0.00     0.000 C 
BRANCH  16  17
ATOM     17  C   UNL     1      73.207 -35.908   5.572  1.00  0.00     0.000 C 
BRANCH  17  18
ATOM     18  C   UNL     1      73.517 -36.531   6.945  1.00  0.00     0.000 C 
BRANCH  18  19
ATOM     19  C   UNL     1      75.027 -36.734   7.173  1.00  0.00     0.000 C 
BRANCH  19  20
ATOM     20  C   UNL     1      75.424 -36.891   8.655  1.00  0.00     0.006 C 
BRANCH  20  21
ATOM     21  C   UNL     1      74.222 -36.957   9.613  1.00  0.00     0.053 C 
BRANCH  21  22
ATOM     22  C   UNL     1      74.638 -37.350  10.998  1.00  0.00     0.041 C 
ATOM     23  O   UNL     1      73.878 -38.055  11.714  1.00  0.00    -0.550 OA
ATOM     24  O   UNL     1      75.843 -36.896  11.516  1.00  0.00    -0.550 OA
ENDBRANCH  21  22
ENDBRANCH  20  21
ENDBRANCH  19  20
ENDBRANCH  18  19
ENDBRANCH  17  18
ENDBRANCH  16  17
ENDBRANCH  15  16
ENDBRANCH  14  15
ENDBRANCH  13  14
ENDBRANCH   1  13
TORSDOF 20
ENDMDL
MODEL 8
REMARK VINA RESULT:    -3.944      1.441      2.111
REMARK INTER + INTRA:         -11.455
REMARK INTER:                  -9.118
REMARK INTRA:                  -2.337
REMARK UNBOUND:                -2.899
REMARK SMILES CCCCCCCCCCCCCCCCCCCCCC(=O)[O-]
REMARK SMILES IDX 12 1 11 2 10 3 9 4 8 5 7 6 6 7 5 8 4 9 3 10 2 11 1 12 13 13
REMARK SMILES IDX 14 14 15 15 16 16 17 17 18 18 19 19 20 20 21 21 22 22 23 23
REMARK SMILES IDX 24 24
REMARK H PARENT
REMARK Flexibility Score: inf
ROOT
ATOM      1  C   UNL     1      69.524 -33.528   7.081  1.00  0.00     0.000 C 
ENDROOT
BRANCH   1   2
ATOM      2  C   UNL     1      70.402 -33.609   5.818  1.00  0.00     0.000 C 
BRANCH   2   3
ATOM      3  C   UNL     1      71.807 -32.993   5.962  1.00  0.00     0.000 C 
BRANCH   3   4
ATOM      4  C   UNL     1      72.855 -33.495   4.949  1.00  0.00    -0.000 C 
BRANCH   4   5
ATOM      5  C   UNL     1      73.870 -34.495   5.546  1.00  0.00    -0.000 C 
BRANCH   5   6
ATOM      6  C   UNL     1      73.523 -35.957   5.220  1.00  0.00    -0.000 C 
BRANCH   6   7
ATOM      7  C   UNL     1      73.060 -36.736   6.470  1.00  0.00    -0.000 C 
BRANCH   7   8
ATOM      8  C   UNL     1      73.156 -35.923   7.772  1.00  0.00    -0.000 C 
BRANCH   8   9
ATOM      9  C   UNL     1      73.671 -36.751   8.958  1.00  0.00    -0.000 C 
BRANCH   9  10
ATOM     10  C   UNL     1      75.207 -36.763   8.990  1.00  0.00    -0.000 C 
BRANCH  10  11
ATOM     11  C   UNL     1      75.771 -36.756  10.419  1.00  0.00    -0.003 C 
ATOM     12  C   UNL     1      75.138 -37.823  11.312  1.00  0.00     0.004 C 
ENDBRANCH  10  11
ENDBRANCH   9  10
ENDBRANCH   8   9
ENDBRANCH   7   8
ENDBRANCH   6   7
ENDBRANCH   5   6
ENDBRANCH   4   5
ENDBRANCH   3   4
ENDBRANCH   2   3
ENDBRANCH   1   2
BRANCH   1  13
ATOM     13  C   UNL     1      68.949 -34.889   7.498  1.00  0.00     0.000 C 
BRANCH  13  14
ATOM     14  C   UNL     1      69.402 -35.994   6.531  1.00  0.00     0.000 C 
BRANCH  14  15
ATOM     15  C   UNL     1      69.610 -37.348   7.226  1.00  0.00     0.000 C 
BRANCH  15  16
ATOM     16  C   UNL     1      69.604 -37.239   8.761  1.00  0.00     0.000 C 
BRANCH  16  17
ATOM     17  C   UNL     1      68.696 -38.292   9.419  1.00  0.00     0.000 C 
BRANCH  17  18
ATOM     18  C   UNL     1      67.971 -37.742  10.661  1.00  0.00     0.000 C 
BRANCH  18  19
ATOM     19  C   UNL     1      66.500 -37.384  10.374  1.00  0.00     0.000 C 
BRANCH  19  20
ATOM     20  C   UNL     1      65.591 -37.416  11.619  1.00  0.00     0.006 C 
BRANCH  20  21
ATOM     21  C   UNL     1      65.794 -36.219  12.564  1.00  0.00     0.053 C 
BRANCH  21  22
ATOM     22  C   UNL     1      64.921 -35.060  12.188  1.00  0.00     0.041 C 
ATOM     23  O   UNL     1      65.368 -34.140  11.452  1.00  0.00    -0.550 OA
ATOM     24  O   UNL     1      63.630 -34.972  12.690  1.00  0.00    -0.550 OA
ENDBRANCH  21  22
ENDBRANCH  20  21
ENDBRANCH  19  20
ENDBRANCH  18  19
ENDBRANCH  17  18
ENDBRANCH  16  17
ENDBRANCH  15  16
ENDBRANCH  14  15
ENDBRANCH  13  14
ENDBRANCH   1  13
TORSDOF 20
ENDMDL
MODEL 9
REMARK VINA RESULT:    -3.883      2.381      7.406
REMARK INTER + INTRA:         -11.322
REMARK INTER:                  -8.906
REMARK INTRA:                  -2.417
REMARK UNBOUND:                -2.899
REMARK SMILES CCCCCCCCCCCCCCCCCCCCCC(=O)[O-]
REMARK SMILES IDX 12 1 11 2 10 3 9 4 8 5 7 6 6 7 5 8 4 9 3 10 2 11 1 12 13 13
REMARK SMILES IDX 14 14 15 15 16 16 17 17 18 18 19 19 20 20 21 21 22 22 23 23
REMARK SMILES IDX 24 24
REMARK H PARENT
REMARK Flexibility Score: inf
ROOT
ATOM      1  C   UNL     1      69.574 -39.477   9.805  1.00  0.00     0.000 C 
ENDROOT
BRANCH   1   2
ATOM      2  C   UNL     1      69.294 -37.968   9.669  1.00  0.00     0.000 C 
BRANCH   2   3
ATOM      3  C   UNL     1      67.950 -37.500  10.260  1.00  0.00     0.000 C 
BRANCH   3   4
ATOM      4  C   UNL     1      66.741 -37.599   9.309  1.00  0.00    -0.000 C 
BRANCH   4   5
ATOM      5  C   UNL     1      66.062 -36.243   9.020  1.00  0.00    -0.000 C 
BRANCH   5   6
ATOM      6  C   UNL     1      64.638 -36.401   8.459  1.00  0.00    -0.000 C 
BRANCH   6   7
ATOM      7  C   UNL     1      63.560 -36.034   9.501  1.00  0.00    -0.000 C 
BRANCH   7   8
ATOM      8  C   UNL     1      63.365 -37.104  10.588  1.00  0.00    -0.000 C 
BRANCH   8   9
ATOM      9  C   UNL     1      63.479 -36.540  12.011  1.00  0.00    -0.000 C 
BRANCH   9  10
ATOM     10  C   UNL     1      64.664 -37.173  12.757  1.00  0.00    -0.000 C 
BRANCH  10  11
ATOM     11  C   UNL     1      65.883 -36.241  12.838  1.00  0.00    -0.003 C 
ATOM     12  C   UNL     1      65.553 -34.799  12.453  1.00  0.00     0.004 C 
ENDBRANCH  10  11
ENDBRANCH   9  10
ENDBRANCH   8   9
ENDBRANCH   7   8
ENDBRANCH   6   7
ENDBRANCH   5   6
ENDBRANCH   4   5
ENDBRANCH   3   4
ENDBRANCH   2   3
ENDBRANCH   1   2
BRANCH   1  13
ATOM     13  C   UNL     1      70.632 -39.795  10.872  1.00  0.00     0.000 C 
BRANCH  13  14
ATOM     14  C   UNL     1      71.020 -38.529  11.652  1.00  0.00     0.000 C 
BRANCH  14  15
ATOM     15  C   UNL     1      72.533 -38.266  11.649  1.00  0.00     0.000 C 
BRANCH  15  16
ATOM     16  C   UNL     1      72.912 -36.962  10.925  1.00  0.00     0.000 C 
BRANCH  16  17
ATOM     17  C   UNL     1      74.147 -37.131  10.024  1.00  0.00     0.000 C 
BRANCH  17  18
ATOM     18  C   UNL     1      73.876 -36.690   8.574  1.00  0.00     0.000 C 
BRANCH  18  19
ATOM     19  C   UNL     1      72.448 -36.147   8.380  1.00  0.00     0.000 C 
BRANCH  19  20
ATOM     20  C   UNL     1      72.373 -34.866   7.525  1.00  0.00     0.006 C 
BRANCH  20  21
ATOM     21  C   UNL     1      71.264 -34.896   6.460  1.00  0.00     0.053 C 
BRANCH  21  22
ATOM     22  C   UNL     1      70.022 -34.202   6.931  1.00  0.00     0.041 C 
ATOM     23  O   UNL     1      69.891 -32.958   6.777  1.00  0.00    -0.550 OA
ATOM     24  O   UNL     1      69.031 -34.921   7.585  1.00  0.00    -0.550 OA
ENDBRANCH  21  22
ENDBRANCH  20  21
ENDBRANCH  19  20
ENDBRANCH  18  19
ENDBRANCH  17  18
ENDBRANCH  16  17
ENDBRANCH  15  16
ENDBRANCH  14  15
ENDBRANCH  13  14
ENDBRANCH   1  13
TORSDOF 20
ENDMDL
