MODEL 1
REMARK VINA RESULT:    -3.335      0.000      0.000
REMARK INTER + INTRA:          -6.540
REMARK INTER:                  -5.285
REMARK INTRA:                  -1.254
REMARK UNBOUND:                -1.254
REMARK SMILES CCCCCCCCCCCC(=O)[O-]
REMARK SMILES IDX 7 1 8 2 9 3 10 4 11 5 12 6 13 7 14 8 6 9 5 10 4 11 3 12 2 13
REMARK SMILES IDX 1 14
REMARK H PARENT
REMARK Flexibility Score: inf
ROOT
ATOM      1  C   UNL     1    -100.092  70.982  26.492  1.00  0.00     0.000 C 
ENDROOT
BRANCH   1   2
ATOM      2  C   UNL     1     -98.574  70.923  26.727  1.00  0.00     0.000 C 
BRANCH   2   3
ATOM      3  C   UNL     1     -98.211  70.835  28.219  1.00  0.00     0.000 C 
BRANCH   3   4
ATOM      4  C   UNL     1     -99.448  70.681  29.119  1.00  0.00     0.006 C 
BRANCH   4   5
ATOM      5  C   UNL     1     -99.297  69.552  30.146  1.00  0.00     0.053 C 
BRANCH   5   6
ATOM      6  C   UNL     1     -99.473  68.220  29.488  1.00  0.00     0.041 C 
ATOM      7  O   UNL     1     -98.703  67.266  29.775  1.00  0.00    -0.550 OA
ATOM      8  O   UNL     1    -100.453  68.046  28.520  1.00  0.00    -0.550 OA
ENDBRANCH   5   6
ENDBRANCH   4   5
ENDBRANCH   3   4
ENDBRANCH   2   3
ENDBRANCH   1   2
BRANCH   1   9
ATOM      9  C   UNL     1    -100.584  69.911  25.506  1.00  0.00     0.000 C 
BRANCH   9  10
ATOM     10  C   UNL     1     -99.521  68.825  25.300  1.00  0.00    -0.000 C 
BRANCH  10  11
ATOM     11  C   UNL     1     -99.187  68.657  23.810  1.00  0.00    -0.000 C 
BRANCH  11  12
ATOM     12  C   UNL     1     -99.700  69.825  22.954  1.00  0.00    -0.000 C 
BRANCH  12  13
ATOM     13  C   UNL     1     -98.565  70.595  22.263  1.00  0.00    -0.003 C 
ATOM     14  C   UNL     1     -97.854  71.524  23.242  1.00  0.00     0.004 C 
ENDBRANCH  12  13
ENDBRANCH  11  12
ENDBRANCH  10  11
ENDBRANCH   9  10
ENDBRANCH   1   9
TORSDOF 10
ENDMDL
MODEL 2
REMARK VINA RESULT:    -3.229      2.152      4.098
REMARK INTER + INTRA:          -6.371
REMARK INTER:                  -5.300
REMARK INTRA:                  -1.070
REMARK UNBOUND:                -1.254
REMARK SMILES CCCCCCCCCCCC(=O)[O-]
REMARK SMILES IDX 7 1 8 2 9 3 10 4 11 5 12 6 13 7 14 8 6 9 5 10 4 11 3 12 2 13
REMARK SMILES IDX 1 14
REMARK H PARENT
REMARK Flexibility Score: inf
ROOT
ATOM      1  C   UNL     1     -98.622  70.261  22.357  1.00  0.00     0.000 C 
ENDROOT
BRANCH   1   2
ATOM      2  C   UNL     1     -99.737  69.572  23.160  1.00  0.00     0.000 C 
BRANCH   2   3
ATOM      3  C   UNL     1     -99.204  68.444  24.061  1.00  0.00     0.000 C 
BRANCH   3   4
ATOM      4  C   UNL     1     -99.211  68.826  25.550  1.00  0.00     0.006 C 
BRANCH   4   5
ATOM      5  C   UNL     1    -100.092  70.047  25.845  1.00  0.00     0.053 C 
BRANCH   5   6
ATOM      6  C   UNL     1    -100.972  69.782  27.025  1.00  0.00     0.041 C 
ATOM      7  O   UNL     1    -101.260  68.600  27.348  1.00  0.00    -0.550 OA
ATOM      8  O   UNL     1    -101.516  70.842  27.740  1.00  0.00    -0.550 OA
ENDBRANCH   5   6
ENDBRANCH   4   5
ENDBRANCH   3   4
ENDBRANCH   2   3
ENDBRANCH   1   2
BRANCH   1   9
ATOM      9  C   UNL     1     -98.869  71.765  22.165  1.00  0.00     0.000 C 
BRANCH   9  10
ATOM     10  C   UNL     1     -98.763  72.514  23.500  1.00  0.00    -0.000 C 
BRANCH  10  11
ATOM     11  C   UNL     1     -97.400  72.263  24.164  1.00  0.00    -0.000 C 
BRANCH  11  12
ATOM     12  C   UNL     1     -96.352  73.318  23.780  1.00  0.00    -0.000 C 
BRANCH  12  13
ATOM     13  C   UNL     1     -95.309  72.782  22.787  1.00  0.00    -0.003 C 
ATOM     14  C   UNL     1     -95.239  73.656  21.538  1.00  0.00     0.004 C 
ENDBRANCH  12  13
ENDBRANCH  11  12
ENDBRANCH  10  11
ENDBRANCH   9  10
ENDBRANCH   1   9
TORSDOF 10
ENDMDL
MODEL 3
REMARK VINA RESULT:    -3.213      1.040      2.046
REMARK INTER + INTRA:          -6.346
REMARK INTER:                  -4.985
REMARK INTRA:                  -1.361
REMARK UNBOUND:                -1.254
REMARK SMILES CCCCCCCCCCCC(=O)[O-]
REMARK SMILES IDX 7 1 8 2 9 3 10 4 11 5 12 6 13 7 14 8 6 9 5 10 4 11 3 12 2 13
REMARK SMILES IDX 1 14
REMARK H PARENT
REMARK Flexibility Score: inf
ROOT
ATOM      1  C   UNL     1     -99.185  68.760  25.398  1.00  0.00     0.000 C 
ENDROOT
BRANCH   1   2
ATOM      2  C   UNL     1    -100.225  69.829  25.770  1.00  0.00     0.000 C 
BRANCH   2   3
ATOM      3  C   UNL     1     -99.767  70.715  26.941  1.00  0.00     0.000 C 
BRANCH   3   4
ATOM      4  C   UNL     1     -98.491  70.187  27.616  1.00  0.00     0.006 C 
BRANCH   4   5
ATOM      5  C   UNL     1     -98.650  70.012  29.132  1.00  0.00     0.053 C 
BRANCH   5   6
ATOM      6  C   UNL     1     -99.788  69.089  29.433  1.00  0.00     0.041 C 
ATOM      7  O   UNL     1     -99.762  67.898  29.026  1.00  0.00    -0.550 OA
ATOM      8  O   UNL     1    -100.900  69.556  30.121  1.00  0.00    -0.550 OA
ENDBRANCH   5   6
ENDBRANCH   4   5
ENDBRANCH   3   4
ENDBRANCH   2   3
ENDBRANCH   1   2
BRANCH   1   9
ATOM      9  C   UNL     1     -99.241  68.366  23.915  1.00  0.00     0.000 C 
BRANCH   9  10
ATOM     10  C   UNL     1     -99.755  69.529  23.057  1.00  0.00    -0.000 C 
BRANCH  10  11
ATOM     11  C   UNL     1     -98.593  70.259  22.366  1.00  0.00    -0.000 C 
BRANCH  11  12
ATOM     12  C   UNL     1     -98.850  71.766  22.210  1.00  0.00    -0.000 C 
BRANCH  12  13
ATOM     13  C   UNL     1     -98.900  72.501  23.558  1.00  0.00    -0.003 C 
ATOM     14  C   UNL     1     -97.587  72.343  24.319  1.00  0.00     0.004 C 
ENDBRANCH  12  13
ENDBRANCH  11  12
ENDBRANCH  10  11
ENDBRANCH   9  10
ENDBRANCH   1   9
TORSDOF 10
ENDMDL
MODEL 4
REMARK VINA RESULT:    -3.203      1.799      2.365
REMARK INTER + INTRA:          -6.329
REMARK INTER:                  -5.212
REMARK INTRA:                  -1.117
REMARK UNBOUND:                -1.254
REMARK SMILES CCCCCCCCCCCC(=O)[O-]
REMARK SMILES IDX 7 1 8 2 9 3 10 4 11 5 12 6 13 7 14 8 6 9 5 10 4 11 3 12 2 13
REMARK SMILES IDX 1 14
REMARK H PARENT
REMARK Flexibility Score: inf
ROOT
ATOM      1  C   UNL     1    -101.544  69.953  26.483  1.00  0.00     0.000 C 
ENDROOT
BRANCH   1   2
ATOM      2  C   UNL     1    -101.159  68.738  27.341  1.00  0.00     0.000 C 
BRANCH   2   3
ATOM      3  C   UNL     1    -100.966  69.100  28.824  1.00  0.00     0.000 C 
BRANCH   3   4
ATOM      4  C   UNL     1     -99.664  68.526  29.407  1.00  0.00     0.006 C 
BRANCH   4   5
ATOM      5  C   UNL     1     -98.410  69.108  28.743  1.00  0.00     0.053 C 
BRANCH   5   6
ATOM      6  C   UNL     1     -98.397  70.598  28.867  1.00  0.00     0.041 C 
ATOM      7  O   UNL     1     -98.331  71.319  27.837  1.00  0.00    -0.550 OA
ATOM      8  O   UNL     1     -98.406  71.192  30.123  1.00  0.00    -0.550 OA
ENDBRANCH   5   6
ENDBRANCH   4   5
ENDBRANCH   3   4
ENDBRANCH   2   3
ENDBRANCH   1   2
BRANCH   1   9
ATOM      9  C   UNL     1    -100.567  70.195  25.322  1.00  0.00     0.000 C 
BRANCH   9  10
ATOM     10  C   UNL     1     -99.528  69.069  25.234  1.00  0.00    -0.000 C 
BRANCH  10  11
ATOM     11  C   UNL     1     -99.220  68.717  23.771  1.00  0.00    -0.000 C 
BRANCH  11  12
ATOM     12  C   UNL     1     -99.568  69.859  22.803  1.00  0.00    -0.000 C 
BRANCH  12  13
ATOM     13  C   UNL     1     -98.324  70.605  22.297  1.00  0.00    -0.003 C 
ATOM     14  C   UNL     1     -98.065  71.863  23.121  1.00  0.00     0.004 C 
ENDBRANCH  12  13
ENDBRANCH  11  12
ENDBRANCH  10  11
ENDBRANCH   9  10
ENDBRANCH   1   9
TORSDOF 10
ENDMDL
MODEL 5
REMARK VINA RESULT:    -3.198      2.569      4.876
REMARK INTER + INTRA:          -6.323
REMARK INTER:                  -5.177
REMARK INTRA:                  -1.146
REMARK UNBOUND:                -1.254
REMARK SMILES CCCCCCCCCCCC(=O)[O-]
REMARK SMILES IDX 7 1 8 2 9 3 10 4 11 5 12 6 13 7 14 8 6 9 5 10 4 11 3 12 2 13
REMARK SMILES IDX 1 14
REMARK H PARENT
REMARK Flexibility Score: inf
ROOT
ATOM      1  C   UNL     1     -98.476  72.904  23.196  1.00  0.00     0.000 C 
ENDROOT
BRANCH   1   2
ATOM      2  C   UNL     1     -99.420  71.775  22.752  1.00  0.00     0.000 C 
BRANCH   2   3
ATOM      3  C   UNL     1     -98.751  70.391  22.807  1.00  0.00     0.000 C 
BRANCH   3   4
ATOM      4  C   UNL     1     -99.703  69.296  23.318  1.00  0.00     0.006 C 
BRANCH   4   5
ATOM      5  C   UNL     1     -99.142  68.542  24.531  1.00  0.00     0.053 C 
BRANCH   5   6
ATOM      6  C   UNL     1     -99.590  69.192  25.802  1.00  0.00     0.041 C 
ATOM      7  O   UNL     1    -100.555  68.712  26.452  1.00  0.00    -0.550 OA
ATOM      8  O   UNL     1     -98.974  70.356  26.243  1.00  0.00    -0.550 OA
ENDBRANCH   5   6
ENDBRANCH   4   5
ENDBRANCH   3   4
ENDBRANCH   2   3
ENDBRANCH   1   2
BRANCH   1   9
ATOM      9  C   UNL     1     -97.284  72.393  24.019  1.00  0.00     0.000 C 
BRANCH   9  10
ATOM     10  C   UNL     1     -96.045  73.269  23.794  1.00  0.00    -0.000 C 
BRANCH  10  11
ATOM     11  C   UNL     1     -95.262  72.805  22.556  1.00  0.00    -0.000 C 
BRANCH  11  12
ATOM     12  C   UNL     1     -95.246  73.859  21.438  1.00  0.00    -0.000 C 
BRANCH  12  13
ATOM     13  C   UNL     1     -95.841  73.335  20.122  1.00  0.00    -0.003 C 
ATOM     14  C   UNL     1     -96.337  71.901  20.275  1.00  0.00     0.004 C 
ENDBRANCH  12  13
ENDBRANCH  11  12
ENDBRANCH  10  11
ENDBRANCH   9  10
ENDBRANCH   1   9
TORSDOF 10
ENDMDL
MODEL 6
REMARK VINA RESULT:    -3.109      1.579      2.580
REMARK INTER + INTRA:          -6.181
REMARK INTER:                  -4.715
REMARK INTRA:                  -1.466
REMARK UNBOUND:                -1.254
REMARK SMILES CCCCCCCCCCCC(=O)[O-]
REMARK SMILES IDX 7 1 8 2 9 3 10 4 11 5 12 6 13 7 14 8 6 9 5 10 4 11 3 12 2 13
REMARK SMILES IDX 1 14
REMARK H PARENT
REMARK Flexibility Score: inf
ROOT
ATOM      1  C   UNL     1    -101.387  72.527  26.607  1.00  0.00     0.000 C 
ENDROOT
BRANCH   1   2
ATOM      2  C   UNL     1    -101.644  71.267  27.449  1.00  0.00     0.000 C 
BRANCH   2   3
ATOM      3  C   UNL     1    -101.826  70.008  26.586  1.00  0.00     0.000 C 
BRANCH   3   4
ATOM      4  C   UNL     1    -101.186  68.761  27.219  1.00  0.00     0.006 C 
BRANCH   4   5
ATOM      5  C   UNL     1     -99.766  69.021  27.737  1.00  0.00     0.053 C 
BRANCH   5   6
ATOM      6  C   UNL     1     -99.660  68.649  29.181  1.00  0.00     0.041 C 
ATOM      7  O   UNL     1     -98.779  67.835  29.563  1.00  0.00    -0.550 OA
ATOM      8  O   UNL     1    -100.566  69.162  30.100  1.00  0.00    -0.550 OA
ENDBRANCH   5   6
ENDBRANCH   4   5
ENDBRANCH   3   4
ENDBRANCH   2   3
ENDBRANCH   1   2
BRANCH   1   9
ATOM      9  C   UNL     1    -100.635  72.227  25.302  1.00  0.00     0.000 C 
BRANCH   9  10
ATOM     10  C   UNL     1     -99.123  72.141  25.547  1.00  0.00    -0.000 C 
BRANCH  10  11
ATOM     11  C   UNL     1     -98.528  70.892  24.879  1.00  0.00    -0.000 C 
BRANCH  11  12
ATOM     12  C   UNL     1     -99.036  70.690  23.443  1.00  0.00    -0.000 C 
BRANCH  12  13
ATOM     13  C   UNL     1     -99.751  69.344  23.251  1.00  0.00    -0.003 C 
ATOM     14  C   UNL     1     -99.112  68.255  24.107  1.00  0.00     0.004 C 
ENDBRANCH  12  13
ENDBRANCH  11  12
ENDBRANCH  10  11
ENDBRANCH   9  10
ENDBRANCH   1   9
TORSDOF 10
ENDMDL
MODEL 7
REMARK VINA RESULT:    -3.100      3.353      5.728
REMARK INTER + INTRA:          -6.167
REMARK INTER:                  -4.807
REMARK INTRA:                  -1.360
REMARK UNBOUND:                -1.254
REMARK SMILES CCCCCCCCCCCC(=O)[O-]
REMARK SMILES IDX 7 1 8 2 9 3 10 4 11 5 12 6 13 7 14 8 6 9 5 10 4 11 3 12 2 13
REMARK SMILES IDX 1 14
REMARK H PARENT
REMARK Flexibility Score: inf
ROOT
ATOM      1  C   UNL     1     -99.059  73.335  22.038  1.00  0.00     0.000 C 
ENDROOT
BRANCH   1   2
ATOM      2  C   UNL     1     -98.952  72.043  21.212  1.00  0.00     0.000 C 
BRANCH   2   3
ATOM      3  C   UNL     1     -98.148  70.947  21.932  1.00  0.00     0.000 C 
BRANCH   3   4
ATOM      4  C   UNL     1     -98.507  70.836  23.423  1.00  0.00     0.006 C 
BRANCH   4   5
ATOM      5  C   UNL     1     -99.740  69.959  23.673  1.00  0.00     0.053 C 
BRANCH   5   6
ATOM      6  C   UNL     1     -99.366  68.743  24.458  1.00  0.00     0.041 C 
ATOM      7  O   UNL     1     -98.928  67.719  23.871  1.00  0.00    -0.550 OA
ATOM      8  O   UNL     1     -99.547  68.720  25.835  1.00  0.00    -0.550 OA
ENDBRANCH   5   6
ENDBRANCH   4   5
ENDBRANCH   3   4
ENDBRANCH   2   3
ENDBRANCH   1   2
BRANCH   1   9
ATOM      9  C   UNL     1     -98.749  74.595  21.215  1.00  0.00     0.000 C 
BRANCH   9  10
ATOM     10  C   UNL     1     -97.416  74.451  20.471  1.00  0.00    -0.000 C 
BRANCH  10  11
ATOM     11  C   UNL     1     -96.231  74.747  21.403  1.00  0.00    -0.000 C 
BRANCH  11  12
ATOM     12  C   UNL     1     -95.212  73.597  21.446  1.00  0.00    -0.000 C 
BRANCH  12  13
ATOM     13  C   UNL     1     -95.234  72.837  22.781  1.00  0.00    -0.003 C 
ATOM     14  C   UNL     1     -95.878  73.675  23.881  1.00  0.00     0.004 C 
ENDBRANCH  12  13
ENDBRANCH  11  12
ENDBRANCH  10  11
ENDBRANCH   9  10
ENDBRANCH   1   9
TORSDOF 10
ENDMDL
MODEL 8
REMARK VINA RESULT:    -3.088      2.223      4.021
REMARK INTER + INTRA:          -6.148
REMARK INTER:                  -5.370
REMARK INTRA:                  -0.778
REMARK UNBOUND:                -1.254
REMARK SMILES CCCCCCCCCCCC(=O)[O-]
REMARK SMILES IDX 7 1 8 2 9 3 10 4 11 5 12 6 13 7 14 8 6 9 5 10 4 11 3 12 2 13
REMARK SMILES IDX 1 14
REMARK H PARENT
REMARK Flexibility Score: inf
ROOT
ATOM      1  C   UNL     1     -98.607  70.219  22.633  1.00  0.00     0.000 C 
ENDROOT
BRANCH   1   2
ATOM      2  C   UNL     1     -99.644  70.027  23.751  1.00  0.00     0.000 C 
BRANCH   2   3
ATOM      3  C   UNL     1     -99.359  68.785  24.613  1.00  0.00     0.000 C 
BRANCH   3   4
ATOM      4  C   UNL     1     -99.528  69.060  26.116  1.00  0.00     0.006 C 
BRANCH   4   5
ATOM      5  C   UNL     1     -98.610  70.180  26.621  1.00  0.00     0.053 C 
BRANCH   5   6
ATOM      6  C   UNL     1     -98.243  69.949  28.053  1.00  0.00     0.041 C 
ATOM      7  O   UNL     1     -97.881  70.914  28.777  1.00  0.00    -0.550 OA
ATOM      8  O   UNL     1     -98.253  68.663  28.575  1.00  0.00    -0.550 OA
ENDBRANCH   5   6
ENDBRANCH   4   5
ENDBRANCH   3   4
ENDBRANCH   2   3
ENDBRANCH   1   2
BRANCH   1   9
ATOM      9  C   UNL     1     -98.128  71.673  22.509  1.00  0.00     0.000 C 
BRANCH   9  10
ATOM     10  C   UNL     1     -97.468  72.147  23.810  1.00  0.00    -0.000 C 
BRANCH  10  11
ATOM     11  C   UNL     1     -96.131  72.848  23.525  1.00  0.00    -0.000 C 
BRANCH  11  12
ATOM     12  C   UNL     1     -95.606  72.567  22.108  1.00  0.00    -0.000 C 
BRANCH  12  13
ATOM     13  C   UNL     1     -95.214  73.848  21.357  1.00  0.00    -0.003 C 
ATOM     14  C   UNL     1     -96.414  74.452  20.635  1.00  0.00     0.004 C 
ENDBRANCH  12  13
ENDBRANCH  11  12
ENDBRANCH  10  11
ENDBRANCH   9  10
ENDBRANCH   1   9
TORSDOF 10
ENDMDL
MODEL 9
REMARK VINA RESULT:    -3.082      2.594      4.958
REMARK INTER + INTRA:          -6.138
REMARK INTER:                  -4.551
REMARK INTRA:                  -1.587
REMARK UNBOUND:                -1.254
REMARK SMILES CCCCCCCCCCCC(=O)[O-]
REMARK SMILES IDX 7 1 8 2 9 3 10 4 11 5 12 6 13 7 14 8 6 9 5 10 4 11 3 12 2 13
REMARK SMILES IDX 1 14
REMARK H PARENT
REMARK Flexibility Score: inf
ROOT
ATOM      1  C   UNL     1     -99.214  72.468  28.315  1.00  0.00     0.000 C 
ENDROOT
BRANCH   1   2
ATOM      2  C   UNL     1     -98.772  72.290  26.854  1.00  0.00     0.000 C 
BRANCH   2   3
ATOM      3  C   UNL     1     -99.920  72.522  25.858  1.00  0.00     0.000 C 
BRANCH   3   4
ATOM      4  C   UNL     1     -99.780  71.670  24.586  1.00  0.00     0.006 C 
BRANCH   4   5
ATOM      5  C   UNL     1     -98.775  70.522  24.750  1.00  0.00     0.053 C 
BRANCH   5   6
ATOM      6  C   UNL     1     -98.966  69.503  23.672  1.00  0.00     0.041 C 
ATOM      7  O   UNL     1     -98.831  69.828  22.463  1.00  0.00    -0.550 OA
ATOM      8  O   UNL     1     -99.342  68.207  23.997  1.00  0.00    -0.550 OA
ENDBRANCH   5   6
ENDBRANCH   4   5
ENDBRANCH   3   4
ENDBRANCH   2   3
ENDBRANCH   1   2
BRANCH   1   9
ATOM      9  C   UNL     1     -98.962  71.216  29.170  1.00  0.00     0.000 C 
BRANCH   9  10
ATOM     10  C   UNL     1     -98.184  70.158  28.378  1.00  0.00    -0.000 C 
BRANCH  10  11
ATOM     11  C   UNL     1     -98.756  68.754  28.627  1.00  0.00    -0.000 C 
BRANCH  11  12
ATOM     12  C   UNL     1    -100.292  68.729  28.607  1.00  0.00    -0.000 C 
BRANCH  12  13
ATOM     13  C   UNL     1    -100.866  68.774  27.182  1.00  0.00    -0.003 C 
ATOM     14  C   UNL     1    -101.977  69.814  27.070  1.00  0.00     0.004 C 
ENDBRANCH  12  13
ENDBRANCH  11  12
ENDBRANCH  10  11
ENDBRANCH   9  10
ENDBRANCH   1   9
TORSDOF 10
ENDMDL
