MODEL 1
REMARK VINA RESULT:    -5.264      0.000      0.000
REMARK INTER + INTRA:          -8.823
REMARK INTER:                  -8.033
REMARK INTRA:                  -0.790
REMARK UNBOUND:                -0.790
REMARK SMILES OC[C@@H]1O[C@](CO)(O[C@H]2O[C@H](CO)[C@@H](O)[C@H](O)[C@@H]2O)[C@@H](O)[C@H]1O
REMARK SMILES IDX 8 1 9 2 11 3 14 4 10 5 16 6 18 7 12 8 13 9 15 11 17 13 19 15
REMARK SMILES IDX 5 17 20 18 4 19 22 20 3 21 6 22 7 23 21 25 23 27 2 29 1 30
REMARK H PARENT 13 10 15 12 17 14 19 16 7 24 21 26 23 28 1 31
REMARK Flexibility Score: inf
ROOT
ATOM      1  O   UNL     1     111.038 143.740 104.035  1.00  0.00    -0.313 OA
ENDROOT
BRANCH   1   2
ATOM      2  C   UNL     1     110.026 144.741 103.957  1.00  0.00     0.285 C 
ATOM      3  C   UNL     1     109.990 144.977 106.300  1.00  0.00     0.178 C 
ATOM      4  C   UNL     1     110.631 146.385 106.255  1.00  0.00     0.177 C 
ATOM      5  O   UNL     1     109.223 144.738 105.128  1.00  0.00    -0.341 OA
ATOM      6  C   UNL     1     111.489 146.519 104.990  1.00  0.00     0.179 C 
ATOM      7  C   UNL     1     110.672 146.120 103.745  1.00  0.00     0.202 C 
BRANCH   3   8
ATOM      8  C   UNL     1     109.066 144.834 107.514  1.00  0.00     0.191 C 
BRANCH   8   9
ATOM      9  O   UNL     1     109.625 145.500 108.612  1.00  0.00    -0.394 OA
ATOM     10  H   UNL     1     110.008 144.794 109.197  1.00  0.00     0.210 HD
ENDBRANCH   8   9
ENDBRANCH   3   8
BRANCH   4  11
ATOM     11  O   UNL     1     111.450 146.583 107.380  1.00  0.00    -0.387 OA
ATOM     12  H   UNL     1     111.926 145.729 107.551  1.00  0.00     0.211 HD
ENDBRANCH   4  11
BRANCH   6  13
ATOM     13  O   UNL     1     111.951 147.840 104.874  1.00  0.00    -0.387 OA
ATOM     14  H   UNL     1     112.064 148.019 103.904  1.00  0.00     0.211 HD
ENDBRANCH   6  13
BRANCH   7  15
ATOM     15  O   UNL     1     109.664 147.067 103.496  1.00  0.00    -0.385 OA
ATOM     16  H   UNL     1     110.116 147.916 103.247  1.00  0.00     0.211 HD
ENDBRANCH   7  15
ENDBRANCH   1   2
BRANCH   1  17
ATOM     17  C   UNL     1     110.663 142.477 103.488  1.00  0.00     0.224 C 
ATOM     18  C   UNL     1     111.886 141.963 102.704  1.00  0.00     0.208 C 
ATOM     19  O   UNL     1     109.603 142.639 102.560  1.00  0.00    -0.337 OA
ATOM     20  C   UNL     1     111.672 142.614 101.360  1.00  0.00     0.180 C 
ATOM     21  C   UNL     1     110.151 142.638 101.257  1.00  0.00     0.179 C 
BRANCH  17  22
ATOM     22  C   UNL     1     110.246 141.494 104.614  1.00  0.00     0.225 C 
BRANCH  22  23
ATOM     23  O   UNL     1     111.376 140.924 105.217  1.00  0.00    -0.391 OA
ATOM     24  H   UNL     1     112.153 141.198 104.664  1.00  0.00     0.210 HD
ENDBRANCH  22  23
ENDBRANCH  17  22
BRANCH  18  25
ATOM     25  O   UNL     1     111.875 140.561 102.577  1.00  0.00    -0.385 OA
ATOM     26  H   UNL     1     112.809 140.252 102.716  1.00  0.00     0.211 HD
ENDBRANCH  18  25
BRANCH  20  27
ATOM     27  O   UNL     1     112.240 141.876 100.308  1.00  0.00    -0.387 OA
ATOM     28  H   UNL     1     112.844 141.210 100.727  1.00  0.00     0.211 HD
ENDBRANCH  20  27
BRANCH  21  29
ATOM     29  C   UNL     1     109.650 143.854 100.474  1.00  0.00     0.191 C 
BRANCH  29  30
ATOM     30  O   UNL     1     109.909 143.674  99.109  1.00  0.00    -0.394 OA
ATOM     31  H   UNL     1     110.530 142.902  99.048  1.00  0.00     0.210 HD
ENDBRANCH  29  30
ENDBRANCH  21  29
ENDBRANCH   1  17
TORSDOF 13
ENDMDL
MODEL 2
REMARK VINA RESULT:    -5.202      2.427      5.844
REMARK INTER + INTRA:          -8.729
REMARK INTER:                  -7.331
REMARK INTRA:                  -1.398
REMARK UNBOUND:                -0.790
REMARK SMILES OC[C@@H]1O[C@](CO)(O[C@H]2O[C@H](CO)[C@@H](O)[C@H](O)[C@@H]2O)[C@@H](O)[C@H]1O
REMARK SMILES IDX 8 1 9 2 11 3 14 4 10 5 16 6 18 7 12 8 13 9 15 11 17 13 19 15
REMARK SMILES IDX 5 17 20 18 4 19 22 20 3 21 6 22 7 23 21 25 23 27 2 29 1 30
REMARK H PARENT 13 10 15 12 17 14 19 16 7 24 21 26 23 28 1 31
REMARK Flexibility Score: inf
ROOT
ATOM      1  O   UNL     1     109.608 143.148 104.510  1.00  0.00    -0.313 OA
ENDROOT
BRANCH   1   2
ATOM      2  C   UNL     1     109.189 142.362 103.397  1.00  0.00     0.285 C 
ATOM      3  C   UNL     1     109.075 140.423 104.728  1.00  0.00     0.178 C 
ATOM      4  C   UNL     1     107.530 140.365 104.664  1.00  0.00     0.177 C 
ATOM      5  O   UNL     1     109.603 141.012 103.548  1.00  0.00    -0.341 OA
ATOM      6  C   UNL     1     106.971 141.777 104.448  1.00  0.00     0.179 C 
ATOM      7  C   UNL     1     107.661 142.447 103.244  1.00  0.00     0.202 C 
BRANCH   3   8
ATOM      8  C   UNL     1     109.671 139.018 104.869  1.00  0.00     0.191 C 
BRANCH   8   9
ATOM      9  O   UNL     1     109.487 138.558 106.179  1.00  0.00    -0.394 OA
ATOM     10  H   UNL     1     109.501 139.364 106.759  1.00  0.00     0.210 HD
ENDBRANCH   8   9
ENDBRANCH   3   8
BRANCH   4  11
ATOM     11  O   UNL     1     107.012 139.852 105.867  1.00  0.00    -0.387 OA
ATOM     12  H   UNL     1     107.563 139.063 106.111  1.00  0.00     0.211 HD
ENDBRANCH   4  11
BRANCH   6  13
ATOM     13  O   UNL     1     105.583 141.707 104.244  1.00  0.00    -0.387 OA
ATOM     14  H   UNL     1     105.369 142.343 103.513  1.00  0.00     0.211 HD
ENDBRANCH   6  13
BRANCH   7  15
ATOM     15  O   UNL     1     107.282 141.815 102.047  1.00  0.00    -0.385 OA
ATOM     16  H   UNL     1     106.421 141.352 102.223  1.00  0.00     0.211 HD
ENDBRANCH   7  15
ENDBRANCH   1   2
BRANCH   1  17
ATOM     17  C   UNL     1     110.254 144.371 104.160  1.00  0.00     0.224 C 
ATOM     18  C   UNL     1     111.226 144.693 105.311  1.00  0.00     0.208 C 
ATOM     19  O   UNL     1     109.307 145.425 104.099  1.00  0.00    -0.337 OA
ATOM     20  C   UNL     1     110.323 145.437 106.264  1.00  0.00     0.180 C 
ATOM     21  C   UNL     1     109.374 146.152 105.309  1.00  0.00     0.179 C 
BRANCH  17  22
ATOM     22  C   UNL     1     110.992 144.232 102.803  1.00  0.00     0.225 C 
BRANCH  22  23
ATOM     23  O   UNL     1     111.142 145.485 102.190  1.00  0.00    -0.391 OA
ATOM     24  H   UNL     1     110.392 146.045 102.519  1.00  0.00     0.210 HD
ENDBRANCH  22  23
ENDBRANCH  17  22
BRANCH  18  25
ATOM     25  O   UNL     1     112.282 145.523 104.888  1.00  0.00    -0.385 OA
ATOM     26  H   UNL     1     113.120 145.127 105.243  1.00  0.00     0.211 HD
ENDBRANCH  18  25
BRANCH  20  27
ATOM     27  O   UNL     1     111.024 146.354 107.064  1.00  0.00    -0.387 OA
ATOM     28  H   UNL     1     110.482 146.480 107.886  1.00  0.00     0.211 HD
ENDBRANCH  20  27
BRANCH  21  29
ATOM     29  C   UNL     1     107.973 146.311 105.906  1.00  0.00     0.191 C 
BRANCH  29  30
ATOM     30  O   UNL     1     107.999 145.968 107.264  1.00  0.00    -0.394 OA
ATOM     31  H   UNL     1     107.789 144.998 107.306  1.00  0.00     0.210 HD
ENDBRANCH  29  30
ENDBRANCH  21  29
ENDBRANCH   1  17
TORSDOF 13
ENDMDL
MODEL 3
REMARK VINA RESULT:    -5.195      2.355      4.539
REMARK INTER + INTRA:          -8.719
REMARK INTER:                  -7.645
REMARK INTRA:                  -1.074
REMARK UNBOUND:                -0.790
REMARK SMILES OC[C@@H]1O[C@](CO)(O[C@H]2O[C@H](CO)[C@@H](O)[C@H](O)[C@@H]2O)[C@@H](O)[C@H]1O
REMARK SMILES IDX 8 1 9 2 11 3 14 4 10 5 16 6 18 7 12 8 13 9 15 11 17 13 19 15
REMARK SMILES IDX 5 17 20 18 4 19 22 20 3 21 6 22 7 23 21 25 23 27 2 29 1 30
REMARK H PARENT 13 10 15 12 17 14 19 16 7 24 21 26 23 28 1 31
REMARK Flexibility Score: inf
ROOT
ATOM      1  O   UNL     1     108.379 146.021 103.725  1.00  0.00    -0.313 OA
ENDROOT
BRANCH   1   2
ATOM      2  C   UNL     1     109.412 146.629 104.497  1.00  0.00     0.285 C 
ATOM      3  C   UNL     1     109.355 144.876 106.069  1.00  0.00     0.178 C 
ATOM      4  C   UNL     1     110.738 144.329 105.640  1.00  0.00     0.177 C 
ATOM      5  O   UNL     1     109.288 146.280 105.868  1.00  0.00    -0.341 OA
ATOM      6  C   UNL     1     111.003 144.696 104.174  1.00  0.00     0.179 C 
ATOM      7  C   UNL     1     110.787 146.206 103.953  1.00  0.00     0.202 C 
BRANCH   3   8
ATOM      8  C   UNL     1     109.089 144.591 107.552  1.00  0.00     0.191 C 
BRANCH   8   9
ATOM      9  O   UNL     1     109.575 145.650 108.329  1.00  0.00    -0.394 OA
ATOM     10  H   UNL     1     108.777 146.137 108.662  1.00  0.00     0.210 HD
ENDBRANCH   8   9
ENDBRANCH   3   8
BRANCH   4  11
ATOM     11  O   UNL     1     110.769 142.929 105.769  1.00  0.00    -0.387 OA
ATOM     12  H   UNL     1     109.952 142.576 105.330  1.00  0.00     0.211 HD
ENDBRANCH   4  11
BRANCH   6  13
ATOM     13  O   UNL     1     112.314 144.330 103.828  1.00  0.00    -0.387 OA
ATOM     14  H   UNL     1     112.241 143.547 103.222  1.00  0.00     0.211 HD
ENDBRANCH   6  13
BRANCH   7  15
ATOM     15  O   UNL     1     111.788 146.945 104.608  1.00  0.00    -0.385 OA
ATOM     16  H   UNL     1     111.917 147.782 104.089  1.00  0.00     0.211 HD
ENDBRANCH   7  15
ENDBRANCH   1   2
BRANCH   1  17
ATOM     17  C   UNL     1     107.969 146.777 102.587  1.00  0.00     0.224 C 
ATOM     18  C   UNL     1     106.574 146.254 102.197  1.00  0.00     0.208 C 
ATOM     19  O   UNL     1     108.836 146.526 101.493  1.00  0.00    -0.337 OA
ATOM     20  C   UNL     1     106.931 145.093 101.303  1.00  0.00     0.180 C 
ATOM     21  C   UNL     1     108.215 145.583 100.643  1.00  0.00     0.179 C 
BRANCH  17  22
ATOM     22  C   UNL     1     107.946 148.293 102.917  1.00  0.00     0.225 C 
BRANCH  22  23
ATOM     23  O   UNL     1     108.166 149.055 101.760  1.00  0.00    -0.391 OA
ATOM     24  H   UNL     1     107.533 149.818 101.807  1.00  0.00     0.210 HD
ENDBRANCH  22  23
ENDBRANCH  17  22
BRANCH  18  25
ATOM     25  O   UNL     1     105.835 147.215 101.482  1.00  0.00    -0.385 OA
ATOM     26  H   UNL     1     106.272 148.092 101.643  1.00  0.00     0.211 HD
ENDBRANCH  18  25
BRANCH  20  27
ATOM     27  O   UNL     1     105.939 144.826 100.345  1.00  0.00    -0.387 OA
ATOM     28  H   UNL     1     106.366 144.263  99.649  1.00  0.00     0.211 HD
ENDBRANCH  20  27
BRANCH  21  29
ATOM     29  C   UNL     1     109.178 144.433 100.339  1.00  0.00     0.191 C 
BRANCH  29  30
ATOM     30  O   UNL     1     108.463 143.232 100.247  1.00  0.00    -0.394 OA
ATOM     31  H   UNL     1     107.541 143.439 100.551  1.00  0.00     0.210 HD
ENDBRANCH  29  30
ENDBRANCH  21  29
ENDBRANCH   1  17
TORSDOF 13
ENDMDL
MODEL 4
REMARK VINA RESULT:    -5.186      2.536      4.073
REMARK INTER + INTRA:          -8.704
REMARK INTER:                  -7.325
REMARK INTRA:                  -1.379
REMARK UNBOUND:                -0.790
REMARK SMILES OC[C@@H]1O[C@](CO)(O[C@H]2O[C@H](CO)[C@@H](O)[C@H](O)[C@@H]2O)[C@@H](O)[C@H]1O
REMARK SMILES IDX 8 1 9 2 11 3 14 4 10 5 16 6 18 7 12 8 13 9 15 11 17 13 19 15
REMARK SMILES IDX 5 17 20 18 4 19 22 20 3 21 6 22 7 23 21 25 23 27 2 29 1 30
REMARK H PARENT 13 10 15 12 17 14 19 16 7 24 21 26 23 28 1 31
REMARK Flexibility Score: inf
ROOT
ATOM      1  O   UNL     1     109.749 145.827 103.275  1.00  0.00    -0.313 OA
ENDROOT
BRANCH   1   2
ATOM      2  C   UNL     1     109.291 146.630 104.361  1.00  0.00     0.285 C 
ATOM      3  C   UNL     1     109.375 148.577 103.039  1.00  0.00     0.178 C 
ATOM      4  C   UNL     1     107.834 148.716 102.991  1.00  0.00     0.177 C 
ATOM      5  O   UNL     1     109.784 147.957 104.250  1.00  0.00    -0.341 OA
ATOM      6  C   UNL     1     107.188 147.334 103.156  1.00  0.00     0.179 C 
ATOM      7  C   UNL     1     107.753 146.624 104.402  1.00  0.00     0.202 C 
BRANCH   3   8
ATOM      8  C   UNL     1     110.052 149.950 102.952  1.00  0.00     0.191 C 
BRANCH   8   9
ATOM      9  O   UNL     1     109.877 150.480 101.668  1.00  0.00    -0.394 OA
ATOM     10  H   UNL     1     110.253 149.810 101.039  1.00  0.00     0.210 HD
ENDBRANCH   8   9
ENDBRANCH   3   8
BRANCH   4  11
ATOM     11  O   UNL     1     107.433 149.259 101.758  1.00  0.00    -0.387 OA
ATOM     12  H   UNL     1     106.516 148.928 101.576  1.00  0.00     0.211 HD
ENDBRANCH   4  11
BRANCH   6  13
ATOM     13  O   UNL     1     105.795 147.476 103.259  1.00  0.00    -0.387 OA
ATOM     14  H   UNL     1     105.573 147.426 104.225  1.00  0.00     0.211 HD
ENDBRANCH   6  13
BRANCH   7  15
ATOM     15  O   UNL     1     107.322 147.271 105.573  1.00  0.00    -0.385 OA
ATOM     16  H   UNL     1     108.025 147.928 105.818  1.00  0.00     0.211 HD
ENDBRANCH   7  15
ENDBRANCH   1   2
BRANCH   1  17
ATOM     17  C   UNL     1     110.314 144.576 103.663  1.00  0.00     0.224 C 
ATOM     18  C   UNL     1     111.371 144.228 102.597  1.00  0.00     0.208 C 
ATOM     19  O   UNL     1     109.326 143.559 103.626  1.00  0.00    -0.337 OA
ATOM     20  C   UNL     1     110.527 143.531 101.559  1.00  0.00     0.180 C 
ATOM     21  C   UNL     1     109.471 142.844 102.417  1.00  0.00     0.179 C 
BRANCH  17  22
ATOM     22  C   UNL     1     110.935 144.671 105.082  1.00  0.00     0.225 C 
BRANCH  22  23
ATOM     23  O   UNL     1     110.922 143.419 105.713  1.00  0.00    -0.391 OA
ATOM     24  H   UNL     1     111.852 143.075 105.663  1.00  0.00     0.210 HD
ENDBRANCH  22  23
ENDBRANCH  17  22
BRANCH  18  25
ATOM     25  O   UNL     1     112.353 143.353 103.099  1.00  0.00    -0.385 OA
ATOM     26  H   UNL     1     112.221 142.481 102.644  1.00  0.00     0.211 HD
ENDBRANCH  18  25
BRANCH  20  27
ATOM     27  O   UNL     1     111.260 142.596 100.810  1.00  0.00    -0.387 OA
ATOM     28  H   UNL     1     110.652 141.829 100.647  1.00  0.00     0.211 HD
ENDBRANCH  20  27
BRANCH  21  29
ATOM     29  C   UNL     1     108.123 142.746 101.697  1.00  0.00     0.191 C 
BRANCH  29  30
ATOM     30  O   UNL     1     108.281 143.107 100.353  1.00  0.00    -0.394 OA
ATOM     31  H   UNL     1     108.409 144.091 100.346  1.00  0.00     0.210 HD
ENDBRANCH  29  30
ENDBRANCH  21  29
ENDBRANCH   1  17
TORSDOF 13
ENDMDL
MODEL 5
REMARK VINA RESULT:    -5.132      2.381      5.725
REMARK INTER + INTRA:          -8.623
REMARK INTER:                  -7.555
REMARK INTRA:                  -1.067
REMARK UNBOUND:                -0.790
REMARK SMILES OC[C@@H]1O[C@](CO)(O[C@H]2O[C@H](CO)[C@@H](O)[C@H](O)[C@@H]2O)[C@@H](O)[C@H]1O
REMARK SMILES IDX 8 1 9 2 11 3 14 4 10 5 16 6 18 7 12 8 13 9 15 11 17 13 19 15
REMARK SMILES IDX 5 17 20 18 4 19 22 20 3 21 6 22 7 23 21 25 23 27 2 29 1 30
REMARK H PARENT 13 10 15 12 17 14 19 16 7 24 21 26 23 28 1 31
REMARK Flexibility Score: inf
ROOT
ATOM      1  O   UNL     1     108.293 142.941 103.963  1.00  0.00    -0.313 OA
ENDROOT
BRANCH   1   2
ATOM      2  C   UNL     1     109.370 142.286 103.297  1.00  0.00     0.285 C 
ATOM      3  C   UNL     1     109.517 144.014 101.703  1.00  0.00     0.178 C 
ATOM      4  C   UNL     1     110.873 144.521 102.250  1.00  0.00     0.177 C 
ATOM      5  O   UNL     1     109.383 142.616 101.916  1.00  0.00    -0.341 OA
ATOM      6  C   UNL     1     110.991 144.170 103.739  1.00  0.00     0.179 C 
ATOM      7  C   UNL     1     110.704 142.672 103.960  1.00  0.00     0.202 C 
BRANCH   3   8
ATOM      8  C   UNL     1     109.398 144.283 100.199  1.00  0.00     0.191 C 
BRANCH   8   9
ATOM      9  O   UNL     1     110.123 143.316  99.489  1.00  0.00    -0.394 OA
ATOM     10  H   UNL     1     109.966 142.455  99.958  1.00  0.00     0.210 HD
ENDBRANCH   8   9
ENDBRANCH   3   8
BRANCH   4  11
ATOM     11  O   UNL     1     110.964 145.917 102.106  1.00  0.00    -0.387 OA
ATOM     12  H   UNL     1     110.195 146.313 102.591  1.00  0.00     0.211 HD
ENDBRANCH   4  11
BRANCH   6  13
ATOM     13  O   UNL     1     112.276 144.498 104.199  1.00  0.00    -0.387 OA
ATOM     14  H   UNL     1     112.247 145.452 104.473  1.00  0.00     0.211 HD
ENDBRANCH   6  13
BRANCH   7  15
ATOM     15  O   UNL     1     111.734 141.889 103.409  1.00  0.00    -0.385 OA
ATOM     16  H   UNL     1     112.578 142.168 103.851  1.00  0.00     0.211 HD
ENDBRANCH   7  15
ENDBRANCH   1   2
BRANCH   1  17
ATOM     17  C   UNL     1     107.755 142.217 105.068  1.00  0.00     0.224 C 
ATOM     18  C   UNL     1     106.365 142.821 105.348  1.00  0.00     0.208 C 
ATOM     19  O   UNL     1     108.548 142.427 106.225  1.00  0.00    -0.337 OA
ATOM     20  C   UNL     1     106.719 143.967 106.264  1.00  0.00     0.180 C 
ATOM     21  C   UNL     1     107.918 143.409 107.022  1.00  0.00     0.179 C 
BRANCH  17  22
ATOM     22  C   UNL     1     107.670 140.702 104.742  1.00  0.00     0.225 C 
BRANCH  22  23
ATOM     23  O   UNL     1     107.589 139.946 105.921  1.00  0.00    -0.391 OA
ATOM     24  H   UNL     1     107.796 140.570 106.664  1.00  0.00     0.210 HD
ENDBRANCH  22  23
ENDBRANCH  17  22
BRANCH  18  25
ATOM     25  O   UNL     1     105.521 141.908 106.008  1.00  0.00    -0.385 OA
ATOM     26  H   UNL     1     106.062 141.096 106.191  1.00  0.00     0.211 HD
ENDBRANCH  18  25
BRANCH  20  27
ATOM     27  O   UNL     1     105.673 144.296 107.142  1.00  0.00    -0.387 OA
ATOM     28  H   UNL     1     104.913 144.589 106.575  1.00  0.00     0.211 HD
ENDBRANCH  20  27
BRANCH  21  29
ATOM     29  C   UNL     1     108.919 144.506 107.396  1.00  0.00     0.191 C 
BRANCH  29  30
ATOM     30  O   UNL     1     108.290 145.756 107.339  1.00  0.00    -0.394 OA
ATOM     31  H   UNL     1     108.810 146.295 106.687  1.00  0.00     0.210 HD
ENDBRANCH  29  30
ENDBRANCH  21  29
ENDBRANCH   1  17
TORSDOF 13
ENDMDL
MODEL 6
REMARK VINA RESULT:    -5.106      1.654      6.139
REMARK INTER + INTRA:          -8.583
REMARK INTER:                  -7.343
REMARK INTRA:                  -1.240
REMARK UNBOUND:                -0.790
REMARK SMILES OC[C@@H]1O[C@](CO)(O[C@H]2O[C@H](CO)[C@@H](O)[C@H](O)[C@@H]2O)[C@@H](O)[C@H]1O
REMARK SMILES IDX 8 1 9 2 11 3 14 4 10 5 16 6 18 7 12 8 13 9 15 11 17 13 19 15
REMARK SMILES IDX 5 17 20 18 4 19 22 20 3 21 6 22 7 23 21 25 23 27 2 29 1 30
REMARK H PARENT 13 10 15 12 17 14 19 16 7 24 21 26 23 28 1 31
REMARK Flexibility Score: inf
ROOT
ATOM      1  O   UNL     1     110.462 143.414 104.268  1.00  0.00    -0.313 OA
ENDROOT
BRANCH   1   2
ATOM      2  C   UNL     1     109.789 142.577 103.331  1.00  0.00     0.285 C 
ATOM      3  C   UNL     1     111.341 140.839 103.675  1.00  0.00     0.178 C 
ATOM      4  C   UNL     1     110.309 139.943 104.401  1.00  0.00     0.177 C 
ATOM      5  O   UNL     1     110.697 141.672 102.721  1.00  0.00    -0.341 OA
ATOM      6  C   UNL     1     109.239 140.823 105.060  1.00  0.00     0.179 C 
ATOM      7  C   UNL     1     108.654 141.814 104.035  1.00  0.00     0.202 C 
BRANCH   3   8
ATOM      8  C   UNL     1     112.384 139.988 102.941  1.00  0.00     0.191 C 
BRANCH   8   9
ATOM      9  O   UNL     1     111.959 138.654 102.899  1.00  0.00    -0.394 OA
ATOM     10  H   UNL     1     112.409 138.198 103.657  1.00  0.00     0.210 HD
ENDBRANCH   8   9
ENDBRANCH   3   8
BRANCH   4  11
ATOM     11  O   UNL     1     110.943 139.178 105.396  1.00  0.00    -0.387 OA
ATOM     12  H   UNL     1     111.400 138.425 104.940  1.00  0.00     0.211 HD
ENDBRANCH   4  11
BRANCH   6  13
ATOM     13  O   UNL     1     108.226 140.010 105.593  1.00  0.00    -0.387 OA
ATOM     14  H   UNL     1     107.946 139.390 104.870  1.00  0.00     0.211 HD
ENDBRANCH   6  13
BRANCH   7  15
ATOM     15  O   UNL     1     107.893 141.130 103.071  1.00  0.00    -0.385 OA
ATOM     16  H   UNL     1     108.338 140.257 102.915  1.00  0.00     0.211 HD
ENDBRANCH   7  15
ENDBRANCH   1   2
BRANCH   1  17
ATOM     17  C   UNL     1     110.171 144.804 104.134  1.00  0.00     0.224 C 
ATOM     18  C   UNL     1     111.405 145.559 104.664  1.00  0.00     0.208 C 
ATOM     19  O   UNL     1     109.073 145.157 104.960  1.00  0.00    -0.337 OA
ATOM     20  C   UNL     1     111.098 145.632 106.139  1.00  0.00     0.180 C 
ATOM     21  C   UNL     1     109.577 145.742 106.143  1.00  0.00     0.179 C 
BRANCH  17  22
ATOM     22  C   UNL     1     109.867 145.160 102.655  1.00  0.00     0.225 C 
BRANCH  22  23
ATOM     23  O   UNL     1     111.058 145.332 101.933  1.00  0.00    -0.391 OA
ATOM     24  H   UNL     1     111.630 145.930 102.482  1.00  0.00     0.210 HD
ENDBRANCH  22  23
ENDBRANCH  17  22
BRANCH  18  25
ATOM     25  O   UNL     1     111.500 146.854 104.118  1.00  0.00    -0.385 OA
ATOM     26  H   UNL     1     111.843 147.446 104.839  1.00  0.00     0.211 HD
ENDBRANCH  18  25
BRANCH  20  27
ATOM     27  O   UNL     1     111.688 146.747 106.757  1.00  0.00    -0.387 OA
ATOM     28  H   UNL     1     112.041 147.319 106.027  1.00  0.00     0.211 HD
ENDBRANCH  20  27
BRANCH  21  29
ATOM     29  C   UNL     1     108.957 145.070 107.370  1.00  0.00     0.191 C 
BRANCH  29  30
ATOM     30  O   UNL     1     109.550 145.575 108.533  1.00  0.00    -0.394 OA
ATOM     31  H   UNL     1     110.036 144.814 108.946  1.00  0.00     0.210 HD
ENDBRANCH  29  30
ENDBRANCH  21  29
ENDBRANCH   1  17
TORSDOF 13
ENDMDL
MODEL 7
REMARK VINA RESULT:    -5.097      2.237      3.657
REMARK INTER + INTRA:          -8.569
REMARK INTER:                  -7.380
REMARK INTRA:                  -1.189
REMARK UNBOUND:                -0.790
REMARK SMILES OC[C@@H]1O[C@](CO)(O[C@H]2O[C@H](CO)[C@@H](O)[C@H](O)[C@@H]2O)[C@@H](O)[C@H]1O
REMARK SMILES IDX 8 1 9 2 11 3 14 4 10 5 16 6 18 7 12 8 13 9 15 11 17 13 19 15
REMARK SMILES IDX 5 17 20 18 4 19 22 20 3 21 6 22 7 23 21 25 23 27 2 29 1 30
REMARK H PARENT 13 10 15 12 17 14 19 16 7 24 21 26 23 28 1 31
REMARK Flexibility Score: inf
ROOT
ATOM      1  O   UNL     1     109.397 142.688 104.397  1.00  0.00    -0.313 OA
ENDROOT
BRANCH   1   2
ATOM      2  C   UNL     1     109.589 143.785 103.507  1.00  0.00     0.285 C 
ATOM      3  C   UNL     1     109.105 145.335 105.214  1.00  0.00     0.178 C 
ATOM      4  C   UNL     1     110.567 145.838 105.290  1.00  0.00     0.177 C 
ATOM      5  O   UNL     1     108.795 144.896 103.898  1.00  0.00    -0.341 OA
ATOM      6  C   UNL     1     111.519 144.725 104.835  1.00  0.00     0.179 C 
ATOM      7  C   UNL     1     111.078 144.170 103.466  1.00  0.00     0.202 C 
BRANCH   3   8
ATOM      8  C   UNL     1     108.122 146.448 105.591  1.00  0.00     0.191 C 
BRANCH   8   9
ATOM      9  O   UNL     1     107.723 146.293 106.925  1.00  0.00    -0.394 OA
ATOM     10  H   UNL     1     107.903 145.344 107.157  1.00  0.00     0.210 HD
ENDBRANCH   8   9
ENDBRANCH   3   8
BRANCH   4  11
ATOM     11  O   UNL     1     110.889 146.198 106.611  1.00  0.00    -0.387 OA
ATOM     12  H   UNL     1     110.045 146.471 107.054  1.00  0.00     0.211 HD
ENDBRANCH   4  11
BRANCH   6  13
ATOM     13  O   UNL     1     112.829 145.226 104.765  1.00  0.00    -0.387 OA
ATOM     14  H   UNL     1     112.783 146.183 105.023  1.00  0.00     0.211 HD
ENDBRANCH   6  13
BRANCH   7  15
ATOM     15  O   UNL     1     111.277 145.131 102.460  1.00  0.00    -0.385 OA
ATOM     16  H   UNL     1     110.752 145.934 102.716  1.00  0.00     0.211 HD
ENDBRANCH   7  15
ENDBRANCH   1   2
BRANCH   1  17
ATOM     17  C   UNL     1     108.692 141.585 103.831  1.00  0.00     0.224 C 
ATOM     18  C   UNL     1     108.216 140.721 105.014  1.00  0.00     0.208 C 
ATOM     19  O   UNL     1     109.570 140.789 103.052  1.00  0.00    -0.337 OA
ATOM     20  C   UNL     1     109.420 139.841 105.242  1.00  0.00     0.180 C 
ATOM     21  C   UNL     1     109.966 139.677 103.828  1.00  0.00     0.179 C 
BRANCH  17  22
ATOM     22  C   UNL     1     107.504 142.081 102.964  1.00  0.00     0.225 C 
BRANCH  22  23
ATOM     23  O   UNL     1     107.050 141.060 102.116  1.00  0.00    -0.391 OA
ATOM     24  H   UNL     1     106.443 140.497 102.662  1.00  0.00     0.210 HD
ENDBRANCH  22  23
ENDBRANCH  17  22
BRANCH  18  25
ATOM     25  O   UNL     1     107.095 139.940 104.675  1.00  0.00    -0.385 OA
ATOM     26  H   UNL     1     107.288 139.013 104.974  1.00  0.00     0.211 HD
ENDBRANCH  18  25
BRANCH  20  27
ATOM     27  O   UNL     1     109.080 138.598 105.801  1.00  0.00    -0.387 OA
ATOM     28  H   UNL     1     109.720 137.938 105.428  1.00  0.00     0.211 HD
ENDBRANCH  20  27
BRANCH  21  29
ATOM     29  C   UNL     1     111.490 139.541 103.815  1.00  0.00     0.191 C 
BRANCH  29  30
ATOM     30  O   UNL     1     112.076 140.799 104.002  1.00  0.00    -0.394 OA
ATOM     31  H   UNL     1     112.110 140.943 104.984  1.00  0.00     0.210 HD
ENDBRANCH  29  30
ENDBRANCH  21  29
ENDBRANCH   1  17
TORSDOF 13
ENDMDL
MODEL 8
REMARK VINA RESULT:    -5.097      2.191      6.118
REMARK INTER + INTRA:          -8.569
REMARK INTER:                  -7.471
REMARK INTRA:                  -1.098
REMARK UNBOUND:                -0.790
REMARK SMILES OC[C@@H]1O[C@](CO)(O[C@H]2O[C@H](CO)[C@@H](O)[C@H](O)[C@@H]2O)[C@@H](O)[C@H]1O
REMARK SMILES IDX 8 1 9 2 11 3 14 4 10 5 16 6 18 7 12 8 13 9 15 11 17 13 19 15
REMARK SMILES IDX 5 17 20 18 4 19 22 20 3 21 6 22 7 23 21 25 23 27 2 29 1 30
REMARK H PARENT 13 10 15 12 17 14 19 16 7 24 21 26 23 28 1 31
REMARK Flexibility Score: inf
ROOT
ATOM      1  O   UNL     1     110.001 145.335 103.966  1.00  0.00    -0.313 OA
ENDROOT
BRANCH   1   2
ATOM      2  C   UNL     1     109.744 145.935 102.698  1.00  0.00     0.285 C 
ATOM      3  C   UNL     1     109.771 143.836 101.629  1.00  0.00     0.178 C 
ATOM      4  C   UNL     1     108.249 143.864 101.347  1.00  0.00     0.177 C 
ATOM      5  O   UNL     1     110.300 145.155 101.650  1.00  0.00    -0.341 OA
ATOM      6  C   UNL     1     107.547 144.730 102.400  1.00  0.00     0.179 C 
ATOM      7  C   UNL     1     108.228 146.108 102.501  1.00  0.00     0.202 C 
BRANCH   3   8
ATOM      8  C   UNL     1     110.514 143.039 100.551  1.00  0.00     0.191 C 
BRANCH   8   9
ATOM      9  O   UNL     1     109.941 143.295  99.298  1.00  0.00    -0.394 OA
ATOM     10  H   UNL     1     109.118 143.821  99.474  1.00  0.00     0.210 HD
ENDBRANCH   8   9
ENDBRANCH   3   8
BRANCH   4  11
ATOM     11  O   UNL     1     107.721 142.562 101.405  1.00  0.00    -0.387 OA
ATOM     12  H   UNL     1     106.902 142.602 101.964  1.00  0.00     0.211 HD
ENDBRANCH   4  11
BRANCH   6  13
ATOM     13  O   UNL     1     106.191 144.874 102.062  1.00  0.00    -0.387 OA
ATOM     14  H   UNL     1     106.033 144.303 101.265  1.00  0.00     0.211 HD
ENDBRANCH   6  13
BRANCH   7  15
ATOM     15  O   UNL     1     107.999 146.855 101.332  1.00  0.00    -0.385 OA
ATOM     16  H   UNL     1     107.543 147.693 101.608  1.00  0.00     0.211 HD
ENDBRANCH   7  15
ENDBRANCH   1   2
BRANCH   1  17
ATOM     17  C   UNL     1     110.028 146.251 105.059  1.00  0.00     0.224 C 
ATOM     18  C   UNL     1     110.582 145.471 106.266  1.00  0.00     0.208 C 
ATOM     19  O   UNL     1     108.710 146.660 105.388  1.00  0.00    -0.337 OA
ATOM     20  C   UNL     1     109.326 144.844 106.817  1.00  0.00     0.180 C 
ATOM     21  C   UNL     1     108.276 145.903 106.499  1.00  0.00     0.179 C 
BRANCH  17  22
ATOM     22  C   UNL     1     110.904 147.485 104.717  1.00  0.00     0.225 C 
BRANCH  22  23
ATOM     23  O   UNL     1     112.266 147.154 104.764  1.00  0.00    -0.391 OA
ATOM     24  H   UNL     1     112.698 147.652 104.022  1.00  0.00     0.210 HD
ENDBRANCH  22  23
ENDBRANCH  17  22
BRANCH  18  25
ATOM     25  O   UNL     1     111.162 146.328 107.221  1.00  0.00    -0.385 OA
ATOM     26  H   UNL     1     110.767 146.088 108.100  1.00  0.00     0.211 HD
ENDBRANCH  18  25
BRANCH  20  27
ATOM     27  O   UNL     1     109.404 144.606 108.199  1.00  0.00    -0.387 OA
ATOM     28  H   UNL     1     108.732 145.199 108.624  1.00  0.00     0.211 HD
ENDBRANCH  20  27
BRANCH  21  29
ATOM     29  C   UNL     1     106.906 145.283 106.212  1.00  0.00     0.191 C 
BRANCH  29  30
ATOM     30  O   UNL     1     106.580 144.373 107.225  1.00  0.00    -0.394 OA
ATOM     31  H   UNL     1     107.389 144.296 107.796  1.00  0.00     0.210 HD
ENDBRANCH  29  30
ENDBRANCH  21  29
ENDBRANCH   1  17
TORSDOF 13
ENDMDL
MODEL 9
REMARK VINA RESULT:    -5.078      2.257      4.491
REMARK INTER + INTRA:          -8.540
REMARK INTER:                  -7.287
REMARK INTRA:                  -1.253
REMARK UNBOUND:                -0.790
REMARK SMILES OC[C@@H]1O[C@](CO)(O[C@H]2O[C@H](CO)[C@@H](O)[C@H](O)[C@@H]2O)[C@@H](O)[C@H]1O
REMARK SMILES IDX 8 1 9 2 11 3 14 4 10 5 16 6 18 7 12 8 13 9 15 11 17 13 19 15
REMARK SMILES IDX 5 17 20 18 4 19 22 20 3 21 6 22 7 23 21 25 23 27 2 29 1 30
REMARK H PARENT 13 10 15 12 17 14 19 16 7 24 21 26 23 28 1 31
REMARK Flexibility Score: inf
ROOT
ATOM      1  O   UNL     1     108.609 145.723 103.839  1.00  0.00    -0.313 OA
ENDROOT
BRANCH   1   2
ATOM      2  C   UNL     1     109.528 144.689 104.180  1.00  0.00     0.285 C 
ATOM      3  C   UNL     1     110.438 145.987 105.923  1.00  0.00     0.178 C 
ATOM      4  C   UNL     1     109.841 145.081 107.026  1.00  0.00     0.177 C 
ATOM      5  O   UNL     1     110.710 145.233 104.749  1.00  0.00    -0.341 OA
ATOM      6  C   UNL     1     108.575 144.394 106.499  1.00  0.00     0.179 C 
ATOM      7  C   UNL     1     108.863 143.700 105.153  1.00  0.00     0.202 C 
BRANCH   3   8
ATOM      8  C   UNL     1     111.748 146.631 106.392  1.00  0.00     0.191 C 
BRANCH   8   9
ATOM      9  O   UNL     1     112.616 146.778 105.302  1.00  0.00    -0.394 OA
ATOM     10  H   UNL     1     113.324 147.409 105.597  1.00  0.00     0.210 HD
ENDBRANCH   8   9
ENDBRANCH   3   8
BRANCH   4  11
ATOM     11  O   UNL     1     109.503 145.848 108.155  1.00  0.00    -0.387 OA
ATOM     12  H   UNL     1     109.229 146.744 107.829  1.00  0.00     0.211 HD
ENDBRANCH   4  11
BRANCH   6  13
ATOM     13  O   UNL     1     108.116 143.464 107.445  1.00  0.00    -0.387 OA
ATOM     14  H   UNL     1     108.830 143.375 108.129  1.00  0.00     0.211 HD
ENDBRANCH   6  13
BRANCH   7  15
ATOM     15  O   UNL     1     109.715 142.598 105.343  1.00  0.00    -0.385 OA
ATOM     16  H   UNL     1     109.383 141.869 104.756  1.00  0.00     0.211 HD
ENDBRANCH   7  15
ENDBRANCH   1   2
BRANCH   1  17
ATOM     17  C   UNL     1     108.890 146.380 102.604  1.00  0.00     0.224 C 
ATOM     18  C   UNL     1     107.534 146.582 101.901  1.00  0.00     0.208 C 
ATOM     19  O   UNL     1     109.677 145.544 101.772  1.00  0.00    -0.337 OA
ATOM     20  C   UNL     1     107.378 145.270 101.174  1.00  0.00     0.180 C 
ATOM     21  C   UNL     1     108.823 144.921 100.835  1.00  0.00     0.179 C 
BRANCH  17  22
ATOM     22  C   UNL     1     109.617 147.728 102.854  1.00  0.00     0.225 C 
BRANCH  22  23
ATOM     23  O   UNL     1     111.009 147.552 102.829  1.00  0.00    -0.391 OA
ATOM     24  H   UNL     1     111.263 147.502 101.871  1.00  0.00     0.210 HD
ENDBRANCH  22  23
ENDBRANCH  17  22
BRANCH  18  25
ATOM     25  O   UNL     1     107.574 147.650 100.985  1.00  0.00    -0.385 OA
ATOM     26  H   UNL     1     106.737 147.605 100.453  1.00  0.00     0.211 HD
ENDBRANCH  18  25
BRANCH  20  27
ATOM     27  O   UNL     1     106.599 145.389 100.011  1.00  0.00    -0.387 OA
ATOM     28  H   UNL     1     106.177 146.286 100.047  1.00  0.00     0.211 HD
ENDBRANCH  20  27
BRANCH  21  29
ATOM     29  C   UNL     1     109.060 143.409 100.829  1.00  0.00     0.191 C 
BRANCH  29  30
ATOM     30  O   UNL     1     107.830 142.740 100.843  1.00  0.00    -0.394 OA
ATOM     31  H   UNL     1     107.221 143.274 100.269  1.00  0.00     0.210 HD
ENDBRANCH  29  30
ENDBRANCH  21  29
ENDBRANCH   1  17
TORSDOF 13
ENDMDL
