MODEL 1
REMARK VINA RESULT:    -3.508      0.000      0.000
REMARK INTER + INTRA:          -4.229
REMARK INTER:                  -4.226
REMARK INTRA:                  -0.002
REMARK UNBOUND:                -0.002
REMARK SMILES OCC(O)CO
REMARK SMILES IDX 3 1 5 2 6 3 2 5 1 6 4 8
REMARK H PARENT 6 4 1 7 4 9
REMARK Flexibility Score: inf
ROOT
ATOM      1  C   UNL     1      23.781  16.790  31.903  1.00  0.00     0.165 C 
ENDROOT
BRANCH   1   2
ATOM      2  C   UNL     1      23.055  17.397  30.695  1.00  0.00     0.190 C 
BRANCH   2   3
ATOM      3  O   UNL     1      22.023  18.246  31.121  1.00  0.00    -0.394 OA
ATOM      4  H   UNL     1      22.446  19.111  31.363  1.00  0.00     0.210 HD
ENDBRANCH   2   3
ENDBRANCH   1   2
BRANCH   1   5
ATOM      5  C   UNL     1      24.030  15.289  31.703  1.00  0.00     0.190 C 
BRANCH   5   6
ATOM      6  O   UNL     1      23.900  14.610  32.923  1.00  0.00    -0.394 OA
ATOM      7  H   UNL     1      23.299  13.841  32.748  1.00  0.00     0.210 HD
ENDBRANCH   5   6
ENDBRANCH   1   5
BRANCH   1   8
ATOM      8  O   UNL     1      25.009  17.449  32.082  1.00  0.00    -0.388 OA
ATOM      9  H   UNL     1      25.201  17.439  33.056  1.00  0.00     0.211 HD
ENDBRANCH   1   8
TORSDOF 5
ENDMDL
MODEL 2
REMARK VINA RESULT:    -3.408      1.063      2.244
REMARK INTER + INTRA:          -4.108
REMARK INTER:                  -3.924
REMARK INTRA:                  -0.184
REMARK UNBOUND:                -0.002
REMARK SMILES OCC(O)CO
REMARK SMILES IDX 3 1 5 2 6 3 2 5 1 6 4 8
REMARK H PARENT 6 4 1 7 4 9
REMARK Flexibility Score: inf
ROOT
ATOM      1  C   UNL     1      23.944  16.736  31.925  1.00  0.00     0.165 C 
ENDROOT
BRANCH   1   2
ATOM      2  C   UNL     1      23.063  17.350  30.828  1.00  0.00     0.190 C 
BRANCH   2   3
ATOM      3  O   UNL     1      22.128  18.232  31.389  1.00  0.00    -0.394 OA
ATOM      4  H   UNL     1      22.600  18.731  32.105  1.00  0.00     0.210 HD
ENDBRANCH   2   3
ENDBRANCH   1   2
BRANCH   1   5
ATOM      5  C   UNL     1      23.769  17.479  33.256  1.00  0.00     0.190 C 
BRANCH   5   6
ATOM      6  O   UNL     1      24.612  18.599  33.298  1.00  0.00    -0.394 OA
ATOM      7  H   UNL     1      24.806  18.761  34.258  1.00  0.00     0.210 HD
ENDBRANCH   5   6
ENDBRANCH   1   5
BRANCH   1   8
ATOM      8  O   UNL     1      23.595  15.386  32.093  1.00  0.00    -0.388 OA
ATOM      9  H   UNL     1      22.643  15.367  32.374  1.00  0.00     0.211 HD
ENDBRANCH   1   8
TORSDOF 5
ENDMDL
MODEL 3
REMARK VINA RESULT:    -3.378      0.869      3.067
REMARK INTER + INTRA:          -4.072
REMARK INTER:                  -4.069
REMARK INTRA:                  -0.003
REMARK UNBOUND:                -0.002
REMARK SMILES OCC(O)CO
REMARK SMILES IDX 3 1 5 2 6 3 2 5 1 6 4 8
REMARK H PARENT 6 4 1 7 4 9
REMARK Flexibility Score: inf
ROOT
ATOM      1  C   UNL     1      23.895  16.791  31.988  1.00  0.00     0.165 C 
ENDROOT
BRANCH   1   2
ATOM      2  C   UNL     1      24.004  15.267  31.840  1.00  0.00     0.190 C 
BRANCH   2   3
ATOM      3  O   UNL     1      23.917  14.646  33.095  1.00  0.00    -0.394 OA
ATOM      4  H   UNL     1      23.754  13.682  32.926  1.00  0.00     0.210 HD
ENDBRANCH   2   3
ENDBRANCH   1   2
BRANCH   1   5
ATOM      5  C   UNL     1      23.061  17.399  30.852  1.00  0.00     0.190 C 
BRANCH   5   6
ATOM      6  O   UNL     1      22.038  18.200  31.379  1.00  0.00    -0.394 OA
ATOM      7  H   UNL     1      21.263  18.094  30.769  1.00  0.00     0.210 HD
ENDBRANCH   5   6
ENDBRANCH   1   5
BRANCH   1   8
ATOM      8  O   UNL     1      23.295  17.091  33.222  1.00  0.00    -0.388 OA
ATOM      9  H   UNL     1      22.328  16.887  33.129  1.00  0.00     0.211 HD
ENDBRANCH   1   8
TORSDOF 5
ENDMDL
MODEL 4
REMARK VINA RESULT:    -3.371      1.389      2.686
REMARK INTER + INTRA:          -4.063
REMARK INTER:                  -3.867
REMARK INTRA:                  -0.195
REMARK UNBOUND:                -0.002
REMARK SMILES OCC(O)CO
REMARK SMILES IDX 3 1 5 2 6 3 2 5 1 6 4 8
REMARK H PARENT 6 4 1 7 4 9
REMARK Flexibility Score: inf
ROOT
ATOM      1  C   UNL     1      22.836  17.373  32.183  1.00  0.00     0.165 C 
ENDROOT
BRANCH   1   2
ATOM      2  C   UNL     1      23.568  16.345  31.310  1.00  0.00     0.190 C 
BRANCH   2   3
ATOM      3  O   UNL     1      23.576  15.089  31.935  1.00  0.00    -0.394 OA
ATOM      4  H   UNL     1      23.752  14.418  31.225  1.00  0.00     0.210 HD
ENDBRANCH   2   3
ENDBRANCH   1   2
BRANCH   1   5
ATOM      5  C   UNL     1      23.805  18.070  33.148  1.00  0.00     0.190 C 
BRANCH   5   6
ATOM      6  O   UNL     1      24.196  17.186  34.163  1.00  0.00    -0.394 OA
ATOM      7  H   UNL     1      25.068  16.807  33.878  1.00  0.00     0.210 HD
ENDBRANCH   5   6
ENDBRANCH   1   5
BRANCH   1   8
ATOM      8  O   UNL     1      22.229  18.332  31.355  1.00  0.00    -0.388 OA
ATOM      9  H   UNL     1      22.702  18.300  30.483  1.00  0.00     0.211 HD
ENDBRANCH   1   8
TORSDOF 5
ENDMDL
MODEL 5
REMARK VINA RESULT:    -3.196      1.706      2.697
REMARK INTER + INTRA:          -3.853
REMARK INTER:                  -3.842
REMARK INTRA:                  -0.011
REMARK UNBOUND:                -0.002
REMARK SMILES OCC(O)CO
REMARK SMILES IDX 3 1 5 2 6 3 2 5 1 6 4 8
REMARK H PARENT 6 4 1 7 4 9
REMARK Flexibility Score: inf
ROOT
ATOM      1  C   UNL     1      23.442  17.615  31.758  1.00  0.00     0.165 C 
ENDROOT
BRANCH   1   2
ATOM      2  C   UNL     1      23.683  17.757  33.267  1.00  0.00     0.190 C 
BRANCH   2   3
ATOM      3  O   UNL     1      24.020  16.516  33.828  1.00  0.00    -0.394 OA
ATOM      4  H   UNL     1      24.160  16.670  34.798  1.00  0.00     0.210 HD
ENDBRANCH   2   3
ENDBRANCH   1   2
BRANCH   1   5
ATOM      5  C   UNL     1      23.601  16.156  31.307  1.00  0.00     0.190 C 
BRANCH   5   6
ATOM      6  O   UNL     1      23.649  16.085  29.908  1.00  0.00    -0.394 OA
ATOM      7  H   UNL     1      23.027  15.357  29.647  1.00  0.00     0.210 HD
ENDBRANCH   5   6
ENDBRANCH   1   5
BRANCH   1   8
ATOM      8  O   UNL     1      22.146  18.061  31.454  1.00  0.00    -0.388 OA
ATOM      9  H   UNL     1      21.903  17.663  30.578  1.00  0.00     0.211 HD
ENDBRANCH   1   8
TORSDOF 5
ENDMDL
MODEL 6
REMARK VINA RESULT:    -3.117      9.805     10.776
REMARK INTER + INTRA:          -3.757
REMARK INTER:                  -3.535
REMARK INTRA:                  -0.222
REMARK UNBOUND:                -0.002
REMARK SMILES OCC(O)CO
REMARK SMILES IDX 3 1 5 2 6 3 2 5 1 6 4 8
REMARK H PARENT 6 4 1 7 4 9
REMARK Flexibility Score: inf
ROOT
ATOM      1  C   UNL     1      22.425  27.493  33.457  1.00  0.00     0.165 C 
ENDROOT
BRANCH   1   2
ATOM      2  C   UNL     1      22.008  26.142  32.862  1.00  0.00     0.190 C 
BRANCH   2   3
ATOM      3  O   UNL     1      20.867  25.651  33.516  1.00  0.00    -0.394 OA
ATOM      4  H   UNL     1      20.294  26.436  33.718  1.00  0.00     0.210 HD
ENDBRANCH   2   3
ENDBRANCH   1   2
BRANCH   1   5
ATOM      5  C   UNL     1      23.116  27.311  34.815  1.00  0.00     0.190 C 
BRANCH   5   6
ATOM      6  O   UNL     1      22.192  26.867  35.772  1.00  0.00    -0.394 OA
ATOM      7  H   UNL     1      22.319  27.447  36.567  1.00  0.00     0.210 HD
ENDBRANCH   5   6
ENDBRANCH   1   5
BRANCH   1   8
ATOM      8  O   UNL     1      23.302  28.136  32.568  1.00  0.00    -0.388 OA
ATOM      9  H   UNL     1      24.079  28.446  33.104  1.00  0.00     0.211 HD
ENDBRANCH   1   8
TORSDOF 5
ENDMDL
MODEL 7
REMARK VINA RESULT:    -3.108      1.105      2.873
REMARK INTER + INTRA:          -3.746
REMARK INTER:                  -3.559
REMARK INTRA:                  -0.187
REMARK UNBOUND:                -0.002
REMARK SMILES OCC(O)CO
REMARK SMILES IDX 3 1 5 2 6 3 2 5 1 6 4 8
REMARK H PARENT 6 4 1 7 4 9
REMARK Flexibility Score: inf
ROOT
ATOM      1  C   UNL     1      23.528  16.249  31.454  1.00  0.00     0.165 C 
ENDROOT
BRANCH   1   2
ATOM      2  C   UNL     1      24.220  16.823  32.698  1.00  0.00     0.190 C 
BRANCH   2   3
ATOM      3  O   UNL     1      25.053  17.895  32.343  1.00  0.00    -0.394 OA
ATOM      4  H   UNL     1      25.898  17.781  32.852  1.00  0.00     0.210 HD
ENDBRANCH   2   3
ENDBRANCH   1   2
BRANCH   1   5
ATOM      5  C   UNL     1      23.157  17.361  30.464  1.00  0.00     0.190 C 
BRANCH   5   6
ATOM      6  O   UNL     1      22.212  18.223  31.038  1.00  0.00    -0.394 OA
ATOM      7  H   UNL     1      22.628  19.124  31.043  1.00  0.00     0.210 HD
ENDBRANCH   5   6
ENDBRANCH   1   5
BRANCH   1   8
ATOM      8  O   UNL     1      24.391  15.334  30.828  1.00  0.00    -0.388 OA
ATOM      9  H   UNL     1      23.881  14.489  30.716  1.00  0.00     0.211 HD
ENDBRANCH   1   8
TORSDOF 5
ENDMDL
MODEL 8
REMARK VINA RESULT:    -3.037     17.302     17.917
REMARK INTER + INTRA:          -3.661
REMARK INTER:                  -3.441
REMARK INTRA:                  -0.220
REMARK UNBOUND:                -0.002
REMARK SMILES OCC(O)CO
REMARK SMILES IDX 3 1 5 2 6 3 2 5 1 6 4 8
REMARK H PARENT 6 4 1 7 4 9
REMARK Flexibility Score: inf
ROOT
ATOM      1  C   UNL     1      25.840  22.836  48.257  1.00  0.00     0.165 C 
ENDROOT
BRANCH   1   2
ATOM      2  C   UNL     1      25.305  21.440  48.606  1.00  0.00     0.190 C 
BRANCH   2   3
ATOM      3  O   UNL     1      26.267  20.461  48.317  1.00  0.00    -0.394 OA
ATOM      4  H   UNL     1      27.128  20.790  48.685  1.00  0.00     0.210 HD
ENDBRANCH   2   3
ENDBRANCH   1   2
BRANCH   1   5
ATOM      5  C   UNL     1      27.030  23.212  49.150  1.00  0.00     0.190 C 
BRANCH   5   6
ATOM      6  O   UNL     1      28.222  22.721  48.599  1.00  0.00    -0.394 OA
ATOM      7  H   UNL     1      27.973  22.298  47.736  1.00  0.00     0.210 HD
ENDBRANCH   5   6
ENDBRANCH   1   5
BRANCH   1   8
ATOM      8  O   UNL     1      26.240  22.852  46.911  1.00  0.00    -0.388 OA
ATOM      9  H   UNL     1      25.463  22.544  46.376  1.00  0.00     0.211 HD
ENDBRANCH   1   8
TORSDOF 5
ENDMDL
MODEL 9
REMARK VINA RESULT:    -2.987     16.997     17.432
REMARK INTER + INTRA:          -3.601
REMARK INTER:                  -3.377
REMARK INTRA:                  -0.224
REMARK UNBOUND:                -0.002
REMARK SMILES OCC(O)CO
REMARK SMILES IDX 3 1 5 2 6 3 2 5 1 6 4 8
REMARK H PARENT 6 4 1 7 4 9
REMARK Flexibility Score: inf
ROOT
ATOM      1  C   UNL     1      25.190  21.863  48.659  1.00  0.00     0.165 C 
ENDROOT
BRANCH   1   2
ATOM      2  C   UNL     1      26.007  23.143  48.436  1.00  0.00     0.190 C 
BRANCH   2   3
ATOM      3  O   UNL     1      26.681  23.085  47.208  1.00  0.00    -0.394 OA
ATOM      4  H   UNL     1      26.016  23.310  46.506  1.00  0.00     0.210 HD
ENDBRANCH   2   3
ENDBRANCH   1   2
BRANCH   1   5
ATOM      5  C   UNL     1      23.820  21.954  47.971  1.00  0.00     0.190 C 
BRANCH   5   6
ATOM      6  O   UNL     1      23.753  23.109  47.180  1.00  0.00    -0.394 OA
ATOM      7  H   UNL     1      23.572  23.860  47.803  1.00  0.00     0.210 HD
ENDBRANCH   5   6
ENDBRANCH   1   5
BRANCH   1   8
ATOM      8  O   UNL     1      25.901  20.767  48.143  1.00  0.00    -0.388 OA
ATOM      9  H   UNL     1      26.294  20.289  48.919  1.00  0.00     0.211 HD
ENDBRANCH   1   8
TORSDOF 5
ENDMDL
