MODEL 1
REMARK VINA RESULT:    -4.383      0.000      0.000
REMARK INTER + INTRA:          -5.898
REMARK INTER:                  -5.664
REMARK INTRA:                  -0.234
REMARK UNBOUND:                -0.234
REMARK SMILES C=CC(=O)CCCCC
REMARK SMILES IDX 6 1 7 2 8 3 9 4 5 5 3 6 4 7 2 8 1 9
REMARK H PARENT
REMARK Flexibility Score: inf
ROOT
ATOM      1  C   UNL     1     -12.916 -15.496  28.694  1.00  0.00     0.008 C 
ENDROOT
BRANCH   1   2
ATOM      2  C   UNL     1     -13.163 -16.441  27.509  1.00  0.00     0.000 C 
BRANCH   2   3
ATOM      3  C   UNL     1     -12.034 -17.466  27.326  1.00  0.00    -0.003 C 
ATOM      4  C   UNL     1     -11.393 -17.339  25.947  1.00  0.00     0.004 C 
ENDBRANCH   2   3
ENDBRANCH   1   2
BRANCH   1   5
ATOM      5  C   UNL     1     -12.365 -16.226  29.927  1.00  0.00     0.080 C 
BRANCH   5   6
ATOM      6  C   UNL     1     -13.380 -16.227  31.033  1.00  0.00     0.155 C 
ATOM      7  O   UNL     1     -13.474 -17.236  31.783  1.00  0.00    -0.295 OA
BRANCH   6   8
ATOM      8  C   UNL     1     -14.285 -15.076  31.205  1.00  0.00     0.039 C 
ATOM      9  C   UNL     1     -14.867 -14.790  32.368  1.00  0.00     0.012 C 
ENDBRANCH   6   8
ENDBRANCH   5   6
ENDBRANCH   1   5
TORSDOF 5
ENDMDL
MODEL 2
REMARK VINA RESULT:    -4.363      1.779      5.058
REMARK INTER + INTRA:          -5.872
REMARK INTER:                  -5.636
REMARK INTRA:                  -0.237
REMARK UNBOUND:                -0.234
REMARK SMILES C=CC(=O)CCCCC
REMARK SMILES IDX 6 1 7 2 8 3 9 4 5 5 3 6 4 7 2 8 1 9
REMARK H PARENT
REMARK Flexibility Score: inf
ROOT
ATOM      1  C   UNL     1     -12.417 -16.334  29.863  1.00  0.00     0.008 C 
ENDROOT
BRANCH   1   2
ATOM      2  C   UNL     1     -13.257 -16.294  31.149  1.00  0.00     0.000 C 
BRANCH   2   3
ATOM      3  C   UNL     1     -14.256 -15.128  31.166  1.00  0.00    -0.003 C 
ATOM      4  C   UNL     1     -14.633 -14.747  32.594  1.00  0.00     0.004 C 
ENDBRANCH   2   3
ENDBRANCH   1   2
BRANCH   1   5
ATOM      5  C   UNL     1     -13.003 -15.457  28.748  1.00  0.00     0.080 C 
BRANCH   5   6
ATOM      6  C   UNL     1     -13.076 -16.225  27.461  1.00  0.00     0.155 C 
ATOM      7  O   UNL     1     -14.014 -15.988  26.653  1.00  0.00    -0.295 OA
BRANCH   6   8
ATOM      8  C   UNL     1     -12.083 -17.276  27.171  1.00  0.00     0.039 C 
ATOM      9  C   UNL     1     -11.419 -17.335  26.018  1.00  0.00     0.012 C 
ENDBRANCH   6   8
ENDBRANCH   5   6
ENDBRANCH   1   5
TORSDOF 5
ENDMDL
MODEL 3
REMARK VINA RESULT:    -4.342      2.562      4.911
REMARK INTER + INTRA:          -5.845
REMARK INTER:                  -5.597
REMARK INTRA:                  -0.248
REMARK UNBOUND:                -0.234
REMARK SMILES C=CC(=O)CCCCC
REMARK SMILES IDX 6 1 7 2 8 3 9 4 5 5 3 6 4 7 2 8 1 9
REMARK H PARENT
REMARK Flexibility Score: inf
ROOT
ATOM      1  C   UNL     1     -12.889 -17.200  30.401  1.00  0.00     0.008 C 
ENDROOT
BRANCH   1   2
ATOM      2  C   UNL     1     -13.573 -15.904  30.861  1.00  0.00     0.000 C 
BRANCH   2   3
ATOM      3  C   UNL     1     -14.176 -16.022  32.269  1.00  0.00    -0.003 C 
ATOM      4  C   UNL     1     -14.889 -14.735  32.672  1.00  0.00     0.004 C 
ENDBRANCH   2   3
ENDBRANCH   1   2
BRANCH   1   5
ATOM      5  C   UNL     1     -13.099 -18.360  31.383  1.00  0.00     0.080 C 
BRANCH   5   6
ATOM      6  C   UNL     1     -12.897 -19.676  30.692  1.00  0.00     0.155 C 
ATOM      7  O   UNL     1     -12.615 -20.697  31.376  1.00  0.00    -0.295 OA
BRANCH   6   8
ATOM      8  C   UNL     1     -12.985 -19.759  29.221  1.00  0.00     0.039 C 
ATOM      9  C   UNL     1     -14.066 -20.220  28.594  1.00  0.00     0.012 C 
ENDBRANCH   6   8
ENDBRANCH   5   6
ENDBRANCH   1   5
TORSDOF 5
ENDMDL
MODEL 4
REMARK VINA RESULT:    -4.320      1.271      1.831
REMARK INTER + INTRA:          -5.816
REMARK INTER:                  -5.533
REMARK INTRA:                  -0.283
REMARK UNBOUND:                -0.234
REMARK SMILES C=CC(=O)CCCCC
REMARK SMILES IDX 6 1 7 2 8 3 9 4 5 5 3 6 4 7 2 8 1 9
REMARK H PARENT
REMARK Flexibility Score: inf
ROOT
ATOM      1  C   UNL     1     -12.865 -15.479  28.555  1.00  0.00     0.008 C 
ENDROOT
BRANCH   1   2
ATOM      2  C   UNL     1     -13.203 -16.416  27.386  1.00  0.00     0.000 C 
BRANCH   2   3
ATOM      3  C   UNL     1     -12.174 -17.543  27.215  1.00  0.00    -0.003 C 
ATOM      4  C   UNL     1     -11.345 -17.344  25.950  1.00  0.00     0.004 C 
ENDBRANCH   2   3
ENDBRANCH   1   2
BRANCH   1   5
ATOM      5  C   UNL     1     -12.227 -16.218  29.740  1.00  0.00     0.080 C 
BRANCH   5   6
ATOM      6  C   UNL     1     -13.188 -16.292  30.890  1.00  0.00     0.155 C 
ATOM      7  O   UNL     1     -14.075 -15.405  31.012  1.00  0.00    -0.295 OA
BRANCH   6   8
ATOM      8  C   UNL     1     -13.061 -17.370  31.890  1.00  0.00     0.039 C 
ATOM      9  C   UNL     1     -13.182 -18.658  31.573  1.00  0.00     0.012 C 
ENDBRANCH   6   8
ENDBRANCH   5   6
ENDBRANCH   1   5
TORSDOF 5
ENDMDL
MODEL 5
REMARK VINA RESULT:    -4.297      2.251      3.319
REMARK INTER + INTRA:          -5.787
REMARK INTER:                  -5.233
REMARK INTRA:                  -0.553
REMARK UNBOUND:                -0.234
REMARK SMILES C=CC(=O)CCCCC
REMARK SMILES IDX 6 1 7 2 8 3 9 4 5 5 3 6 4 7 2 8 1 9
REMARK H PARENT
REMARK Flexibility Score: inf
ROOT
ATOM      1  C   UNL     1     -12.084 -16.445  29.333  1.00  0.00     0.008 C 
ENDROOT
BRANCH   1   2
ATOM      2  C   UNL     1     -12.887 -15.741  28.229  1.00  0.00     0.000 C 
BRANCH   2   3
ATOM      3  C   UNL     1     -13.071 -16.619  26.982  1.00  0.00    -0.003 C 
ATOM      4  C   UNL     1     -11.739 -17.199  26.517  1.00  0.00     0.004 C 
ENDBRANCH   2   3
ENDBRANCH   1   2
BRANCH   1   5
ATOM      5  C   UNL     1     -12.906 -17.510  30.074  1.00  0.00     0.080 C 
BRANCH   5   6
ATOM      6  C   UNL     1     -12.276 -18.862  29.917  1.00  0.00     0.155 C 
ATOM      7  O   UNL     1     -11.041 -18.996  30.133  1.00  0.00    -0.295 OA
BRANCH   6   8
ATOM      8  C   UNL     1     -13.089 -20.009  29.471  1.00  0.00     0.039 C 
ATOM      9  C   UNL     1     -14.005 -19.906  28.509  1.00  0.00     0.012 C 
ENDBRANCH   6   8
ENDBRANCH   5   6
ENDBRANCH   1   5
TORSDOF 5
ENDMDL
MODEL 6
REMARK VINA RESULT:    -4.282      2.526      3.899
REMARK INTER + INTRA:          -5.767
REMARK INTER:                  -5.301
REMARK INTRA:                  -0.466
REMARK UNBOUND:                -0.234
REMARK SMILES C=CC(=O)CCCCC
REMARK SMILES IDX 6 1 7 2 8 3 9 4 5 5 3 6 4 7 2 8 1 9
REMARK H PARENT
REMARK Flexibility Score: inf
ROOT
ATOM      1  C   UNL     1     -12.426 -17.274  31.120  1.00  0.00     0.008 C 
ENDROOT
BRANCH   1   2
ATOM      2  C   UNL     1     -13.261 -16.254  30.331  1.00  0.00     0.000 C 
BRANCH   2   3
ATOM      3  C   UNL     1     -12.595 -15.839  29.011  1.00  0.00    -0.003 C 
ATOM      4  C   UNL     1     -11.138 -16.290  28.965  1.00  0.00     0.004 C 
ENDBRANCH   2   3
ENDBRANCH   1   2
BRANCH   1   5
ATOM      5  C   UNL     1     -13.254 -18.479  31.589  1.00  0.00     0.080 C 
BRANCH   5   6
ATOM      6  C   UNL     1     -12.874 -19.708  30.818  1.00  0.00     0.155 C 
ATOM      7  O   UNL     1     -12.555 -20.755  31.443  1.00  0.00    -0.295 OA
BRANCH   6   8
ATOM      8  C   UNL     1     -12.833 -19.671  29.344  1.00  0.00     0.039 C 
ATOM      9  C   UNL     1     -13.882 -19.999  28.590  1.00  0.00     0.012 C 
ENDBRANCH   6   8
ENDBRANCH   5   6
ENDBRANCH   1   5
TORSDOF 5
ENDMDL
MODEL 7
REMARK VINA RESULT:    -4.246      2.385      3.239
REMARK INTER + INTRA:          -5.721
REMARK INTER:                  -5.116
REMARK INTRA:                  -0.605
REMARK UNBOUND:                -0.234
REMARK SMILES C=CC(=O)CCCCC
REMARK SMILES IDX 6 1 7 2 8 3 9 4 5 5 3 6 4 7 2 8 1 9
REMARK H PARENT
REMARK Flexibility Score: inf
ROOT
ATOM      1  C   UNL     1     -13.651 -18.556  28.327  1.00  0.00     0.008 C 
ENDROOT
BRANCH   1   2
ATOM      2  C   UNL     1     -12.684 -17.557  27.672  1.00  0.00     0.000 C 
BRANCH   2   3
ATOM      3  C   UNL     1     -12.719 -16.176  28.344  1.00  0.00    -0.003 C 
ATOM      4  C   UNL     1     -11.399 -15.872  29.045  1.00  0.00     0.004 C 
ENDBRANCH   2   3
ENDBRANCH   1   2
BRANCH   1   5
ATOM      5  C   UNL     1     -12.927 -19.767  28.934  1.00  0.00     0.080 C 
BRANCH   5   6
ATOM      6  C   UNL     1     -12.313 -19.402  30.254  1.00  0.00     0.155 C 
ATOM      7  O   UNL     1     -11.058 -19.403  30.373  1.00  0.00    -0.295 OA
BRANCH   6   8
ATOM      8  C   UNL     1     -13.177 -19.093  31.409  1.00  0.00     0.039 C 
ATOM      9  C   UNL     1     -13.234 -17.879  31.955  1.00  0.00     0.012 C 
ENDBRANCH   6   8
ENDBRANCH   5   6
ENDBRANCH   1   5
TORSDOF 5
ENDMDL
MODEL 8
REMARK VINA RESULT:    -4.208      2.074      4.546
REMARK INTER + INTRA:          -5.672
REMARK INTER:                  -5.358
REMARK INTRA:                  -0.315
REMARK UNBOUND:                -0.234
REMARK SMILES C=CC(=O)CCCCC
REMARK SMILES IDX 6 1 7 2 8 3 9 4 5 5 3 6 4 7 2 8 1 9
REMARK H PARENT
REMARK Flexibility Score: inf
ROOT
ATOM      1  C   UNL     1     -13.259 -16.350  30.397  1.00  0.00     0.008 C 
ENDROOT
BRANCH   1   2
ATOM      2  C   UNL     1     -12.363 -17.377  31.106  1.00  0.00     0.000 C 
BRANCH   2   3
ATOM      3  C   UNL     1     -13.157 -18.567  31.664  1.00  0.00    -0.003 C 
ATOM      4  C   UNL     1     -12.829 -19.850  30.908  1.00  0.00     0.004 C 
ENDBRANCH   2   3
ENDBRANCH   1   2
BRANCH   1   5
ATOM      5  C   UNL     1     -12.687 -15.899  29.045  1.00  0.00     0.080 C 
BRANCH   5   6
ATOM      6  C   UNL     1     -12.620 -17.056  28.093  1.00  0.00     0.155 C 
ATOM      7  O   UNL     1     -13.609 -17.831  27.991  1.00  0.00    -0.295 OA
BRANCH   6   8
ATOM      8  C   UNL     1     -11.388 -17.306  27.320  1.00  0.00     0.039 C 
ATOM      9  C   UNL     1     -11.375 -17.350  25.988  1.00  0.00     0.012 C 
ENDBRANCH   6   8
ENDBRANCH   5   6
ENDBRANCH   1   5
TORSDOF 5
ENDMDL
MODEL 9
REMARK VINA RESULT:    -4.200      2.335      3.488
REMARK INTER + INTRA:          -5.661
REMARK INTER:                  -5.212
REMARK INTRA:                  -0.450
REMARK UNBOUND:                -0.234
REMARK SMILES C=CC(=O)CCCCC
REMARK SMILES IDX 6 1 7 2 8 3 9 4 5 5 3 6 4 7 2 8 1 9
REMARK H PARENT
REMARK Flexibility Score: inf
ROOT
ATOM      1  C   UNL     1     -13.250 -18.614  31.622  1.00  0.00     0.008 C 
ENDROOT
BRANCH   1   2
ATOM      2  C   UNL     1     -12.865 -19.903  30.881  1.00  0.00     0.000 C 
BRANCH   2   3
ATOM      3  C   UNL     1     -12.703 -19.690  29.368  1.00  0.00    -0.003 C 
ATOM      4  C   UNL     1     -14.000 -20.001  28.627  1.00  0.00     0.004 C 
ENDBRANCH   2   3
ENDBRANCH   1   2
BRANCH   1   5
ATOM      5  C   UNL     1     -12.328 -17.436  31.276  1.00  0.00     0.080 C 
BRANCH   5   6
ATOM      6  C   UNL     1     -13.121 -16.299  30.703  1.00  0.00     0.155 C 
ATOM      7  O   UNL     1     -14.000 -15.740  31.414  1.00  0.00    -0.295 OA
BRANCH   6   8
ATOM      8  C   UNL     1     -12.902 -15.875  29.308  1.00  0.00     0.039 C 
ATOM      9  C   UNL     1     -11.719 -15.980  28.705  1.00  0.00     0.012 C 
ENDBRANCH   6   8
ENDBRANCH   5   6
ENDBRANCH   1   5
TORSDOF 5
ENDMDL
