MODEL 1
REMARK VINA RESULT:    -2.722      0.000      0.000
REMARK INTER + INTRA:          -3.082
REMARK INTER:                  -3.040
REMARK INTRA:                  -0.042
REMARK UNBOUND:                -0.042
REMARK SMILES CCCC(=O)[O-]
REMARK SMILES IDX 3 1 4 2 5 3 6 4 2 5 1 6
REMARK H PARENT
REMARK Flexibility Score: inf
ROOT
ATOM      1  C   UNL     1      26.318  56.652  24.657  1.00  0.00     0.052 C 
ENDROOT
BRANCH   1   2
ATOM      2  C   UNL     1      26.956  57.706  25.505  1.00  0.00     0.041 C 
ATOM      3  O   UNL     1      28.125  57.544  25.944  1.00  0.00    -0.550 OA
ATOM      4  O   UNL     1      26.280  58.890  25.770  1.00  0.00    -0.550 OA
ENDBRANCH   1   2
BRANCH   1   5
ATOM      5  C   UNL     1      24.804  56.866  24.584  1.00  0.00     0.003 C 
ATOM      6  C   UNL     1      24.079  56.044  25.646  1.00  0.00     0.004 C 
ENDBRANCH   1   5
TORSDOF 2
ENDMDL
MODEL 2
REMARK VINA RESULT:    -2.695      0.896      1.568
REMARK INTER + INTRA:          -3.052
REMARK INTER:                  -2.990
REMARK INTRA:                  -0.063
REMARK UNBOUND:                -0.042
REMARK SMILES CCCC(=O)[O-]
REMARK SMILES IDX 3 1 4 2 5 3 6 4 2 5 1 6
REMARK H PARENT
REMARK Flexibility Score: inf
ROOT
ATOM      1  C   UNL     1      25.951  58.167  24.408  1.00  0.00     0.052 C 
ENDROOT
BRANCH   1   2
ATOM      2  C   UNL     1      26.793  58.466  25.607  1.00  0.00     0.041 C 
ATOM      3  O   UNL     1      26.508  59.438  26.354  1.00  0.00    -0.550 OA
ATOM      4  O   UNL     1      27.864  57.642  25.928  1.00  0.00    -0.550 OA
ENDBRANCH   1   2
BRANCH   1   5
ATOM      5  C   UNL     1      25.620  56.674  24.344  1.00  0.00     0.003 C 
ATOM      6  C   UNL     1      24.649  56.276  25.452  1.00  0.00     0.004 C 
ENDBRANCH   1   5
TORSDOF 2
ENDMDL
MODEL 3
REMARK VINA RESULT:    -2.664      2.103      3.080
REMARK INTER + INTRA:          -3.017
REMARK INTER:                  -2.999
REMARK INTRA:                  -0.018
REMARK UNBOUND:                -0.042
REMARK SMILES CCCC(=O)[O-]
REMARK SMILES IDX 3 1 4 2 5 3 6 4 2 5 1 6
REMARK H PARENT
REMARK Flexibility Score: inf
ROOT
ATOM      1  C   UNL     1      26.134  58.897  25.503  1.00  0.00     0.052 C 
ENDROOT
BRANCH   1   2
ATOM      2  C   UNL     1      26.958  57.658  25.350  1.00  0.00     0.041 C 
ATOM      3  O   UNL     1      28.068  57.559  25.937  1.00  0.00    -0.550 OA
ATOM      4  O   UNL     1      26.480  56.593  24.598  1.00  0.00    -0.550 OA
ENDBRANCH   1   2
BRANCH   1   5
ATOM      5  C   UNL     1      26.850  59.909  26.402  1.00  0.00     0.003 C 
ATOM      6  C   UNL     1      25.850  60.748  27.193  1.00  0.00     0.004 C 
ENDBRANCH   1   5
TORSDOF 2
ENDMDL
MODEL 4
REMARK VINA RESULT:    -2.644     22.282     23.449
REMARK INTER + INTRA:          -2.995
REMARK INTER:                  -2.956
REMARK INTRA:                  -0.038
REMARK UNBOUND:                -0.042
REMARK SMILES CCCC(=O)[O-]
REMARK SMILES IDX 3 1 4 2 5 3 6 4 2 5 1 6
REMARK H PARENT
REMARK Flexibility Score: inf
ROOT
ATOM      1  C   UNL     1       9.616  56.177  42.342  1.00  0.00     0.052 C 
ENDROOT
BRANCH   1   2
ATOM      2  C   UNL     1       9.071  57.527  42.003  1.00  0.00     0.041 C 
ATOM      3  O   UNL     1       7.875  57.652  41.629  1.00  0.00    -0.550 OA
ATOM      4  O   UNL     1       9.868  58.656  42.145  1.00  0.00    -0.550 OA
ENDBRANCH   1   2
BRANCH   1   5
ATOM      5  C   UNL     1      11.087  56.280  42.755  1.00  0.00     0.003 C 
ATOM      6  C   UNL     1      12.005  55.720  41.674  1.00  0.00     0.004 C 
ENDBRANCH   1   5
TORSDOF 2
ENDMDL
MODEL 5
REMARK VINA RESULT:    -2.634     22.854     23.457
REMARK INTER + INTRA:          -2.984
REMARK INTER:                  -2.975
REMARK INTRA:                  -0.009
REMARK UNBOUND:                -0.042
REMARK SMILES CCCC(=O)[O-]
REMARK SMILES IDX 3 1 4 2 5 3 6 4 2 5 1 6
REMARK H PARENT
REMARK Flexibility Score: inf
ROOT
ATOM      1  C   UNL     1       9.780  58.377  42.684  1.00  0.00     0.052 C 
ENDROOT
BRANCH   1   2
ATOM      2  C   UNL     1       9.900  59.575  41.798  1.00  0.00     0.041 C 
ATOM      3  O   UNL     1      10.943  59.757  41.117  1.00  0.00    -0.550 OA
ATOM      4  O   UNL     1       8.841  60.467  41.686  1.00  0.00    -0.550 OA
ENDBRANCH   1   2
BRANCH   1   5
ATOM      5  C   UNL     1       8.881  57.319  42.036  1.00  0.00     0.003 C 
ATOM      6  C   UNL     1       9.421  55.913  42.277  1.00  0.00     0.004 C 
ENDBRANCH   1   5
TORSDOF 2
ENDMDL
MODEL 6
REMARK VINA RESULT:    -2.601      1.662      1.972
REMARK INTER + INTRA:          -2.947
REMARK INTER:                  -2.882
REMARK INTRA:                  -0.065
REMARK UNBOUND:                -0.042
REMARK SMILES CCCC(=O)[O-]
REMARK SMILES IDX 3 1 4 2 5 3 6 4 2 5 1 6
REMARK H PARENT
REMARK Flexibility Score: inf
ROOT
ATOM      1  C   UNL     1      26.233  58.634  24.427  1.00  0.00     0.052 C 
ENDROOT
BRANCH   1   2
ATOM      2  C   UNL     1      26.013  59.250  25.772  1.00  0.00     0.041 C 
ATOM      3  O   UNL     1      26.997  59.605  26.474  1.00  0.00    -0.550 OA
ATOM      4  O   UNL     1      24.723  59.477  26.232  1.00  0.00    -0.550 OA
ENDBRANCH   1   2
BRANCH   1   5
ATOM      5  C   UNL     1      25.670  57.211  24.390  1.00  0.00     0.003 C 
ATOM      6  C   UNL     1      26.542  56.252  25.195  1.00  0.00     0.004 C 
ENDBRANCH   1   5
TORSDOF 2
ENDMDL
MODEL 7
REMARK VINA RESULT:    -2.584      1.491      1.819
REMARK INTER + INTRA:          -2.928
REMARK INTER:                  -2.916
REMARK INTRA:                  -0.012
REMARK UNBOUND:                -0.042
REMARK SMILES CCCC(=O)[O-]
REMARK SMILES IDX 3 1 4 2 5 3 6 4 2 5 1 6
REMARK H PARENT
REMARK Flexibility Score: inf
ROOT
ATOM      1  C   UNL     1      24.603  57.451  25.345  1.00  0.00     0.052 C 
ENDROOT
BRANCH   1   2
ATOM      2  C   UNL     1      26.030  57.126  25.036  1.00  0.00     0.041 C 
ATOM      3  O   UNL     1      26.309  56.310  24.119  1.00  0.00    -0.550 OA
ATOM      4  O   UNL     1      27.054  57.763  25.725  1.00  0.00    -0.550 OA
ENDBRANCH   1   2
BRANCH   1   5
ATOM      5  C   UNL     1      23.742  56.187  25.289  1.00  0.00     0.003 C 
ATOM      6  C   UNL     1      22.854  56.068  26.524  1.00  0.00     0.004 C 
ENDBRANCH   1   5
TORSDOF 2
ENDMDL
MODEL 8
REMARK VINA RESULT:    -2.582      2.670      3.623
REMARK INTER + INTRA:          -2.926
REMARK INTER:                  -2.889
REMARK INTRA:                  -0.037
REMARK UNBOUND:                -0.042
REMARK SMILES CCCC(=O)[O-]
REMARK SMILES IDX 3 1 4 2 5 3 6 4 2 5 1 6
REMARK H PARENT
REMARK Flexibility Score: inf
ROOT
ATOM      1  C   UNL     1      24.869  57.254  24.197  1.00  0.00     0.052 C 
ENDROOT
BRANCH   1   2
ATOM      2  C   UNL     1      23.780  56.284  24.531  1.00  0.00     0.041 C 
ATOM      3  O   UNL     1      23.031  55.835  23.624  1.00  0.00    -0.550 OA
ATOM      4  O   UNL     1      23.623  55.838  25.837  1.00  0.00    -0.550 OA
ENDBRANCH   1   2
BRANCH   1   5
ATOM      5  C   UNL     1      26.242  56.613  24.414  1.00  0.00     0.003 C 
ATOM      6  C   UNL     1      27.009  57.317  25.529  1.00  0.00     0.004 C 
ENDBRANCH   1   5
TORSDOF 2
ENDMDL
MODEL 9
REMARK VINA RESULT:    -2.553     14.738     15.229
REMARK INTER + INTRA:          -2.894
REMARK INTER:                  -2.874
REMARK INTRA:                  -0.020
REMARK UNBOUND:                -0.042
REMARK SMILES CCCC(=O)[O-]
REMARK SMILES IDX 3 1 4 2 5 3 6 4 2 5 1 6
REMARK H PARENT
REMARK Flexibility Score: inf
ROOT
ATOM      1  C   UNL     1      22.913  52.556  38.670  1.00  0.00     0.052 C 
ENDROOT
BRANCH   1   2
ATOM      2  C   UNL     1      23.066  51.447  39.661  1.00  0.00     0.041 C 
ATOM      3  O   UNL     1      22.799  50.262  39.332  1.00  0.00    -0.550 OA
ATOM      4  O   UNL     1      23.550  51.715  40.935  1.00  0.00    -0.550 OA
ENDBRANCH   1   2
BRANCH   1   5
ATOM      5  C   UNL     1      21.831  52.210  37.642  1.00  0.00     0.003 C 
ATOM      6  C   UNL     1      20.752  53.288  37.593  1.00  0.00     0.004 C 
ENDBRANCH   1   5
TORSDOF 2
ENDMDL
