MODEL 1
REMARK VINA RESULT:    -3.573      0.000      0.000
REMARK INTER + INTRA:          -7.564
REMARK INTER:                  -5.871
REMARK INTRA:                  -1.692
REMARK UNBOUND:                -1.692
REMARK SMILES CCCCCCCCCCCCCC
REMARK SMILES IDX 7 1 6 2 5 3 4 4 3 5 2 6 1 7 8 8 9 9 10 10 11 11 12 12 13 13
REMARK SMILES IDX 14 14
REMARK H PARENT
REMARK Flexibility Score: inf
ROOT
ATOM      1  C   UNL     1      24.193   0.834  36.646  1.00  0.00    -0.000 C 
ENDROOT
BRANCH   1   2
ATOM      2  C   UNL     1      23.445  -0.488  36.869  1.00  0.00    -0.000 C 
BRANCH   2   3
ATOM      3  C   UNL     1      22.487  -0.830  35.717  1.00  0.00    -0.000 C 
BRANCH   3   4
ATOM      4  C   UNL     1      23.171  -0.775  34.340  1.00  0.00    -0.000 C 
BRANCH   4   5
ATOM      5  C   UNL     1      24.131  -1.964  34.119  1.00  0.00    -0.000 C 
BRANCH   5   6
ATOM      6  C   UNL     1      25.449  -1.569  33.433  1.00  0.00    -0.003 C 
ATOM      7  C   UNL     1      25.470  -0.114  32.969  1.00  0.00     0.004 C 
ENDBRANCH   5   6
ENDBRANCH   4   5
ENDBRANCH   3   4
ENDBRANCH   2   3
ENDBRANCH   1   2
BRANCH   1   8
ATOM      8  C   UNL     1      25.680   0.689  36.990  1.00  0.00    -0.000 C 
BRANCH   8   9
ATOM      9  C   UNL     1      26.091  -0.788  37.054  1.00  0.00    -0.000 C 
BRANCH   9  10
ATOM     10  C   UNL     1      27.436  -1.015  36.350  1.00  0.00    -0.000 C 
BRANCH  10  11
ATOM     11  C   UNL     1      27.877  -2.487  36.376  1.00  0.00    -0.000 C 
BRANCH  11  12
ATOM     12  C   UNL     1      29.244  -2.707  35.705  1.00  0.00    -0.000 C 
BRANCH  12  13
ATOM     13  C   UNL     1      29.264  -3.954  34.807  1.00  0.00    -0.003 C 
ATOM     14  C   UNL     1      27.916  -4.223  34.142  1.00  0.00     0.004 C 
ENDBRANCH  12  13
ENDBRANCH  11  12
ENDBRANCH  10  11
ENDBRANCH   9  10
ENDBRANCH   8   9
ENDBRANCH   1   8
TORSDOF 11
ENDMDL
MODEL 2
REMARK VINA RESULT:    -3.445      1.302      5.195
REMARK INTER + INTRA:          -7.352
REMARK INTER:                  -5.221
REMARK INTRA:                  -2.131
REMARK UNBOUND:                -1.692
REMARK SMILES CCCCCCCCCCCCCC
REMARK SMILES IDX 7 1 6 2 5 3 4 4 3 5 2 6 1 7 8 8 9 9 10 10 11 11 12 12 13 13
REMARK SMILES IDX 14 14
REMARK H PARENT
REMARK Flexibility Score: inf
ROOT
ATOM      1  C   UNL     1      25.749   1.078  33.580  1.00  0.00    -0.000 C 
ENDROOT
BRANCH   1   2
ATOM      2  C   UNL     1      26.661   0.704  34.756  1.00  0.00    -0.000 C 
BRANCH   2   3
ATOM      3  C   UNL     1      26.123   1.205  36.106  1.00  0.00    -0.000 C 
BRANCH   3   4
ATOM      4  C   UNL     1      26.682   0.410  37.300  1.00  0.00    -0.000 C 
BRANCH   4   5
ATOM      5  C   UNL     1      26.241  -1.069  37.272  1.00  0.00    -0.000 C 
BRANCH   5   6
ATOM      6  C   UNL     1      27.399  -2.058  37.489  1.00  0.00    -0.003 C 
ATOM      7  C   UNL     1      28.184  -2.350  36.212  1.00  0.00     0.004 C 
ENDBRANCH   5   6
ENDBRANCH   4   5
ENDBRANCH   3   4
ENDBRANCH   2   3
ENDBRANCH   1   2
BRANCH   1   8
ATOM      8  C   UNL     1      25.127  -0.173  32.948  1.00  0.00    -0.000 C 
BRANCH   8   9
ATOM      9  C   UNL     1      25.441  -1.425  33.776  1.00  0.00    -0.000 C 
BRANCH   9  10
ATOM     10  C   UNL     1      24.151  -2.150  34.187  1.00  0.00    -0.000 C 
BRANCH  10  11
ATOM     11  C   UNL     1      23.007  -1.179  34.520  1.00  0.00    -0.000 C 
BRANCH  11  12
ATOM     12  C   UNL     1      22.914  -0.869  36.024  1.00  0.00    -0.000 C 
BRANCH  12  13
ATOM     13  C   UNL     1      22.528   0.592  36.300  1.00  0.00    -0.003 C 
ATOM     14  C   UNL     1      22.200   1.367  35.024  1.00  0.00     0.004 C 
ENDBRANCH  12  13
ENDBRANCH  11  12
ENDBRANCH  10  11
ENDBRANCH   9  10
ENDBRANCH   8   9
ENDBRANCH   1   8
TORSDOF 11
ENDMDL
MODEL 3
REMARK VINA RESULT:    -3.427      1.846      5.968
REMARK INTER + INTRA:          -7.323
REMARK INTER:                  -6.311
REMARK INTRA:                  -1.012
REMARK UNBOUND:                -1.692
REMARK SMILES CCCCCCCCCCCCCC
REMARK SMILES IDX 7 1 6 2 5 3 4 4 3 5 2 6 1 7 8 8 9 9 10 10 11 11 12 12 13 13
REMARK SMILES IDX 14 14
REMARK H PARENT
REMARK Flexibility Score: inf
ROOT
ATOM      1  C   UNL     1      28.867  -3.362  35.734  1.00  0.00    -0.000 C 
ENDROOT
BRANCH   1   2
ATOM      2  C   UNL     1      28.263  -3.946  34.450  1.00  0.00    -0.000 C 
BRANCH   2   3
ATOM      3  C   UNL     1      28.586  -5.437  34.266  1.00  0.00    -0.000 C 
BRANCH   3   4
ATOM      4  C   UNL     1      30.068  -5.687  33.937  1.00  0.00    -0.000 C 
BRANCH   4   5
ATOM      5  C   UNL     1      30.496  -5.002  32.621  1.00  0.00    -0.000 C 
BRANCH   5   6
ATOM      6  C   UNL     1      31.650  -4.001  32.797  1.00  0.00    -0.003 C 
ATOM      7  C   UNL     1      32.952  -4.662  33.247  1.00  0.00     0.004 C 
ENDBRANCH   5   6
ENDBRANCH   4   5
ENDBRANCH   3   4
ENDBRANCH   2   3
ENDBRANCH   1   2
BRANCH   1   8
ATOM      8  C   UNL     1      28.360  -1.936  35.982  1.00  0.00    -0.000 C 
BRANCH   8   9
ATOM      9  C   UNL     1      27.260  -1.920  37.052  1.00  0.00    -0.000 C 
BRANCH   9  10
ATOM     10  C   UNL     1      26.005  -1.200  36.539  1.00  0.00    -0.000 C 
BRANCH  10  11
ATOM     11  C   UNL     1      26.213  -0.560  35.157  1.00  0.00    -0.000 C 
BRANCH  11  12
ATOM     12  C   UNL     1      25.330  -1.197  34.071  1.00  0.00    -0.000 C 
BRANCH  12  13
ATOM     13  C   UNL     1      24.206  -2.063  34.660  1.00  0.00    -0.003 C 
ATOM     14  C   UNL     1      22.877  -1.316  34.762  1.00  0.00     0.004 C 
ENDBRANCH  12  13
ENDBRANCH  11  12
ENDBRANCH  10  11
ENDBRANCH   9  10
ENDBRANCH   8   9
ENDBRANCH   1   8
TORSDOF 11
ENDMDL
MODEL 4
REMARK VINA RESULT:    -3.334      1.647      3.444
REMARK INTER + INTRA:          -7.170
REMARK INTER:                  -6.145
REMARK INTRA:                  -1.025
REMARK UNBOUND:                -1.692
REMARK SMILES CCCCCCCCCCCCCC
REMARK SMILES IDX 7 1 6 2 5 3 4 4 3 5 2 6 1 7 8 8 9 9 10 10 11 11 12 12 13 13
REMARK SMILES IDX 14 14
REMARK H PARENT
REMARK Flexibility Score: inf
ROOT
ATOM      1  C   UNL     1      27.340  -2.027  37.056  1.00  0.00    -0.000 C 
ENDROOT
BRANCH   1   2
ATOM      2  C   UNL     1      26.731  -0.627  37.211  1.00  0.00    -0.000 C 
BRANCH   2   3
ATOM      3  C   UNL     1      25.286  -0.548  36.693  1.00  0.00    -0.000 C 
BRANCH   3   4
ATOM      4  C   UNL     1      25.167   0.256  35.386  1.00  0.00    -0.000 C 
BRANCH   4   5
ATOM      5  C   UNL     1      24.438  -0.536  34.280  1.00  0.00    -0.000 C 
BRANCH   5   6
ATOM      6  C   UNL     1      24.983  -1.961  34.085  1.00  0.00    -0.003 C 
ATOM      7  C   UNL     1      23.884  -3.021  34.039  1.00  0.00     0.004 C 
ENDBRANCH   5   6
ENDBRANCH   4   5
ENDBRANCH   3   4
ENDBRANCH   2   3
ENDBRANCH   1   2
BRANCH   1   8
ATOM      8  C   UNL     1      28.302  -2.079  35.862  1.00  0.00    -0.000 C 
BRANCH   8   9
ATOM      9  C   UNL     1      28.944  -3.466  35.730  1.00  0.00    -0.000 C 
BRANCH   9  10
ATOM     10  C   UNL     1      28.523  -4.144  34.419  1.00  0.00    -0.000 C 
BRANCH  10  11
ATOM     11  C   UNL     1      29.354  -5.399  34.108  1.00  0.00    -0.000 C 
BRANCH  11  12
ATOM     12  C   UNL     1      30.205  -5.243  32.836  1.00  0.00    -0.000 C 
BRANCH  12  13
ATOM     13  C   UNL     1      31.257  -4.131  32.964  1.00  0.00    -0.003 C 
ATOM     14  C   UNL     1      32.418  -4.519  33.878  1.00  0.00     0.004 C 
ENDBRANCH  12  13
ENDBRANCH  11  12
ENDBRANCH  10  11
ENDBRANCH   9  10
ENDBRANCH   8   9
ENDBRANCH   1   8
TORSDOF 11
ENDMDL
MODEL 5
REMARK VINA RESULT:    -3.239      1.953      3.907
REMARK INTER + INTRA:          -7.014
REMARK INTER:                  -4.982
REMARK INTRA:                  -2.032
REMARK UNBOUND:                -1.692
REMARK SMILES CCCCCCCCCCCCCC
REMARK SMILES IDX 7 1 6 2 5 3 4 4 3 5 2 6 1 7 8 8 9 9 10 10 11 11 12 12 13 13
REMARK SMILES IDX 14 14
REMARK H PARENT
REMARK Flexibility Score: inf
ROOT
ATOM      1  C   UNL     1      23.025  -1.479  34.648  1.00  0.00    -0.000 C 
ENDROOT
BRANCH   1   2
ATOM      2  C   UNL     1      24.225  -2.283  34.128  1.00  0.00    -0.000 C 
BRANCH   2   3
ATOM      3  C   UNL     1      25.492  -1.426  33.979  1.00  0.00    -0.000 C 
BRANCH   3   4
ATOM      4  C   UNL     1      25.466  -0.543  32.719  1.00  0.00    -0.000 C 
BRANCH   4   5
ATOM      5  C   UNL     1      25.893   0.910  33.018  1.00  0.00    -0.000 C 
BRANCH   5   6
ATOM      6  C   UNL     1      24.955   1.964  32.406  1.00  0.00    -0.003 C 
ATOM      7  C   UNL     1      23.499   1.788  32.833  1.00  0.00     0.004 C 
ENDBRANCH   5   6
ENDBRANCH   4   5
ENDBRANCH   3   4
ENDBRANCH   2   3
ENDBRANCH   1   2
BRANCH   1   8
ATOM      8  C   UNL     1      23.300  -0.925  36.051  1.00  0.00    -0.000 C 
BRANCH   8   9
ATOM      9  C   UNL     1      22.738   0.494  36.204  1.00  0.00    -0.000 C 
BRANCH   9  10
ATOM     10  C   UNL     1      23.665   1.363  37.067  1.00  0.00    -0.000 C 
BRANCH  10  11
ATOM     11  C   UNL     1      25.069   1.512  36.460  1.00  0.00    -0.000 C 
BRANCH  11  12
ATOM     12  C   UNL     1      26.180   1.056  37.422  1.00  0.00    -0.000 C 
BRANCH  12  13
ATOM     13  C   UNL     1      27.074  -0.035  36.813  1.00  0.00    -0.003 C 
ATOM     14  C   UNL     1      26.801  -1.418  37.401  1.00  0.00     0.004 C 
ENDBRANCH  12  13
ENDBRANCH  11  12
ENDBRANCH  10  11
ENDBRANCH   9  10
ENDBRANCH   8   9
ENDBRANCH   1   8
TORSDOF 11
ENDMDL
MODEL 6
REMARK VINA RESULT:    -3.231      1.465      3.806
REMARK INTER + INTRA:          -7.000
REMARK INTER:                  -4.944
REMARK INTRA:                  -2.056
REMARK UNBOUND:                -1.692
REMARK SMILES CCCCCCCCCCCCCC
REMARK SMILES IDX 7 1 6 2 5 3 4 4 3 5 2 6 1 7 8 8 9 9 10 10 11 11 12 12 13 13
REMARK SMILES IDX 14 14
REMARK H PARENT
REMARK Flexibility Score: inf
ROOT
ATOM      1  C   UNL     1      25.494  -0.840  33.315  1.00  0.00    -0.000 C 
ENDROOT
BRANCH   1   2
ATOM      2  C   UNL     1      24.351  -1.502  34.097  1.00  0.00    -0.000 C 
BRANCH   2   3
ATOM      3  C   UNL     1      23.252  -0.505  34.498  1.00  0.00    -0.000 C 
BRANCH   3   4
ATOM      4  C   UNL     1      22.541  -0.899  35.805  1.00  0.00    -0.000 C 
BRANCH   4   5
ATOM      5  C   UNL     1      22.499   0.264  36.819  1.00  0.00    -0.000 C 
BRANCH   5   6
ATOM      6  C   UNL     1      22.538   1.654  36.161  1.00  0.00    -0.003 C 
ATOM      7  C   UNL     1      21.430   2.582  36.655  1.00  0.00     0.004 C 
ENDBRANCH   5   6
ENDBRANCH   4   5
ENDBRANCH   3   4
ENDBRANCH   2   3
ENDBRANCH   1   2
BRANCH   1   8
ATOM      8  C   UNL     1      25.349   0.686  33.315  1.00  0.00    -0.000 C 
BRANCH   8   9
ATOM      9  C   UNL     1      26.544   1.354  34.009  1.00  0.00    -0.000 C 
BRANCH   9  10
ATOM     10  C   UNL     1      26.211   1.696  35.468  1.00  0.00    -0.000 C 
BRANCH  10  11
ATOM     11  C   UNL     1      27.009   0.848  36.472  1.00  0.00    -0.000 C 
BRANCH  11  12
ATOM     12  C   UNL     1      26.141  -0.212  37.172  1.00  0.00    -0.000 C 
BRANCH  12  13
ATOM     13  C   UNL     1      26.850  -1.570  37.287  1.00  0.00    -0.003 C 
ATOM     14  C   UNL     1      27.809  -1.834  36.127  1.00  0.00     0.004 C 
ENDBRANCH  12  13
ENDBRANCH  11  12
ENDBRANCH  10  11
ENDBRANCH   9  10
ENDBRANCH   8   9
ENDBRANCH   1   8
TORSDOF 11
ENDMDL
MODEL 7
REMARK VINA RESULT:    -3.211      1.265      2.259
REMARK INTER + INTRA:          -6.968
REMARK INTER:                  -5.703
REMARK INTRA:                  -1.265
REMARK UNBOUND:                -1.692
REMARK SMILES CCCCCCCCCCCCCC
REMARK SMILES IDX 7 1 6 2 5 3 4 4 3 5 2 6 1 7 8 8 9 9 10 10 11 11 12 12 13 13
REMARK SMILES IDX 14 14
REMARK H PARENT
REMARK Flexibility Score: inf
ROOT
ATOM      1  C   UNL     1      26.344  -0.044  37.520  1.00  0.00    -0.000 C 
ENDROOT
BRANCH   1   2
ATOM      2  C   UNL     1      25.077   0.460  36.816  1.00  0.00    -0.000 C 
BRANCH   2   3
ATOM      3  C   UNL     1      25.385   1.413  35.650  1.00  0.00    -0.000 C 
BRANCH   3   4
ATOM      4  C   UNL     1      24.541   1.112  34.399  1.00  0.00    -0.000 C 
BRANCH   4   5
ATOM      5  C   UNL     1      24.211  -0.389  34.266  1.00  0.00    -0.000 C 
BRANCH   5   6
ATOM      6  C   UNL     1      25.241  -1.173  33.436  1.00  0.00    -0.003 C 
ATOM      7  C   UNL     1      25.263  -2.665  33.762  1.00  0.00     0.004 C 
ENDBRANCH   5   6
ENDBRANCH   4   5
ENDBRANCH   3   4
ENDBRANCH   2   3
ENDBRANCH   1   2
BRANCH   1   8
ATOM      8  C   UNL     1      26.687  -1.472  37.080  1.00  0.00    -0.000 C 
BRANCH   8   9
ATOM      9  C   UNL     1      27.856  -1.479  36.087  1.00  0.00    -0.000 C 
BRANCH   9  10
ATOM     10  C   UNL     1      28.530  -2.858  36.041  1.00  0.00    -0.000 C 
BRANCH  10  11
ATOM     11  C   UNL     1      29.928  -2.812  35.404  1.00  0.00    -0.000 C 
BRANCH  11  12
ATOM     12  C   UNL     1      30.302  -4.129  34.703  1.00  0.00    -0.000 C 
BRANCH  12  13
ATOM     13  C   UNL     1      29.072  -4.989  34.372  1.00  0.00    -0.003 C 
ATOM     14  C   UNL     1      29.379  -6.485  34.379  1.00  0.00     0.004 C 
ENDBRANCH  12  13
ENDBRANCH  11  12
ENDBRANCH  10  11
ENDBRANCH   9  10
ENDBRANCH   8   9
ENDBRANCH   1   8
TORSDOF 11
ENDMDL
MODEL 8
REMARK VINA RESULT:    -3.118      2.423      4.255
REMARK INTER + INTRA:          -6.816
REMARK INTER:                  -4.495
REMARK INTRA:                  -2.321
REMARK UNBOUND:                -1.692
REMARK SMILES CCCCCCCCCCCCCC
REMARK SMILES IDX 7 1 6 2 5 3 4 4 3 5 2 6 1 7 8 8 9 9 10 10 11 11 12 12 13 13
REMARK SMILES IDX 14 14
REMARK H PARENT
REMARK Flexibility Score: inf
ROOT
ATOM      1  C   UNL     1      21.860   1.550  34.841  1.00  0.00    -0.000 C 
ENDROOT
BRANCH   1   2
ATOM      2  C   UNL     1      22.974   2.078  35.756  1.00  0.00    -0.000 C 
BRANCH   2   3
ATOM      3  C   UNL     1      23.379   1.068  36.842  1.00  0.00    -0.000 C 
BRANCH   3   4
ATOM      4  C   UNL     1      22.875  -0.355  36.546  1.00  0.00    -0.000 C 
BRANCH   4   5
ATOM      5  C   UNL     1      24.004  -1.279  36.042  1.00  0.00    -0.000 C 
BRANCH   5   6
ATOM      6  C   UNL     1      23.834  -1.712  34.576  1.00  0.00    -0.003 C 
ATOM      7  C   UNL     1      25.059  -2.437  34.020  1.00  0.00     0.004 C 
ENDBRANCH   5   6
ENDBRANCH   4   5
ENDBRANCH   3   4
ENDBRANCH   2   3
ENDBRANCH   1   2
BRANCH   1   8
ATOM      8  C   UNL     1      22.330   1.486  33.383  1.00  0.00    -0.000 C 
BRANCH   8   9
ATOM      9  C   UNL     1      23.684   2.186  33.208  1.00  0.00    -0.000 C 
BRANCH   9  10
ATOM     10  C   UNL     1      24.547   1.462  32.165  1.00  0.00    -0.000 C 
BRANCH  10  11
ATOM     11  C   UNL     1      25.872   0.948  32.748  1.00  0.00    -0.000 C 
BRANCH  11  12
ATOM     12  C   UNL     1      26.255   1.655  34.059  1.00  0.00    -0.000 C 
BRANCH  12  13
ATOM     13  C   UNL     1      26.829   0.686  35.104  1.00  0.00    -0.003 C 
ATOM     14  C   UNL     1      27.078   1.355  36.455  1.00  0.00     0.004 C 
ENDBRANCH  12  13
ENDBRANCH  11  12
ENDBRANCH  10  11
ENDBRANCH   9  10
ENDBRANCH   8   9
ENDBRANCH   1   8
TORSDOF 11
ENDMDL
MODEL 9
REMARK VINA RESULT:    -3.114      2.599      5.725
REMARK INTER + INTRA:          -6.809
REMARK INTER:                  -4.523
REMARK INTRA:                  -2.286
REMARK UNBOUND:                -1.692
REMARK SMILES CCCCCCCCCCCCCC
REMARK SMILES IDX 7 1 6 2 5 3 4 4 3 5 2 6 1 7 8 8 9 9 10 10 11 11 12 12 13 13
REMARK SMILES IDX 14 14
REMARK H PARENT
REMARK Flexibility Score: inf
ROOT
ATOM      1  C   UNL     1      23.073  -1.607  34.634  1.00  0.00    -0.000 C 
ENDROOT
BRANCH   1   2
ATOM      2  C   UNL     1      24.349  -2.369  34.249  1.00  0.00    -0.000 C 
BRANCH   2   3
ATOM      3  C   UNL     1      25.546  -1.436  34.005  1.00  0.00    -0.000 C 
BRANCH   3   4
ATOM      4  C   UNL     1      25.300  -0.441  32.858  1.00  0.00    -0.000 C 
BRANCH   4   5
ATOM      5  C   UNL     1      25.878   0.957  33.166  1.00  0.00    -0.000 C 
BRANCH   5   6
ATOM      6  C   UNL     1      26.316   1.131  34.630  1.00  0.00    -0.003 C 
ATOM      7  C   UNL     1      25.712   2.368  35.292  1.00  0.00     0.004 C 
ENDBRANCH   5   6
ENDBRANCH   4   5
ENDBRANCH   3   4
ENDBRANCH   2   3
ENDBRANCH   1   2
BRANCH   1   8
ATOM      8  C   UNL     1      23.253  -0.872  35.968  1.00  0.00    -0.000 C 
BRANCH   8   9
ATOM      9  C   UNL     1      22.608   0.519  35.924  1.00  0.00    -0.000 C 
BRANCH   9  10
ATOM     10  C   UNL     1      21.815   0.717  34.624  1.00  0.00    -0.000 C 
BRANCH  10  11
ATOM     11  C   UNL     1      22.245   1.976  33.855  1.00  0.00    -0.000 C 
BRANCH  11  12
ATOM     12  C   UNL     1      22.310   1.746  32.335  1.00  0.00    -0.000 C 
BRANCH  12  13
ATOM     13  C   UNL     1      22.942   2.931  31.588  1.00  0.00    -0.003 C 
ATOM     14  C   UNL     1      23.685   3.887  32.520  1.00  0.00     0.004 C 
ENDBRANCH  12  13
ENDBRANCH  11  12
ENDBRANCH  10  11
ENDBRANCH   9  10
ENDBRANCH   8   9
ENDBRANCH   1   8
TORSDOF 11
ENDMDL
