MODEL 1
REMARK VINA RESULT:    -3.634      0.000      0.000
REMARK INTER + INTRA:          -3.968
REMARK INTER:                  -3.953
REMARK INTRA:                  -0.015
REMARK UNBOUND:                -0.015
REMARK SMILES OCc1ccco1
REMARK SMILES IDX 2 1 3 2 5 3 6 4 4 5 7 6 1 7
REMARK H PARENT 1 8
REMARK Flexibility Score: inf
ROOT
ATOM      1  C   UNL     1      38.887  34.838  47.066  1.00  0.00     0.231 C 
ENDROOT
BRANCH   1   2
ATOM      2  C   UNL     1      38.230  35.026  48.396  1.00  0.00     0.129 A 
ATOM      3  C   UNL     1      36.895  34.815  50.127  1.00  0.00     0.042 A 
ATOM      4  C   UNL     1      37.764  35.876  50.295  1.00  0.00     0.195 A 
ATOM      5  C   UNL     1      37.192  34.268  48.897  1.00  0.00     0.048 A 
ATOM      6  O   UNL     1      38.547  35.976  49.245  1.00  0.00    -0.467 OA
ENDBRANCH   1   2
BRANCH   1   7
ATOM      7  O   UNL     1      38.458  35.830  46.174  1.00  0.00    -0.388 OA
ATOM      8  H   UNL     1      38.426  36.679  46.688  1.00  0.00     0.211 HD
ENDBRANCH   1   7
TORSDOF 2
ENDMDL
MODEL 2
REMARK VINA RESULT:    -2.638     14.630     16.446
REMARK INTER + INTRA:          -2.884
REMARK INTER:                  -2.870
REMARK INTRA:                  -0.014
REMARK UNBOUND:                -0.015
REMARK SMILES OCc1ccco1
REMARK SMILES IDX 2 1 3 2 5 3 6 4 4 5 7 6 1 7
REMARK H PARENT 1 8
REMARK Flexibility Score: inf
ROOT
ATOM      1  C   UNL     1      41.135  34.878  34.460  1.00  0.00     0.231 C 
ENDROOT
BRANCH   1   2
ATOM      2  C   UNL     1      40.808  35.102  33.019  1.00  0.00     0.129 A 
ATOM      3  C   UNL     1      40.445  34.792  30.875  1.00  0.00     0.042 A 
ATOM      4  C   UNL     1      40.342  36.128  31.209  1.00  0.00     0.195 A 
ATOM      5  C   UNL     1      40.750  34.127  32.044  1.00  0.00     0.048 A 
ATOM      6  O   UNL     1      40.566  36.281  32.494  1.00  0.00    -0.467 OA
ENDBRANCH   1   2
BRANCH   1   7
ATOM      7  O   UNL     1      42.525  34.869  34.641  1.00  0.00    -0.388 OA
ATOM      8  H   UNL     1      42.701  34.332  35.457  1.00  0.00     0.211 HD
ENDBRANCH   1   7
TORSDOF 2
ENDMDL
MODEL 3
REMARK VINA RESULT:    -2.273     17.770     17.968
REMARK INTER + INTRA:          -2.488
REMARK INTER:                  -2.466
REMARK INTRA:                  -0.022
REMARK UNBOUND:                -0.015
REMARK SMILES OCc1ccco1
REMARK SMILES IDX 2 1 3 2 5 3 6 4 4 5 7 6 1 7
REMARK H PARENT 1 8
REMARK Flexibility Score: inf
ROOT
ATOM      1  C   UNL     1      40.667  34.426  31.084  1.00  0.00     0.231 C 
ENDROOT
BRANCH   1   2
ATOM      2  C   UNL     1      40.511  35.912  31.052  1.00  0.00     0.129 A 
ATOM      3  C   UNL     1      39.652  37.934  31.049  1.00  0.00     0.042 A 
ATOM      4  C   UNL     1      41.022  37.974  30.876  1.00  0.00     0.195 A 
ATOM      5  C   UNL     1      39.319  36.600  31.159  1.00  0.00     0.048 A 
ATOM      6  O   UNL     1      41.505  36.752  30.881  1.00  0.00    -0.467 OA
ENDBRANCH   1   2
BRANCH   1   7
ATOM      7  O   UNL     1      42.008  34.079  30.875  1.00  0.00    -0.388 OA
ATOM      8  H   UNL     1      42.470  34.194  31.747  1.00  0.00     0.211 HD
ENDBRANCH   1   7
TORSDOF 2
ENDMDL
MODEL 4
REMARK VINA RESULT:    -2.146     13.806     15.470
REMARK INTER + INTRA:          -2.350
REMARK INTER:                  -2.330
REMARK INTRA:                  -0.019
REMARK UNBOUND:                -0.015
REMARK SMILES OCc1ccco1
REMARK SMILES IDX 2 1 3 2 5 3 6 4 4 5 7 6 1 7
REMARK H PARENT 1 8
REMARK Flexibility Score: inf
ROOT
ATOM      1  C   UNL     1      46.862  41.588  40.787  1.00  0.00     0.231 C 
ENDROOT
BRANCH   1   2
ATOM      2  C   UNL     1      47.687  41.860  39.571  1.00  0.00     0.129 A 
ATOM      3  C   UNL     1      48.313  42.397  37.535  1.00  0.00     0.042 A 
ATOM      4  C   UNL     1      49.387  41.964  38.288  1.00  0.00     0.195 A 
ATOM      5  C   UNL     1      47.212  42.326  38.362  1.00  0.00     0.048 A 
ATOM      6  O   UNL     1      48.980  41.650  39.498  1.00  0.00    -0.467 OA
ENDBRANCH   1   2
BRANCH   1   7
ATOM      7  O   UNL     1      47.629  41.788  41.943  1.00  0.00    -0.388 OA
ATOM      8  H   UNL     1      47.227  41.221  42.652  1.00  0.00     0.211 HD
ENDBRANCH   1   7
TORSDOF 2
ENDMDL
MODEL 5
REMARK VINA RESULT:    -2.139     14.051     14.886
REMARK INTER + INTRA:          -2.342
REMARK INTER:                  -2.327
REMARK INTRA:                  -0.015
REMARK UNBOUND:                -0.015
REMARK SMILES OCc1ccco1
REMARK SMILES IDX 2 1 3 2 5 3 6 4 4 5 7 6 1 7
REMARK H PARENT 1 8
REMARK Flexibility Score: inf
ROOT
ATOM      1  C   UNL     1      48.041  42.410  38.073  1.00  0.00     0.231 C 
ENDROOT
BRANCH   1   2
ATOM      2  C   UNL     1      47.911  42.338  39.560  1.00  0.00     0.129 A 
ATOM      3  C   UNL     1      47.255  41.804  41.588  1.00  0.00     0.042 A 
ATOM      4  C   UNL     1      48.214  42.798  41.620  1.00  0.00     0.195 A 
ATOM      5  C   UNL     1      47.055  41.509  40.256  1.00  0.00     0.048 A 
ATOM      6  O   UNL     1      48.584  43.096  40.395  1.00  0.00    -0.467 OA
ENDBRANCH   1   2
BRANCH   1   7
ATOM      7  O   UNL     1      46.772  42.429  37.480  1.00  0.00    -0.388 OA
ATOM      8  H   UNL     1      46.844  43.003  36.673  1.00  0.00     0.211 HD
ENDBRANCH   1   7
TORSDOF 2
ENDMDL
MODEL 6
REMARK VINA RESULT:    -2.093      2.019      2.345
REMARK INTER + INTRA:          -2.292
REMARK INTER:                  -2.275
REMARK INTRA:                  -0.017
REMARK UNBOUND:                -0.015
REMARK SMILES OCc1ccco1
REMARK SMILES IDX 2 1 3 2 5 3 6 4 4 5 7 6 1 7
REMARK H PARENT 1 8
REMARK Flexibility Score: inf
ROOT
ATOM      1  C   UNL     1      38.507  33.335  48.102  1.00  0.00     0.231 C 
ENDROOT
BRANCH   1   2
ATOM      2  C   UNL     1      37.974  34.433  48.965  1.00  0.00     0.129 A 
ATOM      3  C   UNL     1      37.733  36.341  50.025  1.00  0.00     0.042 A 
ATOM      4  C   UNL     1      36.730  35.454  50.364  1.00  0.00     0.195 A 
ATOM      5  C   UNL     1      38.541  35.681  49.124  1.00  0.00     0.048 A 
ATOM      6  O   UNL     1      36.903  34.324  49.716  1.00  0.00    -0.467 OA
ENDBRANCH   1   2
BRANCH   1   7
ATOM      7  O   UNL     1      38.877  32.239  48.892  1.00  0.00    -0.388 OA
ATOM      8  H   UNL     1      38.035  31.793  49.171  1.00  0.00     0.211 HD
ENDBRANCH   1   7
TORSDOF 2
ENDMDL
MODEL 7
REMARK VINA RESULT:    -1.963     13.084     14.224
REMARK INTER + INTRA:          -2.151
REMARK INTER:                  -2.137
REMARK INTRA:                  -0.014
REMARK UNBOUND:                -0.015
REMARK SMILES OCc1ccco1
REMARK SMILES IDX 2 1 3 2 5 3 6 4 4 5 7 6 1 7
REMARK H PARENT 1 8
REMARK Flexibility Score: inf
ROOT
ATOM      1  C   UNL     1      47.895  42.065  43.220  1.00  0.00     0.231 C 
ENDROOT
BRANCH   1   2
ATOM      2  C   UNL     1      47.905  42.000  41.726  1.00  0.00     0.129 A 
ATOM      3  C   UNL     1      47.315  41.685  39.634  1.00  0.00     0.042 A 
ATOM      4  C   UNL     1      48.633  42.088  39.724  1.00  0.00     0.195 A 
ATOM      5  C   UNL     1      46.843  41.624  40.929  1.00  0.00     0.048 A 
ATOM      6  O   UNL     1      48.955  42.266  40.986  1.00  0.00    -0.467 OA
ENDBRANCH   1   2
BRANCH   1   7
ATOM      7  O   UNL     1      46.690  42.620  43.669  1.00  0.00    -0.388 OA
ATOM      8  H   UNL     1      46.354  43.200  42.936  1.00  0.00     0.211 HD
ENDBRANCH   1   7
TORSDOF 2
ENDMDL
MODEL 8
REMARK VINA RESULT:    -1.950     12.692     13.144
REMARK INTER + INTRA:          -2.136
REMARK INTER:                  -2.123
REMARK INTRA:                  -0.013
REMARK UNBOUND:                -0.015
REMARK SMILES OCc1ccco1
REMARK SMILES IDX 2 1 3 2 5 3 6 4 4 5 7 6 1 7
REMARK H PARENT 1 8
REMARK Flexibility Score: inf
ROOT
ATOM      1  C   UNL     1      47.888  41.979  41.097  1.00  0.00     0.231 C 
ENDROOT
BRANCH   1   2
ATOM      2  C   UNL     1      47.804  42.051  42.588  1.00  0.00     0.129 A 
ATOM      3  C   UNL     1      47.165  42.528  44.634  1.00  0.00     0.042 A 
ATOM      4  C   UNL     1      48.333  41.791  44.637  1.00  0.00     0.195 A 
ATOM      5  C   UNL     1      46.824  42.701  43.310  1.00  0.00     0.048 A 
ATOM      6  O   UNL     1      48.689  41.524  43.400  1.00  0.00    -0.467 OA
ENDBRANCH   1   2
BRANCH   1   7
ATOM      7  O   UNL     1      46.803  41.253  40.589  1.00  0.00    -0.388 OA
ATOM      8  H   UNL     1      46.776  41.429  39.612  1.00  0.00     0.211 HD
ENDBRANCH   1   7
TORSDOF 2
ENDMDL
