MODEL 1
REMARK VINA RESULT:    -7.126      0.000      0.000
REMARK INTER + INTRA:          -8.753
REMARK INTER:                  -8.584
REMARK INTRA:                  -0.169
REMARK UNBOUND:                -0.169
REMARK SMILES O=c1c(O)c(-c2ccc(O)c(O)c2)oc2cc(O)cc(O)c12
REMARK SMILES IDX 5 1 3 2 2 3 1 4 22 5 20 6 19 7 17 8 16 9 15 10 14 11 6 12
REMARK SMILES IDX 7 13 8 14 9 15 13 16 11 17 10 18 12 20 4 22 21 24 18 26
REMARK H PARENT 10 19 12 21 4 23 21 25 18 27
REMARK Flexibility Score: inf
ROOT
ATOM      1  C   UNL     1      23.011  16.371   4.072  1.00  0.00     0.180 A 
ATOM      2  C   UNL     1      24.051  15.485   3.743  1.00  0.00     0.208 A 
ATOM      3  C   UNL     1      23.732  14.180   3.335  1.00  0.00     0.238 A 
ATOM      4  O   UNL     1      24.664  13.416   2.972  1.00  0.00    -0.285 OA
ATOM      5  C   UNL     1      22.380  13.759   3.315  1.00  0.00     0.111 A 
ATOM      6  C   UNL     1      21.942  12.446   2.962  1.00  0.00     0.134 A 
ATOM      7  C   UNL     1      20.572  12.175   2.875  1.00  0.00     0.093 A 
ATOM      8  C   UNL     1      19.623  13.147   3.189  1.00  0.00     0.123 A 
ATOM      9  C   UNL     1      20.040  14.418   3.589  1.00  0.00     0.094 A 
ATOM     10  C   UNL     1      21.400  14.731   3.648  1.00  0.00     0.146 A 
ATOM     11  O   UNL     1      21.751  15.958   4.012  1.00  0.00    -0.452 OA
ENDROOT
BRANCH   1  12
ATOM     12  C   UNL     1      23.269  17.766   4.496  1.00  0.00     0.025 A 
ATOM     13  C   UNL     1      23.837  18.670   3.585  1.00  0.00     0.016 A 
ATOM     14  C   UNL     1      24.109  19.985   3.969  1.00  0.00     0.051 A 
ATOM     15  C   UNL     1      23.831  20.414   5.270  1.00  0.00     0.157 A 
ATOM     16  C   UNL     1      23.010  18.193   5.811  1.00  0.00     0.062 A 
ATOM     17  C   UNL     1      23.282  19.513   6.198  1.00  0.00     0.158 A 
BRANCH  15  18
ATOM     18  O   UNL     1      24.110  21.734   5.624  1.00  0.00    -0.504 OA
ATOM     19  H   UNL     1      23.392  22.364   5.959  1.00  0.00     0.293 HD
ENDBRANCH  15  18
BRANCH  17  20
ATOM     20  O   UNL     1      23.016  19.930   7.502  1.00  0.00    -0.504 OA
ATOM     21  H   UNL     1      23.534  19.563   8.293  1.00  0.00     0.293 HD
ENDBRANCH  17  20
ENDBRANCH   1  12
BRANCH   2  22
ATOM     22  O   UNL     1      25.384  15.896   3.843  1.00  0.00    -0.502 OA
ATOM     23  H   UNL     1      26.055  15.425   4.439  1.00  0.00     0.293 HD
ENDBRANCH   2  22
BRANCH   6  24
ATOM     24  O   UNL     1      22.805  11.374   2.714  1.00  0.00    -0.507 OA
ATOM     25  H   UNL     1      22.934  10.932   1.817  1.00  0.00     0.293 HD
ENDBRANCH   6  24
BRANCH   8  26
ATOM     26  O   UNL     1      18.268  12.837   3.108  1.00  0.00    -0.508 OA
ATOM     27  H   UNL     1      17.681  12.802   3.933  1.00  0.00     0.293 HD
ENDBRANCH   8  26
TORSDOF 6
ENDMDL
MODEL 2
REMARK VINA RESULT:    -6.743      1.243      2.889
REMARK INTER + INTRA:          -8.291
REMARK INTER:                  -8.017
REMARK INTRA:                  -0.275
REMARK UNBOUND:                -0.169
REMARK SMILES O=c1c(O)c(-c2ccc(O)c(O)c2)oc2cc(O)cc(O)c12
REMARK SMILES IDX 5 1 3 2 2 3 1 4 22 5 20 6 19 7 17 8 16 9 15 10 14 11 6 12
REMARK SMILES IDX 7 13 8 14 9 15 13 16 11 17 10 18 12 20 4 22 21 24 18 26
REMARK H PARENT 10 19 12 21 4 23 21 25 18 27
REMARK Flexibility Score: inf
ROOT
ATOM      1  C   UNL     1      22.661  16.657   4.081  1.00  0.00     0.180 A 
ATOM      2  C   UNL     1      21.320  16.305   3.849  1.00  0.00     0.208 A 
ATOM      3  C   UNL     1      21.019  14.993   3.453  1.00  0.00     0.238 A 
ATOM      4  O   UNL     1      19.811  14.666   3.319  1.00  0.00    -0.285 OA
ATOM      5  C   UNL     1      22.065  14.063   3.239  1.00  0.00     0.111 A 
ATOM      6  C   UNL     1      21.880  12.719   2.794  1.00  0.00     0.134 A 
ATOM      7  C   UNL     1      22.981  11.858   2.720  1.00  0.00     0.093 A 
ATOM      8  C   UNL     1      24.269  12.306   3.013  1.00  0.00     0.123 A 
ATOM      9  C   UNL     1      24.468  13.634   3.396  1.00  0.00     0.094 A 
ATOM     10  C   UNL     1      23.385  14.507   3.516  1.00  0.00     0.146 A 
ATOM     11  O   UNL     1      23.618  15.754   3.905  1.00  0.00    -0.452 OA
ENDROOT
BRANCH   1  12
ATOM     12  C   UNL     1      23.056  18.017   4.516  1.00  0.00     0.025 A 
ATOM     13  C   UNL     1      23.707  18.868   3.610  1.00  0.00     0.016 A 
ATOM     14  C   UNL     1      24.108  20.147   4.003  1.00  0.00     0.051 A 
ATOM     15  C   UNL     1      23.878  20.590   5.308  1.00  0.00     0.157 A 
ATOM     16  C   UNL     1      22.844  18.456   5.835  1.00  0.00     0.062 A 
ATOM     17  C   UNL     1      23.246  19.739   6.231  1.00  0.00     0.158 A 
BRANCH  15  18
ATOM     18  O   UNL     1      24.286  21.872   5.673  1.00  0.00    -0.504 OA
ATOM     19  H   UNL     1      25.152  22.042   6.168  1.00  0.00     0.293 HD
ENDBRANCH  15  18
BRANCH  17  20
ATOM     20  O   UNL     1      23.027  20.169   7.540  1.00  0.00    -0.504 OA
ATOM     21  H   UNL     1      22.698  21.106   7.743  1.00  0.00     0.293 HD
ENDBRANCH  17  20
ENDBRANCH   1  12
BRANCH   2  22
ATOM     22  O   UNL     1      20.308  17.259   3.991  1.00  0.00    -0.502 OA
ATOM     23  H   UNL     1      19.380  17.022   4.320  1.00  0.00     0.293 HD
ENDBRANCH   2  22
BRANCH   6  24
ATOM     24  O   UNL     1      20.650  12.190   2.391  1.00  0.00    -0.507 OA
ATOM     25  H   UNL     1      19.933  11.855   3.015  1.00  0.00     0.293 HD
ENDBRANCH   6  24
BRANCH   8  26
ATOM     26  O   UNL     1      25.343  11.426   2.912  1.00  0.00    -0.508 OA
ATOM     27  H   UNL     1      25.844  11.299   2.041  1.00  0.00     0.293 HD
ENDBRANCH   8  26
TORSDOF 6
ENDMDL
MODEL 3
REMARK VINA RESULT:    -5.361      1.753      7.048
REMARK INTER + INTRA:          -6.627
REMARK INTER:                  -6.585
REMARK INTRA:                  -0.042
REMARK UNBOUND:                -0.169
REMARK SMILES O=c1c(O)c(-c2ccc(O)c(O)c2)oc2cc(O)cc(O)c12
REMARK SMILES IDX 5 1 3 2 2 3 1 4 22 5 20 6 19 7 17 8 16 9 15 10 14 11 6 12
REMARK SMILES IDX 7 13 8 14 9 15 13 16 11 17 10 18 12 20 4 22 21 24 18 26
REMARK H PARENT 10 19 12 21 4 23 21 25 18 27
REMARK Flexibility Score: inf
ROOT
ATOM      1  C   UNL     1      21.872  16.814   4.252  1.00  0.00     0.180 A 
ATOM      2  C   UNL     1      22.488  17.507   3.196  1.00  0.00     0.208 A 
ATOM      3  C   UNL     1      23.270  18.635   3.486  1.00  0.00     0.238 A 
ATOM      4  O   UNL     1      23.879  19.207   2.544  1.00  0.00    -0.285 OA
ATOM      5  C   UNL     1      23.382  19.092   4.823  1.00  0.00     0.111 A 
ATOM      6  C   UNL     1      24.111  20.250   5.228  1.00  0.00     0.134 A 
ATOM      7  C   UNL     1      24.239  20.544   6.590  1.00  0.00     0.093 A 
ATOM      8  C   UNL     1      23.613  19.761   7.559  1.00  0.00     0.123 A 
ATOM      9  C   UNL     1      22.852  18.657   7.171  1.00  0.00     0.094 A 
ATOM     10  C   UNL     1      22.737  18.316   5.821  1.00  0.00     0.146 A 
ATOM     11  O   UNL     1      22.021  17.246   5.499  1.00  0.00    -0.452 OA
ENDROOT
BRANCH   1  12
ATOM     12  C   UNL     1      21.045  15.606   4.026  1.00  0.00     0.025 A 
ATOM     13  C   UNL     1      19.774  15.522   4.615  1.00  0.00     0.016 A 
ATOM     14  C   UNL     1      18.983  14.384   4.433  1.00  0.00     0.051 A 
ATOM     15  C   UNL     1      19.456  13.309   3.676  1.00  0.00     0.157 A 
ATOM     16  C   UNL     1      21.527  14.515   3.282  1.00  0.00     0.062 A 
ATOM     17  C   UNL     1      20.736  13.372   3.100  1.00  0.00     0.158 A 
BRANCH  15  18
ATOM     18  O   UNL     1      18.645  12.187   3.509  1.00  0.00    -0.504 OA
ATOM     19  H   UNL     1      17.641  12.225   3.631  1.00  0.00     0.293 HD
ENDBRANCH  15  18
BRANCH  17  20
ATOM     20  O   UNL     1      21.220  12.297   2.355  1.00  0.00    -0.504 OA
ATOM     21  H   UNL     1      21.947  12.417   1.658  1.00  0.00     0.293 HD
ENDBRANCH  17  20
ENDBRANCH   1  12
BRANCH   2  22
ATOM     22  O   UNL     1      22.303  17.085   1.876  1.00  0.00    -0.502 OA
ATOM     23  H   UNL     1      22.196  16.109   1.627  1.00  0.00     0.293 HD
ENDBRANCH   2  22
BRANCH   6  24
ATOM     24  O   UNL     1      24.703  21.153   4.339  1.00  0.00    -0.507 OA
ATOM     25  H   UNL     1      24.415  22.111   4.210  1.00  0.00     0.293 HD
ENDBRANCH   6  24
BRANCH   8  26
ATOM     26  O   UNL     1      23.748  20.093   8.905  1.00  0.00    -0.508 OA
ATOM     27  H   UNL     1      24.504  20.683   9.232  1.00  0.00     0.293 HD
ENDBRANCH   8  26
TORSDOF 6
ENDMDL
MODEL 4
REMARK VINA RESULT:    -5.179      2.711      5.010
REMARK INTER + INTRA:          -6.408
REMARK INTER:                  -6.216
REMARK INTRA:                  -0.192
REMARK UNBOUND:                -0.169
REMARK SMILES O=c1c(O)c(-c2ccc(O)c(O)c2)oc2cc(O)cc(O)c12
REMARK SMILES IDX 5 1 3 2 2 3 1 4 22 5 20 6 19 7 17 8 16 9 15 10 14 11 6 12
REMARK SMILES IDX 7 13 8 14 9 15 13 16 11 17 10 18 12 20 4 22 21 24 18 26
REMARK H PARENT 10 19 12 21 4 23 21 25 18 27
REMARK Flexibility Score: inf
ROOT
ATOM      1  C   UNL     1      23.093  19.059   6.864  1.00  0.00     0.180 A 
ATOM      2  C   UNL     1      23.757  19.868   5.926  1.00  0.00     0.208 A 
ATOM      3  C   UNL     1      23.882  19.416   4.604  1.00  0.00     0.238 A 
ATOM      4  O   UNL     1      24.411  20.178   3.753  1.00  0.00    -0.285 OA
ATOM      5  C   UNL     1      23.392  18.136   4.247  1.00  0.00     0.111 A 
ATOM      6  C   UNL     1      23.504  17.556   2.947  1.00  0.00     0.134 A 
ATOM      7  C   UNL     1      22.888  16.327   2.684  1.00  0.00     0.093 A 
ATOM      8  C   UNL     1      22.219  15.625   3.686  1.00  0.00     0.123 A 
ATOM      9  C   UNL     1      22.151  16.158   4.975  1.00  0.00     0.094 A 
ATOM     10  C   UNL     1      22.723  17.400   5.259  1.00  0.00     0.146 A 
ATOM     11  O   UNL     1      22.616  17.878   6.493  1.00  0.00    -0.452 OA
ENDROOT
BRANCH   1  12
ATOM     12  C   UNL     1      22.909  19.475   8.274  1.00  0.00     0.025 A 
ATOM     13  C   UNL     1      24.024  19.547   9.123  1.00  0.00     0.016 A 
ATOM     14  C   UNL     1      23.872  19.917  10.461  1.00  0.00     0.051 A 
ATOM     15  C   UNL     1      22.605  20.204  10.976  1.00  0.00     0.157 A 
ATOM     16  C   UNL     1      21.632  19.744   8.798  1.00  0.00     0.062 A 
ATOM     17  C   UNL     1      21.478  20.114  10.142  1.00  0.00     0.158 A 
BRANCH  15  18
ATOM     18  O   UNL     1      22.483  20.573  12.315  1.00  0.00    -0.504 OA
ATOM     19  H   UNL     1      22.720  21.500  12.642  1.00  0.00     0.293 HD
ENDBRANCH  15  18
BRANCH  17  20
ATOM     20  O   UNL     1      20.209  20.385  10.652  1.00  0.00    -0.504 OA
ATOM     21  H   UNL     1      20.082  20.906  11.513  1.00  0.00     0.293 HD
ENDBRANCH  17  20
ENDBRANCH   1  12
BRANCH   2  22
ATOM     22  O   UNL     1      24.301  21.096   6.316  1.00  0.00    -0.502 OA
ATOM     23  H   UNL     1      25.148  21.470   5.906  1.00  0.00     0.293 HD
ENDBRANCH   2  22
BRANCH   6  24
ATOM     24  O   UNL     1      24.224  18.128   1.894  1.00  0.00    -0.507 OA
ATOM     25  H   UNL     1      25.084  18.645   1.995  1.00  0.00     0.293 HD
ENDBRANCH   6  24
BRANCH   8  26
ATOM     26  O   UNL     1      21.633  14.397   3.393  1.00  0.00    -0.508 OA
ATOM     27  H   UNL     1      22.060  13.747   2.743  1.00  0.00     0.293 HD
ENDBRANCH   8  26
TORSDOF 6
ENDMDL
MODEL 5
REMARK VINA RESULT:    -5.154      4.588      8.154
REMARK INTER + INTRA:          -6.377
REMARK INTER:                  -6.299
REMARK INTRA:                  -0.078
REMARK UNBOUND:                -0.169
REMARK SMILES O=c1c(O)c(-c2ccc(O)c(O)c2)oc2cc(O)cc(O)c12
REMARK SMILES IDX 5 1 3 2 2 3 1 4 22 5 20 6 19 7 17 8 16 9 15 10 14 11 6 12
REMARK SMILES IDX 7 13 8 14 9 15 13 16 11 17 10 18 12 20 4 22 21 24 18 26
REMARK H PARENT 10 19 12 21 4 23 21 25 18 27
REMARK Flexibility Score: inf
ROOT
ATOM      1  C   UNL     1      22.738  19.717   8.774  1.00  0.00     0.180 A 
ATOM      2  C   UNL     1      23.676  20.041   9.769  1.00  0.00     0.208 A 
ATOM      3  C   UNL     1      23.258  20.095  11.108  1.00  0.00     0.238 A 
ATOM      4  O   UNL     1      24.119  20.313  12.000  1.00  0.00    -0.285 OA
ATOM      5  C   UNL     1      21.896  19.880  11.431  1.00  0.00     0.111 A 
ATOM      6  C   UNL     1      21.351  19.955  12.748  1.00  0.00     0.134 A 
ATOM      7  C   UNL     1      20.009  19.619  12.961  1.00  0.00     0.093 A 
ATOM      8  C   UNL     1      19.175  19.273  11.899  1.00  0.00     0.123 A 
ATOM      9  C   UNL     1      19.683  19.250  10.599  1.00  0.00     0.094 A 
ATOM     10  C   UNL     1      21.028  19.543  10.359  1.00  0.00     0.146 A 
ATOM     11  O   UNL     1      21.474  19.488   9.110  1.00  0.00    -0.452 OA
ENDROOT
BRANCH   1  12
ATOM     12  C   UNL     1      23.106  19.625   7.343  1.00  0.00     0.025 A 
ATOM     13  C   UNL     1      22.923  18.413   6.660  1.00  0.00     0.016 A 
ATOM     14  C   UNL     1      23.282  18.296   5.315  1.00  0.00     0.051 A 
ATOM     15  C   UNL     1      23.843  19.382   4.637  1.00  0.00     0.157 A 
ATOM     16  C   UNL     1      23.690  20.710   6.664  1.00  0.00     0.062 A 
ATOM     17  C   UNL     1      24.052  20.595   5.315  1.00  0.00     0.158 A 
BRANCH  15  18
ATOM     18  O   UNL     1      24.190  19.238   3.294  1.00  0.00    -0.504 OA
ATOM     19  H   UNL     1      24.596  18.385   2.931  1.00  0.00     0.293 HD
ENDBRANCH  15  18
BRANCH  17  20
ATOM     20  O   UNL     1      24.625  21.677   4.648  1.00  0.00    -0.504 OA
ATOM     21  H   UNL     1      25.190  21.550   3.816  1.00  0.00     0.293 HD
ENDBRANCH  17  20
ENDBRANCH   1  12
BRANCH   2  22
ATOM     22  O   UNL     1      25.000  20.325   9.421  1.00  0.00    -0.502 OA
ATOM     23  H   UNL     1      25.514  19.775   8.743  1.00  0.00     0.293 HD
ENDBRANCH   2  22
BRANCH   6  24
ATOM     24  O   UNL     1      22.072  20.375  13.871  1.00  0.00    -0.507 OA
ATOM     25  H   UNL     1      22.616  19.771  14.467  1.00  0.00     0.293 HD
ENDBRANCH   6  24
BRANCH   8  26
ATOM     26  O   UNL     1      17.840  18.961  12.146  1.00  0.00    -0.508 OA
ATOM     27  H   UNL     1      17.092  19.597  11.895  1.00  0.00     0.293 HD
ENDBRANCH   8  26
TORSDOF 6
ENDMDL
MODEL 6
REMARK VINA RESULT:    -4.923      2.065      6.964
REMARK INTER + INTRA:          -6.099
REMARK INTER:                  -6.322
REMARK INTRA:                   0.222
REMARK UNBOUND:                -0.169
REMARK SMILES O=c1c(O)c(-c2ccc(O)c(O)c2)oc2cc(O)cc(O)c12
REMARK SMILES IDX 5 1 3 2 2 3 1 4 22 5 20 6 19 7 17 8 16 9 15 10 14 11 6 12
REMARK SMILES IDX 7 13 8 14 9 15 13 16 11 17 10 18 12 20 4 22 21 24 18 26
REMARK H PARENT 10 19 12 21 4 23 21 25 18 27
REMARK Flexibility Score: inf
ROOT
ATOM      1  C   UNL     1      23.495  16.097   3.959  1.00  0.00     0.180 A 
ATOM      2  C   UNL     1      22.151  16.404   3.682  1.00  0.00     0.208 A 
ATOM      3  C   UNL     1      21.603  17.589   4.197  1.00  0.00     0.238 A 
ATOM      4  O   UNL     1      20.422  17.894   3.883  1.00  0.00    -0.285 OA
ATOM      5  C   UNL     1      22.387  18.426   5.028  1.00  0.00     0.111 A 
ATOM      6  C   UNL     1      21.921  19.629   5.642  1.00  0.00     0.134 A 
ATOM      7  C   UNL     1      22.818  20.430   6.357  1.00  0.00     0.093 A 
ATOM      8  C   UNL     1      24.145  20.045   6.537  1.00  0.00     0.123 A 
ATOM      9  C   UNL     1      24.597  18.843   5.989  1.00  0.00     0.094 A 
ATOM     10  C   UNL     1      23.737  18.041   5.237  1.00  0.00     0.146 A 
ATOM     11  O   UNL     1      24.215  16.918   4.715  1.00  0.00    -0.452 OA
ENDROOT
BRANCH   1  12
ATOM     12  C   UNL     1      24.147  14.874   3.440  1.00  0.00     0.025 A 
ATOM     13  C   UNL     1      25.491  14.926   3.038  1.00  0.00     0.016 A 
ATOM     14  C   UNL     1      26.122  13.791   2.526  1.00  0.00     0.051 A 
ATOM     15  C   UNL     1      25.418  12.591   2.392  1.00  0.00     0.157 A 
ATOM     16  C   UNL     1      23.435  13.671   3.285  1.00  0.00     0.062 A 
ATOM     17  C   UNL     1      24.066  12.530   2.769  1.00  0.00     0.158 A 
BRANCH  15  18
ATOM     18  O   UNL     1      26.074  11.472   1.879  1.00  0.00    -0.504 OA
ATOM     19  H   UNL     1      25.804  10.529   2.128  1.00  0.00     0.293 HD
ENDBRANCH  15  18
BRANCH  17  20
ATOM     20  O   UNL     1      23.353  11.340   2.625  1.00  0.00    -0.504 OA
ATOM     21  H   UNL     1      22.951  10.861   3.423  1.00  0.00     0.293 HD
ENDBRANCH  17  20
ENDBRANCH   1  12
BRANCH   2  22
ATOM     22  O   UNL     1      21.372  15.527   2.923  1.00  0.00    -0.502 OA
ATOM     23  H   UNL     1      20.643  15.849   2.298  1.00  0.00     0.293 HD
ENDBRANCH   2  22
BRANCH   6  24
ATOM     24  O   UNL     1      20.593  20.065   5.600  1.00  0.00    -0.507 OA
ATOM     25  H   UNL     1      20.063  20.223   4.757  1.00  0.00     0.293 HD
ENDBRANCH   6  24
BRANCH   8  26
ATOM     26  O   UNL     1      25.005  20.859   7.270  1.00  0.00    -0.508 OA
ATOM     27  H   UNL     1      25.414  21.696   6.870  1.00  0.00     0.293 HD
ENDBRANCH   8  26
TORSDOF 6
ENDMDL
MODEL 7
REMARK VINA RESULT:    -4.600      3.447      6.163
REMARK INTER + INTRA:          -5.710
REMARK INTER:                  -5.390
REMARK INTRA:                  -0.320
REMARK UNBOUND:                -0.169
REMARK SMILES O=c1c(O)c(-c2ccc(O)c(O)c2)oc2cc(O)cc(O)c12
REMARK SMILES IDX 5 1 3 2 2 3 1 4 22 5 20 6 19 7 17 8 16 9 15 10 14 11 6 12
REMARK SMILES IDX 7 13 8 14 9 15 13 16 11 17 10 18 12 20 4 22 21 24 18 26
REMARK H PARENT 10 19 12 21 4 23 21 25 18 27
REMARK Flexibility Score: inf
ROOT
ATOM      1  C   UNL     1      22.874  19.290   7.901  1.00  0.00     0.180 A 
ATOM      2  C   UNL     1      24.010  19.990   7.461  1.00  0.00     0.208 A 
ATOM      3  C   UNL     1      24.359  19.938   6.102  1.00  0.00     0.238 A 
ATOM      4  O   UNL     1      25.334  20.627   5.703  1.00  0.00    -0.285 OA
ATOM      5  C   UNL     1      23.601  19.142   5.209  1.00  0.00     0.111 A 
ATOM      6  C   UNL     1      23.889  18.979   3.820  1.00  0.00     0.134 A 
ATOM      7  C   UNL     1      23.007  18.252   3.013  1.00  0.00     0.093 A 
ATOM      8  C   UNL     1      21.883  17.628   3.552  1.00  0.00     0.123 A 
ATOM      9  C   UNL     1      21.622  17.734   4.919  1.00  0.00     0.094 A 
ATOM     10  C   UNL     1      22.462  18.485   5.744  1.00  0.00     0.146 A 
ATOM     11  O   UNL     1      22.163  18.578   7.034  1.00  0.00    -0.452 OA
ENDROOT
BRANCH   1  12
ATOM     12  C   UNL     1      22.434  19.308   9.315  1.00  0.00     0.025 A 
ATOM     13  C   UNL     1      21.523  20.287   9.741  1.00  0.00     0.016 A 
ATOM     14  C   UNL     1      21.110  20.338  11.074  1.00  0.00     0.051 A 
ATOM     15  C   UNL     1      21.611  19.423  12.004  1.00  0.00     0.157 A 
ATOM     16  C   UNL     1      22.952  18.401  10.256  1.00  0.00     0.062 A 
ATOM     17  C   UNL     1      22.540  18.451  11.595  1.00  0.00     0.158 A 
BRANCH  15  18
ATOM     18  O   UNL     1      21.179  19.495  13.328  1.00  0.00    -0.504 OA
ATOM     19  H   UNL     1      21.079  20.377  13.815  1.00  0.00     0.293 HD
ENDBRANCH  15  18
BRANCH  17  20
ATOM     20  O   UNL     1      23.054  17.544  12.521  1.00  0.00    -0.504 OA
ATOM     21  H   UNL     1      22.449  16.950  13.076  1.00  0.00     0.293 HD
ENDBRANCH  17  20
ENDBRANCH   1  12
BRANCH   2  22
ATOM     22  O   UNL     1      24.790  20.709   8.372  1.00  0.00    -0.502 OA
ATOM     23  H   UNL     1      24.437  21.517   8.870  1.00  0.00     0.293 HD
ENDBRANCH   2  22
BRANCH   6  24
ATOM     24  O   UNL     1      25.032  19.486   3.194  1.00  0.00    -0.507 OA
ATOM     25  H   UNL     1      25.083  19.770   2.228  1.00  0.00     0.293 HD
ENDBRANCH   6  24
BRANCH   8  26
ATOM     26  O   UNL     1      21.037  16.897   2.721  1.00  0.00    -0.508 OA
ATOM     27  H   UNL     1      20.949  15.892   2.806  1.00  0.00     0.293 HD
ENDBRANCH   8  26
TORSDOF 6
ENDMDL
MODEL 8
REMARK VINA RESULT:    -4.265      1.933      3.535
REMARK INTER + INTRA:          -5.307
REMARK INTER:                  -5.038
REMARK INTRA:                  -0.268
REMARK UNBOUND:                -0.169
REMARK SMILES O=c1c(O)c(-c2ccc(O)c(O)c2)oc2cc(O)cc(O)c12
REMARK SMILES IDX 5 1 3 2 2 3 1 4 22 5 20 6 19 7 17 8 16 9 15 10 14 11 6 12
REMARK SMILES IDX 7 13 8 14 9 15 13 16 11 17 10 18 12 20 4 22 21 24 18 26
REMARK H PARENT 10 19 12 21 4 23 21 25 18 27
REMARK Flexibility Score: inf
ROOT
ATOM      1  C   UNL     1      23.063  17.700   5.419  1.00  0.00     0.180 A 
ATOM      2  C   UNL     1      21.800  17.922   4.843  1.00  0.00     0.208 A 
ATOM      3  C   UNL     1      21.285  16.975   3.945  1.00  0.00     0.238 A 
ATOM      4  O   UNL     1      20.123  17.143   3.491  1.00  0.00    -0.285 OA
ATOM      5  C   UNL     1      22.063  15.845   3.588  1.00  0.00     0.111 A 
ATOM      6  C   UNL     1      21.661  14.844   2.652  1.00  0.00     0.134 A 
ATOM      7  C   UNL     1      22.467  13.717   2.458  1.00  0.00     0.093 A 
ATOM      8  C   UNL     1      23.689  13.583   3.115  1.00  0.00     0.123 A 
ATOM      9  C   UNL     1      24.118  14.582   3.990  1.00  0.00     0.094 A 
ATOM     10  C   UNL     1      23.318  15.701   4.234  1.00  0.00     0.146 A 
ATOM     11  O   UNL     1      23.755  16.616   5.090  1.00  0.00    -0.452 OA
ENDROOT
BRANCH   1  12
ATOM     12  C   UNL     1      23.665  18.646   6.386  1.00  0.00     0.025 A 
ATOM     13  C   UNL     1      24.762  19.428   5.994  1.00  0.00     0.016 A 
ATOM     14  C   UNL     1      25.361  20.312   6.896  1.00  0.00     0.051 A 
ATOM     15  C   UNL     1      24.883  20.416   8.205  1.00  0.00     0.157 A 
ATOM     16  C   UNL     1      23.199  18.738   7.710  1.00  0.00     0.062 A 
ATOM     17  C   UNL     1      23.799  19.623   8.617  1.00  0.00     0.158 A 
BRANCH  15  18
ATOM     18  O   UNL     1      25.497  21.309   9.083  1.00  0.00    -0.504 OA
ATOM     19  H   UNL     1      25.509  21.158  10.084  1.00  0.00     0.293 HD
ENDBRANCH  15  18
BRANCH  17  20
ATOM     20  O   UNL     1      23.326  19.712   9.926  1.00  0.00    -0.504 OA
ATOM     21  H   UNL     1      23.145  18.885  10.483  1.00  0.00     0.293 HD
ENDBRANCH  17  20
ENDBRANCH   1  12
BRANCH   2  22
ATOM     22  O   UNL     1      21.081  19.081   5.150  1.00  0.00    -0.502 OA
ATOM     23  H   UNL     1      20.194  19.057   5.638  1.00  0.00     0.293 HD
ENDBRANCH   2  22
BRANCH   6  24
ATOM     24  O   UNL     1      20.500  14.920   1.875  1.00  0.00    -0.507 OA
ATOM     25  H   UNL     1      19.883  15.716   1.834  1.00  0.00     0.293 HD
ENDBRANCH   6  24
BRANCH   8  26
ATOM     26  O   UNL     1      24.474  12.455   2.885  1.00  0.00    -0.508 OA
ATOM     27  H   UNL     1      24.928  11.961   3.644  1.00  0.00     0.293 HD
ENDBRANCH   8  26
TORSDOF 6
ENDMDL
