MODEL 1
REMARK VINA RESULT:    -4.853      0.000      0.000
REMARK INTER + INTRA:          -7.308
REMARK INTER:                  -6.555
REMARK INTRA:                  -0.753
REMARK UNBOUND:                -0.753
REMARK SMILES CC(=O)CCC=C(C)CCC=C(C)C
REMARK SMILES IDX 7 1 6 2 8 3 9 4 10 5 11 6 13 7 12 8 14 9 5 10 4 11 2 12 3 13
REMARK SMILES IDX 1 14
REMARK H PARENT
REMARK Flexibility Score: inf
ROOT
ATOM      1  C   UNL     1     -13.259   1.043  29.708  1.00  0.00    -0.077 C 
ATOM      2  C   UNL     1     -14.479   1.175  29.143  1.00  0.00    -0.028 C 
ATOM      3  C   UNL     1     -12.116   1.957  29.333  1.00  0.00     0.039 C 
ENDROOT
BRANCH   1   4
ATOM      4  C   UNL     1     -13.037  -0.035  30.747  1.00  0.00     0.034 C 
BRANCH   4   5
ATOM      5  C   UNL     1     -12.136   0.475  31.878  1.00  0.00     0.032 C 
BRANCH   5   6
ATOM      6  C   UNL     1     -12.926   0.653  33.150  1.00  0.00    -0.028 C 
ATOM      7  C   UNL     1     -13.223   3.117  32.809  1.00  0.00     0.039 C 
ATOM      8  C   UNL     1     -13.401   1.838  33.595  1.00  0.00    -0.080 C 
ATOM      9  C   UNL     1     -14.143   1.869  34.906  1.00  0.00     0.039 C 
ENDBRANCH   5   6
ENDBRANCH   4   5
ENDBRANCH   1   4
BRANCH   2  10
ATOM     10  C   UNL     1     -14.797   2.219  28.101  1.00  0.00     0.035 C 
BRANCH  10  11
ATOM     11  C   UNL     1     -16.269   2.648  28.178  1.00  0.00     0.079 C 
BRANCH  11  12
ATOM     12  C   UNL     1     -16.715   3.560  27.057  1.00  0.00     0.130 C 
ATOM     13  O   UNL     1     -17.467   4.484  27.323  1.00  0.00    -0.300 OA
ATOM     14  C   UNL     1     -16.273   3.378  25.629  1.00  0.00     0.087 C 
ENDBRANCH  11  12
ENDBRANCH  10  11
ENDBRANCH   2  10
TORSDOF 6
ENDMDL
MODEL 2
REMARK VINA RESULT:    -4.708      2.214      5.553
REMARK INTER + INTRA:          -7.113
REMARK INTER:                  -6.018
REMARK INTRA:                  -1.096
REMARK UNBOUND:                -0.753
REMARK SMILES CC(=O)CCC=C(C)CCC=C(C)C
REMARK SMILES IDX 7 1 6 2 8 3 9 4 10 5 11 6 13 7 12 8 14 9 5 10 4 11 2 12 3 13
REMARK SMILES IDX 1 14
REMARK H PARENT
REMARK Flexibility Score: inf
ROOT
ATOM      1  C   UNL     1     -13.193   0.622  30.816  1.00  0.00    -0.077 C 
ATOM      2  C   UNL     1     -12.475   1.725  31.125  1.00  0.00    -0.028 C 
ATOM      3  C   UNL     1     -13.587  -0.381  31.874  1.00  0.00     0.039 C 
ENDROOT
BRANCH   1   4
ATOM      4  C   UNL     1     -13.620   0.395  29.382  1.00  0.00     0.034 C 
BRANCH   4   5
ATOM      5  C   UNL     1     -13.600   1.710  28.593  1.00  0.00     0.032 C 
BRANCH   5   6
ATOM      6  C   UNL     1     -14.992   2.087  28.151  1.00  0.00    -0.028 C 
ATOM      7  C   UNL     1     -15.154   4.003  29.757  1.00  0.00     0.039 C 
ATOM      8  C   UNL     1     -15.713   3.101  28.681  1.00  0.00    -0.080 C 
ATOM      9  C   UNL     1     -17.108   3.338  28.163  1.00  0.00     0.039 C 
ENDBRANCH   5   6
ENDBRANCH   4   5
ENDBRANCH   1   4
BRANCH   2  10
ATOM     10  C   UNL     1     -12.006   2.038  32.524  1.00  0.00     0.035 C 
BRANCH  10  11
ATOM     11  C   UNL     1     -12.750   3.252  33.099  1.00  0.00     0.079 C 
BRANCH  11  12
ATOM     12  C   UNL     1     -14.007   2.909  33.868  1.00  0.00     0.130 C 
ATOM     13  O   UNL     1     -15.022   3.546  33.634  1.00  0.00    -0.300 OA
ATOM     14  C   UNL     1     -14.061   1.820  34.905  1.00  0.00     0.087 C 
ENDBRANCH  11  12
ENDBRANCH  10  11
ENDBRANCH   2  10
TORSDOF 6
ENDMDL
MODEL 3
REMARK VINA RESULT:    -4.658     10.082     12.494
REMARK INTER + INTRA:          -7.045
REMARK INTER:                  -5.874
REMARK INTRA:                  -1.171
REMARK UNBOUND:                -0.753
REMARK SMILES CC(=O)CCC=C(C)CCC=C(C)C
REMARK SMILES IDX 7 1 6 2 8 3 9 4 10 5 11 6 13 7 12 8 14 9 5 10 4 11 2 12 3 13
REMARK SMILES IDX 1 14
REMARK H PARENT
REMARK Flexibility Score: inf
ROOT
ATOM      1  C   UNL     1      -1.653   2.437  29.974  1.00  0.00    -0.077 C 
ATOM      2  C   UNL     1      -2.339   1.957  31.035  1.00  0.00    -0.028 C 
ATOM      3  C   UNL     1      -2.154   3.625  29.187  1.00  0.00     0.039 C 
ENDROOT
BRANCH   1   4
ATOM      4  C   UNL     1      -0.352   1.777  29.574  1.00  0.00     0.034 C 
BRANCH   4   5
ATOM      5  C   UNL     1      -0.585   0.320  29.159  1.00  0.00     0.032 C 
BRANCH   5   6
ATOM      6  C   UNL     1      -0.982   0.236  27.706  1.00  0.00    -0.028 C 
ATOM      7  C   UNL     1      -3.324  -0.486  28.224  1.00  0.00     0.039 C 
ATOM      8  C   UNL     1      -2.203  -0.148  27.269  1.00  0.00    -0.080 C 
ATOM      9  C   UNL     1      -2.444  -0.221  25.783  1.00  0.00     0.039 C 
ENDBRANCH   5   6
ENDBRANCH   4   5
ENDBRANCH   1   4
BRANCH   2  10
ATOM     10  C   UNL     1      -3.644   2.548  31.509  1.00  0.00     0.035 C 
BRANCH  10  11
ATOM     11  C   UNL     1      -4.842   1.766  30.950  1.00  0.00     0.079 C 
BRANCH  11  12
ATOM     12  C   UNL     1      -5.321   0.638  31.836  1.00  0.00     0.130 C 
ATOM     13  O   UNL     1      -5.956   0.919  32.841  1.00  0.00    -0.300 OA
ATOM     14  C   UNL     1      -5.050  -0.811  31.536  1.00  0.00     0.087 C 
ENDBRANCH  11  12
ENDBRANCH  10  11
ENDBRANCH   2  10
TORSDOF 6
ENDMDL
MODEL 4
REMARK VINA RESULT:    -4.647      1.972      4.996
REMARK INTER + INTRA:          -7.031
REMARK INTER:                  -5.772
REMARK INTRA:                  -1.259
REMARK UNBOUND:                -0.753
REMARK SMILES CC(=O)CCC=C(C)CCC=C(C)C
REMARK SMILES IDX 7 1 6 2 8 3 9 4 10 5 11 6 13 7 12 8 14 9 5 10 4 11 2 12 3 13
REMARK SMILES IDX 1 14
REMARK H PARENT
REMARK Flexibility Score: inf
ROOT
ATOM      1  C   UNL     1     -12.825   0.656  32.372  1.00  0.00    -0.077 C 
ATOM      2  C   UNL     1     -13.840   0.958  33.213  1.00  0.00    -0.028 C 
ATOM      3  C   UNL     1     -11.478   1.328  32.494  1.00  0.00     0.039 C 
ENDROOT
BRANCH   1   4
ATOM      4  C   UNL     1     -13.042  -0.384  31.296  1.00  0.00     0.034 C 
BRANCH   4   5
ATOM      5  C   UNL     1     -12.719   0.189  29.911  1.00  0.00     0.032 C 
BRANCH   5   6
ATOM      6  C   UNL     1     -13.969   0.701  29.240  1.00  0.00    -0.028 C 
ATOM      7  C   UNL     1     -13.341   3.106  29.549  1.00  0.00     0.039 C 
ATOM      8  C   UNL     1     -14.274   2.009  29.091  1.00  0.00    -0.080 C 
ATOM      9  C   UNL     1     -15.580   2.372  28.431  1.00  0.00     0.039 C 
ENDBRANCH   5   6
ENDBRANCH   4   5
ENDBRANCH   1   4
BRANCH   2  10
ATOM     10  C   UNL     1     -13.719   1.979  34.317  1.00  0.00     0.035 C 
BRANCH  10  11
ATOM     11  C   UNL     1     -14.715   3.131  34.117  1.00  0.00     0.079 C 
BRANCH  11  12
ATOM     12  C   UNL     1     -14.302   4.141  33.070  1.00  0.00     0.130 C 
ATOM     13  O   UNL     1     -15.131   4.497  32.247  1.00  0.00    -0.300 OA
ATOM     14  C   UNL     1     -12.916   4.723  32.996  1.00  0.00     0.087 C 
ENDBRANCH  11  12
ENDBRANCH  10  11
ENDBRANCH   2  10
TORSDOF 6
ENDMDL
MODEL 5
REMARK VINA RESULT:    -4.637      7.935     10.168
REMARK INTER + INTRA:          -7.017
REMARK INTER:                  -6.150
REMARK INTRA:                  -0.867
REMARK UNBOUND:                -0.753
REMARK SMILES CC(=O)CCC=C(C)CCC=C(C)C
REMARK SMILES IDX 7 1 6 2 8 3 9 4 10 5 11 6 13 7 12 8 14 9 5 10 4 11 2 12 3 13
REMARK SMILES IDX 1 14
REMARK H PARENT
REMARK Flexibility Score: inf
ROOT
ATOM      1  C   UNL     1     -12.241  10.965  30.808  1.00  0.00    -0.077 C 
ATOM      2  C   UNL     1     -11.443  11.055  31.895  1.00  0.00    -0.028 C 
ATOM      3  C   UNL     1     -12.174   9.775  29.880  1.00  0.00     0.039 C 
ENDROOT
BRANCH   1   4
ATOM      4  C   UNL     1     -13.229  12.075  30.522  1.00  0.00     0.034 C 
BRANCH   4   5
ATOM      5  C   UNL     1     -14.404  11.556  29.685  1.00  0.00     0.032 C 
BRANCH   5   6
ATOM      6  C   UNL     1     -15.674  11.541  30.499  1.00  0.00    -0.028 C 
ATOM      7  C   UNL     1     -15.610   9.061  30.847  1.00  0.00     0.039 C 
ATOM      8  C   UNL     1     -16.241  10.425  31.008  1.00  0.00    -0.080 C 
ATOM      9  C   UNL     1     -17.534  10.560  31.771  1.00  0.00     0.039 C 
ENDBRANCH   5   6
ENDBRANCH   4   5
ENDBRANCH   1   4
BRANCH   2  10
ATOM     10  C   UNL     1     -10.429  10.000  32.262  1.00  0.00     0.035 C 
BRANCH  10  11
ATOM     11  C   UNL     1     -10.527   9.633  33.751  1.00  0.00     0.079 C 
BRANCH  11  12
ATOM     12  C   UNL     1     -10.903   8.192  34.016  1.00  0.00     0.130 C 
ATOM     13  O   UNL     1     -10.058   7.450  34.492  1.00  0.00    -0.300 OA
ATOM     14  C   UNL     1     -12.269   7.635  33.721  1.00  0.00     0.087 C 
ENDBRANCH  11  12
ENDBRANCH  10  11
ENDBRANCH   2  10
TORSDOF 6
ENDMDL
MODEL 6
REMARK VINA RESULT:    -4.635      7.685      9.004
REMARK INTER + INTRA:          -7.014
REMARK INTER:                  -5.986
REMARK INTRA:                  -1.028
REMARK UNBOUND:                -0.753
REMARK SMILES CC(=O)CCC=C(C)CCC=C(C)C
REMARK SMILES IDX 7 1 6 2 8 3 9 4 10 5 11 6 13 7 12 8 14 9 5 10 4 11 2 12 3 13
REMARK SMILES IDX 1 14
REMARK H PARENT
REMARK Flexibility Score: inf
ROOT
ATOM      1  C   UNL     1     -13.417  11.684  30.469  1.00  0.00    -0.077 C 
ATOM      2  C   UNL     1     -13.793  10.582  29.781  1.00  0.00    -0.028 C 
ATOM      3  C   UNL     1     -14.438  12.644  31.034  1.00  0.00     0.039 C 
ENDROOT
BRANCH   1   4
ATOM      4  C   UNL     1     -11.945  11.954  30.685  1.00  0.00     0.034 C 
BRANCH   4   5
ATOM      5  C   UNL     1     -11.164  10.641  30.822  1.00  0.00     0.032 C 
BRANCH   5   6
ATOM      6  C   UNL     1     -10.739  10.420  32.252  1.00  0.00    -0.028 C 
ATOM      7  C   UNL     1     -11.968   8.245  32.447  1.00  0.00     0.039 C 
ATOM      8  C   UNL     1     -11.112   9.359  33.004  1.00  0.00    -0.080 C 
ATOM      9  C   UNL     1     -10.639   9.290  34.433  1.00  0.00     0.039 C 
ENDBRANCH   5   6
ENDBRANCH   4   5
ENDBRANCH   1   4
BRANCH   2  10
ATOM     10  C   UNL     1     -15.236  10.229  29.516  1.00  0.00     0.035 C 
BRANCH  10  11
ATOM     11  C   UNL     1     -15.657   8.988  30.318  1.00  0.00     0.079 C 
BRANCH  11  12
ATOM     12  C   UNL     1     -16.357   9.295  31.623  1.00  0.00     0.130 C 
ATOM     13  O   UNL     1     -16.074   8.625  32.604  1.00  0.00    -0.300 OA
ATOM     14  C   UNL     1     -17.383  10.386  31.766  1.00  0.00     0.087 C 
ENDBRANCH  11  12
ENDBRANCH  10  11
ENDBRANCH   2  10
TORSDOF 6
ENDMDL
MODEL 7
REMARK VINA RESULT:    -4.545      2.361      4.646
REMARK INTER + INTRA:          -6.893
REMARK INTER:                  -6.176
REMARK INTRA:                  -0.717
REMARK UNBOUND:                -0.753
REMARK SMILES CC(=O)CCC=C(C)CCC=C(C)C
REMARK SMILES IDX 7 1 6 2 8 3 9 4 10 5 11 6 13 7 12 8 14 9 5 10 4 11 2 12 3 13
REMARK SMILES IDX 1 14
REMARK H PARENT
REMARK Flexibility Score: inf
ROOT
ATOM      1  C   UNL     1     -13.386   1.865  33.420  1.00  0.00    -0.077 C 
ATOM      2  C   UNL     1     -13.571   2.978  32.675  1.00  0.00    -0.028 C 
ATOM      3  C   UNL     1     -13.953   1.750  34.815  1.00  0.00     0.039 C 
ENDROOT
BRANCH   1   4
ATOM      4  C   UNL     1     -12.605   0.708  32.838  1.00  0.00     0.034 C 
BRANCH   4   5
ATOM      5  C   UNL     1     -13.427  -0.020  31.767  1.00  0.00     0.032 C 
BRANCH   5   6
ATOM      6  C   UNL     1     -12.695  -0.031  30.449  1.00  0.00    -0.028 C 
ATOM      7  C   UNL     1     -14.548   1.136  29.231  1.00  0.00     0.039 C 
ATOM      8  C   UNL     1     -13.196   0.464  29.294  1.00  0.00    -0.080 C 
ATOM      9  C   UNL     1     -12.363   0.350  28.043  1.00  0.00     0.039 C 
ENDBRANCH   5   6
ENDBRANCH   4   5
ENDBRANCH   1   4
BRANCH   2  10
ATOM     10  C   UNL     1     -14.335   4.182  33.168  1.00  0.00     0.035 C 
BRANCH  10  11
ATOM     11  C   UNL     1     -14.816   5.050  31.996  1.00  0.00     0.079 C 
BRANCH  11  12
ATOM     12  C   UNL     1     -16.308   5.004  31.755  1.00  0.00     0.130 C 
ATOM     13  O   UNL     1     -17.055   5.110  32.715  1.00  0.00    -0.300 OA
ATOM     14  C   UNL     1     -16.912   4.833  30.387  1.00  0.00     0.087 C 
ENDBRANCH  11  12
ENDBRANCH  10  11
ENDBRANCH   2  10
TORSDOF 6
ENDMDL
MODEL 8
REMARK VINA RESULT:    -4.535      7.480      9.114
REMARK INTER + INTRA:          -6.879
REMARK INTER:                  -5.589
REMARK INTRA:                  -1.290
REMARK UNBOUND:                -0.753
REMARK SMILES CC(=O)CCC=C(C)CCC=C(C)C
REMARK SMILES IDX 7 1 6 2 8 3 9 4 10 5 11 6 13 7 12 8 14 9 5 10 4 11 2 12 3 13
REMARK SMILES IDX 1 14
REMARK H PARENT
REMARK Flexibility Score: inf
ROOT
ATOM      1  C   UNL     1     -14.688  11.174  30.232  1.00  0.00    -0.077 C 
ATOM      2  C   UNL     1     -15.723  11.070  31.094  1.00  0.00    -0.028 C 
ATOM      3  C   UNL     1     -14.420  10.111  29.193  1.00  0.00     0.039 C 
ENDROOT
BRANCH   1   4
ATOM      4  C   UNL     1     -13.787  12.388  30.302  1.00  0.00     0.034 C 
BRANCH   4   5
ATOM      5  C   UNL     1     -12.314  11.980  30.181  1.00  0.00     0.032 C 
BRANCH   5   6
ATOM      6  C   UNL     1     -11.790  11.475  31.503  1.00  0.00    -0.028 C 
ATOM      7  C   UNL     1     -10.901   9.350  30.519  1.00  0.00     0.039 C 
ATOM      8  C   UNL     1     -11.174  10.284  31.675  1.00  0.00    -0.080 C 
ATOM      9  C   UNL     1     -10.735   9.896  33.064  1.00  0.00     0.039 C 
ENDBRANCH   5   6
ENDBRANCH   4   5
ENDBRANCH   1   4
BRANCH   2  10
ATOM     10  C   UNL     1     -16.676   9.899  31.100  1.00  0.00     0.035 C 
BRANCH  10  11
ATOM     11  C   UNL     1     -16.355   8.931  32.248  1.00  0.00     0.079 C 
BRANCH  11  12
ATOM     12  C   UNL     1     -15.415   7.807  31.874  1.00  0.00     0.130 C 
ATOM     13  O   UNL     1     -15.871   6.842  31.279  1.00  0.00    -0.300 OA
ATOM     14  C   UNL     1     -13.947   7.823  32.202  1.00  0.00     0.087 C 
ENDBRANCH  11  12
ENDBRANCH  10  11
ENDBRANCH   2  10
TORSDOF 6
ENDMDL
MODEL 9
REMARK VINA RESULT:    -4.506      9.959     11.615
REMARK INTER + INTRA:          -6.840
REMARK INTER:                  -5.823
REMARK INTRA:                  -1.017
REMARK UNBOUND:                -0.753
REMARK SMILES CC(=O)CCC=C(C)CCC=C(C)C
REMARK SMILES IDX 7 1 6 2 8 3 9 4 10 5 11 6 13 7 12 8 14 9 5 10 4 11 2 12 3 13
REMARK SMILES IDX 1 14
REMARK H PARENT
REMARK Flexibility Score: inf
ROOT
ATOM      1  C   UNL     1      -1.292   0.774  27.729  1.00  0.00    -0.077 C 
ATOM      2  C   UNL     1      -1.764   2.037  27.631  1.00  0.00    -0.028 C 
ATOM      3  C   UNL     1      -1.434  -0.209  26.591  1.00  0.00     0.039 C 
ENDROOT
BRANCH   1   4
ATOM      4  C   UNL     1      -0.597   0.342  29.001  1.00  0.00     0.034 C 
BRANCH   4   5
ATOM      5  C   UNL     1      -1.444   0.690  30.230  1.00  0.00     0.032 C 
BRANCH   5   6
ATOM      6  C   UNL     1      -2.647  -0.215  30.324  1.00  0.00    -0.028 C 
ATOM      7  C   UNL     1      -4.280   1.683  30.252  1.00  0.00     0.039 C 
ATOM      8  C   UNL     1      -3.927   0.217  30.359  1.00  0.00    -0.080 C 
ATOM      9  C   UNL     1      -5.027  -0.804  30.491  1.00  0.00     0.039 C 
ENDBRANCH   5   6
ENDBRANCH   4   5
ENDBRANCH   1   4
BRANCH   2  10
ATOM     10  C   UNL     1      -2.469   2.561  26.404  1.00  0.00     0.035 C 
BRANCH  10  11
ATOM     11  C   UNL     1      -3.988   2.362  26.511  1.00  0.00     0.079 C 
BRANCH  11  12
ATOM     12  C   UNL     1      -4.694   2.207  25.183  1.00  0.00     0.130 C 
ATOM     13  O   UNL     1      -4.870   1.081  24.746  1.00  0.00    -0.300 OA
ATOM     14  C   UNL     1      -5.188   3.378  24.376  1.00  0.00     0.087 C 
ENDBRANCH  11  12
ENDBRANCH  10  11
ENDBRANCH   2  10
TORSDOF 6
ENDMDL
