MODEL 1
REMARK VINA RESULT:    -3.111      0.000      0.000
REMARK INTER + INTRA:          -3.306
REMARK INTER:                  -3.293
REMARK INTRA:                  -0.013
REMARK UNBOUND:                -0.013
REMARK SMILES O=Cc1ccco1
REMARK SMILES IDX 5 1 6 2 7 3 3 4 4 5 2 6 1 7
REMARK H PARENT
REMARK Flexibility Score: inf
ROOT
ATOM      1  C   UNL     1      29.477  25.645  22.197  1.00  0.00     0.043 A 
ATOM      2  C   UNL     1      29.351  26.930  21.709  1.00  0.00     0.196 A 
ATOM      3  O   UNL     1      29.024  26.890  20.438  1.00  0.00    -0.462 OA
ATOM      4  C   UNL     1      28.931  25.633  20.070  1.00  0.00     0.166 A 
ATOM      5  C   UNL     1      29.207  24.804  21.139  1.00  0.00     0.054 A 
ENDROOT
BRANCH   4   6
ATOM      6  C   UNL     1      28.582  25.208  18.711  1.00  0.00     0.298 C 
ATOM      7  O   UNL     1      29.190  25.681  17.715  1.00  0.00    -0.294 OA
ENDBRANCH   4   6
TORSDOF 1
ENDMDL
MODEL 2
REMARK VINA RESULT:    -3.103      8.798      9.415
REMARK INTER + INTRA:          -3.297
REMARK INTER:                  -3.287
REMARK INTRA:                  -0.010
REMARK UNBOUND:                -0.013
REMARK SMILES O=Cc1ccco1
REMARK SMILES IDX 5 1 6 2 7 3 3 4 4 5 2 6 1 7
REMARK H PARENT
REMARK Flexibility Score: inf
ROOT
ATOM      1  C   UNL     1      22.411  22.167  21.722  1.00  0.00     0.043 A 
ATOM      2  C   UNL     1      21.627  21.143  22.217  1.00  0.00     0.196 A 
ATOM      3  O   UNL     1      21.014  21.543  23.307  1.00  0.00    -0.462 OA
ATOM      4  C   UNL     1      21.360  22.786  23.549  1.00  0.00     0.166 A 
ATOM      5  C   UNL     1      22.240  23.230  22.582  1.00  0.00     0.054 A 
ENDROOT
BRANCH   4   6
ATOM      6  C   UNL     1      20.866  23.561  24.691  1.00  0.00     0.298 C 
ATOM      7  O   UNL     1      19.884  24.340  24.562  1.00  0.00    -0.294 OA
ENDBRANCH   4   6
TORSDOF 1
ENDMDL
MODEL 3
REMARK VINA RESULT:    -2.925     19.738     20.629
REMARK INTER + INTRA:          -3.109
REMARK INTER:                  -3.098
REMARK INTRA:                  -0.011
REMARK UNBOUND:                -0.013
REMARK SMILES O=Cc1ccco1
REMARK SMILES IDX 5 1 6 2 7 3 3 4 4 5 2 6 1 7
REMARK H PARENT
REMARK Flexibility Score: inf
ROOT
ATOM      1  C   UNL     1      18.901  14.976   6.265  1.00  0.00     0.043 A 
ATOM      2  C   UNL     1      18.045  13.936   5.963  1.00  0.00     0.196 A 
ATOM      3  O   UNL     1      17.984  13.104   6.978  1.00  0.00    -0.462 OA
ATOM      4  C   UNL     1      18.765  13.554   7.933  1.00  0.00     0.166 A 
ATOM      5  C   UNL     1      19.369  14.731   7.538  1.00  0.00     0.054 A 
ENDROOT
BRANCH   4   6
ATOM      6  C   UNL     1      18.946  12.876   9.220  1.00  0.00     0.298 C 
ATOM      7  O   UNL     1      18.025  12.875  10.080  1.00  0.00    -0.294 OA
ENDBRANCH   4   6
TORSDOF 1
ENDMDL
MODEL 4
REMARK VINA RESULT:    -2.924      1.341      3.130
REMARK INTER + INTRA:          -3.109
REMARK INTER:                  -3.094
REMARK INTRA:                  -0.015
REMARK UNBOUND:                -0.013
REMARK SMILES O=Cc1ccco1
REMARK SMILES IDX 5 1 6 2 7 3 3 4 4 5 2 6 1 7
REMARK H PARENT
REMARK Flexibility Score: inf
ROOT
ATOM      1  C   UNL     1      29.083  24.818  21.043  1.00  0.00     0.043 A 
ATOM      2  C   UNL     1      28.699  25.783  20.133  1.00  0.00     0.196 A 
ATOM      3  O   UNL     1      29.023  26.972  20.586  1.00  0.00    -0.462 OA
ATOM      4  C   UNL     1      29.603  26.830  21.755  1.00  0.00     0.166 A 
ATOM      5  C   UNL     1      29.666  25.493  22.094  1.00  0.00     0.054 A 
ENDROOT
BRANCH   4   6
ATOM      6  C   UNL     1      30.098  27.952  22.559  1.00  0.00     0.298 C 
ATOM      7  O   UNL     1      30.538  28.993  22.004  1.00  0.00    -0.294 OA
ENDBRANCH   4   6
TORSDOF 1
ENDMDL
MODEL 5
REMARK VINA RESULT:    -2.908      2.337      3.807
REMARK INTER + INTRA:          -3.092
REMARK INTER:                  -3.076
REMARK INTRA:                  -0.015
REMARK UNBOUND:                -0.013
REMARK SMILES O=Cc1ccco1
REMARK SMILES IDX 5 1 6 2 7 3 3 4 4 5 2 6 1 7
REMARK H PARENT
REMARK Flexibility Score: inf
ROOT
ATOM      1  C   UNL     1      28.394  26.204  21.164  1.00  0.00     0.043 A 
ATOM      2  C   UNL     1      28.854  24.926  20.914  1.00  0.00     0.196 A 
ATOM      3  O   UNL     1      29.887  24.669  21.684  1.00  0.00    -0.462 OA
ATOM      4  C   UNL     1      30.125  25.724  22.429  1.00  0.00     0.166 A 
ATOM      5  C   UNL     1      29.215  26.722  22.143  1.00  0.00     0.054 A 
ENDROOT
BRANCH   4   6
ATOM      6  C   UNL     1      31.210  25.796  23.412  1.00  0.00     0.298 C 
ATOM      7  O   UNL     1      31.671  24.748  23.936  1.00  0.00    -0.294 OA
ENDBRANCH   4   6
TORSDOF 1
ENDMDL
MODEL 6
REMARK VINA RESULT:    -2.896      7.258      7.810
REMARK INTER + INTRA:          -3.078
REMARK INTER:                  -3.063
REMARK INTRA:                  -0.015
REMARK UNBOUND:                -0.013
REMARK SMILES O=Cc1ccco1
REMARK SMILES IDX 5 1 6 2 7 3 3 4 4 5 2 6 1 7
REMARK H PARENT
REMARK Flexibility Score: inf
ROOT
ATOM      1  C   UNL     1      21.439  21.906  22.497  1.00  0.00     0.043 A 
ATOM      2  C   UNL     1      21.200  22.660  23.628  1.00  0.00     0.196 A 
ATOM      3  O   UNL     1      22.207  23.478  23.836  1.00  0.00    -0.462 OA
ATOM      4  C   UNL     1      23.097  23.292  22.889  1.00  0.00     0.166 A 
ATOM      5  C   UNL     1      22.666  22.312  22.018  1.00  0.00     0.054 A 
ENDROOT
BRANCH   4   6
ATOM      6  C   UNL     1      24.358  24.035  22.802  1.00  0.00     0.298 C 
ATOM      7  O   UNL     1      24.956  24.409  23.846  1.00  0.00    -0.294 OA
ENDBRANCH   4   6
TORSDOF 1
ENDMDL
MODEL 7
REMARK VINA RESULT:    -2.821      1.492      1.776
REMARK INTER + INTRA:          -2.999
REMARK INTER:                  -2.989
REMARK INTRA:                  -0.010
REMARK UNBOUND:                -0.013
REMARK SMILES O=Cc1ccco1
REMARK SMILES IDX 5 1 6 2 7 3 3 4 4 5 2 6 1 7
REMARK H PARENT
REMARK Flexibility Score: inf
ROOT
ATOM      1  C   UNL     1      30.985  25.603  23.029  1.00  0.00     0.043 A 
ATOM      2  C   UNL     1      30.565  26.912  23.157  1.00  0.00     0.196 A 
ATOM      3  O   UNL     1      29.608  27.156  22.291  1.00  0.00    -0.462 OA
ATOM      4  C   UNL     1      29.382  26.064  21.600  1.00  0.00     0.166 A 
ATOM      5  C   UNL     1      30.222  25.052  22.022  1.00  0.00     0.054 A 
ENDROOT
BRANCH   4   6
ATOM      6  C   UNL     1      28.375  25.967  20.538  1.00  0.00     0.298 C 
ATOM      7  O   UNL     1      28.680  25.512  19.404  1.00  0.00    -0.294 OA
ENDBRANCH   4   6
TORSDOF 1
ENDMDL
MODEL 8
REMARK VINA RESULT:    -2.809      2.816      3.755
REMARK INTER + INTRA:          -2.987
REMARK INTER:                  -2.972
REMARK INTRA:                  -0.015
REMARK UNBOUND:                -0.013
REMARK SMILES O=Cc1ccco1
REMARK SMILES IDX 5 1 6 2 7 3 3 4 4 5 2 6 1 7
REMARK H PARENT
REMARK Flexibility Score: inf
ROOT
ATOM      1  C   UNL     1      29.141  25.938  21.549  1.00  0.00     0.043 A 
ATOM      2  C   UNL     1      29.269  26.867  22.563  1.00  0.00     0.196 A 
ATOM      3  O   UNL     1      28.105  27.055  23.141  1.00  0.00    -0.462 OA
ATOM      4  C   UNL     1      27.217  26.289  22.550  1.00  0.00     0.166 A 
ATOM      5  C   UNL     1      27.814  25.564  21.538  1.00  0.00     0.054 A 
ENDROOT
BRANCH   4   6
ATOM      6  C   UNL     1      25.803  26.239  22.934  1.00  0.00     0.298 C 
ATOM      7  O   UNL     1      25.222  27.263  23.380  1.00  0.00    -0.294 OA
ENDBRANCH   4   6
TORSDOF 1
ENDMDL
MODEL 9
REMARK VINA RESULT:    -2.735      2.031      2.434
REMARK INTER + INTRA:          -2.909
REMARK INTER:                  -2.898
REMARK INTRA:                  -0.011
REMARK UNBOUND:                -0.013
REMARK SMILES O=Cc1ccco1
REMARK SMILES IDX 5 1 6 2 7 3 3 4 4 5 2 6 1 7
REMARK H PARENT
REMARK Flexibility Score: inf
ROOT
ATOM      1  C   UNL     1      28.025  27.177  23.659  1.00  0.00     0.043 A 
ATOM      2  C   UNL     1      26.784  26.741  23.240  1.00  0.00     0.196 A 
ATOM      3  O   UNL     1      26.916  25.997  22.166  1.00  0.00    -0.462 OA
ATOM      4  C   UNL     1      28.191  25.925  21.862  1.00  0.00     0.166 A 
ATOM      5  C   UNL     1      28.937  26.652  22.770  1.00  0.00     0.054 A 
ENDROOT
BRANCH   4   6
ATOM      6  C   UNL     1      28.713  25.174  20.717  1.00  0.00     0.298 C 
ATOM      7  O   UNL     1      28.741  25.692  19.569  1.00  0.00    -0.294 OA
ENDBRANCH   4   6
TORSDOF 1
ENDMDL
