MODEL 1
REMARK VINA RESULT:    85.832      0.000      0.000
REMARK INTER + INTRA:          90.850
REMARK INTER:                  90.850
REMARK INTRA:                   0.000
REMARK UNBOUND:                 0.000
REMARK SMILES CC1(C)[C@@H](O)CC[C@@]2(C)[C@H]3C=CC4=C(O)C(=O)C(=O)[C@]4(C)[C@@]3(C)CC[C@@H]12
REMARK SMILES IDX 1 1 2 2 26 3 25 4 24 5 22 6 10 7 8 8 7 9 6 10 4 11 9 12
REMARK SMILES IDX 11 13 12 14 13 15 14 16 16 17 17 18 18 19 19 20 20 21 21 22
REMARK SMILES IDX 23 23 3 24 5 25 15 27
REMARK H PARENT 5 26 15 28
REMARK Flexibility Score: inf
ROOT
ATOM      1  C   UNL     1      14.376  13.213  21.026  1.00  0.00     0.014 C 
ATOM      2  C   UNL     1      15.496  12.607  21.919  1.00  0.00    -0.006 C 
ATOM      3  C   UNL     1      16.914  12.968  21.310  1.00  0.00     0.004 C 
ATOM      4  C   UNL     1      17.052  12.571  19.816  1.00  0.00     0.005 C 
ATOM      5  C   UNL     1      18.487  12.413  19.312  1.00  0.00     0.009 C 
ATOM      6  C   UNL     1      19.338  11.354  20.081  1.00  0.00    -0.009 C 
ATOM      7  C   UNL     1      19.011  11.341  21.664  1.00  0.00     0.025 C 
ATOM      8  C   UNL     1      18.167  12.593  22.214  1.00  0.00    -0.022 C 
ATOM      9  C   UNL     1      17.724  12.414  23.711  1.00  0.00     0.010 C 
ATOM     10  C   UNL     1      16.660  13.423  24.138  1.00  0.00     0.033 C 
ATOM     11  C   UNL     1      15.342  13.257  23.354  1.00  0.00     0.120 C 
ATOM     12  C   UNL     1      19.138  13.827  22.237  1.00  0.00     0.012 C 
ATOM     13  C   UNL     1      18.673   9.954  22.239  1.00  0.00    -0.022 C 
ATOM     14  C   UNL     1      19.174   8.834  21.712  1.00  0.00     0.005 C 
ATOM     15  C   UNL     1      19.704   8.876  20.360  1.00  0.00     0.012 C 
ATOM     16  C   UNL     1      20.650   8.092  19.842  1.00  0.00     0.171 C 
ATOM     17  C   UNL     1      20.927   8.517  18.489  1.00  0.00     0.264 C 
ATOM     18  O   UNL     1      21.773   8.010  17.706  1.00  0.00    -0.282 OA
ATOM     19  C   UNL     1      20.057   9.640  18.205  1.00  0.00     0.217 C 
ATOM     20  O   UNL     1      20.013  10.257  17.109  1.00  0.00    -0.289 OA
ATOM     21  C   UNL     1      19.176   9.908  19.406  1.00  0.00     0.069 C 
ATOM     22  C   UNL     1      17.735   9.490  19.035  1.00  0.00     0.026 C 
ATOM     23  C   UNL     1      20.830  11.793  19.921  1.00  0.00     0.013 C 
ATOM     24  C   UNL     1      15.245  11.068  21.953  1.00  0.00     0.014 C 
ENDROOT
BRANCH  11  25
ATOM     25  O   UNL     1      14.429  12.542  24.153  1.00  0.00    -0.393 OA
ATOM     26  H   UNL     1      14.936  12.174  24.923  1.00  0.00     0.210 HD
ENDBRANCH  11  25
BRANCH  16  27
ATOM     27  O   UNL     1      21.304   7.049  20.496  1.00  0.00    -0.504 OA
ATOM     28  H   UNL     1      22.211   7.175  20.928  1.00  0.00     0.293 HD
ENDBRANCH  16  27
TORSDOF 2
ENDMDL
