MODEL 1
REMARK VINA RESULT:    -4.138      0.000      0.000
REMARK INTER + INTRA:          -5.506
REMARK INTER:                  -5.348
REMARK INTRA:                  -0.158
REMARK UNBOUND:                -0.158
REMARK SMILES CCCCCCC(=O)[O-]
REMARK SMILES IDX 5 1 6 2 7 3 8 4 9 5 4 6 3 7 2 8 1 9
REMARK H PARENT
REMARK Flexibility Score: inf
ROOT
ATOM      1  C   UNL     1      -3.279  37.289  18.472  1.00  0.00     0.006 C 
ENDROOT
BRANCH   1   2
ATOM      2  C   UNL     1      -3.943  36.086  19.153  1.00  0.00     0.053 C 
BRANCH   2   3
ATOM      3  C   UNL     1      -5.147  36.523  19.926  1.00  0.00     0.041 C 
ATOM      4  O   UNL     1      -5.371  37.747  20.111  1.00  0.00    -0.550 OA
ATOM      5  O   UNL     1      -5.995  35.575  20.485  1.00  0.00    -0.550 OA
ENDBRANCH   2   3
ENDBRANCH   1   2
BRANCH   1   6
ATOM      6  C   UNL     1      -2.408  36.889  17.267  1.00  0.00     0.000 C 
BRANCH   6   7
ATOM      7  C   UNL     1      -3.116  36.020  16.208  1.00  0.00    -0.000 C 
BRANCH   7   8
ATOM      8  C   UNL     1      -2.907  36.473  14.752  1.00  0.00    -0.003 C 
ATOM      9  C   UNL     1      -3.927  37.519  14.301  1.00  0.00     0.004 C 
ENDBRANCH   7   8
ENDBRANCH   6   7
ENDBRANCH   1   6
TORSDOF 5
ENDMDL
MODEL 2
REMARK VINA RESULT:    -4.014      2.795      5.121
REMARK INTER + INTRA:          -5.345
REMARK INTER:                  -5.137
REMARK INTRA:                  -0.208
REMARK UNBOUND:                -0.158
REMARK SMILES CCCCCCC(=O)[O-]
REMARK SMILES IDX 5 1 6 2 7 3 8 4 9 5 4 6 3 7 2 8 1 9
REMARK H PARENT
REMARK Flexibility Score: inf
ROOT
ATOM      1  C   UNL     1      -3.815  37.255  18.719  1.00  0.00     0.006 C 
ENDROOT
BRANCH   1   2
ATOM      2  C   UNL     1      -2.448  37.244  18.025  1.00  0.00     0.053 C 
BRANCH   2   3
ATOM      3  C   UNL     1      -2.595  36.850  16.589  1.00  0.00     0.041 C 
ATOM      4  O   UNL     1      -1.959  35.864  16.134  1.00  0.00    -0.550 OA
ATOM      5  O   UNL     1      -3.398  37.602  15.740  1.00  0.00    -0.550 OA
ENDBRANCH   2   3
ENDBRANCH   1   2
BRANCH   1   6
ATOM      6  C   UNL     1      -4.323  35.844  19.064  1.00  0.00     0.000 C 
BRANCH   6   7
ATOM      7  C   UNL     1      -5.321  35.778  20.239  1.00  0.00    -0.000 C 
BRANCH   7   8
ATOM      8  C   UNL     1      -4.675  35.710  21.635  1.00  0.00    -0.003 C 
ATOM      9  C   UNL     1      -4.970  36.944  22.488  1.00  0.00     0.004 C 
ENDBRANCH   7   8
ENDBRANCH   6   7
ENDBRANCH   1   6
TORSDOF 5
ENDMDL
MODEL 3
REMARK VINA RESULT:    -4.013      1.201      1.645
REMARK INTER + INTRA:          -5.345
REMARK INTER:                  -5.136
REMARK INTRA:                  -0.208
REMARK UNBOUND:                -0.158
REMARK SMILES CCCCCCC(=O)[O-]
REMARK SMILES IDX 5 1 6 2 7 3 8 4 9 5 4 6 3 7 2 8 1 9
REMARK H PARENT
REMARK Flexibility Score: inf
ROOT
ATOM      1  C   UNL     1      -3.899  36.342  19.098  1.00  0.00     0.006 C 
ENDROOT
BRANCH   1   2
ATOM      2  C   UNL     1      -5.008  37.090  19.848  1.00  0.00     0.053 C 
BRANCH   2   3
ATOM      3  C   UNL     1      -4.646  37.251  21.290  1.00  0.00     0.041 C 
ATOM      4  O   UNL     1      -4.302  38.377  21.735  1.00  0.00    -0.550 OA
ATOM      5  O   UNL     1      -4.640  36.147  22.133  1.00  0.00    -0.550 OA
ENDBRANCH   2   3
ENDBRANCH   1   2
BRANCH   1   6
ATOM      6  C   UNL     1      -2.783  37.275  18.594  1.00  0.00     0.000 C 
BRANCH   6   7
ATOM      7  C   UNL     1      -2.168  36.883  17.235  1.00  0.00    -0.000 C 
BRANCH   7   8
ATOM      8  C   UNL     1      -3.122  36.142  16.281  1.00  0.00    -0.003 C 
ATOM      9  C   UNL     1      -3.411  36.925  15.000  1.00  0.00     0.004 C 
ENDBRANCH   7   8
ENDBRANCH   6   7
ENDBRANCH   1   6
TORSDOF 5
ENDMDL
MODEL 4
REMARK VINA RESULT:    -4.013      2.755      5.045
REMARK INTER + INTRA:          -5.344
REMARK INTER:                  -5.125
REMARK INTRA:                  -0.219
REMARK UNBOUND:                -0.158
REMARK SMILES CCCCCCC(=O)[O-]
REMARK SMILES IDX 5 1 6 2 7 3 8 4 9 5 4 6 3 7 2 8 1 9
REMARK H PARENT
REMARK Flexibility Score: inf
ROOT
ATOM      1  C   UNL     1      -3.855  37.256  18.787  1.00  0.00     0.006 C 
ENDROOT
BRANCH   1   2
ATOM      2  C   UNL     1      -2.492  37.235  18.083  1.00  0.00     0.053 C 
BRANCH   2   3
ATOM      3  C   UNL     1      -2.657  36.892  16.636  1.00  0.00     0.041 C 
ATOM      4  O   UNL     1      -3.368  37.614  15.890  1.00  0.00    -0.550 OA
ATOM      5  O   UNL     1      -2.066  35.744  16.123  1.00  0.00    -0.550 OA
ENDBRANCH   2   3
ENDBRANCH   1   2
BRANCH   1   6
ATOM      6  C   UNL     1      -4.387  35.846  19.103  1.00  0.00     0.000 C 
BRANCH   6   7
ATOM      7  C   UNL     1      -5.342  35.765  20.312  1.00  0.00    -0.000 C 
BRANCH   7   8
ATOM      8  C   UNL     1      -4.650  35.767  21.687  1.00  0.00    -0.003 C 
ATOM      9  C   UNL     1      -4.967  37.015  22.511  1.00  0.00     0.004 C 
ENDBRANCH   7   8
ENDBRANCH   6   7
ENDBRANCH   1   6
TORSDOF 5
ENDMDL
MODEL 5
REMARK VINA RESULT:    -3.988      3.220      5.888
REMARK INTER + INTRA:          -5.311
REMARK INTER:                  -4.985
REMARK INTRA:                  -0.327
REMARK UNBOUND:                -0.158
REMARK SMILES CCCCCCC(=O)[O-]
REMARK SMILES IDX 5 1 6 2 7 3 8 4 9 5 4 6 3 7 2 8 1 9
REMARK H PARENT
REMARK Flexibility Score: inf
ROOT
ATOM      1  C   UNL     1      -5.847  35.632  21.094  1.00  0.00     0.006 C 
ENDROOT
BRANCH   1   2
ATOM      2  C   UNL     1      -4.589  35.870  20.251  1.00  0.00     0.053 C 
BRANCH   2   3
ATOM      3  C   UNL     1      -4.660  37.201  19.572  1.00  0.00     0.041 C 
ATOM      4  O   UNL     1      -5.503  38.059  19.944  1.00  0.00    -0.550 OA
ATOM      5  O   UNL     1      -3.828  37.477  18.494  1.00  0.00    -0.550 OA
ENDBRANCH   2   3
ENDBRANCH   1   2
BRANCH   1   6
ATOM      6  C   UNL     1      -5.536  35.418  22.587  1.00  0.00     0.000 C 
BRANCH   6   7
ATOM      7  C   UNL     1      -6.103  36.497  23.533  1.00  0.00    -0.000 C 
BRANCH   7   8
ATOM      8  C   UNL     1      -5.055  37.456  24.124  1.00  0.00    -0.003 C 
ATOM      9  C   UNL     1      -4.943  38.769  23.348  1.00  0.00     0.004 C 
ENDBRANCH   7   8
ENDBRANCH   6   7
ENDBRANCH   1   6
TORSDOF 5
ENDMDL
MODEL 6
REMARK VINA RESULT:    -3.944      3.325      4.849
REMARK INTER + INTRA:          -5.254
REMARK INTER:                  -5.034
REMARK INTRA:                  -0.220
REMARK UNBOUND:                -0.158
REMARK SMILES CCCCCCC(=O)[O-]
REMARK SMILES IDX 5 1 6 2 7 3 8 4 9 5 4 6 3 7 2 8 1 9
REMARK H PARENT
REMARK Flexibility Score: inf
ROOT
ATOM      1  C   UNL     1      -4.739  36.472  22.384  1.00  0.00     0.006 C 
ENDROOT
BRANCH   1   2
ATOM      2  C   UNL     1      -5.440  37.414  23.370  1.00  0.00     0.053 C 
BRANCH   2   3
ATOM      3  C   UNL     1      -5.375  36.859  24.758  1.00  0.00     0.041 C 
ATOM      4  O   UNL     1      -4.607  37.376  25.611  1.00  0.00    -0.550 OA
ATOM      5  O   UNL     1      -6.125  35.740  25.095  1.00  0.00    -0.550 OA
ENDBRANCH   2   3
ENDBRANCH   1   2
BRANCH   1   6
ATOM      6  C   UNL     1      -5.723  35.742  21.452  1.00  0.00     0.000 C 
BRANCH   6   7
ATOM      7  C   UNL     1      -5.516  36.008  19.946  1.00  0.00    -0.000 C 
BRANCH   7   8
ATOM      8  C   UNL     1      -4.838  37.348  19.612  1.00  0.00    -0.003 C 
ATOM      9  C   UNL     1      -3.738  37.213  18.559  1.00  0.00     0.004 C 
ENDBRANCH   7   8
ENDBRANCH   6   7
ENDBRANCH   1   6
TORSDOF 5
ENDMDL
MODEL 7
REMARK VINA RESULT:    -3.939      2.897      5.993
REMARK INTER + INTRA:          -5.248
REMARK INTER:                  -5.087
REMARK INTRA:                  -0.160
REMARK UNBOUND:                -0.158
REMARK SMILES CCCCCCC(=O)[O-]
REMARK SMILES IDX 5 1 6 2 7 3 8 4 9 5 4 6 3 7 2 8 1 9
REMARK H PARENT
REMARK Flexibility Score: inf
ROOT
ATOM      1  C   UNL     1      -4.358  36.055  20.621  1.00  0.00     0.006 C 
ENDROOT
BRANCH   1   2
ATOM      2  C   UNL     1      -4.361  37.276  19.694  1.00  0.00     0.053 C 
BRANCH   2   3
ATOM      3  C   UNL     1      -3.289  37.148  18.658  1.00  0.00     0.041 C 
ATOM      4  O   UNL     1      -3.463  36.408  17.654  1.00  0.00    -0.550 OA
ATOM      5  O   UNL     1      -2.078  37.806  18.827  1.00  0.00    -0.550 OA
ENDBRANCH   2   3
ENDBRANCH   1   2
BRANCH   1   6
ATOM      6  C   UNL     1      -5.752  35.731  21.189  1.00  0.00     0.000 C 
BRANCH   6   7
ATOM      7  C   UNL     1      -5.843  35.715  22.728  1.00  0.00    -0.000 C 
BRANCH   7   8
ATOM      8  C   UNL     1      -5.487  37.047  23.413  1.00  0.00    -0.003 C 
ATOM      9  C   UNL     1      -5.151  36.883  24.895  1.00  0.00     0.004 C 
ENDBRANCH   7   8
ENDBRANCH   6   7
ENDBRANCH   1   6
TORSDOF 5
ENDMDL
MODEL 8
REMARK VINA RESULT:    -3.876      1.674      2.329
REMARK INTER + INTRA:          -5.166
REMARK INTER:                  -5.039
REMARK INTRA:                  -0.128
REMARK UNBOUND:                -0.158
REMARK SMILES CCCCCCC(=O)[O-]
REMARK SMILES IDX 5 1 6 2 7 3 8 4 9 5 4 6 3 7 2 8 1 9
REMARK H PARENT
REMARK Flexibility Score: inf
ROOT
ATOM      1  C   UNL     1      -4.355  35.839  19.824  1.00  0.00     0.006 C 
ENDROOT
BRANCH   1   2
ATOM      2  C   UNL     1      -5.626  35.768  20.679  1.00  0.00     0.053 C 
BRANCH   2   3
ATOM      3  C   UNL     1      -5.282  35.845  22.133  1.00  0.00     0.041 C 
ATOM      4  O   UNL     1      -4.615  36.816  22.576  1.00  0.00    -0.550 OA
ATOM      5  O   UNL     1      -5.656  34.818  22.991  1.00  0.00    -0.550 OA
ENDBRANCH   2   3
ENDBRANCH   1   2
BRANCH   1   6
ATOM      6  C   UNL     1      -4.200  37.184  19.092  1.00  0.00     0.000 C 
BRANCH   6   7
ATOM      7  C   UNL     1      -2.999  37.269  18.129  1.00  0.00    -0.000 C 
BRANCH   7   8
ATOM      8  C   UNL     1      -3.116  36.395  16.867  1.00  0.00    -0.003 C 
ATOM      9  C   UNL     1      -3.217  37.215  15.581  1.00  0.00     0.004 C 
ENDBRANCH   7   8
ENDBRANCH   6   7
ENDBRANCH   1   6
TORSDOF 5
ENDMDL
MODEL 9
REMARK VINA RESULT:    -3.810      2.697      3.707
REMARK INTER + INTRA:          -5.082
REMARK INTER:                  -4.972
REMARK INTRA:                  -0.110
REMARK UNBOUND:                -0.158
REMARK SMILES CCCCCCC(=O)[O-]
REMARK SMILES IDX 5 1 6 2 7 3 8 4 9 5 4 6 3 7 2 8 1 9
REMARK H PARENT
REMARK Flexibility Score: inf
ROOT
ATOM      1  C   UNL     1      -4.631  37.655  21.296  1.00  0.00     0.006 C 
ENDROOT
BRANCH   1   2
ATOM      2  C   UNL     1      -4.999  36.829  22.534  1.00  0.00     0.053 C 
BRANCH   2   3
ATOM      3  C   UNL     1      -4.983  37.689  23.758  1.00  0.00     0.041 C 
ATOM      4  O   UNL     1      -4.902  38.940  23.653  1.00  0.00    -0.550 OA
ATOM      5  O   UNL     1      -5.009  37.104  25.018  1.00  0.00    -0.550 OA
ENDBRANCH   2   3
ENDBRANCH   1   2
BRANCH   1   6
ATOM      6  C   UNL     1      -5.106  37.008  19.982  1.00  0.00     0.000 C 
BRANCH   6   7
ATOM      7  C   UNL     1      -4.001  36.317  19.157  1.00  0.00    -0.000 C 
BRANCH   7   8
ATOM      8  C   UNL     1      -3.012  37.274  18.468  1.00  0.00    -0.003 C 
ATOM      9  C   UNL     1      -3.066  37.188  16.942  1.00  0.00     0.004 C 
ENDBRANCH   7   8
ENDBRANCH   6   7
ENDBRANCH   1   6
TORSDOF 5
ENDMDL
