MODEL 1
REMARK VINA RESULT:    -4.092      0.000      0.000
REMARK INTER + INTRA:          -4.780
REMARK INTER:                  -4.570
REMARK INTRA:                  -0.210
REMARK UNBOUND:                -0.210
REMARK SMILES CC(C)c1ccc(C(=O)[O-])cc1
REMARK SMILES IDX 7 1 6 2 11 3 5 4 12 5 4 6 8 7 9 8 10 9 2 10 1 11 3 12
REMARK H PARENT
REMARK Flexibility Score: inf
ROOT
ATOM      1  C   UNL     1     -19.769  -2.973   8.875  1.00  0.00    -0.003 A 
ATOM      2  C   UNL     1     -20.024  -2.169   7.750  1.00  0.00     0.010 A 
ATOM      3  C   UNL     1     -19.826  -2.391  10.153  1.00  0.00     0.010 A 
ATOM      4  C   UNL     1     -20.329  -0.814   7.901  1.00  0.00     0.004 A 
ATOM      5  C   UNL     1     -20.131  -1.035  10.304  1.00  0.00     0.004 A 
ATOM      6  C   UNL     1     -20.386  -0.232   9.181  1.00  0.00    -0.045 A 
ENDROOT
BRANCH   1   7
ATOM      7  C   UNL     1     -19.446  -4.408   8.721  1.00  0.00     0.071 C 
ATOM      8  O   UNL     1     -18.314  -4.768   8.300  1.00  0.00    -0.545 OA
ATOM      9  O   UNL     1     -20.387  -5.381   9.039  1.00  0.00    -0.545 OA
ENDBRANCH   1   7
BRANCH   6  10
ATOM     10  C   UNL     1     -20.716   1.239   9.358  1.00  0.00     0.013 C 
ATOM     11  C   UNL     1     -20.995   1.909   8.008  1.00  0.00     0.012 C 
ATOM     12  C   UNL     1     -21.893   1.429  10.322  1.00  0.00     0.012 C 
ENDBRANCH   6  10
TORSDOF 2
ENDMDL
MODEL 2
REMARK VINA RESULT:    -4.060      0.146      1.405
REMARK INTER + INTRA:          -4.745
REMARK INTER:                  -4.535
REMARK INTRA:                  -0.210
REMARK UNBOUND:                -0.210
REMARK SMILES CC(C)c1ccc(C(=O)[O-])cc1
REMARK SMILES IDX 7 1 6 2 11 3 5 4 12 5 4 6 8 7 9 8 10 9 2 10 1 11 3 12
REMARK H PARENT
REMARK Flexibility Score: inf
ROOT
ATOM      1  C   UNL     1     -19.771  -3.001   8.847  1.00  0.00    -0.003 A 
ATOM      2  C   UNL     1     -19.821  -2.374  10.104  1.00  0.00     0.010 A 
ATOM      3  C   UNL     1     -20.015  -2.234   7.695  1.00  0.00     0.010 A 
ATOM      4  C   UNL     1     -20.108  -1.010  10.206  1.00  0.00     0.004 A 
ATOM      5  C   UNL     1     -20.302  -0.869   7.797  1.00  0.00     0.004 A 
ATOM      6  C   UNL     1     -20.352  -0.242   9.053  1.00  0.00    -0.045 A 
ENDROOT
BRANCH   1   7
ATOM      7  C   UNL     1     -19.468  -4.444   8.733  1.00  0.00     0.071 C 
ATOM      8  O   UNL     1     -18.315  -4.832   8.406  1.00  0.00    -0.545 OA
ATOM      9  O   UNL     1     -20.452  -5.393   8.986  1.00  0.00    -0.545 OA
ENDBRANCH   1   7
BRANCH   6  10
ATOM     10  C   UNL     1     -20.665   1.240   9.150  1.00  0.00     0.013 C 
ATOM     11  C   UNL     1     -20.919   1.842   7.763  1.00  0.00     0.012 C 
ATOM     12  C   UNL     1     -21.850   1.494  10.088  1.00  0.00     0.012 C 
ENDBRANCH   6  10
TORSDOF 2
ENDMDL
MODEL 3
REMARK VINA RESULT:    -3.855      4.396      5.993
REMARK INTER + INTRA:          -4.515
REMARK INTER:                  -4.305
REMARK INTRA:                  -0.210
REMARK UNBOUND:                -0.210
REMARK SMILES CC(C)c1ccc(C(=O)[O-])cc1
REMARK SMILES IDX 7 1 6 2 11 3 5 4 12 5 4 6 8 7 9 8 10 9 2 10 1 11 3 12
REMARK H PARENT
REMARK Flexibility Score: inf
ROOT
ATOM      1  C   UNL     1     -21.336   2.900   9.004  1.00  0.00    -0.003 A 
ATOM      2  C   UNL     1     -20.843   2.223   7.874  1.00  0.00     0.010 A 
ATOM      3  C   UNL     1     -21.548   2.177  10.191  1.00  0.00     0.010 A 
ATOM      4  C   UNL     1     -20.568   0.855   7.932  1.00  0.00     0.004 A 
ATOM      5  C   UNL     1     -21.272   0.808  10.247  1.00  0.00     0.004 A 
ATOM      6  C   UNL     1     -20.780   0.131   9.120  1.00  0.00    -0.045 A 
ENDROOT
BRANCH   1   7
ATOM      7  C   UNL     1     -21.630   4.348   8.949  1.00  0.00     0.071 C 
ATOM      8  O   UNL     1     -22.639   4.774   8.327  1.00  0.00    -0.545 OA
ATOM      9  O   UNL     1     -20.795   5.262   9.584  1.00  0.00    -0.545 OA
ENDBRANCH   1   7
BRANCH   6  10
ATOM     10  C   UNL     1     -20.484  -1.356   9.195  1.00  0.00     0.013 C 
ATOM     11  C   UNL     1     -19.908  -1.872   7.871  1.00  0.00     0.012 C 
ATOM     12  C   UNL     1     -19.548  -1.675  10.366  1.00  0.00     0.012 C 
ENDBRANCH   6  10
TORSDOF 2
ENDMDL
MODEL 4
REMARK VINA RESULT:    -3.793      2.957      5.049
REMARK INTER + INTRA:          -4.447
REMARK INTER:                  -4.239
REMARK INTRA:                  -0.208
REMARK UNBOUND:                -0.210
REMARK SMILES CC(C)c1ccc(C(=O)[O-])cc1
REMARK SMILES IDX 7 1 6 2 11 3 5 4 12 5 4 6 8 7 9 8 10 9 2 10 1 11 3 12
REMARK H PARENT
REMARK Flexibility Score: inf
ROOT
ATOM      1  C   UNL     1     -20.425  -0.412   8.691  1.00  0.00    -0.003 A 
ATOM      2  C   UNL     1     -20.303  -1.191   7.526  1.00  0.00     0.010 A 
ATOM      3  C   UNL     1     -20.179  -1.011   9.938  1.00  0.00     0.010 A 
ATOM      4  C   UNL     1     -19.943  -2.538   7.609  1.00  0.00     0.004 A 
ATOM      5  C   UNL     1     -19.819  -2.359  10.020  1.00  0.00     0.004 A 
ATOM      6  C   UNL     1     -19.697  -3.138   8.858  1.00  0.00    -0.045 A 
ENDROOT
BRANCH   1   7
ATOM      7  C   UNL     1     -20.805   1.015   8.609  1.00  0.00     0.071 C 
ATOM      8  O   UNL     1     -20.504   1.701   7.596  1.00  0.00    -0.545 OA
ATOM      9  O   UNL     1     -21.502   1.620   9.649  1.00  0.00    -0.545 OA
ENDBRANCH   1   7
BRANCH   6  10
ATOM     10  C   UNL     1     -19.305  -4.601   8.961  1.00  0.00     0.013 C 
ATOM     11  C   UNL     1     -20.545  -5.500   9.038  1.00  0.00     0.012 C 
ATOM     12  C   UNL     1     -18.395  -5.012   7.799  1.00  0.00     0.012 C 
ENDBRANCH   6  10
TORSDOF 2
ENDMDL
MODEL 5
REMARK VINA RESULT:    -3.771      2.942      5.235
REMARK INTER + INTRA:          -4.421
REMARK INTER:                  -4.212
REMARK INTRA:                  -0.209
REMARK UNBOUND:                -0.210
REMARK SMILES CC(C)c1ccc(C(=O)[O-])cc1
REMARK SMILES IDX 7 1 6 2 11 3 5 4 12 5 4 6 8 7 9 8 10 9 2 10 1 11 3 12
REMARK H PARENT
REMARK Flexibility Score: inf
ROOT
ATOM      1  C   UNL     1     -20.422  -0.446   8.730  1.00  0.00    -0.003 A 
ATOM      2  C   UNL     1     -20.183  -1.053   9.975  1.00  0.00     0.010 A 
ATOM      3  C   UNL     1     -20.288  -1.215   7.562  1.00  0.00     0.010 A 
ATOM      4  C   UNL     1     -19.819  -2.400  10.049  1.00  0.00     0.004 A 
ATOM      5  C   UNL     1     -19.924  -2.563   7.636  1.00  0.00     0.004 A 
ATOM      6  C   UNL     1     -19.685  -3.170   8.880  1.00  0.00    -0.045 A 
ENDROOT
BRANCH   1   7
ATOM      7  C   UNL     1     -20.808   0.979   8.646  1.00  0.00     0.071 C 
ATOM      8  O   UNL     1     -20.500   1.667   7.636  1.00  0.00    -0.545 OA
ATOM      9  O   UNL     1     -21.516   1.581   9.680  1.00  0.00    -0.545 OA
ENDBRANCH   1   7
BRANCH   6  10
ATOM     10  C   UNL     1     -19.290  -4.634   8.946  1.00  0.00     0.013 C 
ATOM     11  C   UNL     1     -20.527  -5.539   8.980  1.00  0.00     0.012 C 
ATOM     12  C   UNL     1     -18.363  -5.010   7.785  1.00  0.00     0.012 C 
ENDBRANCH   6  10
TORSDOF 2
ENDMDL
MODEL 6
REMARK VINA RESULT:    -3.432      2.887      4.016
REMARK INTER + INTRA:          -4.044
REMARK INTER:                  -3.824
REMARK INTRA:                  -0.219
REMARK UNBOUND:                -0.210
REMARK SMILES CC(C)c1ccc(C(=O)[O-])cc1
REMARK SMILES IDX 7 1 6 2 11 3 5 4 12 5 4 6 8 7 9 8 10 9 2 10 1 11 3 12
REMARK H PARENT
REMARK Flexibility Score: inf
ROOT
ATOM      1  C   UNL     1     -20.715  -0.683  11.606  1.00  0.00    -0.003 A 
ATOM      2  C   UNL     1     -21.175   0.588  11.218  1.00  0.00     0.010 A 
ATOM      3  C   UNL     1     -20.237  -1.564  10.620  1.00  0.00     0.010 A 
ATOM      4  C   UNL     1     -21.157   0.968   9.874  1.00  0.00     0.004 A 
ATOM      5  C   UNL     1     -20.219  -1.182   9.276  1.00  0.00     0.004 A 
ATOM      6  C   UNL     1     -20.678   0.087   8.887  1.00  0.00    -0.045 A 
ENDROOT
BRANCH   1   7
ATOM      7  C   UNL     1     -20.732  -1.092  13.027  1.00  0.00     0.071 C 
ATOM      8  O   UNL     1     -20.878  -2.302  13.344  1.00  0.00    -0.545 OA
ATOM      9  O   UNL     1     -20.588  -0.145  14.035  1.00  0.00    -0.545 OA
ENDBRANCH   1   7
BRANCH   6  10
ATOM     10  C   UNL     1     -20.653   0.488   7.424  1.00  0.00     0.013 C 
ATOM     11  C   UNL     1     -20.355   1.984   7.267  1.00  0.00     0.012 C 
ATOM     12  C   UNL     1     -19.649  -0.361   6.635  1.00  0.00     0.012 C 
ENDBRANCH   6  10
TORSDOF 2
ENDMDL
MODEL 7
REMARK VINA RESULT:    -3.424      2.857      3.931
REMARK INTER + INTRA:          -4.035
REMARK INTER:                  -3.815
REMARK INTRA:                  -0.219
REMARK UNBOUND:                -0.210
REMARK SMILES CC(C)c1ccc(C(=O)[O-])cc1
REMARK SMILES IDX 7 1 6 2 11 3 5 4 12 5 4 6 8 7 9 8 10 9 2 10 1 11 3 12
REMARK H PARENT
REMARK Flexibility Score: inf
ROOT
ATOM      1  C   UNL     1     -20.680  -0.752  11.568  1.00  0.00    -0.003 A 
ATOM      2  C   UNL     1     -20.214  -1.626  10.571  1.00  0.00     0.010 A 
ATOM      3  C   UNL     1     -21.133   0.525  11.196  1.00  0.00     0.010 A 
ATOM      4  C   UNL     1     -20.202  -1.231   9.231  1.00  0.00     0.004 A 
ATOM      5  C   UNL     1     -21.120   0.920   9.855  1.00  0.00     0.004 A 
ATOM      6  C   UNL     1     -20.655   0.048   8.858  1.00  0.00    -0.045 A 
ENDROOT
BRANCH   1   7
ATOM      7  C   UNL     1     -20.695  -1.165  12.988  1.00  0.00     0.071 C 
ATOM      8  O   UNL     1     -20.723  -2.386  13.300  1.00  0.00    -0.545 OA
ATOM      9  O   UNL     1     -20.678  -0.213  14.001  1.00  0.00    -0.545 OA
ENDBRANCH   1   7
BRANCH   6  10
ATOM     10  C   UNL     1     -20.647   0.490   7.406  1.00  0.00     0.013 C 
ATOM     11  C   UNL     1     -20.376   1.994   7.288  1.00  0.00     0.012 C 
ATOM     12  C   UNL     1     -19.635  -0.320   6.587  1.00  0.00     0.012 C 
ENDBRANCH   6  10
TORSDOF 2
ENDMDL
MODEL 8
REMARK VINA RESULT:    -3.424      2.480      3.981
REMARK INTER + INTRA:          -4.034
REMARK INTER:                  -3.823
REMARK INTRA:                  -0.211
REMARK UNBOUND:                -0.210
REMARK SMILES CC(C)c1ccc(C(=O)[O-])cc1
REMARK SMILES IDX 7 1 6 2 11 3 5 4 12 5 4 6 8 7 9 8 10 9 2 10 1 11 3 12
REMARK H PARENT
REMARK Flexibility Score: inf
ROOT
ATOM      1  C   UNL     1     -20.683   0.444   8.821  1.00  0.00    -0.003 A 
ATOM      2  C   UNL     1     -21.156   0.925  10.055  1.00  0.00     0.010 A 
ATOM      3  C   UNL     1     -20.589   1.332   7.736  1.00  0.00     0.010 A 
ATOM      4  C   UNL     1     -21.527   2.264  10.198  1.00  0.00     0.004 A 
ATOM      5  C   UNL     1     -20.961   2.672   7.881  1.00  0.00     0.004 A 
ATOM      6  C   UNL     1     -21.434   3.153   9.112  1.00  0.00    -0.045 A 
ENDROOT
BRANCH   1   7
ATOM      7  C   UNL     1     -20.289  -0.972   8.663  1.00  0.00     0.071 C 
ATOM      8  O   UNL     1     -20.019  -1.678   9.671  1.00  0.00    -0.545 OA
ATOM      9  O   UNL     1     -20.211  -1.546   7.399  1.00  0.00    -0.545 OA
ENDBRANCH   1   7
BRANCH   6  10
ATOM     10  C   UNL     1     -21.834   4.610   9.256  1.00  0.00     0.013 C 
ATOM     11  C   UNL     1     -20.637   5.473   9.674  1.00  0.00     0.012 C 
ATOM     12  C   UNL     1     -22.471   5.138   7.965  1.00  0.00     0.012 C 
ENDBRANCH   6  10
TORSDOF 2
ENDMDL
MODEL 9
REMARK VINA RESULT:    -3.186      3.000      4.266
REMARK INTER + INTRA:          -3.769
REMARK INTER:                  -3.548
REMARK INTRA:                  -0.220
REMARK UNBOUND:                -0.210
REMARK SMILES CC(C)c1ccc(C(=O)[O-])cc1
REMARK SMILES IDX 7 1 6 2 11 3 5 4 12 5 4 6 8 7 9 8 10 9 2 10 1 11 3 12
REMARK H PARENT
REMARK Flexibility Score: inf
ROOT
ATOM      1  C   UNL     1     -20.417  -0.265   8.778  1.00  0.00    -0.003 A 
ATOM      2  C   UNL     1     -20.922   0.656   9.713  1.00  0.00     0.010 A 
ATOM      3  C   UNL     1     -19.955  -1.512   9.234  1.00  0.00     0.010 A 
ATOM      4  C   UNL     1     -20.964   0.336  11.072  1.00  0.00     0.004 A 
ATOM      5  C   UNL     1     -19.997  -1.831  10.594  1.00  0.00     0.004 A 
ATOM      6  C   UNL     1     -20.501  -0.912  11.528  1.00  0.00    -0.045 A 
ENDROOT
BRANCH   1   7
ATOM      7  C   UNL     1     -20.370   0.068   7.338  1.00  0.00     0.071 C 
ATOM      8  O   UNL     1     -19.945  -0.772   6.500  1.00  0.00    -0.545 OA
ATOM      9  O   UNL     1     -20.794   1.313   6.888  1.00  0.00    -0.545 OA
ENDBRANCH   1   7
BRANCH   6  10
ATOM     10  C   UNL     1     -20.542  -1.271  13.002  1.00  0.00     0.013 C 
ATOM     11  C   UNL     1     -21.308  -0.215  13.807  1.00  0.00     0.012 C 
ATOM     12  C   UNL     1     -21.139  -2.667  13.214  1.00  0.00     0.012 C 
ENDBRANCH   6  10
TORSDOF 2
ENDMDL
