MODEL 1
REMARK VINA RESULT:    -4.025      0.000      0.000
REMARK INTER + INTRA:          -4.451
REMARK INTER:                  -4.260
REMARK INTRA:                  -0.191
REMARK UNBOUND:                -0.191
REMARK SMILES CC1=CC[C@H](C(C)C)C=C1
REMARK SMILES IDX 1 1 2 2 3 3 4 4 5 5 9 6 10 7 6 8 7 9 8 10
REMARK H PARENT
REMARK Flexibility Score: inf
ROOT
ATOM      1  C   UNL     1     133.466 137.114 135.235  1.00  0.00     0.044 C 
ATOM      2  C   UNL     1     134.013 137.967 134.129  1.00  0.00    -0.055 C 
ATOM      3  C   UNL     1     135.133 138.683 134.317  1.00  0.00    -0.023 C 
ATOM      4  C   UNL     1     135.608 139.656 133.269  1.00  0.00     0.035 C 
ATOM      5  C   UNL     1     135.279 139.141 131.848  1.00  0.00     0.018 C 
ATOM      6  C   UNL     1     133.843 138.658 131.784  1.00  0.00    -0.023 C 
ATOM      7  C   UNL     1     133.282 138.068 132.845  1.00  0.00    -0.001 C 
ENDROOT
BRANCH   5   8
ATOM      8  C   UNL     1     135.637 140.183 130.747  1.00  0.00    -0.010 C 
ATOM      9  C   UNL     1     134.444 140.444 129.815  1.00  0.00     0.008 C 
ATOM     10  C   UNL     1     136.170 141.514 131.308  1.00  0.00     0.008 C 
ENDBRANCH   5   8
TORSDOF 1
ENDMDL
MODEL 2
REMARK VINA RESULT:    -4.020      4.065      5.001
REMARK INTER + INTRA:          -4.446
REMARK INTER:                  -4.256
REMARK INTRA:                  -0.190
REMARK UNBOUND:                -0.191
REMARK SMILES CC1=CC[C@H](C(C)C)C=C1
REMARK SMILES IDX 1 1 2 2 3 3 4 4 5 5 9 6 10 7 6 8 7 9 8 10
REMARK H PARENT
REMARK Flexibility Score: inf
ROOT
ATOM      1  C   UNL     1     137.148 140.369 135.204  1.00  0.00     0.044 C 
ATOM      2  C   UNL     1     137.997 139.811 134.100  1.00  0.00    -0.055 C 
ATOM      3  C   UNL     1     138.675 138.666 134.279  1.00  0.00    -0.023 C 
ATOM      4  C   UNL     1     139.646 138.177 133.237  1.00  0.00     0.035 C 
ATOM      5  C   UNL     1     139.161 138.545 131.814  1.00  0.00     0.018 C 
ATOM      6  C   UNL     1     138.726 139.997 131.768  1.00  0.00    -0.023 C 
ATOM      7  C   UNL     1     138.139 140.560 132.830  1.00  0.00    -0.001 C 
ENDROOT
BRANCH   5   8
ATOM      8  C   UNL     1     140.206 138.171 130.721  1.00  0.00    -0.010 C 
ATOM      9  C   UNL     1     140.377 139.306 129.699  1.00  0.00     0.008 C 
ATOM     10  C   UNL     1     141.576 137.763 131.292  1.00  0.00     0.008 C 
ENDBRANCH   5   8
TORSDOF 1
ENDMDL
MODEL 3
REMARK VINA RESULT:    -4.016      6.172      7.095
REMARK INTER + INTRA:          -4.441
REMARK INTER:                  -4.251
REMARK INTRA:                  -0.191
REMARK UNBOUND:                -0.191
REMARK SMILES CC1=CC[C@H](C(C)C)C=C1
REMARK SMILES IDX 1 1 2 2 3 3 4 4 5 5 9 6 10 7 6 8 7 9 8 10
REMARK H PARENT
REMARK Flexibility Score: inf
ROOT
ATOM      1  C   UNL     1     140.292 136.571 135.208  1.00  0.00     0.044 C 
ATOM      2  C   UNL     1     139.752 135.722 134.095  1.00  0.00    -0.055 C 
ATOM      3  C   UNL     1     138.639 134.995 134.278  1.00  0.00    -0.023 C 
ATOM      4  C   UNL     1     138.173 134.025 133.223  1.00  0.00     0.035 C 
ATOM      5  C   UNL     1     138.498 134.553 131.805  1.00  0.00     0.018 C 
ATOM      6  C   UNL     1     139.930 135.049 131.746  1.00  0.00    -0.023 C 
ATOM      7  C   UNL     1     140.485 135.637 132.811  1.00  0.00    -0.001 C 
ENDROOT
BRANCH   5   8
ATOM      8  C   UNL     1     138.148 133.517 130.696  1.00  0.00    -0.010 C 
ATOM      9  C   UNL     1     139.316 133.335 129.714  1.00  0.00     0.008 C 
ATOM     10  C   UNL     1     137.704 132.150 131.248  1.00  0.00     0.008 C 
ENDBRANCH   5   8
TORSDOF 1
ENDMDL
MODEL 4
REMARK VINA RESULT:    -3.977      4.116      5.009
REMARK INTER + INTRA:          -4.401
REMARK INTER:                  -4.210
REMARK INTRA:                  -0.191
REMARK UNBOUND:                -0.191
REMARK SMILES CC1=CC[C@H](C(C)C)C=C1
REMARK SMILES IDX 1 1 2 2 3 3 4 4 5 5 9 6 10 7 6 8 7 9 8 10
REMARK H PARENT
REMARK Flexibility Score: inf
ROOT
ATOM      1  C   UNL     1     136.502 133.441 135.340  1.00  0.00     0.044 C 
ATOM      2  C   UNL     1     135.660 133.985 134.225  1.00  0.00    -0.055 C 
ATOM      3  C   UNL     1     134.918 135.088 134.412  1.00  0.00    -0.023 C 
ATOM      4  C   UNL     1     133.955 135.556 133.352  1.00  0.00     0.035 C 
ATOM      5  C   UNL     1     134.503 135.255 131.937  1.00  0.00     0.018 C 
ATOM      6  C   UNL     1     135.016 133.830 131.866  1.00  0.00    -0.023 C 
ATOM      7  C   UNL     1     135.597 133.268 132.931  1.00  0.00    -0.001 C 
ENDROOT
BRANCH   5   8
ATOM      8  C   UNL     1     133.475 135.606 130.821  1.00  0.00    -0.010 C 
ATOM      9  C   UNL     1     133.187 134.392 129.924  1.00  0.00     0.008 C 
ATOM     10  C   UNL     1     132.156 136.190 131.359  1.00  0.00     0.008 C 
ENDBRANCH   5   8
TORSDOF 1
ENDMDL
MODEL 5
REMARK VINA RESULT:    -3.935      3.296      5.256
REMARK INTER + INTRA:          -4.356
REMARK INTER:                  -4.225
REMARK INTRA:                  -0.131
REMARK UNBOUND:                -0.191
REMARK SMILES CC1=CC[C@H](C(C)C)C=C1
REMARK SMILES IDX 1 1 2 2 3 3 4 4 5 5 9 6 10 7 6 8 7 9 8 10
REMARK H PARENT
REMARK Flexibility Score: inf
ROOT
ATOM      1  C   UNL     1     133.650 134.423 128.586  1.00  0.00     0.044 C 
ATOM      2  C   UNL     1     133.633 134.851 130.023  1.00  0.00    -0.055 C 
ATOM      3  C   UNL     1     134.591 134.435 130.866  1.00  0.00    -0.023 C 
ATOM      4  C   UNL     1     134.502 134.734 132.339  1.00  0.00     0.035 C 
ATOM      5  C   UNL     1     133.835 136.108 132.585  1.00  0.00     0.018 C 
ATOM      6  C   UNL     1     132.579 136.239 131.746  1.00  0.00    -0.023 C 
ATOM      7  C   UNL     1     132.519 135.685 130.530  1.00  0.00    -0.001 C 
ENDROOT
BRANCH   5   8
ATOM      8  C   UNL     1     133.608 136.390 134.100  1.00  0.00    -0.010 C 
ATOM      9  C   UNL     1     134.399 135.407 134.977  1.00  0.00     0.008 C 
ATOM     10  C   UNL     1     133.925 137.839 134.511  1.00  0.00     0.008 C 
ENDBRANCH   5   8
TORSDOF 1
ENDMDL
MODEL 6
REMARK VINA RESULT:    -3.932      3.294      4.905
REMARK INTER + INTRA:          -4.352
REMARK INTER:                  -4.227
REMARK INTRA:                  -0.125
REMARK UNBOUND:                -0.191
REMARK SMILES CC1=CC[C@H](C(C)C)C=C1
REMARK SMILES IDX 1 1 2 2 3 3 4 4 5 5 9 6 10 7 6 8 7 9 8 10
REMARK H PARENT
REMARK Flexibility Score: inf
ROOT
ATOM      1  C   UNL     1     133.732 134.034 127.929  1.00  0.00     0.044 C 
ATOM      2  C   UNL     1     133.588 135.061 129.013  1.00  0.00    -0.055 C 
ATOM      3  C   UNL     1     132.885 134.781 130.122  1.00  0.00    -0.023 C 
ATOM      4  C   UNL     1     132.606 135.850 131.146  1.00  0.00     0.035 C 
ATOM      5  C   UNL     1     133.787 136.845 131.240  1.00  0.00     0.018 C 
ATOM      6  C   UNL     1     134.225 137.273 129.853  1.00  0.00    -0.023 C 
ATOM      7  C   UNL     1     134.170 136.411 128.832  1.00  0.00    -0.001 C 
ENDROOT
BRANCH   5   8
ATOM      8  C   UNL     1     133.478 138.037 132.193  1.00  0.00    -0.010 C 
ATOM      9  C   UNL     1     133.572 137.614 133.668  1.00  0.00     0.008 C 
ATOM     10  C   UNL     1     134.362 139.273 131.942  1.00  0.00     0.008 C 
ENDBRANCH   5   8
TORSDOF 1
ENDMDL
MODEL 7
REMARK VINA RESULT:    -3.908      1.521      4.236
REMARK INTER + INTRA:          -4.327
REMARK INTER:                  -4.197
REMARK INTRA:                  -0.130
REMARK UNBOUND:                -0.191
REMARK SMILES CC1=CC[C@H](C(C)C)C=C1
REMARK SMILES IDX 1 1 2 2 3 3 4 4 5 5 9 6 10 7 6 8 7 9 8 10
REMARK H PARENT
REMARK Flexibility Score: inf
ROOT
ATOM      1  C   UNL     1     134.379 139.972 128.621  1.00  0.00     0.044 C 
ATOM      2  C   UNL     1     134.827 140.030 130.052  1.00  0.00    -0.055 C 
ATOM      3  C   UNL     1     134.420 139.097 130.927  1.00  0.00    -0.023 C 
ATOM      4  C   UNL     1     134.739 139.229 132.394  1.00  0.00     0.035 C 
ATOM      5  C   UNL     1     136.118 139.898 132.601  1.00  0.00     0.018 C 
ATOM      6  C   UNL     1     136.241 141.129 131.724  1.00  0.00    -0.023 C 
ATOM      7  C   UNL     1     135.671 141.155 130.515  1.00  0.00    -0.001 C 
ENDROOT
BRANCH   5   8
ATOM      8  C   UNL     1     136.421 140.168 134.105  1.00  0.00    -0.010 C 
ATOM      9  C   UNL     1     135.500 139.346 135.018  1.00  0.00     0.008 C 
ATOM     10  C   UNL     1     137.894 139.932 134.489  1.00  0.00     0.008 C 
ENDBRANCH   5   8
TORSDOF 1
ENDMDL
MODEL 8
REMARK VINA RESULT:    -3.907      2.736      4.638
REMARK INTER + INTRA:          -4.326
REMARK INTER:                  -4.145
REMARK INTRA:                  -0.181
REMARK UNBOUND:                -0.191
REMARK SMILES CC1=CC[C@H](C(C)C)C=C1
REMARK SMILES IDX 1 1 2 2 3 3 4 4 5 5 9 6 10 7 6 8 7 9 8 10
REMARK H PARENT
REMARK Flexibility Score: inf
ROOT
ATOM      1  C   UNL     1     140.782 138.899 130.463  1.00  0.00     0.044 C 
ATOM      2  C   UNL     1     139.324 139.219 130.618  1.00  0.00    -0.055 C 
ATOM      3  C   UNL     1     138.865 139.747 131.763  1.00  0.00    -0.023 C 
ATOM      4  C   UNL     1     137.386 139.932 131.985  1.00  0.00     0.035 C 
ATOM      5  C   UNL     1     136.668 140.280 130.660  1.00  0.00     0.018 C 
ATOM      6  C   UNL     1     137.119 139.342 129.557  1.00  0.00    -0.023 C 
ATOM      7  C   UNL     1     138.378 138.893 129.526  1.00  0.00    -0.001 C 
ENDROOT
BRANCH   5   8
ATOM      8  C   UNL     1     135.121 140.348 130.828  1.00  0.00    -0.010 C 
ATOM      9  C   UNL     1     134.412 140.415 129.467  1.00  0.00     0.008 C 
ATOM     10  C   UNL     1     134.542 139.196 131.669  1.00  0.00     0.008 C 
ENDBRANCH   5   8
TORSDOF 1
ENDMDL
MODEL 9
REMARK VINA RESULT:    -3.858      5.228      6.258
REMARK INTER + INTRA:          -4.275
REMARK INTER:                  -4.133
REMARK INTRA:                  -0.142
REMARK UNBOUND:                -0.191
REMARK SMILES CC1=CC[C@H](C(C)C)C=C1
REMARK SMILES IDX 1 1 2 2 3 3 4 4 5 5 9 6 10 7 6 8 7 9 8 10
REMARK H PARENT
REMARK Flexibility Score: inf
ROOT
ATOM      1  C   UNL     1     132.486 135.835 130.907  1.00  0.00     0.044 C 
ATOM      2  C   UNL     1     133.807 135.159 130.692  1.00  0.00    -0.055 C 
ATOM      3  C   UNL     1     134.399 135.195 129.487  1.00  0.00    -0.023 C 
ATOM      4  C   UNL     1     135.648 134.396 129.220  1.00  0.00     0.035 C 
ATOM      5  C   UNL     1     136.533 134.316 130.486  1.00  0.00     0.018 C 
ATOM      6  C   UNL     1     135.691 133.953 131.693  1.00  0.00    -0.023 C 
ATOM      7  C   UNL     1     134.433 134.396 131.796  1.00  0.00    -0.001 C 
ENDROOT
BRANCH   5   8
ATOM      8  C   UNL     1     137.768 133.388 130.283  1.00  0.00    -0.010 C 
ATOM      9  C   UNL     1     139.084 134.168 130.423  1.00  0.00     0.008 C 
ATOM     10  C   UNL     1     137.778 132.163 131.217  1.00  0.00     0.008 C 
ENDBRANCH   5   8
TORSDOF 1
ENDMDL
