MODEL 1
REMARK VINA RESULT:    -3.933      0.000      0.000
REMARK INTER + INTRA:          -4.047
REMARK INTER:                  -4.047
REMARK INTRA:                   0.000
REMARK UNBOUND:                 0.000
REMARK SMILES Nc1ncnc2nc[nH]c12
REMARK SMILES IDX 8 1 7 2 6 3 5 4 4 5 3 6 2 7 10 8 9 9 1 11
REMARK H PARENT 9 10 1 12 1 13
REMARK Flexibility Score: inf
ROOT
ATOM      1  C   UNL     1      -9.819  38.805 -20.482  1.00  0.00     0.199 A 
ATOM      2  N   UNL     1     -10.779  37.906 -20.834  1.00  0.00    -0.217 NA
ATOM      3  C   UNL     1     -10.138  37.141 -21.733  1.00  0.00     0.182 A 
ATOM      4  N   UNL     1     -10.650  36.081 -22.403  1.00  0.00    -0.215 NA
ATOM      5  C   UNL     1      -9.838  35.423 -23.285  1.00  0.00     0.226 A 
ATOM      6  N   UNL     1      -8.543  35.832 -23.479  1.00  0.00    -0.217 NA
ATOM      7  C   UNL     1      -8.025  36.900 -22.803  1.00  0.00     0.152 A 
ATOM      8  C   UNL     1      -8.864  37.561 -21.909  1.00  0.00     0.127 A 
ATOM      9  N   UNL     1      -8.637  38.619 -21.122  1.00  0.00    -0.340 N 
ATOM     10  H   UNL     1      -7.762  39.179 -21.016  1.00  0.00     0.168 HD
ENDROOT
BRANCH   7  11
ATOM     11  N   UNL     1      -6.673  37.308 -23.020  1.00  0.00    -0.382 N 
ATOM     12  H   UNL     1      -6.025  36.695 -23.563  1.00  0.00     0.158 HD
ATOM     13  H   UNL     1      -6.311  38.212 -22.647  1.00  0.00     0.158 HD
ENDBRANCH   7  11
TORSDOF 1
ENDMDL
MODEL 2
REMARK VINA RESULT:    -3.927      1.140      2.935
REMARK INTER + INTRA:          -4.041
REMARK INTER:                  -4.041
REMARK INTRA:                   0.000
REMARK UNBOUND:                 0.000
REMARK SMILES Nc1ncnc2nc[nH]c12
REMARK SMILES IDX 8 1 7 2 6 3 5 4 4 5 3 6 2 7 10 8 9 9 1 11
REMARK H PARENT 9 10 1 12 1 13
REMARK Flexibility Score: inf
ROOT
ATOM      1  C   UNL     1      -6.776  37.860 -22.484  1.00  0.00     0.199 A 
ATOM      2  N   UNL     1      -7.514  37.035 -23.275  1.00  0.00    -0.217 NA
ATOM      3  C   UNL     1      -8.695  37.007 -22.637  1.00  0.00     0.182 A 
ATOM      4  N   UNL     1      -9.801  36.321 -23.012  1.00  0.00    -0.215 NA
ATOM      5  C   UNL     1     -10.917  36.417 -22.228  1.00  0.00     0.226 A 
ATOM      6  N   UNL     1     -10.908  37.190 -21.095  1.00  0.00    -0.217 NA
ATOM      7  C   UNL     1      -9.793  37.883 -20.715  1.00  0.00     0.152 A 
ATOM      8  C   UNL     1      -8.664  37.775 -21.523  1.00  0.00     0.127 A 
ATOM      9  N   UNL     1      -7.453  38.329 -21.405  1.00  0.00    -0.340 N 
ATOM     10  H   UNL     1      -7.098  38.972 -20.662  1.00  0.00     0.168 HD
ENDROOT
BRANCH   7  11
ATOM     11  N   UNL     1      -9.807  38.683 -19.531  1.00  0.00    -0.382 N 
ATOM     12  H   UNL     1      -8.908  39.019 -19.118  1.00  0.00     0.158 HD
ATOM     13  H   UNL     1     -10.701  38.945 -19.063  1.00  0.00     0.158 HD
ENDBRANCH   7  11
TORSDOF 1
ENDMDL
MODEL 3
REMARK VINA RESULT:    -3.691      1.074      2.836
REMARK INTER + INTRA:          -3.799
REMARK INTER:                  -3.799
REMARK INTRA:                   0.000
REMARK UNBOUND:                 0.000
REMARK SMILES Nc1ncnc2nc[nH]c12
REMARK SMILES IDX 8 1 7 2 6 3 5 4 4 5 3 6 2 7 10 8 9 9 1 11
REMARK H PARENT 9 10 1 12 1 13
REMARK Flexibility Score: inf
ROOT
ATOM      1  C   UNL     1      -6.670  37.832 -22.563  1.00  0.00     0.199 A 
ATOM      2  N   UNL     1      -7.410  38.384 -21.563  1.00  0.00    -0.217 NA
ATOM      3  C   UNL     1      -8.591  37.760 -21.704  1.00  0.00     0.182 A 
ATOM      4  N   UNL     1      -9.699  37.945 -20.947  1.00  0.00    -0.215 NA
ATOM      5  C   UNL     1     -10.815  37.212 -21.245  1.00  0.00     0.226 A 
ATOM      6  N   UNL     1     -10.802  36.316 -22.284  1.00  0.00    -0.217 NA
ATOM      7  C   UNL     1      -9.685  36.128 -23.048  1.00  0.00     0.152 A 
ATOM      8  C   UNL     1      -8.557  36.882 -22.733  1.00  0.00     0.127 A 
ATOM      9  N   UNL     1      -7.344  36.909 -23.295  1.00  0.00    -0.340 N 
ATOM     10  H   UNL     1      -6.986  36.357 -24.106  1.00  0.00     0.168 HD
ENDROOT
BRANCH   7  11
ATOM     11  N   UNL     1      -9.694  35.188 -24.124  1.00  0.00    -0.382 N 
ATOM     12  H   UNL     1     -10.581  34.701 -24.384  1.00  0.00     0.158 HD
ATOM     13  H   UNL     1      -8.829  34.974 -24.667  1.00  0.00     0.158 HD
ENDBRANCH   7  11
TORSDOF 1
ENDMDL
MODEL 4
REMARK VINA RESULT:    -3.598     21.489     23.216
REMARK INTER + INTRA:          -3.703
REMARK INTER:                  -3.703
REMARK INTRA:                   0.000
REMARK UNBOUND:                 0.000
REMARK SMILES Nc1ncnc2nc[nH]c12
REMARK SMILES IDX 8 1 7 2 6 3 5 4 4 5 3 6 2 7 10 8 9 9 1 11
REMARK H PARENT 9 10 1 12 1 13
REMARK Flexibility Score: inf
ROOT
ATOM      1  C   UNL     1       2.383  48.481  -8.349  1.00  0.00     0.199 A 
ATOM      2  N   UNL     1       3.134  48.604  -9.477  1.00  0.00    -0.217 NA
ATOM      3  C   UNL     1       3.782  49.761  -9.265  1.00  0.00     0.182 A 
ATOM      4  N   UNL     1       4.671  50.355 -10.097  1.00  0.00    -0.215 NA
ATOM      5  C   UNL     1       5.230  51.540  -9.705  1.00  0.00     0.226 A 
ATOM      6  N   UNL     1       4.893  52.104  -8.500  1.00  0.00    -0.217 NA
ATOM      7  C   UNL     1       3.997  51.506  -7.660  1.00  0.00     0.152 A 
ATOM      8  C   UNL     1       3.435  50.301  -8.073  1.00  0.00     0.127 A 
ATOM      9  N   UNL     1       2.546  49.503  -7.471  1.00  0.00    -0.340 N 
ATOM     10  H   UNL     1       2.080  49.626  -6.545  1.00  0.00     0.168 HD
ENDROOT
BRANCH   7  11
ATOM     11  N   UNL     1       3.662  52.112  -6.410  1.00  0.00    -0.382 N 
ATOM     12  H   UNL     1       3.083  52.981  -6.390  1.00  0.00     0.158 HD
ATOM     13  H   UNL     1       3.982  51.704  -5.505  1.00  0.00     0.158 HD
ENDBRANCH   7  11
TORSDOF 1
ENDMDL
MODEL 5
REMARK VINA RESULT:    -3.388      1.597      1.959
REMARK INTER + INTRA:          -3.487
REMARK INTER:                  -3.487
REMARK INTRA:                   0.000
REMARK UNBOUND:                 0.000
REMARK SMILES Nc1ncnc2nc[nH]c12
REMARK SMILES IDX 8 1 7 2 6 3 5 4 4 5 3 6 2 7 10 8 9 9 1 11
REMARK H PARENT 9 10 1 12 1 13
REMARK Flexibility Score: inf
ROOT
ATOM      1  C   UNL     1     -10.876  38.752 -18.643  1.00  0.00     0.199 A 
ATOM      2  N   UNL     1     -11.902  38.043 -19.188  1.00  0.00    -0.217 NA
ATOM      3  C   UNL     1     -11.315  37.460 -20.245  1.00  0.00     0.182 A 
ATOM      4  N   UNL     1     -11.904  36.632 -21.142  1.00  0.00    -0.215 NA
ATOM      5  C   UNL     1     -11.138  36.133 -22.159  1.00  0.00     0.226 A 
ATOM      6  N   UNL     1      -9.811  36.468 -22.261  1.00  0.00    -0.217 NA
ATOM      7  C   UNL     1      -9.217  37.303 -21.358  1.00  0.00     0.152 A 
ATOM      8  C   UNL     1     -10.009  37.803 -20.328  1.00  0.00     0.127 A 
ATOM      9  N   UNL     1      -9.705  38.625 -19.317  1.00  0.00    -0.340 N 
ATOM     10  H   UNL     1      -8.789  39.071 -19.090  1.00  0.00     0.168 HD
ENDROOT
BRANCH   7  11
ATOM     11  N   UNL     1      -7.833  37.637 -21.484  1.00  0.00    -0.382 N 
ATOM     12  H   UNL     1      -7.492  38.573 -21.170  1.00  0.00     0.158 HD
ATOM     13  H   UNL     1      -7.145  36.962 -21.884  1.00  0.00     0.158 HD
ENDBRANCH   7  11
TORSDOF 1
ENDMDL
MODEL 6
REMARK VINA RESULT:    -3.299     14.862     16.064
REMARK INTER + INTRA:          -3.396
REMARK INTER:                  -3.396
REMARK INTRA:                   0.000
REMARK UNBOUND:                 0.000
REMARK SMILES Nc1ncnc2nc[nH]c12
REMARK SMILES IDX 8 1 7 2 6 3 5 4 4 5 3 6 2 7 10 8 9 9 1 11
REMARK H PARENT 9 10 1 12 1 13
REMARK Flexibility Score: inf
ROOT
ATOM      1  C   UNL     1      -8.152  33.690  -9.174  1.00  0.00     0.199 A 
ATOM      2  N   UNL     1      -7.465  32.763  -8.452  1.00  0.00    -0.217 NA
ATOM      3  C   UNL     1      -7.839  33.046  -7.194  1.00  0.00     0.182 A 
ATOM      4  N   UNL     1      -7.438  32.410  -6.068  1.00  0.00    -0.215 NA
ATOM      5  C   UNL     1      -7.931  32.846  -4.869  1.00  0.00     0.226 A 
ATOM      6  N   UNL     1      -8.808  33.899  -4.819  1.00  0.00    -0.217 NA
ATOM      7  C   UNL     1      -9.215  34.542  -5.954  1.00  0.00     0.152 A 
ATOM      8  C   UNL     1      -8.704  34.088  -7.166  1.00  0.00     0.127 A 
ATOM      9  N   UNL     1      -8.918  34.514  -8.416  1.00  0.00    -0.340 N 
ATOM     10  H   UNL     1      -9.529  35.294  -8.744  1.00  0.00     0.168 HD
ENDROOT
BRANCH   7  11
ATOM     11  N   UNL     1     -10.130  35.636  -5.877  1.00  0.00    -0.382 N 
ATOM     12  H   UNL     1      -9.963  36.497  -6.444  1.00  0.00     0.158 HD
ATOM     13  H   UNL     1     -10.973  35.598  -5.263  1.00  0.00     0.158 HD
ENDBRANCH   7  11
TORSDOF 1
ENDMDL
MODEL 7
REMARK VINA RESULT:    -3.254     11.647     12.592
REMARK INTER + INTRA:          -3.349
REMARK INTER:                  -3.349
REMARK INTRA:                   0.000
REMARK UNBOUND:                 0.000
REMARK SMILES Nc1ncnc2nc[nH]c12
REMARK SMILES IDX 8 1 7 2 6 3 5 4 4 5 3 6 2 7 10 8 9 9 1 11
REMARK H PARENT 9 10 1 12 1 13
REMARK Flexibility Score: inf
ROOT
ATOM      1  C   UNL     1     -11.756  33.635 -10.868  1.00  0.00     0.199 A 
ATOM      2  N   UNL     1     -11.014  32.921 -11.758  1.00  0.00    -0.217 NA
ATOM      3  C   UNL     1      -9.790  32.965 -11.209  1.00  0.00     0.182 A 
ATOM      4  N   UNL     1      -8.661  32.401 -11.702  1.00  0.00    -0.215 NA
ATOM      5  C   UNL     1      -7.500  32.555 -10.996  1.00  0.00     0.226 A 
ATOM      6  N   UNL     1      -7.488  33.264  -9.822  1.00  0.00    -0.217 NA
ATOM      7  C   UNL     1      -8.625  33.833  -9.322  1.00  0.00     0.152 A 
ATOM      8  C   UNL     1      -9.799  33.668 -10.052  1.00  0.00     0.127 A 
ATOM      9  N   UNL     1     -11.041  34.104  -9.814  1.00  0.00    -0.340 N 
ATOM     10  H   UNL     1     -11.392  34.672  -9.011  1.00  0.00     0.168 HD
ENDROOT
BRANCH   7  11
ATOM     11  N   UNL     1      -8.589  34.566  -8.096  1.00  0.00    -0.382 N 
ATOM     12  H   UNL     1      -9.191  34.271  -7.295  1.00  0.00     0.158 HD
ATOM     13  H   UNL     1      -7.970  35.397  -7.977  1.00  0.00     0.158 HD
ENDBRANCH   7  11
TORSDOF 1
ENDMDL
MODEL 8
REMARK VINA RESULT:    -3.122     12.350     13.284
REMARK INTER + INTRA:          -3.213
REMARK INTER:                  -3.213
REMARK INTRA:                   0.000
REMARK UNBOUND:                 0.000
REMARK SMILES Nc1ncnc2nc[nH]c12
REMARK SMILES IDX 8 1 7 2 6 3 5 4 4 5 3 6 2 7 10 8 9 9 1 11
REMARK H PARENT 9 10 1 12 1 13
REMARK Flexibility Score: inf
ROOT
ATOM      1  C   UNL     1      -9.372  34.151  -7.329  1.00  0.00     0.199 A 
ATOM      2  N   UNL     1      -8.134  33.652  -7.594  1.00  0.00    -0.217 NA
ATOM      3  C   UNL     1      -8.219  33.356  -8.901  1.00  0.00     0.182 A 
ATOM      4  N   UNL     1      -7.244  32.821  -9.675  1.00  0.00    -0.215 NA
ATOM      5  C   UNL     1      -7.521  32.589 -10.994  1.00  0.00     0.226 A 
ATOM      6  N   UNL     1      -8.755  32.892 -11.510  1.00  0.00    -0.217 NA
ATOM      7  C   UNL     1      -9.740  33.431 -10.731  1.00  0.00     0.152 A 
ATOM      8  C   UNL     1      -9.443  33.662  -9.390  1.00  0.00     0.127 A 
ATOM      9  N   UNL     1     -10.195  34.171  -8.408  1.00  0.00    -0.340 N 
ATOM     10  H   UNL     1     -11.182  34.507  -8.447  1.00  0.00     0.168 HD
ENDROOT
BRANCH   7  11
ATOM     11  N   UNL     1     -11.018  33.740 -11.291  1.00  0.00    -0.382 N 
ATOM     12  H   UNL     1     -11.754  33.002 -11.348  1.00  0.00     0.158 HD
ATOM     13  H   UNL     1     -11.239  34.695 -11.647  1.00  0.00     0.158 HD
ENDBRANCH   7  11
TORSDOF 1
ENDMDL
MODEL 9
REMARK VINA RESULT:    -3.080     12.026     12.942
REMARK INTER + INTRA:          -3.170
REMARK INTER:                  -3.170
REMARK INTRA:                   0.000
REMARK UNBOUND:                 0.000
REMARK SMILES Nc1ncnc2nc[nH]c12
REMARK SMILES IDX 8 1 7 2 6 3 5 4 4 5 3 6 2 7 10 8 9 9 1 11
REMARK H PARENT 9 10 1 12 1 13
REMARK Flexibility Score: inf
ROOT
ATOM      1  C   UNL     1     -10.875  33.706 -11.603  1.00  0.00     0.199 A 
ATOM      2  N   UNL     1     -11.211  33.902 -10.298  1.00  0.00    -0.217 NA
ATOM      3  C   UNL     1     -10.062  33.621  -9.662  1.00  0.00     0.182 A 
ATOM      4  N   UNL     1      -9.847  33.662  -8.326  1.00  0.00    -0.215 NA
ATOM      5  C   UNL     1      -8.601  33.339  -7.862  1.00  0.00     0.226 A 
ATOM      6  N   UNL     1      -7.604  32.985  -8.735  1.00  0.00    -0.217 NA
ATOM      7  C   UNL     1      -7.819  32.944 -10.084  1.00  0.00     0.152 A 
ATOM      8  C   UNL     1      -9.092  33.274 -10.540  1.00  0.00     0.127 A 
ATOM      9  N   UNL     1      -9.586  33.322 -11.782  1.00  0.00    -0.340 N 
ATOM     10  H   UNL     1      -9.105  33.114 -12.686  1.00  0.00     0.168 HD
ENDROOT
BRANCH   7  11
ATOM     11  N   UNL     1      -6.765  32.573 -10.974  1.00  0.00    -0.382 N 
ATOM     12  H   UNL     1      -6.224  33.311 -11.478  1.00  0.00     0.158 HD
ATOM     13  H   UNL     1      -6.515  31.573 -11.135  1.00  0.00     0.158 HD
ENDBRANCH   7  11
TORSDOF 1
ENDMDL
