MODEL 1
REMARK VINA RESULT:    -5.173      0.000      0.000
REMARK INTER + INTRA:          -5.173
REMARK INTER:                  -5.173
REMARK INTRA:                   0.000
REMARK UNBOUND:                 0.000
REMARK SMILES CC(C)=C1CC[C@@H](C)CC1=O
REMARK SMILES IDX 8 1 7 2 6 3 5 4 4 5 2 6 1 7 3 8 10 9 11 10 9 11
REMARK H PARENT
REMARK Flexibility Score: inf
ROOT
ATOM      1  C   UNL     1      69.489  61.032  31.107  1.00  0.00     0.008 C 
ATOM      2  C   UNL     1      69.447  61.305  29.599  1.00  0.00    -0.006 C 
ATOM      3  C   UNL     1      69.669  60.007  28.808  1.00  0.00     0.008 C 
ATOM      4  C   UNL     1      69.528  60.242  27.298  1.00  0.00     0.039 C 
ATOM      5  C   UNL     1      70.401  61.387  26.802  1.00  0.00    -0.006 C 
ATOM      6  C   UNL     1      70.932  61.381  25.543  1.00  0.00    -0.070 C 
ATOM      7  C   UNL     1      70.659  60.245  24.584  1.00  0.00     0.039 C 
ATOM      8  C   UNL     1      71.844  62.483  25.060  1.00  0.00     0.039 C 
ATOM      9  C   UNL     1      70.540  62.553  27.724  1.00  0.00     0.159 C 
ATOM     10  O   UNL     1      70.680  63.725  27.282  1.00  0.00    -0.295 OA
ATOM     11  C   UNL     1      70.507  62.345  29.210  1.00  0.00     0.084 C 
ENDROOT
TORSDOF 0
ENDMDL
MODEL 2
REMARK VINA RESULT:    -4.815      1.582      2.443
REMARK INTER + INTRA:          -4.815
REMARK INTER:                  -4.815
REMARK INTRA:                   0.000
REMARK UNBOUND:                 0.000
REMARK SMILES CC(C)=C1CC[C@@H](C)CC1=O
REMARK SMILES IDX 8 1 7 2 6 3 5 4 4 5 2 6 1 7 3 8 10 9 11 10 9 11
REMARK H PARENT
REMARK Flexibility Score: inf
ROOT
ATOM      1  C   UNL     1      69.379  61.721  30.914  1.00  0.00     0.008 C 
ATOM      2  C   UNL     1      70.196  61.434  29.648  1.00  0.00    -0.006 C 
ATOM      3  C   UNL     1      70.249  62.677  28.746  1.00  0.00     0.008 C 
ATOM      4  C   UNL     1      71.148  62.441  27.525  1.00  0.00     0.039 C 
ATOM      5  C   UNL     1      70.774  61.178  26.760  1.00  0.00    -0.006 C 
ATOM      6  C   UNL     1      70.941  61.091  25.407  1.00  0.00    -0.070 C 
ATOM      7  C   UNL     1      71.522  62.240  24.615  1.00  0.00     0.039 C 
ATOM      8  C   UNL     1      70.521  59.865  24.631  1.00  0.00     0.039 C 
ATOM      9  C   UNL     1      70.328  60.018  27.588  1.00  0.00     0.159 C 
ATOM     10  O   UNL     1      70.561  58.831  27.232  1.00  0.00    -0.295 OA
ATOM     11  C   UNL     1      69.595  60.250  28.877  1.00  0.00     0.084 C 
ENDROOT
TORSDOF 0
ENDMDL
MODEL 3
REMARK VINA RESULT:    -4.657      1.577      4.648
REMARK INTER + INTRA:          -4.657
REMARK INTER:                  -4.657
REMARK INTRA:                   0.000
REMARK UNBOUND:                 0.000
REMARK SMILES CC(C)=C1CC[C@@H](C)CC1=O
REMARK SMILES IDX 8 1 7 2 6 3 5 4 4 5 2 6 1 7 3 8 10 9 11 10 9 11
REMARK H PARENT
REMARK Flexibility Score: inf
ROOT
ATOM      1  C   UNL     1      71.863  62.684  23.572  1.00  0.00     0.008 C 
ATOM      2  C   UNL     1      71.014  62.487  24.834  1.00  0.00    -0.006 C 
ATOM      3  C   UNL     1      71.763  62.998  26.074  1.00  0.00     0.008 C 
ATOM      4  C   UNL     1      70.889  62.903  27.332  1.00  0.00     0.039 C 
ATOM      5  C   UNL     1      70.304  61.511  27.533  1.00  0.00    -0.006 C 
ATOM      6  C   UNL     1      70.071  61.013  28.783  1.00  0.00    -0.070 C 
ATOM      7  C   UNL     1      70.366  61.830  30.020  1.00  0.00     0.039 C 
ATOM      8  C   UNL     1      69.544  59.613  28.996  1.00  0.00     0.039 C 
ATOM      9  C   UNL     1      69.900  60.784  26.293  1.00  0.00     0.159 C 
ATOM     10  O   UNL     1      68.927  59.983  26.290  1.00  0.00    -0.295 OA
ATOM     11  C   UNL     1      70.651  61.005  25.012  1.00  0.00     0.084 C 
ENDROOT
TORSDOF 0
ENDMDL
MODEL 4
REMARK VINA RESULT:    -4.547      2.240      3.539
REMARK INTER + INTRA:          -4.547
REMARK INTER:                  -4.547
REMARK INTRA:                   0.000
REMARK UNBOUND:                 0.000
REMARK SMILES CC(C)=C1CC[C@@H](C)CC1=O
REMARK SMILES IDX 8 1 7 2 6 3 5 4 4 5 2 6 1 7 3 8 10 9 11 10 9 11
REMARK H PARENT
REMARK Flexibility Score: inf
ROOT
ATOM      1  C   UNL     1      73.842  61.375  28.125  1.00  0.00     0.008 C 
ATOM      2  C   UNL     1      72.392  60.888  28.230  1.00  0.00    -0.006 C 
ATOM      3  C   UNL     1      71.711  60.914  26.853  1.00  0.00     0.008 C 
ATOM      4  C   UNL     1      70.293  60.332  26.921  1.00  0.00     0.039 C 
ATOM      5  C   UNL     1      69.445  60.985  28.005  1.00  0.00    -0.006 C 
ATOM      6  C   UNL     1      68.094  61.128  27.860  1.00  0.00    -0.070 C 
ATOM      7  C   UNL     1      67.382  60.626  26.625  1.00  0.00     0.039 C 
ATOM      8  C   UNL     1      67.252  61.823  28.903  1.00  0.00     0.039 C 
ATOM      9  C   UNL     1      70.159  61.347  29.265  1.00  0.00     0.159 C 
ATOM     10  O   UNL     1      69.574  61.314  30.382  1.00  0.00    -0.295 OA
ATOM     11  C   UNL     1      71.603  61.754  29.223  1.00  0.00     0.084 C 
ENDROOT
TORSDOF 0
ENDMDL
MODEL 5
REMARK VINA RESULT:    -4.323      1.999      3.133
REMARK INTER + INTRA:          -4.323
REMARK INTER:                  -4.323
REMARK INTRA:                   0.000
REMARK UNBOUND:                 0.000
REMARK SMILES CC(C)=C1CC[C@@H](C)CC1=O
REMARK SMILES IDX 8 1 7 2 6 3 5 4 4 5 2 6 1 7 3 8 10 9 11 10 9 11
REMARK H PARENT
REMARK Flexibility Score: inf
ROOT
ATOM      1  C   UNL     1      66.737  60.061  26.637  1.00  0.00     0.008 C 
ATOM      2  C   UNL     1      68.270  60.039  26.676  1.00  0.00    -0.006 C 
ATOM      3  C   UNL     1      68.773  60.060  28.127  1.00  0.00     0.008 C 
ATOM      4  C   UNL     1      70.302  59.934  28.188  1.00  0.00     0.039 C 
ATOM      5  C   UNL     1      71.008  60.957  27.309  1.00  0.00    -0.006 C 
ATOM      6  C   UNL     1      72.229  61.465  27.650  1.00  0.00    -0.070 C 
ATOM      7  C   UNL     1      72.939  61.018  28.907  1.00  0.00     0.039 C 
ATOM      8  C   UNL     1      72.913  62.522  26.814  1.00  0.00     0.039 C 
ATOM      9  C   UNL     1      70.342  61.276  26.011  1.00  0.00     0.159 C 
ATOM     10  O   UNL     1      71.012  61.579  24.987  1.00  0.00    -0.295 OA
ATOM     11  C   UNL     1      68.845  61.233  25.902  1.00  0.00     0.084 C 
ENDROOT
TORSDOF 0
ENDMDL
MODEL 6
REMARK VINA RESULT:    -4.247      2.181      3.650
REMARK INTER + INTRA:          -4.247
REMARK INTER:                  -4.247
REMARK INTRA:                   0.000
REMARK UNBOUND:                 0.000
REMARK SMILES CC(C)=C1CC[C@@H](C)CC1=O
REMARK SMILES IDX 8 1 7 2 6 3 5 4 4 5 2 6 1 7 3 8 10 9 11 10 9 11
REMARK H PARENT
REMARK Flexibility Score: inf
ROOT
ATOM      1  C   UNL     1      73.881  61.001  28.497  1.00  0.00     0.008 C 
ATOM      2  C   UNL     1      72.487  61.438  28.031  1.00  0.00    -0.006 C 
ATOM      3  C   UNL     1      71.549  61.623  29.233  1.00  0.00     0.008 C 
ATOM      4  C   UNL     1      70.179  62.159  28.795  1.00  0.00     0.039 C 
ATOM      5  C   UNL     1      69.553  61.325  27.686  1.00  0.00    -0.006 C 
ATOM      6  C   UNL     1      68.198  61.183  27.583  1.00  0.00    -0.070 C 
ATOM      7  C   UNL     1      67.263  61.864  28.556  1.00  0.00     0.039 C 
ATOM      8  C   UNL     1      67.568  60.312  26.521  1.00  0.00     0.039 C 
ATOM      9  C   UNL     1      70.496  60.777  26.666  1.00  0.00     0.159 C 
ATOM     10  O   UNL     1      70.143  60.619  25.466  1.00  0.00    -0.295 OA
ATOM     11  C   UNL     1      71.897  60.409  27.057  1.00  0.00     0.084 C 
ENDROOT
TORSDOF 0
ENDMDL
MODEL 7
REMARK VINA RESULT:    -4.219      2.047      3.443
REMARK INTER + INTRA:          -4.219
REMARK INTER:                  -4.219
REMARK INTRA:                   0.000
REMARK UNBOUND:                 0.000
REMARK SMILES CC(C)=C1CC[C@@H](C)CC1=O
REMARK SMILES IDX 8 1 7 2 6 3 5 4 4 5 2 6 1 7 3 8 10 9 11 10 9 11
REMARK H PARENT
REMARK Flexibility Score: inf
ROOT
ATOM      1  C   UNL     1      66.315  59.497  26.232  1.00  0.00     0.008 C 
ATOM      2  C   UNL     1      67.451  60.462  26.588  1.00  0.00    -0.006 C 
ATOM      3  C   UNL     1      68.728  60.103  25.813  1.00  0.00     0.008 C 
ATOM      4  C   UNL     1      69.846  61.120  26.079  1.00  0.00     0.039 C 
ATOM      5  C   UNL     1      70.103  61.331  27.565  1.00  0.00    -0.006 C 
ATOM      6  C   UNL     1      71.350  61.630  28.034  1.00  0.00    -0.070 C 
ATOM      7  C   UNL     1      72.525  61.783  27.095  1.00  0.00     0.039 C 
ATOM      8  C   UNL     1      71.628  61.787  29.511  1.00  0.00     0.039 C 
ATOM      9  C   UNL     1      68.900  61.305  28.448  1.00  0.00     0.159 C 
ATOM     10  O   UNL     1      68.837  62.010  29.491  1.00  0.00    -0.295 OA
ATOM     11  C   UNL     1      67.727  60.435  28.098  1.00  0.00     0.084 C 
ENDROOT
TORSDOF 0
ENDMDL
MODEL 8
REMARK VINA RESULT:    -4.093      1.690      2.659
REMARK INTER + INTRA:          -4.093
REMARK INTER:                  -4.093
REMARK INTRA:                   0.000
REMARK UNBOUND:                 0.000
REMARK SMILES CC(C)=C1CC[C@@H](C)CC1=O
REMARK SMILES IDX 8 1 7 2 6 3 5 4 4 5 2 6 1 7 3 8 10 9 11 10 9 11
REMARK H PARENT
REMARK Flexibility Score: inf
ROOT
ATOM      1  C   UNL     1      69.215  61.368  29.795  1.00  0.00     0.008 C 
ATOM      2  C   UNL     1      70.164  61.342  28.591  1.00  0.00    -0.006 C 
ATOM      3  C   UNL     1      70.370  62.760  28.035  1.00  0.00     0.008 C 
ATOM      4  C   UNL     1      71.398  62.767  26.895  1.00  0.00     0.039 C 
ATOM      5  C   UNL     1      71.071  61.753  25.807  1.00  0.00    -0.006 C 
ATOM      6  C   UNL     1      71.394  61.985  24.500  1.00  0.00    -0.070 C 
ATOM      7  C   UNL     1      72.107  63.250  24.082  1.00  0.00     0.039 C 
ATOM      8  C   UNL     1      71.025  61.012  23.405  1.00  0.00     0.039 C 
ATOM      9  C   UNL     1      70.489  60.459  26.271  1.00  0.00     0.159 C 
ATOM     10  O   UNL     1      70.718  59.381  25.660  1.00  0.00    -0.295 OA
ATOM     11  C   UNL     1      69.617  60.421  27.492  1.00  0.00     0.084 C 
ENDROOT
TORSDOF 0
ENDMDL
MODEL 9
REMARK VINA RESULT:    -4.075      1.382      4.179
REMARK INTER + INTRA:          -4.075
REMARK INTER:                  -4.075
REMARK INTRA:                   0.000
REMARK UNBOUND:                 0.000
REMARK SMILES CC(C)=C1CC[C@@H](C)CC1=O
REMARK SMILES IDX 8 1 7 2 6 3 5 4 4 5 2 6 1 7 3 8 10 9 11 10 9 11
REMARK H PARENT
REMARK Flexibility Score: inf
ROOT
ATOM      1  C   UNL     1      71.767  62.531  23.835  1.00  0.00     0.008 C 
ATOM      2  C   UNL     1      71.374  61.752  25.096  1.00  0.00    -0.006 C 
ATOM      3  C   UNL     1      69.848  61.590  25.178  1.00  0.00     0.008 C 
ATOM      4  C   UNL     1      69.443  60.725  26.379  1.00  0.00     0.039 C 
ATOM      5  C   UNL     1      70.050  61.218  27.686  1.00  0.00    -0.006 C 
ATOM      6  C   UNL     1      69.395  61.068  28.875  1.00  0.00    -0.070 C 
ATOM      7  C   UNL     1      68.047  60.388  28.945  1.00  0.00     0.039 C 
ATOM      8  C   UNL     1      69.962  61.603  30.169  1.00  0.00     0.039 C 
ATOM      9  C   UNL     1      71.438  61.763  27.599  1.00  0.00     0.159 C 
ATOM     10  O   UNL     1      72.250  61.642  28.556  1.00  0.00    -0.295 OA
ATOM     11  C   UNL     1      71.895  62.464  26.353  1.00  0.00     0.084 C 
ENDROOT
TORSDOF 0
ENDMDL
