MODEL 1
REMARK VINA RESULT:    -5.165      0.000      0.000
REMARK INTER + INTRA:          -8.286
REMARK INTER:                  -7.882
REMARK INTRA:                  -0.405
REMARK UNBOUND:                -0.405
REMARK SMILES CCCCCCCCCCC(=O)[O-]
REMARK SMILES IDX 7 1 8 2 9 3 10 4 11 5 12 6 13 7 6 8 5 9 4 10 3 11 2 12 1 13
REMARK H PARENT
REMARK Flexibility Score: inf
ROOT
ATOM      1  C   UNL     1      20.831  12.740  42.701  1.00  0.00     0.000 C 
ENDROOT
BRANCH   1   2
ATOM      2  C   UNL     1      20.473  14.052  43.424  1.00  0.00     0.000 C 
BRANCH   2   3
ATOM      3  C   UNL     1      19.356  14.837  42.722  1.00  0.00     0.006 C 
BRANCH   3   4
ATOM      4  C   UNL     1      19.646  16.340  42.741  1.00  0.00     0.053 C 
BRANCH   4   5
ATOM      5  C   UNL     1      20.951  16.631  42.069  1.00  0.00     0.041 C 
ATOM      6  O   UNL     1      21.863  17.234  42.692  1.00  0.00    -0.550 OA
ATOM      7  O   UNL     1      21.177  16.191  40.771  1.00  0.00    -0.550 OA
ENDBRANCH   4   5
ENDBRANCH   3   4
ENDBRANCH   2   3
ENDBRANCH   1   2
BRANCH   1   8
ATOM      8  C   UNL     1      20.609  11.459  43.527  1.00  0.00     0.000 C 
BRANCH   8   9
ATOM      9  C   UNL     1      21.003  10.178  42.768  1.00  0.00    -0.000 C 
BRANCH   9  10
ATOM     10  C   UNL     1      20.609  10.239  41.278  1.00  0.00    -0.000 C 
BRANCH  10  11
ATOM     11  C   UNL     1      19.825   9.007  40.794  1.00  0.00    -0.000 C 
BRANCH  11  12
ATOM     12  C   UNL     1      18.913   9.311  39.598  1.00  0.00    -0.003 C 
ATOM     13  C   UNL     1      17.725   8.355  39.554  1.00  0.00     0.004 C 
ENDBRANCH  11  12
ENDBRANCH  10  11
ENDBRANCH   9  10
ENDBRANCH   8   9
ENDBRANCH   1   8
TORSDOF 9
ENDMDL
MODEL 2
REMARK VINA RESULT:    -5.137     10.793     11.979
REMARK INTER + INTRA:          -8.245
REMARK INTER:                  -7.752
REMARK INTRA:                  -0.492
REMARK UNBOUND:                -0.405
REMARK SMILES CCCCCCCCCCC(=O)[O-]
REMARK SMILES IDX 7 1 8 2 9 3 10 4 11 5 12 6 13 7 6 8 5 9 4 10 3 11 2 12 1 13
REMARK H PARENT
REMARK Flexibility Score: inf
ROOT
ATOM      1  C   UNL     1       8.402  11.793  42.368  1.00  0.00     0.000 C 
ENDROOT
BRANCH   1   2
ATOM      2  C   UNL     1       8.725  12.824  41.271  1.00  0.00     0.000 C 
BRANCH   2   3
ATOM      3  C   UNL     1       9.465  14.058  41.808  1.00  0.00     0.006 C 
BRANCH   3   4
ATOM      4  C   UNL     1       8.645  15.331  41.583  1.00  0.00     0.053 C 
BRANCH   4   5
ATOM      5  C   UNL     1       7.800  15.629  42.781  1.00  0.00     0.041 C 
ATOM      6  O   UNL     1       8.190  16.461  43.640  1.00  0.00    -0.550 OA
ATOM      7  O   UNL     1       6.558  15.022  42.923  1.00  0.00    -0.550 OA
ENDBRANCH   4   5
ENDBRANCH   3   4
ENDBRANCH   2   3
ENDBRANCH   1   2
BRANCH   1   8
ATOM      8  C   UNL     1       8.311  10.333  41.884  1.00  0.00     0.000 C 
BRANCH   8   9
ATOM      9  C   UNL     1       8.848   9.323  42.914  1.00  0.00    -0.000 C 
BRANCH   9  10
ATOM     10  C   UNL     1       8.497   9.723  44.362  1.00  0.00    -0.000 C 
BRANCH  10  11
ATOM     11  C   UNL     1       9.358   9.020  45.425  1.00  0.00    -0.000 C 
BRANCH  11  12
ATOM     12  C   UNL     1      10.828   9.458  45.389  1.00  0.00    -0.003 C 
ATOM     13  C   UNL     1      11.764   8.254  45.456  1.00  0.00     0.004 C 
ENDBRANCH  11  12
ENDBRANCH  10  11
ENDBRANCH   9  10
ENDBRANCH   8   9
ENDBRANCH   1   8
TORSDOF 9
ENDMDL
MODEL 3
REMARK VINA RESULT:    -5.020     10.491     12.301
REMARK INTER + INTRA:          -8.065
REMARK INTER:                  -7.335
REMARK INTRA:                  -0.730
REMARK UNBOUND:                -0.405
REMARK SMILES CCCCCCCCCCC(=O)[O-]
REMARK SMILES IDX 7 1 8 2 9 3 10 4 11 5 12 6 13 7 6 8 5 9 4 10 3 11 2 12 1 13
REMARK H PARENT
REMARK Flexibility Score: inf
ROOT
ATOM      1  C   UNL     1       9.072   7.959  40.933  1.00  0.00     0.000 C 
ENDROOT
BRANCH   1   2
ATOM      2  C   UNL     1       7.760   8.206  40.165  1.00  0.00     0.000 C 
BRANCH   2   3
ATOM      3  C   UNL     1       7.832   9.422  39.231  1.00  0.00     0.006 C 
BRANCH   3   4
ATOM      4  C   UNL     1       9.286   9.796  38.928  1.00  0.00     0.053 C 
BRANCH   4   5
ATOM      5  C   UNL     1       9.518  11.251  39.185  1.00  0.00     0.041 C 
ATOM      6  O   UNL     1       9.117  11.776  40.256  1.00  0.00    -0.550 OA
ATOM      7  O   UNL     1      10.221  12.017  38.263  1.00  0.00    -0.550 OA
ENDBRANCH   4   5
ENDBRANCH   3   4
ENDBRANCH   2   3
ENDBRANCH   1   2
BRANCH   1   8
ATOM      8  C   UNL     1       8.980   8.144  42.459  1.00  0.00     0.000 C 
BRANCH   8   9
ATOM      9  C   UNL     1       8.540   9.561  42.868  1.00  0.00    -0.000 C 
BRANCH   9  10
ATOM     10  C   UNL     1       8.603   9.774  44.395  1.00  0.00    -0.000 C 
BRANCH  10  11
ATOM     11  C   UNL     1       9.491   8.754  45.127  1.00  0.00    -0.000 C 
BRANCH  11  12
ATOM     12  C   UNL     1      10.866   9.320  45.504  1.00  0.00    -0.003 C 
ATOM     13  C   UNL     1      11.975   8.312  45.216  1.00  0.00     0.004 C 
ENDBRANCH  11  12
ENDBRANCH  10  11
ENDBRANCH   9  10
ENDBRANCH   8   9
ENDBRANCH   1   8
TORSDOF 9
ENDMDL
MODEL 4
REMARK VINA RESULT:    -4.632      3.197      6.605
REMARK INTER + INTRA:          -7.473
REMARK INTER:                  -7.081
REMARK INTRA:                  -0.392
REMARK UNBOUND:                -0.405
REMARK SMILES CCCCCCCCCCC(=O)[O-]
REMARK SMILES IDX 7 1 8 2 9 3 10 4 11 5 12 6 13 7 6 8 5 9 4 10 3 11 2 12 1 13
REMARK H PARENT
REMARK Flexibility Score: inf
ROOT
ATOM      1  C   UNL     1      21.586  10.762  42.897  1.00  0.00     0.000 C 
ENDROOT
BRANCH   1   2
ATOM      2  C   UNL     1      20.688   9.568  42.525  1.00  0.00     0.000 C 
BRANCH   2   3
ATOM      3  C   UNL     1      20.641   9.302  41.013  1.00  0.00     0.006 C 
BRANCH   3   4
ATOM      4  C   UNL     1      19.602   8.229  40.676  1.00  0.00     0.053 C 
BRANCH   4   5
ATOM      5  C   UNL     1      18.547   8.786  39.773  1.00  0.00     0.041 C 
ATOM      6  O   UNL     1      17.606   8.054  39.372  1.00  0.00    -0.550 OA
ATOM      7  O   UNL     1      18.577  10.128  39.414  1.00  0.00    -0.550 OA
ENDBRANCH   4   5
ENDBRANCH   3   4
ENDBRANCH   2   3
ENDBRANCH   1   2
BRANCH   1   8
ATOM      8  C   UNL     1      20.939  12.148  42.708  1.00  0.00     0.000 C 
BRANCH   8   9
ATOM      9  C   UNL     1      20.290  12.689  43.995  1.00  0.00    -0.000 C 
BRANCH   9  10
ATOM     10  C   UNL     1      20.202  14.229  44.002  1.00  0.00    -0.000 C 
BRANCH  10  11
ATOM     11  C   UNL     1      19.485  14.814  42.773  1.00  0.00    -0.000 C 
BRANCH  11  12
ATOM     12  C   UNL     1      19.912  16.254  42.462  1.00  0.00    -0.003 C 
ATOM     13  C   UNL     1      20.969  16.289  41.361  1.00  0.00     0.004 C 
ENDBRANCH  11  12
ENDBRANCH  10  11
ENDBRANCH   9  10
ENDBRANCH   8   9
ENDBRANCH   1   8
TORSDOF 9
ENDMDL
MODEL 5
REMARK VINA RESULT:    -4.630      2.286      3.558
REMARK INTER + INTRA:          -7.471
REMARK INTER:                  -6.589
REMARK INTRA:                  -0.882
REMARK UNBOUND:                -0.405
REMARK SMILES CCCCCCCCCCC(=O)[O-]
REMARK SMILES IDX 7 1 8 2 9 3 10 4 11 5 12 6 13 7 6 8 5 9 4 10 3 11 2 12 1 13
REMARK H PARENT
REMARK Flexibility Score: inf
ROOT
ATOM      1  C   UNL     1      20.960  11.457  42.385  1.00  0.00     0.000 C 
ENDROOT
BRANCH   1   2
ATOM      2  C   UNL     1      21.291  12.924  42.717  1.00  0.00     0.000 C 
BRANCH   2   3
ATOM      3  C   UNL     1      20.040  13.802  42.863  1.00  0.00     0.006 C 
BRANCH   3   4
ATOM      4  C   UNL     1      20.412  15.213  43.330  1.00  0.00     0.053 C 
BRANCH   4   5
ATOM      5  C   UNL     1      20.014  16.226  42.303  1.00  0.00     0.041 C 
ATOM      6  O   UNL     1      20.777  16.481  41.337  1.00  0.00    -0.550 OA
ATOM      7  O   UNL     1      18.776  16.852  42.388  1.00  0.00    -0.550 OA
ENDBRANCH   4   5
ENDBRANCH   3   4
ENDBRANCH   2   3
ENDBRANCH   1   2
BRANCH   1   8
ATOM      8  C   UNL     1      22.084  10.449  42.688  1.00  0.00     0.000 C 
BRANCH   8   9
ATOM      9  C   UNL     1      22.010   9.876  44.115  1.00  0.00    -0.000 C 
BRANCH   9  10
ATOM     10  C   UNL     1      20.800   8.936  44.304  1.00  0.00    -0.000 C 
BRANCH  10  11
ATOM     11  C   UNL     1      19.851   9.369  45.434  1.00  0.00    -0.000 C 
BRANCH  11  12
ATOM     12  C   UNL     1      20.362  10.590  46.209  1.00  0.00    -0.003 C 
ATOM     13  C   UNL     1      19.458  11.800  45.989  1.00  0.00     0.004 C 
ENDBRANCH  11  12
ENDBRANCH  10  11
ENDBRANCH   9  10
ENDBRANCH   8   9
ENDBRANCH   1   8
TORSDOF 9
ENDMDL
MODEL 6
REMARK VINA RESULT:    -4.617     11.473     12.383
REMARK INTER + INTRA:          -7.451
REMARK INTER:                  -6.843
REMARK INTRA:                  -0.608
REMARK UNBOUND:                -0.405
REMARK SMILES CCCCCCCCCCC(=O)[O-]
REMARK SMILES IDX 7 1 8 2 9 3 10 4 11 5 12 6 13 7 6 8 5 9 4 10 3 11 2 12 1 13
REMARK H PARENT
REMARK Flexibility Score: inf
ROOT
ATOM      1  C   UNL     1       8.990  14.184  40.601  1.00  0.00     0.000 C 
ENDROOT
BRANCH   1   2
ATOM      2  C   UNL     1       9.756  14.913  41.720  1.00  0.00     0.000 C 
BRANCH   2   3
ATOM      3  C   UNL     1       9.247  16.341  41.962  1.00  0.00     0.006 C 
BRANCH   3   4
ATOM      4  C   UNL     1       8.295  16.389  43.161  1.00  0.00     0.053 C 
BRANCH   4   5
ATOM      5  C   UNL     1       6.875  16.485  42.699  1.00  0.00     0.041 C 
ATOM      6  O   UNL     1       6.388  17.600  42.379  1.00  0.00    -0.550 OA
ATOM      7  O   UNL     1       6.106  15.334  42.574  1.00  0.00    -0.550 OA
ENDBRANCH   4   5
ENDBRANCH   3   4
ENDBRANCH   2   3
ENDBRANCH   1   2
BRANCH   1   8
ATOM      8  C   UNL     1       8.618  12.721  40.910  1.00  0.00     0.000 C 
BRANCH   8   9
ATOM      9  C   UNL     1       8.672  12.391  42.412  1.00  0.00    -0.000 C 
BRANCH   9  10
ATOM     10  C   UNL     1       7.832  11.147  42.767  1.00  0.00    -0.000 C 
BRANCH  10  11
ATOM     11  C   UNL     1       8.673   9.890  43.046  1.00  0.00    -0.000 C 
BRANCH  11  12
ATOM     12  C   UNL     1       8.800   9.575  44.542  1.00  0.00    -0.003 C 
ATOM     13  C   UNL     1      10.102  10.128  45.113  1.00  0.00     0.004 C 
ENDBRANCH  11  12
ENDBRANCH  10  11
ENDBRANCH   9  10
ENDBRANCH   8   9
ENDBRANCH   1   8
TORSDOF 9
ENDMDL
MODEL 7
REMARK VINA RESULT:    -4.578     10.921     12.809
REMARK INTER + INTRA:          -7.391
REMARK INTER:                  -6.995
REMARK INTRA:                  -0.396
REMARK UNBOUND:                -0.405
REMARK SMILES CCCCCCCCCCC(=O)[O-]
REMARK SMILES IDX 7 1 8 2 9 3 10 4 11 5 12 6 13 7 6 8 5 9 4 10 3 11 2 12 1 13
REMARK H PARENT
REMARK Flexibility Score: inf
ROOT
ATOM      1  C   UNL     1       7.532  10.350  43.260  1.00  0.00     0.000 C 
ENDROOT
BRANCH   1   2
ATOM      2  C   UNL     1       8.700   9.388  42.974  1.00  0.00     0.000 C 
BRANCH   2   3
ATOM      3  C   UNL     1       8.804   8.250  43.999  1.00  0.00     0.006 C 
BRANCH   3   4
ATOM      4  C   UNL     1       9.120   8.795  45.395  1.00  0.00     0.053 C 
BRANCH   4   5
ATOM      5  C   UNL     1      10.541   9.259  45.466  1.00  0.00     0.041 C 
ATOM      6  O   UNL     1      10.813  10.484  45.373  1.00  0.00    -0.550 OA
ATOM      7  O   UNL     1      11.561   8.341  45.686  1.00  0.00    -0.550 OA
ENDBRANCH   4   5
ENDBRANCH   3   4
ENDBRANCH   2   3
ENDBRANCH   1   2
BRANCH   1   8
ATOM      8  C   UNL     1       7.420  11.546  42.296  1.00  0.00     0.000 C 
BRANCH   8   9
ATOM      9  C   UNL     1       8.729  12.346  42.175  1.00  0.00    -0.000 C 
BRANCH   9  10
ATOM     10  C   UNL     1       8.475  13.852  41.950  1.00  0.00    -0.000 C 
BRANCH  10  11
ATOM     11  C   UNL     1       9.761  14.678  41.775  1.00  0.00    -0.000 C 
BRANCH  11  12
ATOM     12  C   UNL     1       9.569  16.161  42.115  1.00  0.00    -0.003 C 
ATOM     13  C   UNL     1       8.346  16.368  43.003  1.00  0.00     0.004 C 
ENDBRANCH  11  12
ENDBRANCH  10  11
ENDBRANCH   9  10
ENDBRANCH   8   9
ENDBRANCH   1   8
TORSDOF 9
ENDMDL
MODEL 8
REMARK VINA RESULT:    -4.540      2.914      3.743
REMARK INTER + INTRA:          -7.333
REMARK INTER:                  -6.800
REMARK INTRA:                  -0.533
REMARK UNBOUND:                -0.405
REMARK SMILES CCCCCCCCCCC(=O)[O-]
REMARK SMILES IDX 7 1 8 2 9 3 10 4 11 5 12 6 13 7 6 8 5 9 4 10 3 11 2 12 1 13
REMARK H PARENT
REMARK Flexibility Score: inf
ROOT
ATOM      1  C   UNL     1      19.062  15.038  42.730  1.00  0.00     0.000 C 
ENDROOT
BRANCH   1   2
ATOM      2  C   UNL     1      19.474  16.505  42.512  1.00  0.00     0.000 C 
BRANCH   2   3
ATOM      3  C   UNL     1      20.995  16.711  42.539  1.00  0.00     0.006 C 
BRANCH   3   4
ATOM      4  C   UNL     1      21.616  16.397  41.175  1.00  0.00     0.053 C 
BRANCH   4   5
ATOM      5  C   UNL     1      23.079  16.116  41.318  1.00  0.00     0.041 C 
ATOM      6  O   UNL     1      23.893  17.062  41.477  1.00  0.00    -0.550 OA
ATOM      7  O   UNL     1      23.536  14.804  41.324  1.00  0.00    -0.550 OA
ENDBRANCH   4   5
ENDBRANCH   3   4
ENDBRANCH   2   3
ENDBRANCH   1   2
BRANCH   1   8
ATOM      8  C   UNL     1      20.054  14.198  43.558  1.00  0.00     0.000 C 
BRANCH   8   9
ATOM      9  C   UNL     1      20.509  12.918  42.834  1.00  0.00    -0.000 C 
BRANCH   9  10
ATOM     10  C   UNL     1      20.853  11.781  43.819  1.00  0.00    -0.000 C 
BRANCH  10  11
ATOM     11  C   UNL     1      20.047  11.831  45.128  1.00  0.00    -0.000 C 
BRANCH  11  12
ATOM     12  C   UNL     1      19.834  10.446  45.752  1.00  0.00    -0.003 C 
ATOM     13  C   UNL     1      20.862   9.444  45.232  1.00  0.00     0.004 C 
ENDBRANCH  11  12
ENDBRANCH  10  11
ENDBRANCH   9  10
ENDBRANCH   8   9
ENDBRANCH   1   8
TORSDOF 9
ENDMDL
MODEL 9
REMARK VINA RESULT:    -4.526      3.942      6.654
REMARK INTER + INTRA:          -7.312
REMARK INTER:                  -6.699
REMARK INTRA:                  -0.614
REMARK UNBOUND:                -0.405
REMARK SMILES CCCCCCCCCCC(=O)[O-]
REMARK SMILES IDX 7 1 8 2 9 3 10 4 11 5 12 6 13 7 6 8 5 9 4 10 3 11 2 12 1 13
REMARK H PARENT
REMARK Flexibility Score: inf
ROOT
ATOM      1  C   UNL     1      20.263  13.824  42.548  1.00  0.00     0.000 C 
ENDROOT
BRANCH   1   2
ATOM      2  C   UNL     1      20.528  12.917  43.764  1.00  0.00     0.000 C 
BRANCH   2   3
ATOM      3  C   UNL     1      20.827  11.463  43.373  1.00  0.00     0.006 C 
BRANCH   3   4
ATOM      4  C   UNL     1      21.417  10.687  44.554  1.00  0.00     0.053 C 
BRANCH   4   5
ATOM      5  C   UNL     1      20.326  10.146  45.423  1.00  0.00     0.041 C 
ATOM      6  O   UNL     1      19.858   8.998  45.210  1.00  0.00    -0.550 OA
ATOM      7  O   UNL     1      19.860  10.892  46.499  1.00  0.00    -0.550 OA
ENDBRANCH   4   5
ENDBRANCH   3   4
ENDBRANCH   2   3
ENDBRANCH   1   2
BRANCH   1   8
ATOM      8  C   UNL     1      19.165  14.885  42.752  1.00  0.00     0.000 C 
BRANCH   8   9
ATOM      9  C   UNL     1      19.684  16.326  42.592  1.00  0.00    -0.000 C 
BRANCH   9  10
ATOM     10  C   UNL     1      20.868  16.414  41.607  1.00  0.00    -0.000 C 
BRANCH  10  11
ATOM     11  C   UNL     1      22.063  17.220  42.145  1.00  0.00    -0.000 C 
BRANCH  11  12
ATOM     12  C   UNL     1      23.378  16.431  42.114  1.00  0.00    -0.003 C 
ATOM     13  C   UNL     1      23.332  15.323  41.066  1.00  0.00     0.004 C 
ENDBRANCH  11  12
ENDBRANCH  10  11
ENDBRANCH   9  10
ENDBRANCH   8   9
ENDBRANCH   1   8
TORSDOF 9
ENDMDL
