MODEL 1
REMARK VINA RESULT:    -4.927      0.000      0.000
REMARK INTER + INTRA:          -6.012
REMARK INTER:                  -5.935
REMARK INTRA:                  -0.077
REMARK UNBOUND:                -0.077
REMARK SMILES CC[C@H](C)[C@H]([NH3+])C(=O)[O-]
REMARK SMILES IDX 3 1 4 2 5 3 6 4 7 8 8 9 9 10 2 11 1 12
REMARK H PARENT 6 5 6 6 6 7
REMARK Flexibility Score: inf
ROOT
ATOM      1  C   UNL     1      23.430  20.286  15.700  1.00  0.00     0.050 C 
ATOM      2  C   UNL     1      23.052  21.738  16.055  1.00  0.00     0.014 C 
ENDROOT
BRANCH   1   3
ATOM      3  C   UNL     1      22.935  19.900  14.271  1.00  0.00     0.230 C 
BRANCH   3   4
ATOM      4  N   UNL     1      22.213  18.618  14.269  1.00  0.00    -0.350 N 
ATOM      5  H   UNL     1      22.794  17.878  14.726  1.00  0.00     0.345 HD
ATOM      6  H   UNL     1      21.306  18.704  14.783  1.00  0.00     0.345 HD
ATOM      7  H   UNL     1      22.031  18.305  13.289  1.00  0.00     0.345 HD
ENDBRANCH   3   4
BRANCH   3   8
ATOM      8  C   UNL     1      24.098  19.818  13.312  1.00  0.00     0.099 C 
ATOM      9  O   UNL     1      25.200  20.349  13.606  1.00  0.00    -0.544 OA
ATOM     10  O   UNL     1      23.961  19.149  12.102  1.00  0.00    -0.544 OA
ENDBRANCH   3   8
ENDBRANCH   1   3
BRANCH   1  11
ATOM     11  C   UNL     1      22.961  19.311  16.813  1.00  0.00     0.006 C 
ATOM     12  C   UNL     1      23.117  19.849  18.238  1.00  0.00     0.004 C 
ENDBRANCH   1  11
TORSDOF 4
ENDMDL
MODEL 2
REMARK VINA RESULT:    -4.905      0.545      1.203
REMARK INTER + INTRA:          -5.985
REMARK INTER:                  -5.919
REMARK INTRA:                  -0.066
REMARK UNBOUND:                -0.077
REMARK SMILES CC[C@H](C)[C@H]([NH3+])C(=O)[O-]
REMARK SMILES IDX 3 1 4 2 5 3 6 4 7 8 8 9 9 10 2 11 1 12
REMARK H PARENT 6 5 6 6 6 7
REMARK Flexibility Score: inf
ROOT
ATOM      1  C   UNL     1      23.546  20.758  15.616  1.00  0.00     0.050 C 
ATOM      2  C   UNL     1      23.092  22.207  15.881  1.00  0.00     0.014 C 
ENDROOT
BRANCH   1   3
ATOM      3  C   UNL     1      23.002  20.228  14.252  1.00  0.00     0.230 C 
BRANCH   3   4
ATOM      4  N   UNL     1      22.475  18.860  14.366  1.00  0.00    -0.350 N 
ATOM      5  H   UNL     1      23.181  18.173  14.014  1.00  0.00     0.345 HD
ATOM      6  H   UNL     1      22.248  18.633  15.362  1.00  0.00     0.345 HD
ATOM      7  H   UNL     1      21.619  18.750  13.778  1.00  0.00     0.345 HD
ENDBRANCH   3   4
BRANCH   3   8
ATOM      8  C   UNL     1      24.087  20.258  13.202  1.00  0.00     0.099 C 
ATOM      9  O   UNL     1      23.967  19.582  12.147  1.00  0.00    -0.544 OA
ATOM     10  O   UNL     1      25.221  21.038  13.391  1.00  0.00    -0.544 OA
ENDBRANCH   3   8
ENDBRANCH   1   3
BRANCH   1  11
ATOM     11  C   UNL     1      23.203  19.848  16.826  1.00  0.00     0.006 C 
ATOM     12  C   UNL     1      22.838  20.603  18.107  1.00  0.00     0.004 C 
ENDBRANCH   1  11
TORSDOF 4
ENDMDL
MODEL 3
REMARK VINA RESULT:    -4.625      1.681      2.222
REMARK INTER + INTRA:          -5.647
REMARK INTER:                  -5.567
REMARK INTRA:                  -0.081
REMARK UNBOUND:                -0.077
REMARK SMILES CC[C@H](C)[C@H]([NH3+])C(=O)[O-]
REMARK SMILES IDX 3 1 4 2 5 3 6 4 7 8 8 9 9 10 2 11 1 12
REMARK H PARENT 6 5 6 6 6 7
REMARK Flexibility Score: inf
ROOT
ATOM      1  C   UNL     1      22.996  20.315  15.144  1.00  0.00     0.050 C 
ATOM      2  C   UNL     1      23.100  19.170  16.171  1.00  0.00     0.014 C 
ENDROOT
BRANCH   1   3
ATOM      3  C   UNL     1      23.507  19.868  13.737  1.00  0.00     0.230 C 
BRANCH   3   4
ATOM      4  N   UNL     1      24.854  19.285  13.803  1.00  0.00    -0.350 N 
ATOM      5  H   UNL     1      24.791  18.245  13.904  1.00  0.00     0.345 HD
ATOM      6  H   UNL     1      25.398  19.510  12.937  1.00  0.00     0.345 HD
ATOM      7  H   UNL     1      25.366  19.644  14.640  1.00  0.00     0.345 HD
ENDBRANCH   3   4
BRANCH   3   8
ATOM      8  C   UNL     1      23.516  21.038  12.782  1.00  0.00     0.099 C 
ATOM      9  O   UNL     1      24.592  21.406  12.242  1.00  0.00    -0.544 OA
ATOM     10  O   UNL     1      22.336  21.710  12.487  1.00  0.00    -0.544 OA
ENDBRANCH   3   8
ENDBRANCH   1   3
BRANCH   1  11
ATOM     11  C   UNL     1      23.683  21.598  15.684  1.00  0.00     0.006 C 
ATOM     12  C   UNL     1      23.021  22.199  16.927  1.00  0.00     0.004 C 
ENDBRANCH   1  11
TORSDOF 4
ENDMDL
MODEL 4
REMARK VINA RESULT:    -4.532      3.812      4.525
REMARK INTER + INTRA:          -5.536
REMARK INTER:                  -5.442
REMARK INTRA:                  -0.094
REMARK UNBOUND:                -0.077
REMARK SMILES CC[C@H](C)[C@H]([NH3+])C(=O)[O-]
REMARK SMILES IDX 3 1 4 2 5 3 6 4 7 8 8 9 9 10 2 11 1 12
REMARK H PARENT 6 5 6 6 6 7
REMARK Flexibility Score: inf
ROOT
ATOM      1  C   UNL     1      23.705  22.455  12.567  1.00  0.00     0.050 C 
ATOM      2  C   UNL     1      23.996  20.942  12.613  1.00  0.00     0.014 C 
ENDROOT
BRANCH   1   3
ATOM      3  C   UNL     1      24.967  23.267  12.134  1.00  0.00     0.230 C 
BRANCH   3   4
ATOM      4  N   UNL     1      24.701  24.712  12.093  1.00  0.00    -0.350 N 
ATOM      5  H   UNL     1      24.302  25.029  13.007  1.00  0.00     0.345 HD
ATOM      6  H   UNL     1      25.583  25.245  11.905  1.00  0.00     0.345 HD
ATOM      7  H   UNL     1      23.996  24.932  11.356  1.00  0.00     0.345 HD
ENDBRANCH   3   4
BRANCH   3   8
ATOM      8  C   UNL     1      25.449  22.811  10.777  1.00  0.00     0.099 C 
ATOM      9  O   UNL     1      26.626  22.389  10.632  1.00  0.00    -0.544 OA
ATOM     10  O   UNL     1      24.594  22.847   9.683  1.00  0.00    -0.544 OA
ENDBRANCH   3   8
ENDBRANCH   1   3
BRANCH   1  11
ATOM     11  C   UNL     1      23.080  22.932  13.905  1.00  0.00     0.006 C 
ATOM     12  C   UNL     1      23.184  21.923  15.052  1.00  0.00     0.004 C 
ENDBRANCH   1  11
TORSDOF 4
ENDMDL
MODEL 5
REMARK VINA RESULT:    -4.472      2.306      2.628
REMARK INTER + INTRA:          -5.463
REMARK INTER:                  -5.475
REMARK INTRA:                   0.012
REMARK UNBOUND:                -0.077
REMARK SMILES CC[C@H](C)[C@H]([NH3+])C(=O)[O-]
REMARK SMILES IDX 3 1 4 2 5 3 6 4 7 8 8 9 9 10 2 11 1 12
REMARK H PARENT 6 5 6 6 6 7
REMARK Flexibility Score: inf
ROOT
ATOM      1  C   UNL     1      22.918  21.138  15.490  1.00  0.00     0.050 C 
ATOM      2  C   UNL     1      23.368  19.703  15.152  1.00  0.00     0.014 C 
ENDROOT
BRANCH   1   3
ATOM      3  C   UNL     1      23.436  22.164  14.433  1.00  0.00     0.230 C 
BRANCH   3   4
ATOM      4  N   UNL     1      22.803  23.481  14.591  1.00  0.00    -0.350 N 
ATOM      5  H   UNL     1      23.434  24.229  14.222  1.00  0.00     0.345 HD
ATOM      6  H   UNL     1      21.893  23.519  14.075  1.00  0.00     0.345 HD
ATOM      7  H   UNL     1      22.641  23.688  15.602  1.00  0.00     0.345 HD
ENDBRANCH   3   4
BRANCH   3   8
ATOM      8  C   UNL     1      23.184  21.655  13.034  1.00  0.00     0.099 C 
ATOM      9  O   UNL     1      22.041  21.762  12.518  1.00  0.00    -0.544 OA
ATOM     10  O   UNL     1      24.213  21.072  12.305  1.00  0.00    -0.544 OA
ENDBRANCH   3   8
ENDBRANCH   1   3
BRANCH   1  11
ATOM     11  C   UNL     1      23.293  21.498  16.952  1.00  0.00     0.006 C 
ATOM     12  C   UNL     1      23.000  20.397  17.975  1.00  0.00     0.004 C 
ENDBRANCH   1  11
TORSDOF 4
ENDMDL
MODEL 6
REMARK VINA RESULT:    -4.418      4.662      5.665
REMARK INTER + INTRA:          -5.399
REMARK INTER:                  -5.283
REMARK INTRA:                  -0.116
REMARK UNBOUND:                -0.077
REMARK SMILES CC[C@H](C)[C@H]([NH3+])C(=O)[O-]
REMARK SMILES IDX 3 1 4 2 5 3 6 4 7 8 8 9 9 10 2 11 1 12
REMARK H PARENT 6 5 6 6 6 7
REMARK Flexibility Score: inf
ROOT
ATOM      1  C   UNL     1      23.354  22.951  11.881  1.00  0.00     0.050 C 
ATOM      2  C   UNL     1      22.892  22.285  13.192  1.00  0.00     0.014 C 
ENDROOT
BRANCH   1   3
ATOM      3  C   UNL     1      24.888  23.239  11.896  1.00  0.00     0.230 C 
BRANCH   3   4
ATOM      4  N   UNL     1      25.175  24.670  12.076  1.00  0.00    -0.350 N 
ATOM      5  H   UNL     1      26.187  24.860  11.887  1.00  0.00     0.345 HD
ATOM      6  H   UNL     1      24.594  25.249  11.425  1.00  0.00     0.345 HD
ATOM      7  H   UNL     1      24.988  24.958  13.062  1.00  0.00     0.345 HD
ENDBRANCH   3   4
BRANCH   3   8
ATOM      8  C   UNL     1      25.529  22.760  10.615  1.00  0.00     0.099 C 
ATOM      9  O   UNL     1      26.732  22.391  10.608  1.00  0.00    -0.544 OA
ATOM     10  O   UNL     1      24.792  22.716   9.438  1.00  0.00    -0.544 OA
ENDBRANCH   3   8
ENDBRANCH   1   3
BRANCH   1  11
ATOM     11  C   UNL     1      22.483  24.196  11.565  1.00  0.00     0.006 C 
ATOM     12  C   UNL     1      21.559  24.037  10.354  1.00  0.00     0.004 C 
ENDBRANCH   1  11
TORSDOF 4
ENDMDL
MODEL 7
REMARK VINA RESULT:    -4.374      2.103      3.006
REMARK INTER + INTRA:          -5.345
REMARK INTER:                  -5.269
REMARK INTRA:                  -0.077
REMARK UNBOUND:                -0.077
REMARK SMILES CC[C@H](C)[C@H]([NH3+])C(=O)[O-]
REMARK SMILES IDX 3 1 4 2 5 3 6 4 7 8 8 9 9 10 2 11 1 12
REMARK H PARENT 6 5 6 6 6 7
REMARK Flexibility Score: inf
ROOT
ATOM      1  C   UNL     1      23.207  21.692  14.716  1.00  0.00     0.050 C 
ATOM      2  C   UNL     1      23.368  21.586  16.246  1.00  0.00     0.014 C 
ENDROOT
BRANCH   1   3
ATOM      3  C   UNL     1      24.249  20.799  13.970  1.00  0.00     0.230 C 
BRANCH   3   4
ATOM      4  N   UNL     1      24.991  21.558  12.952  1.00  0.00    -0.350 N 
ATOM      5  H   UNL     1      25.962  21.180  12.861  1.00  0.00     0.345 HD
ATOM      6  H   UNL     1      24.514  21.495  12.022  1.00  0.00     0.345 HD
ATOM      7  H   UNL     1      25.076  22.559  13.235  1.00  0.00     0.345 HD
ENDBRANCH   3   4
BRANCH   3   8
ATOM      8  C   UNL     1      23.565  19.624  13.314  1.00  0.00     0.099 C 
ATOM      9  O   UNL     1      22.570  19.082  13.864  1.00  0.00    -0.544 OA
ATOM     10  O   UNL     1      24.024  19.138  12.096  1.00  0.00    -0.544 OA
ENDBRANCH   3   8
ENDBRANCH   1   3
BRANCH   1  11
ATOM     11  C   UNL     1      23.216  23.177  14.267  1.00  0.00     0.006 C 
ATOM     12  C   UNL     1      22.853  24.177  15.368  1.00  0.00     0.004 C 
ENDBRANCH   1  11
TORSDOF 4
ENDMDL
MODEL 8
REMARK VINA RESULT:    -4.272      2.860      3.502
REMARK INTER + INTRA:          -5.223
REMARK INTER:                  -5.143
REMARK INTRA:                  -0.080
REMARK UNBOUND:                -0.077
REMARK SMILES CC[C@H](C)[C@H]([NH3+])C(=O)[O-]
REMARK SMILES IDX 3 1 4 2 5 3 6 4 7 8 8 9 9 10 2 11 1 12
REMARK H PARENT 6 5 6 6 6 7
REMARK Flexibility Score: inf
ROOT
ATOM      1  C   UNL     1      23.791  22.588  13.431  1.00  0.00     0.050 C 
ATOM      2  C   UNL     1      22.968  23.873  13.214  1.00  0.00     0.014 C 
ENDROOT
BRANCH   1   3
ATOM      3  C   UNL     1      23.956  21.784  12.103  1.00  0.00     0.230 C 
BRANCH   3   4
ATOM      4  N   UNL     1      24.046  20.336  12.346  1.00  0.00    -0.350 N 
ATOM      5  H   UNL     1      23.088  19.932  12.461  1.00  0.00     0.345 HD
ATOM      6  H   UNL     1      24.524  19.856  11.549  1.00  0.00     0.345 HD
ATOM      7  H   UNL     1      24.567  20.147  13.231  1.00  0.00     0.345 HD
ENDBRANCH   3   4
BRANCH   3   8
ATOM      8  C   UNL     1      25.187  22.241  11.358  1.00  0.00     0.099 C 
ATOM      9  O   UNL     1      25.172  22.326  10.102  1.00  0.00    -0.544 OA
ATOM     10  O   UNL     1      26.341  22.577  12.054  1.00  0.00    -0.544 OA
ENDBRANCH   3   8
ENDBRANCH   1   3
BRANCH   1  11
ATOM     11  C   UNL     1      23.203  21.755  14.602  1.00  0.00     0.006 C 
ATOM     12  C   UNL     1      23.077  22.515  15.925  1.00  0.00     0.004 C 
ENDBRANCH   1  11
TORSDOF 4
ENDMDL
MODEL 9
REMARK VINA RESULT:    -4.263      3.691      4.481
REMARK INTER + INTRA:          -5.211
REMARK INTER:                  -5.217
REMARK INTRA:                   0.006
REMARK UNBOUND:                -0.077
REMARK SMILES CC[C@H](C)[C@H]([NH3+])C(=O)[O-]
REMARK SMILES IDX 3 1 4 2 5 3 6 4 7 8 8 9 9 10 2 11 1 12
REMARK H PARENT 6 5 6 6 6 7
REMARK Flexibility Score: inf
ROOT
ATOM      1  C   UNL     1      24.011  22.208  12.939  1.00  0.00     0.050 C 
ATOM      2  C   UNL     1      22.565  22.179  12.404  1.00  0.00     0.014 C 
ENDROOT
BRANCH   1   3
ATOM      3  C   UNL     1      25.051  22.082  11.781  1.00  0.00     0.230 C 
BRANCH   3   4
ATOM      4  N   UNL     1      26.427  22.288  12.257  1.00  0.00    -0.350 N 
ATOM      5  H   UNL     1      27.075  21.619  11.779  1.00  0.00     0.345 HD
ATOM      6  H   UNL     1      26.744  23.266  12.061  1.00  0.00     0.345 HD
ATOM      7  H   UNL     1      26.490  22.099  13.281  1.00  0.00     0.345 HD
ENDBRANCH   3   4
BRANCH   3   8
ATOM      8  C   UNL     1      24.748  23.076  10.687  1.00  0.00     0.099 C 
ATOM      9  O   UNL     1      24.760  22.715   9.481  1.00  0.00    -0.544 OA
ATOM     10  O   UNL     1      24.447  24.395  11.004  1.00  0.00    -0.544 OA
ENDBRANCH   3   8
ENDBRANCH   1   3
BRANCH   1  11
ATOM     11  C   UNL     1      24.197  21.161  14.069  1.00  0.00     0.006 C 
ATOM     12  C   UNL     1      24.103  19.704  13.608  1.00  0.00     0.004 C 
ENDBRANCH   1  11
TORSDOF 4
ENDMDL
