MODEL 1
REMARK VINA RESULT:    -6.043      0.000      0.000
REMARK INTER + INTRA:          -6.397
REMARK INTER:                  -6.397
REMARK INTRA:                   0.000
REMARK UNBOUND:                 0.000
REMARK SMILES O=c1ccc2cc(O)c(O)cc2o1
REMARK SMILES IDX 4 1 3 2 2 3 1 4 13 5 12 6 11 7 9 8 7 9 6 10 5 11 8 12 10 14
REMARK H PARENT 8 13 10 15
REMARK Flexibility Score: inf
ROOT
ATOM      1  C   UNL     1       4.314   9.941 -22.408  1.00  0.00     0.019 A 
ATOM      2  C   UNL     1       4.732   8.703 -21.922  1.00  0.00     0.094 A 
ATOM      3  C   UNL     1       6.017   8.248 -22.240  1.00  0.00     0.336 A 
ATOM      4  O   UNL     1       6.413   7.133 -21.811  1.00  0.00    -0.246 OA
ATOM      5  O   UNL     1       6.825   8.989 -22.994  1.00  0.00    -0.423 OA
ATOM      6  C   UNL     1       6.466  10.176 -23.477  1.00  0.00     0.142 A 
ATOM      7  C   UNL     1       7.359  10.910 -24.264  1.00  0.00     0.098 A 
ATOM      8  C   UNL     1       6.988  12.159 -24.776  1.00  0.00     0.161 A 
ATOM      9  C   UNL     1       5.711  12.681 -24.498  1.00  0.00     0.158 A 
ATOM     10  C   UNL     1       4.813  11.948 -23.709  1.00  0.00     0.062 A 
ATOM     11  C   UNL     1       5.185  10.698 -23.197  1.00  0.00     0.022 A 
ENDROOT
BRANCH   9  12
ATOM     12  O   UNL     1       5.341  13.925 -25.008  1.00  0.00    -0.504 OA
ATOM     13  H   UNL     1       4.800  14.009 -25.861  1.00  0.00     0.293 HD
ENDBRANCH   9  12
BRANCH   8  14
ATOM     14  O   UNL     1       7.901  12.866 -25.558  1.00  0.00    -0.504 OA
ATOM     15  H   UNL     1       8.630  12.402 -26.085  1.00  0.00     0.293 HD
ENDBRANCH   8  14
TORSDOF 2
ENDMDL
MODEL 2
REMARK VINA RESULT:    -6.029     11.178     14.428
REMARK INTER + INTRA:          -6.382
REMARK INTER:                  -6.382
REMARK INTRA:                   0.000
REMARK UNBOUND:                 0.000
REMARK SMILES O=c1ccc2cc(O)c(O)cc2o1
REMARK SMILES IDX 4 1 3 2 2 3 1 4 13 5 12 6 11 7 9 8 7 9 6 10 5 11 8 12 10 14
REMARK H PARENT 8 13 10 15
REMARK Flexibility Score: inf
ROOT
ATOM      1  C   UNL     1       5.788  -1.922 -22.215  1.00  0.00     0.019 A 
ATOM      2  C   UNL     1       5.798  -0.628 -21.697  1.00  0.00     0.094 A 
ATOM      3  C   UNL     1       4.677  -0.169 -20.995  1.00  0.00     0.336 A 
ATOM      4  O   UNL     1       4.667   0.996 -20.519  1.00  0.00    -0.246 OA
ATOM      5  O   UNL     1       3.620  -0.960 -20.826  1.00  0.00    -0.423 OA
ATOM      6  C   UNL     1       3.569  -2.201 -21.303  1.00  0.00     0.142 A 
ATOM      7  C   UNL     1       2.431  -2.986 -21.094  1.00  0.00     0.098 A 
ATOM      8  C   UNL     1       2.370  -4.292 -21.594  1.00  0.00     0.161 A 
ATOM      9  C   UNL     1       3.460  -4.821 -22.310  1.00  0.00     0.158 A 
ATOM     10  C   UNL     1       4.604  -4.037 -22.522  1.00  0.00     0.062 A 
ATOM     11  C   UNL     1       4.663  -2.730 -22.021  1.00  0.00     0.022 A 
ENDROOT
BRANCH   9  12
ATOM     12  O   UNL     1       3.400  -6.122 -22.808  1.00  0.00    -0.504 OA
ATOM     13  H   UNL     1       2.607  -6.447 -23.349  1.00  0.00     0.293 HD
ENDBRANCH   9  12
BRANCH   8  14
ATOM     14  O   UNL     1       1.220  -5.048 -21.369  1.00  0.00    -0.504 OA
ATOM     15  H   UNL     1       0.297  -4.633 -21.357  1.00  0.00     0.293 HD
ENDBRANCH   8  14
TORSDOF 2
ENDMDL
MODEL 3
REMARK VINA RESULT:    -5.895      1.069      2.237
REMARK INTER + INTRA:          -6.240
REMARK INTER:                  -6.240
REMARK INTRA:                   0.000
REMARK UNBOUND:                 0.000
REMARK SMILES O=c1ccc2cc(O)c(O)cc2o1
REMARK SMILES IDX 4 1 3 2 2 3 1 4 13 5 12 6 11 7 9 8 7 9 6 10 5 11 8 12 10 14
REMARK H PARENT 8 13 10 15
REMARK Flexibility Score: inf
ROOT
ATOM      1  C   UNL     1       7.366   9.026 -22.595  1.00  0.00     0.019 A 
ATOM      2  C   UNL     1       6.551   8.171 -21.855  1.00  0.00     0.094 A 
ATOM      3  C   UNL     1       5.193   8.482 -21.712  1.00  0.00     0.336 A 
ATOM      4  O   UNL     1       4.441   7.723 -21.048  1.00  0.00    -0.246 OA
ATOM      5  O   UNL     1       4.692   9.578 -22.277  1.00  0.00    -0.423 OA
ATOM      6  C   UNL     1       5.434  10.420 -22.991  1.00  0.00     0.142 A 
ATOM      7  C   UNL     1       4.852  11.556 -23.561  1.00  0.00     0.098 A 
ATOM      8  C   UNL     1       5.627  12.447 -24.314  1.00  0.00     0.161 A 
ATOM      9  C   UNL     1       6.999  12.199 -24.500  1.00  0.00     0.158 A 
ATOM     10  C   UNL     1       7.588  11.060 -23.931  1.00  0.00     0.062 A 
ATOM     11  C   UNL     1       6.811  10.170 -23.177  1.00  0.00     0.022 A 
ENDROOT
BRANCH   9  12
ATOM     12  O   UNL     1       7.772  13.086 -25.250  1.00  0.00    -0.504 OA
ATOM     13  H   UNL     1       7.623  14.087 -25.205  1.00  0.00     0.293 HD
ENDBRANCH   9  12
BRANCH   8  14
ATOM     14  O   UNL     1       5.016  13.571 -24.869  1.00  0.00    -0.504 OA
ATOM     15  H   UNL     1       4.898  14.431 -24.347  1.00  0.00     0.293 HD
ENDBRANCH   8  14
TORSDOF 2
ENDMDL
MODEL 4
REMARK VINA RESULT:    -5.870      9.893     12.877
REMARK INTER + INTRA:          -6.214
REMARK INTER:                  -6.214
REMARK INTRA:                   0.000
REMARK UNBOUND:                 0.000
REMARK SMILES O=c1ccc2cc(O)c(O)cc2o1
REMARK SMILES IDX 4 1 3 2 2 3 1 4 13 5 12 6 11 7 9 8 7 9 6 10 5 11 8 12 10 14
REMARK H PARENT 8 13 10 15
REMARK Flexibility Score: inf
ROOT
ATOM      1  C   UNL     1       5.296  -1.093 -21.253  1.00  0.00     0.019 A 
ATOM      2  C   UNL     1       4.972   0.257 -21.130  1.00  0.00     0.094 A 
ATOM      3  C   UNL     1       4.592   0.971 -22.272  1.00  0.00     0.336 A 
ATOM      4  O   UNL     1       4.295   2.191 -22.182  1.00  0.00    -0.246 OA
ATOM      5  O   UNL     1       4.541   0.366 -23.457  1.00  0.00    -0.423 OA
ATOM      6  C   UNL     1       4.842  -0.920 -23.619  1.00  0.00     0.142 A 
ATOM      7  C   UNL     1       4.770  -1.501 -24.888  1.00  0.00     0.098 A 
ATOM      8  C   UNL     1       5.086  -2.854 -25.066  1.00  0.00     0.161 A 
ATOM      9  C   UNL     1       5.476  -3.635 -23.962  1.00  0.00     0.158 A 
ATOM     10  C   UNL     1       5.549  -3.055 -22.687  1.00  0.00     0.062 A 
ATOM     11  C   UNL     1       5.233  -1.701 -22.510  1.00  0.00     0.022 A 
ENDROOT
BRANCH   9  12
ATOM     12  O   UNL     1       5.791  -4.982 -24.139  1.00  0.00    -0.504 OA
ATOM     13  H   UNL     1       6.116  -5.338 -25.030  1.00  0.00     0.293 HD
ENDBRANCH   9  12
BRANCH   8  14
ATOM     14  O   UNL     1       5.005  -3.403 -26.345  1.00  0.00    -0.504 OA
ATOM     15  H   UNL     1       5.638  -4.129 -26.659  1.00  0.00     0.293 HD
ENDBRANCH   8  14
TORSDOF 2
ENDMDL
MODEL 5
REMARK VINA RESULT:    -5.737     10.524     13.728
REMARK INTER + INTRA:          -6.073
REMARK INTER:                  -6.073
REMARK INTRA:                   0.000
REMARK UNBOUND:                 0.000
REMARK SMILES O=c1ccc2cc(O)c(O)cc2o1
REMARK SMILES IDX 4 1 3 2 2 3 1 4 13 5 12 6 11 7 9 8 7 9 6 10 5 11 8 12 10 14
REMARK H PARENT 8 13 10 15
REMARK Flexibility Score: inf
ROOT
ATOM      1  C   UNL     1       4.055  -0.434 -20.640  1.00  0.00     0.019 A 
ATOM      2  C   UNL     1       4.798   0.552 -21.287  1.00  0.00     0.094 A 
ATOM      3  C   UNL     1       5.394   0.254 -22.518  1.00  0.00     0.336 A 
ATOM      4  O   UNL     1       6.069   1.132 -23.118  1.00  0.00    -0.246 OA
ATOM      5  O   UNL     1       5.251  -0.953 -23.060  1.00  0.00    -0.423 OA
ATOM      6  C   UNL     1       4.551  -1.922 -22.477  1.00  0.00     0.142 A 
ATOM      7  C   UNL     1       4.435  -3.171 -23.094  1.00  0.00     0.098 A 
ATOM      8  C   UNL     1       3.700  -4.196 -22.486  1.00  0.00     0.161 A 
ATOM      9  C   UNL     1       3.072  -3.970 -21.247  1.00  0.00     0.158 A 
ATOM     10  C   UNL     1       3.185  -2.718 -20.624  1.00  0.00     0.062 A 
ATOM     11  C   UNL     1       3.922  -1.693 -21.234  1.00  0.00     0.022 A 
ENDROOT
BRANCH   9  12
ATOM     12  O   UNL     1       2.340  -4.990 -20.641  1.00  0.00    -0.504 OA
ATOM     13  H   UNL     1       1.973  -5.769 -21.175  1.00  0.00     0.293 HD
ENDBRANCH   9  12
BRANCH   8  14
ATOM     14  O   UNL     1       3.604  -5.431 -23.128  1.00  0.00    -0.504 OA
ATOM     15  H   UNL     1       3.460  -5.508 -24.127  1.00  0.00     0.293 HD
ENDBRANCH   8  14
TORSDOF 2
ENDMDL
MODEL 6
REMARK VINA RESULT:    -5.627      1.860      4.884
REMARK INTER + INTRA:          -5.956
REMARK INTER:                  -5.956
REMARK INTRA:                   0.000
REMARK UNBOUND:                 0.000
REMARK SMILES O=c1ccc2cc(O)c(O)cc2o1
REMARK SMILES IDX 4 1 3 2 2 3 1 4 13 5 12 6 11 7 9 8 7 9 6 10 5 11 8 12 10 14
REMARK H PARENT 8 13 10 15
REMARK Flexibility Score: inf
ROOT
ATOM      1  C   UNL     1       7.319  10.903 -24.328  1.00  0.00     0.019 A 
ATOM      2  C   UNL     1       7.658  11.943 -25.192  1.00  0.00     0.094 A 
ATOM      3  C   UNL     1       6.717  12.946 -25.449  1.00  0.00     0.336 A 
ATOM      4  O   UNL     1       7.005  13.894 -26.226  1.00  0.00    -0.246 OA
ATOM      5  O   UNL     1       5.516  12.905 -24.876  1.00  0.00    -0.423 OA
ATOM      6  C   UNL     1       5.152  11.931 -24.046  1.00  0.00     0.142 A 
ATOM      7  C   UNL     1       3.877  11.941 -23.473  1.00  0.00     0.098 A 
ATOM      8  C   UNL     1       3.486  10.919 -22.598  1.00  0.00     0.161 A 
ATOM      9  C   UNL     1       4.380   9.876 -22.293  1.00  0.00     0.158 A 
ATOM     10  C   UNL     1       5.661   9.863 -22.865  1.00  0.00     0.062 A 
ATOM     11  C   UNL     1       6.050  10.886 -23.740  1.00  0.00     0.022 A 
ENDROOT
BRANCH   9  12
ATOM     12  O   UNL     1       3.991   8.858 -21.422  1.00  0.00    -0.504 OA
ATOM     13  H   UNL     1       4.672   8.315 -20.904  1.00  0.00     0.293 HD
ENDBRANCH   9  12
BRANCH   8  14
ATOM     14  O   UNL     1       2.207  10.957 -22.044  1.00  0.00    -0.504 OA
ATOM     15  H   UNL     1       1.805  11.811 -21.678  1.00  0.00     0.293 HD
ENDBRANCH   8  14
TORSDOF 2
ENDMDL
MODEL 7
REMARK VINA RESULT:    -5.579     10.999     14.143
REMARK INTER + INTRA:          -5.905
REMARK INTER:                  -5.905
REMARK INTRA:                   0.000
REMARK UNBOUND:                 0.000
REMARK SMILES O=c1ccc2cc(O)c(O)cc2o1
REMARK SMILES IDX 4 1 3 2 2 3 1 4 13 5 12 6 11 7 9 8 7 9 6 10 5 11 8 12 10 14
REMARK H PARENT 8 13 10 15
REMARK Flexibility Score: inf
ROOT
ATOM      1  C   UNL     1       4.207  -0.536 -22.137  1.00  0.00     0.019 A 
ATOM      2  C   UNL     1       4.771   0.121 -23.229  1.00  0.00     0.094 A 
ATOM      3  C   UNL     1       5.024  -0.603 -24.400  1.00  0.00     0.336 A 
ATOM      4  O   UNL     1       5.532  -0.028 -25.398  1.00  0.00    -0.246 OA
ATOM      5  O   UNL     1       4.727  -1.899 -24.466  1.00  0.00    -0.423 OA
ATOM      6  C   UNL     1       4.188  -2.564 -23.448  1.00  0.00     0.142 A 
ATOM      7  C   UNL     1       3.898  -3.926 -23.576  1.00  0.00     0.098 A 
ATOM      8  C   UNL     1       3.331  -4.632 -22.508  1.00  0.00     0.161 A 
ATOM      9  C   UNL     1       3.049  -3.970 -21.298  1.00  0.00     0.158 A 
ATOM     10  C   UNL     1       3.338  -2.603 -21.166  1.00  0.00     0.062 A 
ATOM     11  C   UNL     1       3.906  -1.898 -22.236  1.00  0.00     0.022 A 
ENDROOT
BRANCH   9  12
ATOM     12  O   UNL     1       2.485  -4.672 -20.235  1.00  0.00    -0.504 OA
ATOM     13  H   UNL     1       1.661  -4.333 -19.752  1.00  0.00     0.293 HD
ENDBRANCH   9  12
BRANCH   8  14
ATOM     14  O   UNL     1       3.054  -5.990 -22.667  1.00  0.00    -0.504 OA
ATOM     15  H   UNL     1       2.517  -6.512 -21.986  1.00  0.00     0.293 HD
ENDBRANCH   8  14
TORSDOF 2
ENDMDL
MODEL 8
REMARK VINA RESULT:    -5.408      2.277      2.678
REMARK INTER + INTRA:          -5.724
REMARK INTER:                  -5.724
REMARK INTRA:                   0.000
REMARK UNBOUND:                 0.000
REMARK SMILES O=c1ccc2cc(O)c(O)cc2o1
REMARK SMILES IDX 4 1 3 2 2 3 1 4 13 5 12 6 11 7 9 8 7 9 6 10 5 11 8 12 10 14
REMARK H PARENT 8 13 10 15
REMARK Flexibility Score: inf
ROOT
ATOM      1  C   UNL     1       4.818   9.260 -26.319  1.00  0.00     0.019 A 
ATOM      2  C   UNL     1       4.198   8.102 -25.852  1.00  0.00     0.094 A 
ATOM      3  C   UNL     1       4.463   7.669 -24.548  1.00  0.00     0.336 A 
ATOM      4  O   UNL     1       3.912   6.626 -24.108  1.00  0.00    -0.246 OA
ATOM      5  O   UNL     1       5.295   8.354 -23.768  1.00  0.00    -0.423 OA
ATOM      6  C   UNL     1       5.908   9.464 -24.173  1.00  0.00     0.142 A 
ATOM      7  C   UNL     1       6.771  10.142 -23.308  1.00  0.00     0.098 A 
ATOM      8  C   UNL     1       7.419  11.310 -23.728  1.00  0.00     0.161 A 
ATOM      9  C   UNL     1       7.201  11.806 -25.027  1.00  0.00     0.158 A 
ATOM     10  C   UNL     1       6.335  11.129 -25.898  1.00  0.00     0.062 A 
ATOM     11  C   UNL     1       5.687   9.960 -25.476  1.00  0.00     0.022 A 
ENDROOT
BRANCH   9  12
ATOM     12  O   UNL     1       7.847  12.969 -25.446  1.00  0.00    -0.504 OA
ATOM     13  H   UNL     1       8.856  13.054 -25.422  1.00  0.00     0.293 HD
ENDBRANCH   9  12
BRANCH   8  14
ATOM     14  O   UNL     1       8.276  11.963 -22.842  1.00  0.00    -0.504 OA
ATOM     15  H   UNL     1       8.486  12.950 -22.926  1.00  0.00     0.293 HD
ENDBRANCH   8  14
TORSDOF 2
ENDMDL
MODEL 9
REMARK VINA RESULT:    -5.313     11.543     13.769
REMARK INTER + INTRA:          -5.624
REMARK INTER:                  -5.624
REMARK INTRA:                   0.000
REMARK UNBOUND:                 0.000
REMARK SMILES O=c1ccc2cc(O)c(O)cc2o1
REMARK SMILES IDX 4 1 3 2 2 3 1 4 13 5 12 6 11 7 9 8 7 9 6 10 5 11 8 12 10 14
REMARK H PARENT 8 13 10 15
REMARK Flexibility Score: inf
ROOT
ATOM      1  C   UNL     1       3.135  -2.921 -21.119  1.00  0.00     0.019 A 
ATOM      2  C   UNL     1       2.498  -4.160 -21.060  1.00  0.00     0.094 A 
ATOM      3  C   UNL     1       2.547  -5.002 -22.176  1.00  0.00     0.336 A 
ATOM      4  O   UNL     1       1.979  -6.125 -22.142  1.00  0.00    -0.246 OA
ATOM      5  O   UNL     1       3.193  -4.623 -23.276  1.00  0.00    -0.423 OA
ATOM      6  C   UNL     1       3.814  -3.451 -23.375  1.00  0.00     0.142 A 
ATOM      7  C   UNL     1       4.477  -3.107 -24.557  1.00  0.00     0.098 A 
ATOM      8  C   UNL     1       5.132  -1.875 -24.668  1.00  0.00     0.161 A 
ATOM      9  C   UNL     1       5.126  -0.976 -23.586  1.00  0.00     0.158 A 
ATOM     10  C   UNL     1       4.462  -1.317 -22.398  1.00  0.00     0.062 A 
ATOM     11  C   UNL     1       3.806  -2.550 -22.288  1.00  0.00     0.022 A 
ENDROOT
BRANCH   9  12
ATOM     12  O   UNL     1       5.778   0.252 -23.696  1.00  0.00    -0.504 OA
ATOM     13  H   UNL     1       5.318   1.121 -23.450  1.00  0.00     0.293 HD
ENDBRANCH   9  12
BRANCH   8  14
ATOM     14  O   UNL     1       5.784  -1.561 -25.861  1.00  0.00    -0.504 OA
ATOM     15  H   UNL     1       5.629  -2.087 -26.712  1.00  0.00     0.293 HD
ENDBRANCH   8  14
TORSDOF 2
ENDMDL
