MODEL 1
REMARK VINA RESULT:    -6.137      0.000      0.000
REMARK INTER + INTRA:          -8.538
REMARK INTER:                  -7.752
REMARK INTRA:                  -0.786
REMARK UNBOUND:                -0.786
REMARK SMILES Oc1ccc(CCc2cc(O)cc(O)c2)cc1
REMARK SMILES IDX 6 1 5 2 4 3 3 4 2 5 16 6 17 7 1 8 7 10 8 11 15 12 9 13 13 14
REMARK SMILES IDX 10 15 12 16 14 17 11 19
REMARK H PARENT 1 9 14 18 11 20
REMARK Flexibility Score: inf
ROOT
ATOM      1  C   UNL     1      29.976 -10.824  42.851  1.00  0.00     0.040 C 
ENDROOT
BRANCH   1   2
ATOM      2  C   UNL     1      29.409 -11.608  44.008  1.00  0.00    -0.047 A 
ATOM      3  C   UNL     1      28.098 -12.107  43.947  1.00  0.00     0.007 A 
ATOM      4  C   UNL     1      27.587 -12.874  45.000  1.00  0.00     0.046 A 
ATOM      5  C   UNL     1      28.385 -13.156  46.117  1.00  0.00     0.115 A 
ATOM      6  C   UNL     1      30.206 -11.898  45.127  1.00  0.00     0.007 A 
ATOM      7  C   UNL     1      29.693 -12.667  46.176  1.00  0.00     0.046 A 
BRANCH   5   8
ATOM      8  O   UNL     1      27.888 -13.921  47.170  1.00  0.00    -0.508 OA
ATOM      9  H   UNL     1      26.909 -14.176  47.222  1.00  0.00     0.293 HD
ENDBRANCH   5   8
ENDBRANCH   1   2
BRANCH   1  10
ATOM     10  C   UNL     1      31.356 -11.347  42.431  1.00  0.00     0.040 C 
BRANCH  10  11
ATOM     11  C   UNL     1      31.262 -12.690  41.753  1.00  0.00    -0.040 A 
ATOM     12  C   UNL     1      31.940 -13.800  42.283  1.00  0.00     0.050 A 
ATOM     13  C   UNL     1      30.547 -12.826  40.552  1.00  0.00     0.050 A 
ATOM     14  C   UNL     1      31.893 -15.036  41.627  1.00  0.00     0.119 A 
ATOM     15  C   UNL     1      30.498 -14.064  39.895  1.00  0.00     0.119 A 
ATOM     16  C   UNL     1      31.169 -15.165  40.435  1.00  0.00     0.092 A 
BRANCH  14  17
ATOM     17  O   UNL     1      32.573 -16.125  42.167  1.00  0.00    -0.508 OA
ATOM     18  H   UNL     1      32.078 -16.935  42.523  1.00  0.00     0.293 HD
ENDBRANCH  14  17
BRANCH  15  19
ATOM     19  O   UNL     1      29.788 -14.207  38.705  1.00  0.00    -0.508 OA
ATOM     20  H   UNL     1      30.102 -14.833  37.973  1.00  0.00     0.293 HD
ENDBRANCH  15  19
ENDBRANCH  10  11
ENDBRANCH   1  10
TORSDOF 6
ENDMDL
MODEL 2
REMARK VINA RESULT:    -6.099      1.467      2.728
REMARK INTER + INTRA:          -8.490
REMARK INTER:                  -7.733
REMARK INTRA:                  -0.757
REMARK UNBOUND:                -0.786
REMARK SMILES Oc1ccc(CCc2cc(O)cc(O)c2)cc1
REMARK SMILES IDX 6 1 5 2 4 3 3 4 2 5 16 6 17 7 1 8 7 10 8 11 15 12 9 13 13 14
REMARK SMILES IDX 10 15 12 16 14 17 11 19
REMARK H PARENT 1 9 14 18 11 20
REMARK Flexibility Score: inf
ROOT
ATOM      1  C   UNL     1      29.905 -11.134  42.531  1.00  0.00     0.040 C 
ENDROOT
BRANCH   1   2
ATOM      2  C   UNL     1      29.651 -11.267  44.012  1.00  0.00    -0.047 A 
ATOM      3  C   UNL     1      30.364 -10.474  44.924  1.00  0.00     0.007 A 
ATOM      4  C   UNL     1      30.097 -10.562  46.295  1.00  0.00     0.046 A 
ATOM      5  C   UNL     1      29.107 -11.438  46.763  1.00  0.00     0.115 A 
ATOM      6  C   UNL     1      28.656 -12.138  44.486  1.00  0.00     0.007 A 
ATOM      7  C   UNL     1      28.389 -12.223  45.856  1.00  0.00     0.046 A 
BRANCH   5   8
ATOM      8  O   UNL     1      28.830 -11.533  48.125  1.00  0.00    -0.508 OA
ATOM      9  H   UNL     1      29.196 -12.292  48.687  1.00  0.00     0.293 HD
ENDBRANCH   5   8
ENDBRANCH   1   2
BRANCH   1  10
ATOM     10  C   UNL     1      31.391 -11.308  42.190  1.00  0.00     0.040 C 
BRANCH  10  11
ATOM     11  C   UNL     1      31.792 -12.762  42.167  1.00  0.00    -0.040 A 
ATOM     12  C   UNL     1      31.052 -13.689  41.415  1.00  0.00     0.050 A 
ATOM     13  C   UNL     1      32.871 -13.209  42.947  1.00  0.00     0.050 A 
ATOM     14  C   UNL     1      31.393 -15.046  41.432  1.00  0.00     0.119 A 
ATOM     15  C   UNL     1      33.215 -14.568  42.964  1.00  0.00     0.119 A 
ATOM     16  C   UNL     1      32.477 -15.482  42.206  1.00  0.00     0.092 A 
BRANCH  14  17
ATOM     17  O   UNL     1      30.647 -15.951  40.682  1.00  0.00    -0.508 OA
ATOM     18  H   UNL     1      30.736 -16.951  40.816  1.00  0.00     0.293 HD
ENDBRANCH  14  17
BRANCH  15  19
ATOM     19  O   UNL     1      34.286 -15.018  43.733  1.00  0.00    -0.508 OA
ATOM     20  H   UNL     1      35.004 -14.385  44.063  1.00  0.00     0.293 HD
ENDBRANCH  15  19
ENDBRANCH  10  11
ENDBRANCH   1  10
TORSDOF 6
ENDMDL
MODEL 3
REMARK VINA RESULT:    -6.080      1.530      1.792
REMARK INTER + INTRA:          -8.466
REMARK INTER:                  -7.736
REMARK INTRA:                  -0.730
REMARK UNBOUND:                -0.786
REMARK SMILES Oc1ccc(CCc2cc(O)cc(O)c2)cc1
REMARK SMILES IDX 6 1 5 2 4 3 3 4 2 5 16 6 17 7 1 8 7 10 8 11 15 12 9 13 13 14
REMARK SMILES IDX 10 15 12 16 14 17 11 19
REMARK H PARENT 1 9 14 18 11 20
REMARK Flexibility Score: inf
ROOT
ATOM      1  C   UNL     1      29.761 -11.212  42.462  1.00  0.00     0.040 C 
ENDROOT
BRANCH   1   2
ATOM      2  C   UNL     1      29.543 -11.185  43.954  1.00  0.00    -0.047 A 
ATOM      3  C   UNL     1      28.461 -11.876  44.522  1.00  0.00     0.007 A 
ATOM      4  C   UNL     1      28.285 -11.891  45.910  1.00  0.00     0.046 A 
ATOM      5  C   UNL     1      29.194 -11.224  46.741  1.00  0.00     0.115 A 
ATOM      6  C   UNL     1      30.455 -10.523  44.792  1.00  0.00     0.007 A 
ATOM      7  C   UNL     1      30.278 -10.542  46.179  1.00  0.00     0.046 A 
BRANCH   5   8
ATOM      8  O   UNL     1      29.031 -11.234  48.125  1.00  0.00    -0.508 OA
ATOM      9  H   UNL     1      28.114 -11.319  48.549  1.00  0.00     0.293 HD
ENDBRANCH   5   8
ENDBRANCH   1   2
BRANCH   1  10
ATOM     10  C   UNL     1      31.243 -11.392  42.106  1.00  0.00     0.040 C 
BRANCH  10  11
ATOM     11  C   UNL     1      31.653 -12.843  42.139  1.00  0.00    -0.040 A 
ATOM     12  C   UNL     1      32.773 -13.246  42.883  1.00  0.00     0.050 A 
ATOM     13  C   UNL     1      30.954 -13.792  41.375  1.00  0.00     0.050 A 
ATOM     14  C   UNL     1      33.184 -14.583  42.875  1.00  0.00     0.119 A 
ATOM     15  C   UNL     1      31.363 -15.133  41.367  1.00  0.00     0.119 A 
ATOM     16  C   UNL     1      32.475 -15.526  42.118  1.00  0.00     0.092 A 
BRANCH  14  17
ATOM     17  O   UNL     1      34.298 -14.964  43.618  1.00  0.00    -0.508 OA
ATOM     18  H   UNL     1      35.025 -14.301  43.862  1.00  0.00     0.293 HD
ENDBRANCH  14  17
BRANCH  15  19
ATOM     19  O   UNL     1      30.671 -16.080  40.614  1.00  0.00    -0.508 OA
ATOM     20  H   UNL     1      29.670 -16.018  40.476  1.00  0.00     0.293 HD
ENDBRANCH  15  19
ENDBRANCH  10  11
ENDBRANCH   1  10
TORSDOF 6
ENDMDL
MODEL 4
REMARK VINA RESULT:    -6.073      0.081      2.036
REMARK INTER + INTRA:          -8.456
REMARK INTER:                  -7.679
REMARK INTRA:                  -0.778
REMARK UNBOUND:                -0.786
REMARK SMILES Oc1ccc(CCc2cc(O)cc(O)c2)cc1
REMARK SMILES IDX 6 1 5 2 4 3 3 4 2 5 16 6 17 7 1 8 7 10 8 11 15 12 9 13 13 14
REMARK SMILES IDX 10 15 12 16 14 17 11 19
REMARK H PARENT 1 9 14 18 11 20
REMARK Flexibility Score: inf
ROOT
ATOM      1  C   UNL     1      29.925 -10.834  42.872  1.00  0.00     0.040 C 
ENDROOT
BRANCH   1   2
ATOM      2  C   UNL     1      29.366 -11.605  44.042  1.00  0.00    -0.047 A 
ATOM      3  C   UNL     1      28.050 -12.094  44.001  1.00  0.00     0.007 A 
ATOM      4  C   UNL     1      27.546 -12.849  45.066  1.00  0.00     0.046 A 
ATOM      5  C   UNL     1      28.355 -13.129  46.175  1.00  0.00     0.115 A 
ATOM      6  C   UNL     1      30.175 -11.893  45.153  1.00  0.00     0.007 A 
ATOM      7  C   UNL     1      29.669 -12.650  46.214  1.00  0.00     0.046 A 
BRANCH   5   8
ATOM      8  O   UNL     1      27.866 -13.882  47.240  1.00  0.00    -0.508 OA
ATOM      9  H   UNL     1      27.862 -14.896  47.212  1.00  0.00     0.293 HD
ENDBRANCH   5   8
ENDBRANCH   1   2
BRANCH   1  10
ATOM     10  C   UNL     1      31.335 -11.310  42.499  1.00  0.00     0.040 C 
BRANCH  10  11
ATOM     11  C   UNL     1      31.307 -12.637  41.783  1.00  0.00    -0.040 A 
ATOM     12  C   UNL     1      30.609 -12.774  40.572  1.00  0.00     0.050 A 
ATOM     13  C   UNL     1      31.925 -13.761  42.355  1.00  0.00     0.050 A 
ATOM     14  C   UNL     1      30.540 -14.016  39.933  1.00  0.00     0.119 A 
ATOM     15  C   UNL     1      31.858 -15.006  41.715  1.00  0.00     0.119 A 
ATOM     16  C   UNL     1      31.168 -15.131  40.505  1.00  0.00     0.092 A 
BRANCH  14  17
ATOM     17  O   UNL     1      29.843 -14.134  38.733  1.00  0.00    -0.508 OA
ATOM     18  H   UNL     1      29.601 -15.039  38.347  1.00  0.00     0.293 HD
ENDBRANCH  14  17
BRANCH  15  19
ATOM     19  O   UNL     1      32.472 -16.125  42.275  1.00  0.00    -0.508 OA
ATOM     20  H   UNL     1      32.171 -16.504  43.164  1.00  0.00     0.293 HD
ENDBRANCH  15  19
ENDBRANCH  10  11
ENDBRANCH   1  10
TORSDOF 6
ENDMDL
MODEL 5
REMARK VINA RESULT:    -6.062      1.809      5.638
REMARK INTER + INTRA:          -8.443
REMARK INTER:                  -7.997
REMARK INTRA:                  -0.446
REMARK UNBOUND:                -0.786
REMARK SMILES Oc1ccc(CCc2cc(O)cc(O)c2)cc1
REMARK SMILES IDX 6 1 5 2 4 3 3 4 2 5 16 6 17 7 1 8 7 10 8 11 15 12 9 13 13 14
REMARK SMILES IDX 10 15 12 16 14 17 11 19
REMARK H PARENT 1 9 14 18 11 20
REMARK Flexibility Score: inf
ROOT
ATOM      1  C   UNL     1      32.648 -13.181  42.818  1.00  0.00     0.040 C 
ENDROOT
BRANCH   1   2
ATOM      2  C   UNL     1      31.863 -13.903  41.751  1.00  0.00    -0.047 A 
ATOM      3  C   UNL     1      31.020 -13.186  40.888  1.00  0.00     0.007 A 
ATOM      4  C   UNL     1      30.328 -13.848  39.868  1.00  0.00     0.046 A 
ATOM      5  C   UNL     1      30.480 -15.230  39.697  1.00  0.00     0.115 A 
ATOM      6  C   UNL     1      32.017 -15.288  41.572  1.00  0.00     0.007 A 
ATOM      7  C   UNL     1      31.326 -15.946  40.550  1.00  0.00     0.046 A 
BRANCH   5   8
ATOM      8  O   UNL     1      29.799 -15.900  38.683  1.00  0.00    -0.508 OA
ATOM      9  H   UNL     1      30.032 -15.759  37.707  1.00  0.00     0.293 HD
ENDBRANCH   5   8
ENDBRANCH   1   2
BRANCH   1  10
ATOM     10  C   UNL     1      32.291 -11.689  42.875  1.00  0.00     0.040 C 
BRANCH  10  11
ATOM     11  C   UNL     1      31.139 -11.425  43.812  1.00  0.00    -0.040 A 
ATOM     12  C   UNL     1      30.651 -12.449  44.641  1.00  0.00     0.050 A 
ATOM     13  C   UNL     1      30.506 -10.172  43.817  1.00  0.00     0.050 A 
ATOM     14  C   UNL     1      29.551 -12.219  45.474  1.00  0.00     0.119 A 
ATOM     15  C   UNL     1      29.405  -9.940  44.653  1.00  0.00     0.119 A 
ATOM     16  C   UNL     1      28.932 -10.962  45.480  1.00  0.00     0.092 A 
BRANCH  14  17
ATOM     17  O   UNL     1      29.080 -13.246  46.288  1.00  0.00    -0.508 OA
ATOM     18  H   UNL     1      28.113 -13.285  46.587  1.00  0.00     0.293 HD
ENDBRANCH  14  17
BRANCH  15  19
ATOM     19  O   UNL     1      28.774  -8.697  44.666  1.00  0.00    -0.508 OA
ATOM     20  H   UNL     1      27.991  -8.495  44.057  1.00  0.00     0.293 HD
ENDBRANCH  15  19
ENDBRANCH  10  11
ENDBRANCH   1  10
TORSDOF 6
ENDMDL
MODEL 6
REMARK VINA RESULT:    -6.061      4.177      5.956
REMARK INTER + INTRA:          -8.441
REMARK INTER:                  -7.699
REMARK INTRA:                  -0.742
REMARK UNBOUND:                -0.786
REMARK SMILES Oc1ccc(CCc2cc(O)cc(O)c2)cc1
REMARK SMILES IDX 6 1 5 2 4 3 3 4 2 5 16 6 17 7 1 8 7 10 8 11 15 12 9 13 13 14
REMARK SMILES IDX 10 15 12 16 14 17 11 19
REMARK H PARENT 1 9 14 18 11 20
REMARK Flexibility Score: inf
ROOT
ATOM      1  C   UNL     1      26.942  -8.764  44.675  1.00  0.00     0.040 C 
ENDROOT
BRANCH   1   2
ATOM      2  C   UNL     1      27.117  -7.980  43.398  1.00  0.00    -0.047 A 
ATOM      3  C   UNL     1      26.156  -8.067  42.379  1.00  0.00     0.007 A 
ATOM      4  C   UNL     1      26.293  -7.304  41.214  1.00  0.00     0.046 A 
ATOM      5  C   UNL     1      27.387  -6.443  41.062  1.00  0.00     0.115 A 
ATOM      6  C   UNL     1      28.209  -7.111  43.244  1.00  0.00     0.007 A 
ATOM      7  C   UNL     1      28.342  -6.348  42.079  1.00  0.00     0.046 A 
BRANCH   5   8
ATOM      8  O   UNL     1      27.533  -5.676  39.908  1.00  0.00    -0.508 OA
ATOM      9  H   UNL     1      27.818  -6.093  39.029  1.00  0.00     0.293 HD
ENDBRANCH   5   8
ENDBRANCH   1   2
BRANCH   1  10
ATOM     10  C   UNL     1      27.287 -10.248  44.483  1.00  0.00     0.040 C 
BRANCH  10  11
ATOM     11  C   UNL     1      28.729 -10.440  44.087  1.00  0.00    -0.040 A 
ATOM     12  C   UNL     1      29.760 -10.085  44.971  1.00  0.00     0.050 A 
ATOM     13  C   UNL     1      29.051 -10.916  42.805  1.00  0.00     0.050 A 
ATOM     14  C   UNL     1      31.099 -10.217  44.586  1.00  0.00     0.119 A 
ATOM     15  C   UNL     1      30.392 -11.051  42.418  1.00  0.00     0.119 A 
ATOM     16  C   UNL     1      31.412 -10.702  43.309  1.00  0.00     0.092 A 
BRANCH  14  17
ATOM     17  O   UNL     1      32.108  -9.859  45.476  1.00  0.00    -0.508 OA
ATOM     18  H   UNL     1      32.244 -10.353  46.350  1.00  0.00     0.293 HD
ENDBRANCH  14  17
BRANCH  15  19
ATOM     19  O   UNL     1      30.719 -11.526  41.150  1.00  0.00    -0.508 OA
ATOM     20  H   UNL     1      30.047 -12.029  40.583  1.00  0.00     0.293 HD
ENDBRANCH  15  19
ENDBRANCH  10  11
ENDBRANCH   1  10
TORSDOF 6
ENDMDL
MODEL 7
REMARK VINA RESULT:    -6.012      4.205      6.321
REMARK INTER + INTRA:          -8.380
REMARK INTER:                  -7.597
REMARK INTRA:                  -0.783
REMARK UNBOUND:                -0.786
REMARK SMILES Oc1ccc(CCc2cc(O)cc(O)c2)cc1
REMARK SMILES IDX 6 1 5 2 4 3 3 4 2 5 16 6 17 7 1 8 7 10 8 11 15 12 9 13 13 14
REMARK SMILES IDX 10 15 12 16 14 17 11 19
REMARK H PARENT 1 9 14 18 11 20
REMARK Flexibility Score: inf
ROOT
ATOM      1  C   UNL     1      26.856  -8.729  44.725  1.00  0.00     0.040 C 
ENDROOT
BRANCH   1   2
ATOM      2  C   UNL     1      27.010  -7.907  43.470  1.00  0.00    -0.047 A 
ATOM      3  C   UNL     1      28.041  -6.959  43.369  1.00  0.00     0.007 A 
ATOM      4  C   UNL     1      28.214  -6.229  42.188  1.00  0.00     0.046 A 
ATOM      5  C   UNL     1      27.363  -6.447  41.095  1.00  0.00     0.115 A 
ATOM      6  C   UNL     1      26.165  -8.126  42.370  1.00  0.00     0.007 A 
ATOM      7  C   UNL     1      26.341  -7.396  41.190  1.00  0.00     0.046 A 
BRANCH   5   8
ATOM      8  O   UNL     1      27.527  -5.728  39.913  1.00  0.00    -0.508 OA
ATOM      9  H   UNL     1      27.495  -4.715  39.901  1.00  0.00     0.293 HD
ENDBRANCH   5   8
ENDBRANCH   1   2
BRANCH   1  10
ATOM     10  C   UNL     1      27.255 -10.194  44.498  1.00  0.00     0.040 C 
BRANCH  10  11
ATOM     11  C   UNL     1      28.701 -10.323  44.092  1.00  0.00    -0.040 A 
ATOM     12  C   UNL     1      29.040 -10.827  42.826  1.00  0.00     0.050 A 
ATOM     13  C   UNL     1      29.722  -9.999  45.002  1.00  0.00     0.050 A 
ATOM     14  C   UNL     1      30.381 -10.993  42.466  1.00  0.00     0.119 A 
ATOM     15  C   UNL     1      31.067 -10.164  44.642  1.00  0.00     0.119 A 
ATOM     16  C   UNL     1      31.393 -10.659  43.376  1.00  0.00     0.092 A 
BRANCH  14  17
ATOM     17  O   UNL     1      30.697 -11.496  41.206  1.00  0.00    -0.508 OA
ATOM     18  H   UNL     1      30.097 -12.162  40.735  1.00  0.00     0.293 HD
ENDBRANCH  14  17
BRANCH  15  19
ATOM     19  O   UNL     1      32.084  -9.841  45.538  1.00  0.00    -0.508 OA
ATOM     20  H   UNL     1      33.018 -10.219  45.436  1.00  0.00     0.293 HD
ENDBRANCH  15  19
ENDBRANCH  10  11
ENDBRANCH   1  10
TORSDOF 6
ENDMDL
MODEL 8
REMARK VINA RESULT:    -5.938      2.084      6.161
REMARK INTER + INTRA:          -8.286
REMARK INTER:                  -7.734
REMARK INTRA:                  -0.552
REMARK UNBOUND:                -0.786
REMARK SMILES Oc1ccc(CCc2cc(O)cc(O)c2)cc1
REMARK SMILES IDX 6 1 5 2 4 3 3 4 2 5 16 6 17 7 1 8 7 10 8 11 15 12 9 13 13 14
REMARK SMILES IDX 10 15 12 16 14 17 11 19
REMARK H PARENT 1 9 14 18 11 20
REMARK Flexibility Score: inf
ROOT
ATOM      1  C   UNL     1      32.424 -13.006  43.044  1.00  0.00     0.040 C 
ENDROOT
BRANCH   1   2
ATOM      2  C   UNL     1      31.815 -13.763  41.891  1.00  0.00    -0.047 A 
ATOM      3  C   UNL     1      32.047 -15.140  41.748  1.00  0.00     0.007 A 
ATOM      4  C   UNL     1      31.445 -15.853  40.706  1.00  0.00     0.046 A 
ATOM      5  C   UNL     1      30.598 -15.196  39.802  1.00  0.00     0.115 A 
ATOM      6  C   UNL     1      30.961 -13.111  40.985  1.00  0.00     0.007 A 
ATOM      7  C   UNL     1      30.359 -13.826  39.946  1.00  0.00     0.046 A 
BRANCH   5   8
ATOM      8  O   UNL     1      29.990 -15.895  38.762  1.00  0.00    -0.508 OA
ATOM      9  H   UNL     1      29.820 -16.892  38.824  1.00  0.00     0.293 HD
ENDBRANCH   5   8
ENDBRANCH   1   2
BRANCH   1  10
ATOM     10  C   UNL     1      32.215 -11.492  42.905  1.00  0.00     0.040 C 
BRANCH  10  11
ATOM     11  C   UNL     1      31.131 -10.990  43.824  1.00  0.00    -0.040 A 
ATOM     12  C   UNL     1      30.151 -10.104  43.347  1.00  0.00     0.050 A 
ATOM     13  C   UNL     1      31.130 -11.355  45.180  1.00  0.00     0.050 A 
ATOM     14  C   UNL     1      29.173  -9.599  44.211  1.00  0.00     0.119 A 
ATOM     15  C   UNL     1      30.149 -10.852  46.047  1.00  0.00     0.119 A 
ATOM     16  C   UNL     1      29.173  -9.977  45.560  1.00  0.00     0.092 A 
BRANCH  14  17
ATOM     17  O   UNL     1      28.210  -8.721  43.720  1.00  0.00    -0.508 OA
ATOM     18  H   UNL     1      27.288  -9.042  43.451  1.00  0.00     0.293 HD
ENDBRANCH  14  17
BRANCH  15  19
ATOM     19  O   UNL     1      30.140 -11.213  47.393  1.00  0.00    -0.508 OA
ATOM     20  H   UNL     1      29.448 -10.845  48.034  1.00  0.00     0.293 HD
ENDBRANCH  15  19
ENDBRANCH  10  11
ENDBRANCH   1  10
TORSDOF 6
ENDMDL
MODEL 9
REMARK VINA RESULT:    -5.834      1.426      5.559
REMARK INTER + INTRA:          -8.155
REMARK INTER:                  -7.390
REMARK INTRA:                  -0.765
REMARK UNBOUND:                -0.786
REMARK SMILES Oc1ccc(CCc2cc(O)cc(O)c2)cc1
REMARK SMILES IDX 6 1 5 2 4 3 3 4 2 5 16 6 17 7 1 8 7 10 8 11 15 12 9 13 13 14
REMARK SMILES IDX 10 15 12 16 14 17 11 19
REMARK H PARENT 1 9 14 18 11 20
REMARK Flexibility Score: inf
ROOT
ATOM      1  C   UNL     1      31.107 -10.704  42.908  1.00  0.00     0.040 C 
ENDROOT
BRANCH   1   2
ATOM      2  C   UNL     1      31.485 -12.104  42.495  1.00  0.00    -0.047 A 
ATOM      3  C   UNL     1      32.544 -12.767  43.135  1.00  0.00     0.007 A 
ATOM      4  C   UNL     1      32.865 -14.083  42.786  1.00  0.00     0.046 A 
ATOM      5  C   UNL     1      32.126 -14.750  41.800  1.00  0.00     0.115 A 
ATOM      6  C   UNL     1      30.743 -12.779  41.511  1.00  0.00     0.007 A 
ATOM      7  C   UNL     1      31.066 -14.095  41.166  1.00  0.00     0.046 A 
BRANCH   5   8
ATOM      8  O   UNL     1      32.435 -16.061  41.445  1.00  0.00    -0.508 OA
ATOM      9  H   UNL     1      31.826 -16.603  40.843  1.00  0.00     0.293 HD
ENDBRANCH   5   8
ENDBRANCH   1   2
BRANCH   1  10
ATOM     10  C   UNL     1      29.596 -10.568  43.141  1.00  0.00     0.040 C 
BRANCH  10  11
ATOM     11  C   UNL     1      29.162 -11.256  44.411  1.00  0.00    -0.040 A 
ATOM     12  C   UNL     1      29.587 -10.773  45.659  1.00  0.00     0.050 A 
ATOM     13  C   UNL     1      28.381 -12.421  44.351  1.00  0.00     0.050 A 
ATOM     14  C   UNL     1      29.226 -11.439  46.835  1.00  0.00     0.119 A 
ATOM     15  C   UNL     1      28.017 -13.089  45.529  1.00  0.00     0.119 A 
ATOM     16  C   UNL     1      28.439 -12.596  46.767  1.00  0.00     0.092 A 
BRANCH  14  17
ATOM     17  O   UNL     1      29.659 -10.946  48.064  1.00  0.00    -0.508 OA
ATOM     18  H   UNL     1      29.090 -11.031  48.899  1.00  0.00     0.293 HD
ENDBRANCH  14  17
BRANCH  15  19
ATOM     19  O   UNL     1      27.240 -14.244  45.477  1.00  0.00    -0.508 OA
ATOM     20  H   UNL     1      26.915 -14.624  44.597  1.00  0.00     0.293 HD
ENDBRANCH  15  19
ENDBRANCH  10  11
ENDBRANCH   1  10
TORSDOF 6
ENDMDL
