MODEL 1
REMARK VINA RESULT:    -3.140      0.000      0.000
REMARK INTER + INTRA:          -3.862
REMARK INTER:                  -3.783
REMARK INTRA:                  -0.079
REMARK UNBOUND:                -0.079
REMARK SMILES CC[C@H](C)[C@@H]([NH3+])C(=O)[O-]
REMARK SMILES IDX 3 1 4 2 5 3 6 4 7 8 8 9 9 10 2 11 1 12
REMARK H PARENT 6 5 6 6 6 7
REMARK Flexibility Score: inf
ROOT
ATOM      1  C   UNL     1      22.710  17.171  42.416  1.00  0.00     0.050 C 
ATOM      2  C   UNL     1      22.857  15.649  42.612  1.00  0.00     0.014 C 
ENDROOT
BRANCH   1   3
ATOM      3  C   UNL     1      23.156  17.579  40.976  1.00  0.00     0.230 C 
BRANCH   3   4
ATOM      4  N   UNL     1      23.255  16.417  40.078  1.00  0.00    -0.350 N 
ATOM      5  H   UNL     1      22.613  16.539  39.262  1.00  0.00     0.345 HD
ATOM      6  H   UNL     1      22.960  15.555  40.593  1.00  0.00     0.345 HD
ATOM      7  H   UNL     1      24.229  16.276  39.732  1.00  0.00     0.345 HD
ENDBRANCH   3   4
BRANCH   3   8
ATOM      8  C   UNL     1      22.276  18.650  40.378  1.00  0.00     0.099 C 
ATOM      9  O   UNL     1      21.511  19.336  41.106  1.00  0.00    -0.544 OA
ATOM     10  O   UNL     1      22.333  18.909  39.015  1.00  0.00    -0.544 OA
ENDBRANCH   3   8
ENDBRANCH   1   3
BRANCH   1  11
ATOM     11  C   UNL     1      23.455  17.953  43.529  1.00  0.00     0.006 C 
ATOM     12  C   UNL     1      22.507  18.710  44.461  1.00  0.00     0.004 C 
ENDBRANCH   1  11
TORSDOF 4
ENDMDL
MODEL 2
REMARK VINA RESULT:    -3.076      2.469      3.190
REMARK INTER + INTRA:          -3.785
REMARK INTER:                  -3.646
REMARK INTRA:                  -0.138
REMARK UNBOUND:                -0.079
REMARK SMILES CC[C@H](C)[C@@H]([NH3+])C(=O)[O-]
REMARK SMILES IDX 3 1 4 2 5 3 6 4 7 8 8 9 9 10 2 11 1 12
REMARK H PARENT 6 5 6 6 6 7
REMARK Flexibility Score: inf
ROOT
ATOM      1  C   UNL     1      23.645  18.774  41.569  1.00  0.00     0.050 C 
ATOM      2  C   UNL     1      24.581  19.120  40.394  1.00  0.00     0.014 C 
ENDROOT
BRANCH   1   3
ATOM      3  C   UNL     1      22.855  17.462  41.266  1.00  0.00     0.230 C 
BRANCH   3   4
ATOM      4  N   UNL     1      23.284  16.837  40.005  1.00  0.00    -0.350 N 
ATOM      5  H   UNL     1      23.894  16.011  40.203  1.00  0.00     0.345 HD
ATOM      6  H   UNL     1      23.844  17.525  39.451  1.00  0.00     0.345 HD
ATOM      7  H   UNL     1      22.470  16.533  39.427  1.00  0.00     0.345 HD
ENDBRANCH   3   4
BRANCH   3   8
ATOM      8  C   UNL     1      22.915  16.472  42.406  1.00  0.00     0.099 C 
ATOM      9  O   UNL     1      22.939  16.868  43.602  1.00  0.00    -0.544 OA
ATOM     10  O   UNL     1      22.911  15.110  42.139  1.00  0.00    -0.544 OA
ENDBRANCH   3   8
ENDBRANCH   1   3
BRANCH   1  11
ATOM     11  C   UNL     1      22.724  19.972  41.922  1.00  0.00     0.006 C 
ATOM     12  C   UNL     1      21.285  19.778  41.440  1.00  0.00     0.004 C 
ENDBRANCH   1  11
TORSDOF 4
ENDMDL
MODEL 3
REMARK VINA RESULT:    -3.005      3.169      3.896
REMARK INTER + INTRA:          -3.699
REMARK INTER:                  -3.555
REMARK INTRA:                  -0.144
REMARK UNBOUND:                -0.079
REMARK SMILES CC[C@H](C)[C@@H]([NH3+])C(=O)[O-]
REMARK SMILES IDX 3 1 4 2 5 3 6 4 7 8 8 9 9 10 2 11 1 12
REMARK H PARENT 6 5 6 6 6 7
REMARK Flexibility Score: inf
ROOT
ATOM      1  C   UNL     1      22.894  18.010  43.488  1.00  0.00     0.050 C 
ATOM      2  C   UNL     1      22.765  16.545  43.028  1.00  0.00     0.014 C 
ENDROOT
BRANCH   1   3
ATOM      3  C   UNL     1      24.048  18.153  44.531  1.00  0.00     0.230 C 
BRANCH   3   4
ATOM      4  N   UNL     1      24.450  16.853  45.091  1.00  0.00    -0.350 N 
ATOM      5  H   UNL     1      24.547  16.923  46.129  1.00  0.00     0.345 HD
ATOM      6  H   UNL     1      25.381  16.580  44.699  1.00  0.00     0.345 HD
ATOM      7  H   UNL     1      23.762  16.102  44.860  1.00  0.00     0.345 HD
ENDBRANCH   3   4
BRANCH   3   8
ATOM      8  C   UNL     1      25.241  18.895  43.979  1.00  0.00     0.099 C 
ATOM      9  O   UNL     1      25.135  19.607  42.945  1.00  0.00    -0.544 OA
ATOM     10  O   UNL     1      26.464  18.821  44.633  1.00  0.00    -0.544 OA
ENDBRANCH   3   8
ENDBRANCH   1   3
BRANCH   1  11
ATOM     11  C   UNL     1      21.537  18.557  44.003  1.00  0.00     0.006 C 
ATOM     12  C   UNL     1      21.698  19.659  45.051  1.00  0.00     0.004 C 
ENDBRANCH   1  11
TORSDOF 4
ENDMDL
MODEL 4
REMARK VINA RESULT:    -3.000      0.815      1.073
REMARK INTER + INTRA:          -3.693
REMARK INTER:                  -3.578
REMARK INTRA:                  -0.114
REMARK UNBOUND:                -0.079
REMARK SMILES CC[C@H](C)[C@@H]([NH3+])C(=O)[O-]
REMARK SMILES IDX 3 1 4 2 5 3 6 4 7 8 8 9 9 10 2 11 1 12
REMARK H PARENT 6 5 6 6 6 7
REMARK Flexibility Score: inf
ROOT
ATOM      1  C   UNL     1      22.796  17.713  42.568  1.00  0.00     0.050 C 
ATOM      2  C   UNL     1      22.796  16.208  42.900  1.00  0.00     0.014 C 
ENDROOT
BRANCH   1   3
ATOM      3  C   UNL     1      23.077  17.934  41.048  1.00  0.00     0.230 C 
BRANCH   3   4
ATOM      4  N   UNL     1      23.180  16.662  40.315  1.00  0.00    -0.350 N 
ATOM      5  H   UNL     1      23.343  15.875  40.983  1.00  0.00     0.345 HD
ATOM      6  H   UNL     1      23.996  16.704  39.662  1.00  0.00     0.345 HD
ATOM      7  H   UNL     1      22.321  16.467  39.756  1.00  0.00     0.345 HD
ENDBRANCH   3   4
BRANCH   3   8
ATOM      8  C   UNL     1      22.069  18.851  40.399  1.00  0.00     0.099 C 
ATOM      9  O   UNL     1      21.286  19.547  41.099  1.00  0.00    -0.544 OA
ATOM     10  O   UNL     1      22.023  18.958  39.015  1.00  0.00    -0.544 OA
ENDBRANCH   3   8
ENDBRANCH   1   3
BRANCH   1  11
ATOM     11  C   UNL     1      23.774  18.489  43.488  1.00  0.00     0.006 C 
ATOM     12  C   UNL     1      24.801  19.310  42.706  1.00  0.00     0.004 C 
ENDBRANCH   1  11
TORSDOF 4
ENDMDL
MODEL 5
REMARK VINA RESULT:    -2.973     20.816     21.493
REMARK INTER + INTRA:          -3.661
REMARK INTER:                  -3.611
REMARK INTRA:                  -0.050
REMARK UNBOUND:                -0.079
REMARK SMILES CC[C@H](C)[C@@H]([NH3+])C(=O)[O-]
REMARK SMILES IDX 3 1 4 2 5 3 6 4 7 8 8 9 9 10 2 11 1 12
REMARK H PARENT 6 5 6 6 6 7
REMARK Flexibility Score: inf
ROOT
ATOM      1  C   UNL     1      30.393  32.919  54.893  1.00  0.00     0.050 C 
ATOM      2  C   UNL     1      31.244  33.090  56.166  1.00  0.00     0.014 C 
ENDROOT
BRANCH   1   3
ATOM      3  C   UNL     1      30.084  34.310  54.254  1.00  0.00     0.230 C 
BRANCH   3   4
ATOM      4  N   UNL     1      31.278  34.913  53.640  1.00  0.00    -0.350 N 
ATOM      5  H   UNL     1      32.140  34.574  54.125  1.00  0.00     0.345 HD
ATOM      6  H   UNL     1      31.235  35.952  53.748  1.00  0.00     0.345 HD
ATOM      7  H   UNL     1      31.345  34.690  52.623  1.00  0.00     0.345 HD
ENDBRANCH   3   4
BRANCH   3   8
ATOM      8  C   UNL     1      28.940  34.254  53.269  1.00  0.00     0.099 C 
ATOM      9  O   UNL     1      27.819  34.751  53.556  1.00  0.00    -0.544 OA
ATOM     10  O   UNL     1      29.132  33.680  52.019  1.00  0.00    -0.544 OA
ENDBRANCH   3   8
ENDBRANCH   1   3
BRANCH   1  11
ATOM     11  C   UNL     1      29.117  32.084  55.182  1.00  0.00     0.006 C 
ATOM     12  C   UNL     1      29.093  31.505  56.598  1.00  0.00     0.004 C 
ENDBRANCH   1  11
TORSDOF 4
ENDMDL
MODEL 6
REMARK VINA RESULT:    -2.946     17.429     18.526
REMARK INTER + INTRA:          -3.628
REMARK INTER:                  -3.484
REMARK INTRA:                  -0.143
REMARK UNBOUND:                -0.079
REMARK SMILES CC[C@H](C)[C@@H]([NH3+])C(=O)[O-]
REMARK SMILES IDX 3 1 4 2 5 3 6 4 7 8 8 9 9 10 2 11 1 12
REMARK H PARENT 6 5 6 6 6 7
REMARK Flexibility Score: inf
ROOT
ATOM      1  C   UNL     1      26.053  33.191  52.349  1.00  0.00     0.050 C 
ATOM      2  C   UNL     1      25.815  34.554  53.028  1.00  0.00     0.014 C 
ENDROOT
BRANCH   1   3
ATOM      3  C   UNL     1      25.561  33.227  50.868  1.00  0.00     0.230 C 
BRANCH   3   4
ATOM      4  N   UNL     1      24.641  34.349  50.619  1.00  0.00    -0.350 N 
ATOM      5  H   UNL     1      23.651  34.035  50.744  1.00  0.00     0.345 HD
ATOM      6  H   UNL     1      24.753  34.677  49.633  1.00  0.00     0.345 HD
ATOM      7  H   UNL     1      24.830  35.154  51.257  1.00  0.00     0.345 HD
ENDBRANCH   3   4
BRANCH   3   8
ATOM      8  C   UNL     1      26.701  33.235  49.878  1.00  0.00     0.099 C 
ATOM      9  O   UNL     1      27.863  32.897  50.230  1.00  0.00    -0.544 OA
ATOM     10  O   UNL     1      26.465  33.585  48.555  1.00  0.00    -0.544 OA
ENDBRANCH   3   8
ENDBRANCH   1   3
BRANCH   1  11
ATOM     11  C   UNL     1      25.421  32.038  53.173  1.00  0.00     0.006 C 
ATOM     12  C   UNL     1      24.863  30.916  52.295  1.00  0.00     0.004 C 
ENDBRANCH   1  11
TORSDOF 4
ENDMDL
MODEL 7
REMARK VINA RESULT:    -2.811     19.837     20.636
REMARK INTER + INTRA:          -3.465
REMARK INTER:                  -3.340
REMARK INTRA:                  -0.125
REMARK UNBOUND:                -0.079
REMARK SMILES CC[C@H](C)[C@@H]([NH3+])C(=O)[O-]
REMARK SMILES IDX 3 1 4 2 5 3 6 4 7 8 8 9 9 10 2 11 1 12
REMARK H PARENT 6 5 6 6 6 7
REMARK Flexibility Score: inf
ROOT
ATOM      1  C   UNL     1      27.922  33.180  52.438  1.00  0.00     0.050 C 
ATOM      2  C   UNL     1      26.568  33.850  52.745  1.00  0.00     0.014 C 
ENDROOT
BRANCH   1   3
ATOM      3  C   UNL     1      29.067  33.876  53.240  1.00  0.00     0.230 C 
BRANCH   3   4
ATOM      4  N   UNL     1      28.616  35.125  53.875  1.00  0.00    -0.350 N 
ATOM      5  H   UNL     1      29.280  35.901  53.652  1.00  0.00     0.345 HD
ATOM      6  H   UNL     1      28.604  35.001  54.914  1.00  0.00     0.345 HD
ATOM      7  H   UNL     1      27.656  35.394  53.564  1.00  0.00     0.345 HD
ENDBRANCH   3   4
BRANCH   3   8
ATOM      8  C   UNL     1      29.707  32.957  54.253  1.00  0.00     0.099 C 
ATOM      9  O   UNL     1      29.002  32.311  55.074  1.00  0.00    -0.544 OA
ATOM     10  O   UNL     1      31.086  32.793  54.262  1.00  0.00    -0.544 OA
ENDBRANCH   3   8
ENDBRANCH   1   3
BRANCH   1  11
ATOM     11  C   UNL     1      28.190  33.134  50.911  1.00  0.00     0.006 C 
ATOM     12  C   UNL     1      29.676  33.238  50.564  1.00  0.00     0.004 C 
ENDBRANCH   1  11
TORSDOF 4
ENDMDL
