MODEL 1
REMARK VINA RESULT:    -5.995      0.000      0.000
REMARK INTER + INTRA:          -9.027
REMARK INTER:                  -8.448
REMARK INTRA:                  -0.579
REMARK UNBOUND:                -0.579
REMARK SMILES COc1ccc(-c2cc(=O)c3c(OC)c(OC)c(OC)c(OC)c3o2)cc1OC
REMARK SMILES IDX 7 1 8 2 9 3 10 4 11 5 24 6 25 7 21 8 18 9 15 10 12 11 6 12
REMARK SMILES IDX 3 13 27 14 4 15 26 16 5 17 2 18 1 19 28 20 29 21 22 22 23 23
REMARK SMILES IDX 13 24 14 25 19 26 20 27 16 28 17 29
REMARK H PARENT
REMARK Flexibility Score: inf
ROOT
ATOM      1  C   UNL     1      29.598  11.803  64.867  1.00  0.00     0.138 A 
ATOM      2  C   UNL     1      29.239  10.815  63.942  1.00  0.00     0.100 A 
ATOM      3  C   UNL     1      30.234  10.156  63.225  1.00  0.00     0.197 A 
ATOM      4  O   UNL     1      29.897   9.268  62.394  1.00  0.00    -0.289 OA
ATOM      5  C   UNL     1      31.588  10.493  63.437  1.00  0.00     0.115 A 
ATOM      6  C   UNL     1      31.874  11.518  64.370  1.00  0.00     0.188 A 
ATOM      7  O   UNL     1      30.882  12.115  65.031  1.00  0.00    -0.452 OA
ATOM      8  C   UNL     1      33.205  11.892  64.632  1.00  0.00     0.209 A 
ATOM      9  C   UNL     1      34.266  11.226  63.974  1.00  0.00     0.211 A 
ATOM     10  C   UNL     1      33.980  10.233  63.026  1.00  0.00     0.208 A 
ATOM     11  C   UNL     1      32.652   9.830  62.785  1.00  0.00     0.179 A 
ENDROOT
BRANCH   1  12
ATOM     12  C   UNL     1      28.573  12.516  65.668  1.00  0.00     0.021 A 
ATOM     13  C   UNL     1      26.618  13.837  67.219  1.00  0.00     0.160 A 
ATOM     14  C   UNL     1      26.613  13.975  65.824  1.00  0.00     0.161 A 
ATOM     15  C   UNL     1      27.595  13.033  67.833  1.00  0.00     0.051 A 
ATOM     16  C   UNL     1      27.589  13.311  65.053  1.00  0.00     0.062 A 
ATOM     17  C   UNL     1      28.559  12.378  67.063  1.00  0.00     0.016 A 
BRANCH  13  18
ATOM     18  O   UNL     1      25.636  14.512  67.960  1.00  0.00    -0.493 OA
ATOM     19  C   UNL     1      25.853  15.729  68.668  1.00  0.00     0.278 C 
ENDBRANCH  13  18
BRANCH  14  20
ATOM     20  O   UNL     1      25.621  14.779  65.239  1.00  0.00    -0.493 OA
ATOM     21  C   UNL     1      25.670  15.285  63.908  1.00  0.00     0.278 C 
ENDBRANCH  14  20
ENDBRANCH   1  12
BRANCH   8  22
ATOM     22  O   UNL     1      33.473  12.908  65.554  1.00  0.00    -0.490 OA
ATOM     23  C   UNL     1      33.783  12.643  66.917  1.00  0.00     0.278 C 
ENDBRANCH   8  22
BRANCH  11  24
ATOM     24  O   UNL     1      32.385   8.759  61.925  1.00  0.00    -0.492 OA
ATOM     25  C   UNL     1      32.416   8.899  60.508  1.00  0.00     0.278 C 
ENDBRANCH  11  24
BRANCH   9  26
ATOM     26  O   UNL     1      35.627  11.513  64.195  1.00  0.00    -0.490 OA
ATOM     27  C   UNL     1      36.357  12.622  63.682  1.00  0.00     0.279 C 
ENDBRANCH   9  26
BRANCH  10  28
ATOM     28  O   UNL     1      35.052   9.662  62.329  1.00  0.00    -0.490 OA
ATOM     29  C   UNL     1      35.655   8.433  62.721  1.00  0.00     0.278 C 
ENDBRANCH  10  28
TORSDOF 7
ENDMDL
MODEL 2
REMARK VINA RESULT:    -5.984      1.505      3.477
REMARK INTER + INTRA:          -9.011
REMARK INTER:                  -8.169
REMARK INTRA:                  -0.843
REMARK UNBOUND:                -0.579
REMARK SMILES COc1ccc(-c2cc(=O)c3c(OC)c(OC)c(OC)c(OC)c3o2)cc1OC
REMARK SMILES IDX 7 1 8 2 9 3 10 4 11 5 24 6 25 7 21 8 18 9 15 10 12 11 6 12
REMARK SMILES IDX 3 13 27 14 4 15 26 16 5 17 2 18 1 19 28 20 29 21 22 22 23 23
REMARK SMILES IDX 13 24 14 25 19 26 20 27 16 28 17 29
REMARK H PARENT
REMARK Flexibility Score: inf
ROOT
ATOM      1  C   UNL     1      29.773  12.879  66.317  1.00  0.00     0.138 A 
ATOM      2  C   UNL     1      30.691  13.134  67.344  1.00  0.00     0.100 A 
ATOM      3  C   UNL     1      32.007  12.699  67.208  1.00  0.00     0.197 A 
ATOM      4  O   UNL     1      32.824  12.936  68.140  1.00  0.00    -0.289 OA
ATOM      5  C   UNL     1      32.398  12.008  66.041  1.00  0.00     0.115 A 
ATOM      6  C   UNL     1      31.410  11.766  65.057  1.00  0.00     0.188 A 
ATOM      7  O   UNL     1      30.165  12.206  65.237  1.00  0.00    -0.452 OA
ATOM      8  C   UNL     1      31.740  11.090  63.867  1.00  0.00     0.209 A 
ATOM      9  C   UNL     1      33.073  10.668  63.645  1.00  0.00     0.211 A 
ATOM     10  C   UNL     1      34.042  10.879  64.634  1.00  0.00     0.208 A 
ATOM     11  C   UNL     1      33.726  11.586  65.812  1.00  0.00     0.179 A 
ENDROOT
BRANCH   1  12
ATOM     12  C   UNL     1      28.367  13.342  66.410  1.00  0.00     0.021 A 
ATOM     13  C   UNL     1      25.683  14.194  66.621  1.00  0.00     0.160 A 
ATOM     14  C   UNL     1      26.265  14.025  65.356  1.00  0.00     0.161 A 
ATOM     15  C   UNL     1      26.443  13.929  67.775  1.00  0.00     0.051 A 
ATOM     16  C   UNL     1      27.604  13.596  65.256  1.00  0.00     0.062 A 
ATOM     17  C   UNL     1      27.768  13.505  67.668  1.00  0.00     0.016 A 
BRANCH  13  18
ATOM     18  O   UNL     1      24.349  14.625  66.690  1.00  0.00    -0.493 OA
ATOM     19  C   UNL     1      23.946  15.957  66.994  1.00  0.00     0.278 C 
ENDBRANCH  13  18
BRANCH  14  20
ATOM     20  O   UNL     1      25.480  14.290  64.223  1.00  0.00    -0.493 OA
ATOM     21  C   UNL     1      25.515  15.506  63.480  1.00  0.00     0.278 C 
ENDBRANCH  14  20
ENDBRANCH   1  12
BRANCH   8  22
ATOM     22  O   UNL     1      30.755  10.855  62.904  1.00  0.00    -0.490 OA
ATOM     23  C   UNL     1      30.100   9.599  62.769  1.00  0.00     0.278 C 
ENDBRANCH   8  22
BRANCH  11  24
ATOM     24  O   UNL     1      34.727  11.895  66.739  1.00  0.00    -0.492 OA
ATOM     25  C   UNL     1      35.724  12.878  66.479  1.00  0.00     0.278 C 
ENDBRANCH  11  24
BRANCH   9  26
ATOM     26  O   UNL     1      33.500  10.011  62.474  1.00  0.00    -0.490 OA
ATOM     27  C   UNL     1      33.794  10.614  61.219  1.00  0.00     0.279 C 
ENDBRANCH   9  26
BRANCH  10  28
ATOM     28  O   UNL     1      35.326  10.365  64.417  1.00  0.00    -0.490 OA
ATOM     29  C   UNL     1      35.749   9.109  64.939  1.00  0.00     0.278 C 
ENDBRANCH  10  28
TORSDOF 7
ENDMDL
MODEL 3
REMARK VINA RESULT:    -5.973      2.741      8.390
REMARK INTER + INTRA:          -8.997
REMARK INTER:                  -8.237
REMARK INTRA:                  -0.760
REMARK UNBOUND:                -0.579
REMARK SMILES COc1ccc(-c2cc(=O)c3c(OC)c(OC)c(OC)c(OC)c3o2)cc1OC
REMARK SMILES IDX 7 1 8 2 9 3 10 4 11 5 24 6 25 7 21 8 18 9 15 10 12 11 6 12
REMARK SMILES IDX 3 13 27 14 4 15 26 16 5 17 2 18 1 19 28 20 29 21 22 22 23 23
REMARK SMILES IDX 13 24 14 25 19 26 20 27 16 28 17 29
REMARK H PARENT
REMARK Flexibility Score: inf
ROOT
ATOM      1  C   UNL     1      33.335  10.221  62.115  1.00  0.00     0.138 A 
ATOM      2  C   UNL     1      32.088   9.583  62.101  1.00  0.00     0.100 A 
ATOM      3  C   UNL     1      31.191   9.813  63.141  1.00  0.00     0.197 A 
ATOM      4  O   UNL     1      30.071   9.232  63.116  1.00  0.00    -0.289 OA
ATOM      5  C   UNL     1      31.549  10.682  64.194  1.00  0.00     0.115 A 
ATOM      6  C   UNL     1      32.834  11.272  64.153  1.00  0.00     0.188 A 
ATOM      7  O   UNL     1      33.653  11.019  63.133  1.00  0.00    -0.452 OA
ATOM      8  C   UNL     1      33.246  12.154  65.169  1.00  0.00     0.209 A 
ATOM      9  C   UNL     1      32.361  12.470  66.228  1.00  0.00     0.211 A 
ATOM     10  C   UNL     1      31.101  11.860  66.284  1.00  0.00     0.208 A 
ATOM     11  C   UNL     1      30.669  11.003  65.252  1.00  0.00     0.179 A 
ENDROOT
BRANCH   1  12
ATOM     12  C   UNL     1      34.314  10.022  61.018  1.00  0.00     0.021 A 
ATOM     13  C   UNL     1      36.160   9.679  58.910  1.00  0.00     0.160 A 
ATOM     14  C   UNL     1      35.542   8.560  59.487  1.00  0.00     0.161 A 
ATOM     15  C   UNL     1      35.846  10.965  59.385  1.00  0.00     0.051 A 
ATOM     16  C   UNL     1      34.618   8.736  60.537  1.00  0.00     0.062 A 
ATOM     17  C   UNL     1      34.931  11.132  60.425  1.00  0.00     0.016 A 
BRANCH  13  18
ATOM     18  O   UNL     1      37.077   9.472  57.868  1.00  0.00    -0.493 OA
ATOM     19  C   UNL     1      36.769   9.607  56.483  1.00  0.00     0.278 C 
ENDBRANCH  13  18
BRANCH  14  20
ATOM     20  O   UNL     1      35.869   7.289  58.987  1.00  0.00    -0.493 OA
ATOM     21  C   UNL     1      36.671   6.331  59.673  1.00  0.00     0.278 C 
ENDBRANCH  14  20
ENDBRANCH   1  12
BRANCH   8  22
ATOM     22  O   UNL     1      34.519  12.728  65.118  1.00  0.00    -0.490 OA
ATOM     23  C   UNL     1      34.754  14.027  64.585  1.00  0.00     0.278 C 
ENDBRANCH   8  22
BRANCH  11  24
ATOM     24  O   UNL     1      29.367  10.492  65.257  1.00  0.00    -0.492 OA
ATOM     25  C   UNL     1      28.228  11.321  65.047  1.00  0.00     0.278 C 
ENDBRANCH  11  24
BRANCH   9  26
ATOM     26  O   UNL     1      32.676  13.364  67.271  1.00  0.00    -0.490 OA
ATOM     27  C   UNL     1      33.514  13.103  68.390  1.00  0.00     0.279 C 
ENDBRANCH   9  26
BRANCH  10  28
ATOM     28  O   UNL     1      30.291  12.126  67.395  1.00  0.00    -0.490 OA
ATOM     29  C   UNL     1      30.178  11.229  68.495  1.00  0.00     0.278 C 
ENDBRANCH  10  28
TORSDOF 7
ENDMDL
MODEL 4
REMARK VINA RESULT:    -5.876      3.758      9.071
REMARK INTER + INTRA:          -8.859
REMARK INTER:                  -8.052
REMARK INTRA:                  -0.807
REMARK UNBOUND:                -0.579
REMARK SMILES COc1ccc(-c2cc(=O)c3c(OC)c(OC)c(OC)c(OC)c3o2)cc1OC
REMARK SMILES IDX 7 1 8 2 9 3 10 4 11 5 24 6 25 7 21 8 18 9 15 10 12 11 6 12
REMARK SMILES IDX 3 13 27 14 4 15 26 16 5 17 2 18 1 19 28 20 29 21 22 22 23 23
REMARK SMILES IDX 13 24 14 25 19 26 20 27 16 28 17 29
REMARK H PARENT
REMARK Flexibility Score: inf
ROOT
ATOM      1  C   UNL     1      35.940  14.130  62.656  1.00  0.00     0.138 A 
ATOM      2  C   UNL     1      36.015  14.423  64.023  1.00  0.00     0.100 A 
ATOM      3  C   UNL     1      35.221  13.712  64.920  1.00  0.00     0.197 A 
ATOM      4  O   UNL     1      35.298  13.986  66.148  1.00  0.00    -0.289 OA
ATOM      5  C   UNL     1      34.351  12.710  64.440  1.00  0.00     0.115 A 
ATOM      6  C   UNL     1      34.311  12.485  63.043  1.00  0.00     0.188 A 
ATOM      7  O   UNL     1      35.095  13.193  62.230  1.00  0.00    -0.452 OA
ATOM      8  C   UNL     1      33.471  11.493  62.505  1.00  0.00     0.209 A 
ATOM      9  C   UNL     1      32.676  10.700  63.366  1.00  0.00     0.211 A 
ATOM     10  C   UNL     1      32.692  10.946  64.746  1.00  0.00     0.208 A 
ATOM     11  C   UNL     1      33.557  11.914  65.295  1.00  0.00     0.179 A 
ENDROOT
BRANCH   1  12
ATOM     12  C   UNL     1      36.783  14.847  61.668  1.00  0.00     0.021 A 
ATOM     13  C   UNL     1      38.373  16.251  59.804  1.00  0.00     0.160 A 
ATOM     14  C   UNL     1      37.692  15.091  59.408  1.00  0.00     0.161 A 
ATOM     15  C   UNL     1      38.251  16.708  61.129  1.00  0.00     0.051 A 
ATOM     16  C   UNL     1      36.896  14.395  60.340  1.00  0.00     0.062 A 
ATOM     17  C   UNL     1      37.461  16.014  62.048  1.00  0.00     0.016 A 
BRANCH  13  18
ATOM     18  O   UNL     1      39.160  16.920  58.854  1.00  0.00    -0.493 OA
ATOM     19  C   UNL     1      40.565  16.743  58.701  1.00  0.00     0.278 C 
ENDBRANCH  13  18
BRANCH  14  20
ATOM     20  O   UNL     1      37.827  14.663  58.078  1.00  0.00    -0.493 OA
ATOM     21  C   UNL     1      36.748  14.237  57.251  1.00  0.00     0.278 C 
ENDBRANCH  14  20
ENDBRANCH   1  12
BRANCH   8  22
ATOM     22  O   UNL     1      33.439  11.284  61.123  1.00  0.00    -0.490 OA
ATOM     23  C   UNL     1      34.239  10.298  60.479  1.00  0.00     0.278 C 
ENDBRANCH   8  22
BRANCH  11  24
ATOM     24  O   UNL     1      33.652  12.070  66.682  1.00  0.00    -0.492 OA
ATOM     25  C   UNL     1      34.303  11.110  67.509  1.00  0.00     0.278 C 
ENDBRANCH  11  24
BRANCH   9  26
ATOM     26  O   UNL     1      31.829   9.667  62.920  1.00  0.00    -0.490 OA
ATOM     27  C   UNL     1      30.567   9.818  62.280  1.00  0.00     0.279 C 
ENDBRANCH   9  26
BRANCH  10  28
ATOM     28  O   UNL     1      31.824  10.204  65.556  1.00  0.00    -0.490 OA
ATOM     29  C   UNL     1      30.550  10.694  65.966  1.00  0.00     0.278 C 
ENDBRANCH  10  28
TORSDOF 7
ENDMDL
MODEL 5
REMARK VINA RESULT:    -5.854      2.466      3.408
REMARK INTER + INTRA:          -8.828
REMARK INTER:                  -8.029
REMARK INTRA:                  -0.799
REMARK UNBOUND:                -0.579
REMARK SMILES COc1ccc(-c2cc(=O)c3c(OC)c(OC)c(OC)c(OC)c3o2)cc1OC
REMARK SMILES IDX 7 1 8 2 9 3 10 4 11 5 24 6 25 7 21 8 18 9 15 10 12 11 6 12
REMARK SMILES IDX 3 13 27 14 4 15 26 16 5 17 2 18 1 19 28 20 29 21 22 22 23 23
REMARK SMILES IDX 13 24 14 25 19 26 20 27 16 28 17 29
REMARK H PARENT
REMARK Flexibility Score: inf
ROOT
ATOM      1  C   UNL     1      31.936  10.854  63.620  1.00  0.00     0.138 A 
ATOM      2  C   UNL     1      31.897   9.813  62.684  1.00  0.00     0.100 A 
ATOM      3  C   UNL     1      32.868   9.755  61.686  1.00  0.00     0.197 A 
ATOM      4  O   UNL     1      32.822   8.812  60.849  1.00  0.00    -0.289 OA
ATOM      5  C   UNL     1      33.873  10.744  61.630  1.00  0.00     0.115 A 
ATOM      6  C   UNL     1      33.834  11.778  62.595  1.00  0.00     0.188 A 
ATOM      7  O   UNL     1      32.884  11.784  63.530  1.00  0.00    -0.452 OA
ATOM      8  C   UNL     1      34.814  12.788  62.598  1.00  0.00     0.209 A 
ATOM      9  C   UNL     1      35.858  12.757  61.642  1.00  0.00     0.211 A 
ATOM     10  C   UNL     1      35.877  11.751  60.667  1.00  0.00     0.208 A 
ATOM     11  C   UNL     1      34.919  10.718  60.680  1.00  0.00     0.179 A 
ENDROOT
BRANCH   1  12
ATOM     12  C   UNL     1      30.935  10.944  64.712  1.00  0.00     0.021 A 
ATOM     13  C   UNL     1      29.043  11.073  66.803  1.00  0.00     0.160 A 
ATOM     14  C   UNL     1      28.731  11.609  65.545  1.00  0.00     0.161 A 
ATOM     15  C   UNL     1      30.296  10.468  67.008  1.00  0.00     0.051 A 
ATOM     16  C   UNL     1      29.678  11.539  64.503  1.00  0.00     0.062 A 
ATOM     17  C   UNL     1      31.229  10.403  65.972  1.00  0.00     0.016 A 
BRANCH  13  18
ATOM     18  O   UNL     1      28.081  11.160  67.821  1.00  0.00    -0.493 OA
ATOM     19  C   UNL     1      28.113  12.111  68.882  1.00  0.00     0.278 C 
ENDBRANCH  13  18
BRANCH  14  20
ATOM     20  O   UNL     1      27.470  12.200  65.367  1.00  0.00    -0.493 OA
ATOM     21  C   UNL     1      27.239  13.603  65.274  1.00  0.00     0.278 C 
ENDBRANCH  14  20
ENDBRANCH   1  12
BRANCH   8  22
ATOM     22  O   UNL     1      34.763  13.805  63.555  1.00  0.00    -0.490 OA
ATOM     23  C   UNL     1      35.517  13.761  64.761  1.00  0.00     0.278 C 
ENDBRANCH   8  22
BRANCH  11  24
ATOM     24  O   UNL     1      35.014   9.655  59.777  1.00  0.00    -0.492 OA
ATOM     25  C   UNL     1      36.011   8.645  59.899  1.00  0.00     0.278 C 
ENDBRANCH  11  24
BRANCH   9  26
ATOM     26  O   UNL     1      36.896  13.708  61.587  1.00  0.00    -0.490 OA
ATOM     27  C   UNL     1      36.806  15.039  61.094  1.00  0.00     0.279 C 
ENDBRANCH   9  26
BRANCH  10  28
ATOM     28  O   UNL     1      36.871  11.808  59.683  1.00  0.00    -0.490 OA
ATOM     29  C   UNL     1      36.631  12.326  58.378  1.00  0.00     0.278 C 
ENDBRANCH  10  28
TORSDOF 7
ENDMDL
MODEL 6
REMARK VINA RESULT:    -5.772      4.766      9.818
REMARK INTER + INTRA:          -8.713
REMARK INTER:                  -7.891
REMARK INTRA:                  -0.821
REMARK UNBOUND:                -0.579
REMARK SMILES COc1ccc(-c2cc(=O)c3c(OC)c(OC)c(OC)c(OC)c3o2)cc1OC
REMARK SMILES IDX 7 1 8 2 9 3 10 4 11 5 24 6 25 7 21 8 18 9 15 10 12 11 6 12
REMARK SMILES IDX 3 13 27 14 4 15 26 16 5 17 2 18 1 19 28 20 29 21 22 22 23 23
REMARK SMILES IDX 13 24 14 25 19 26 20 27 16 28 17 29
REMARK H PARENT
REMARK Flexibility Score: inf
ROOT
ATOM      1  C   UNL     1      37.068  15.219  61.692  1.00  0.00     0.138 A 
ATOM      2  C   UNL     1      38.111  15.695  62.498  1.00  0.00     0.100 A 
ATOM      3  C   UNL     1      38.138  15.359  63.849  1.00  0.00     0.197 A 
ATOM      4  O   UNL     1      39.083  15.793  64.563  1.00  0.00    -0.289 OA
ATOM      5  C   UNL     1      37.118  14.547  64.389  1.00  0.00     0.115 A 
ATOM      6  C   UNL     1      36.084  14.124  63.520  1.00  0.00     0.188 A 
ATOM      7  O   UNL     1      36.107  14.473  62.234  1.00  0.00    -0.452 OA
ATOM      8  C   UNL     1      35.043  13.306  63.997  1.00  0.00     0.209 A 
ATOM      9  C   UNL     1      35.041  12.886  65.348  1.00  0.00     0.211 A 
ATOM     10  C   UNL     1      36.047  13.332  66.215  1.00  0.00     0.208 A 
ATOM     11  C   UNL     1      37.111  14.123  65.737  1.00  0.00     0.179 A 
ENDROOT
BRANCH   1  12
ATOM     12  C   UNL     1      37.010  15.535  60.244  1.00  0.00     0.021 A 
ATOM     13  C   UNL     1      36.869  16.168  57.496  1.00  0.00     0.160 A 
ATOM     14  C   UNL     1      36.957  14.828  57.901  1.00  0.00     0.161 A 
ATOM     15  C   UNL     1      36.845  17.185  58.467  1.00  0.00     0.051 A 
ATOM     16  C   UNL     1      37.023  14.516  59.274  1.00  0.00     0.062 A 
ATOM     17  C   UNL     1      36.911  16.869  59.825  1.00  0.00     0.016 A 
BRANCH  13  18
ATOM     18  O   UNL     1      36.807  16.447  56.122  1.00  0.00    -0.493 OA
ATOM     19  C   UNL     1      35.618  16.812  55.426  1.00  0.00     0.278 C 
ENDBRANCH  13  18
BRANCH  14  20
ATOM     20  O   UNL     1      36.971  13.833  56.910  1.00  0.00    -0.493 OA
ATOM     21  C   UNL     1      35.831  13.085  56.496  1.00  0.00     0.278 C 
ENDBRANCH  14  20
ENDBRANCH   1  12
BRANCH   8  22
ATOM     22  O   UNL     1      34.027  12.896  63.128  1.00  0.00    -0.490 OA
ATOM     23  C   UNL     1      34.030  11.625  62.490  1.00  0.00     0.278 C 
ENDBRANCH   8  22
BRANCH  11  24
ATOM     24  O   UNL     1      38.171  14.466  66.582  1.00  0.00    -0.492 OA
ATOM     25  C   UNL     1      39.149  13.515  66.993  1.00  0.00     0.278 C 
ENDBRANCH  11  24
BRANCH   9  26
ATOM     26  O   UNL     1      34.057  12.044  65.905  1.00  0.00    -0.490 OA
ATOM     27  C   UNL     1      32.739  12.416  66.290  1.00  0.00     0.279 C 
ENDBRANCH   9  26
BRANCH  10  28
ATOM     28  O   UNL     1      35.960  12.972  67.565  1.00  0.00    -0.490 OA
ATOM     29  C   UNL     1      35.407  13.834  68.556  1.00  0.00     0.278 C 
ENDBRANCH  10  28
TORSDOF 7
ENDMDL
MODEL 7
REMARK VINA RESULT:    -5.765      3.398      8.967
REMARK INTER + INTRA:          -8.704
REMARK INTER:                  -7.928
REMARK INTRA:                  -0.776
REMARK UNBOUND:                -0.579
REMARK SMILES COc1ccc(-c2cc(=O)c3c(OC)c(OC)c(OC)c(OC)c3o2)cc1OC
REMARK SMILES IDX 7 1 8 2 9 3 10 4 11 5 24 6 25 7 21 8 18 9 15 10 12 11 6 12
REMARK SMILES IDX 3 13 27 14 4 15 26 16 5 17 2 18 1 19 28 20 29 21 22 22 23 23
REMARK SMILES IDX 13 24 14 25 19 26 20 27 16 28 17 29
REMARK H PARENT
REMARK Flexibility Score: inf
ROOT
ATOM      1  C   UNL     1      34.451   9.704  60.799  1.00  0.00     0.138 A 
ATOM      2  C   UNL     1      33.305   8.902  60.877  1.00  0.00     0.100 A 
ATOM      3  C   UNL     1      32.409   9.091  61.926  1.00  0.00     0.197 A 
ATOM      4  O   UNL     1      31.381   8.362  61.985  1.00  0.00    -0.289 OA
ATOM      5  C   UNL     1      32.667  10.083  62.896  1.00  0.00     0.115 A 
ATOM      6  C   UNL     1      33.856  10.839  62.765  1.00  0.00     0.188 A 
ATOM      7  O   UNL     1      34.679  10.618  61.740  1.00  0.00    -0.452 OA
ATOM      8  C   UNL     1      34.165  11.849  63.695  1.00  0.00     0.209 A 
ATOM      9  C   UNL     1      33.270  12.126  64.756  1.00  0.00     0.211 A 
ATOM     10  C   UNL     1      32.109  11.355  64.903  1.00  0.00     0.208 A 
ATOM     11  C   UNL     1      31.777  10.366  63.956  1.00  0.00     0.179 A 
ENDROOT
BRANCH   1  12
ATOM     12  C   UNL     1      35.422   9.552  59.687  1.00  0.00     0.021 A 
ATOM     13  C   UNL     1      37.288   9.229  57.593  1.00  0.00     0.160 A 
ATOM     14  C   UNL     1      36.909  10.517  57.999  1.00  0.00     0.161 A 
ATOM     15  C   UNL     1      36.737   8.108  58.241  1.00  0.00     0.051 A 
ATOM     16  C   UNL     1      35.980  10.674  59.048  1.00  0.00     0.062 A 
ATOM     17  C   UNL     1      35.817   8.271  59.278  1.00  0.00     0.016 A 
BRANCH  13  18
ATOM     18  O   UNL     1      38.213   9.105  56.546  1.00  0.00    -0.493 OA
ATOM     19  C   UNL     1      37.867   8.824  55.193  1.00  0.00     0.278 C 
ENDBRANCH  13  18
BRANCH  14  20
ATOM     20  O   UNL     1      37.481  11.617  57.340  1.00  0.00    -0.493 OA
ATOM     21  C   UNL     1      36.826  12.391  56.339  1.00  0.00     0.278 C 
ENDBRANCH  14  20
ENDBRANCH   1  12
BRANCH   8  22
ATOM     22  O   UNL     1      35.345  12.586  63.556  1.00  0.00    -0.490 OA
ATOM     23  C   UNL     1      35.392  13.834  62.874  1.00  0.00     0.278 C 
ENDBRANCH   8  22
BRANCH  11  24
ATOM     24  O   UNL     1      30.559   9.684  64.045  1.00  0.00    -0.492 OA
ATOM     25  C   UNL     1      29.308  10.340  63.861  1.00  0.00     0.278 C 
ENDBRANCH  11  24
BRANCH   9  26
ATOM     26  O   UNL     1      33.482  13.136  65.715  1.00  0.00    -0.490 OA
ATOM     27  C   UNL     1      34.239  13.025  66.915  1.00  0.00     0.279 C 
ENDBRANCH   9  26
BRANCH  10  28
ATOM     28  O   UNL     1      31.296  11.597  66.017  1.00  0.00    -0.490 OA
ATOM     29  C   UNL     1      31.259  10.726  67.144  1.00  0.00     0.278 C 
ENDBRANCH  10  28
TORSDOF 7
ENDMDL
MODEL 8
REMARK VINA RESULT:    -5.758      2.824      4.493
REMARK INTER + INTRA:          -8.694
REMARK INTER:                  -7.872
REMARK INTRA:                  -0.822
REMARK UNBOUND:                -0.579
REMARK SMILES COc1ccc(-c2cc(=O)c3c(OC)c(OC)c(OC)c(OC)c3o2)cc1OC
REMARK SMILES IDX 7 1 8 2 9 3 10 4 11 5 24 6 25 7 21 8 18 9 15 10 12 11 6 12
REMARK SMILES IDX 3 13 27 14 4 15 26 16 5 17 2 18 1 19 28 20 29 21 22 22 23 23
REMARK SMILES IDX 13 24 14 25 19 26 20 27 16 28 17 29
REMARK H PARENT
REMARK Flexibility Score: inf
ROOT
ATOM      1  C   UNL     1      32.390  10.712  63.352  1.00  0.00     0.138 A 
ATOM      2  C   UNL     1      32.427   9.705  62.379  1.00  0.00     0.100 A 
ATOM      3  C   UNL     1      33.384   9.766  61.368  1.00  0.00     0.197 A 
ATOM      4  O   UNL     1      33.406   8.852  60.499  1.00  0.00    -0.289 OA
ATOM      5  C   UNL     1      34.299  10.840  61.335  1.00  0.00     0.115 A 
ATOM      6  C   UNL     1      34.186  11.832  62.337  1.00  0.00     0.188 A 
ATOM      7  O   UNL     1      33.253  11.724  63.283  1.00  0.00    -0.452 OA
ATOM      8  C   UNL     1      35.075  12.923  62.363  1.00  0.00     0.209 A 
ATOM      9  C   UNL     1      36.102  13.017  61.394  1.00  0.00     0.211 A 
ATOM     10  C   UNL     1      36.193  12.050  60.384  1.00  0.00     0.208 A 
ATOM     11  C   UNL     1      35.328  10.938  60.372  1.00  0.00     0.179 A 
ENDROOT
BRANCH   1  12
ATOM     12  C   UNL     1      31.403  10.676  64.459  1.00  0.00     0.021 A 
ATOM     13  C   UNL     1      29.500  10.641  66.545  1.00  0.00     0.160 A 
ATOM     14  C   UNL     1      30.865  10.513  66.841  1.00  0.00     0.161 A 
ATOM     15  C   UNL     1      29.093  10.793  65.207  1.00  0.00     0.051 A 
ATOM     16  C   UNL     1      31.812  10.535  65.797  1.00  0.00     0.062 A 
ATOM     17  C   UNL     1      30.036  10.814  64.178  1.00  0.00     0.016 A 
BRANCH  13  18
ATOM     18  O   UNL     1      28.582  10.613  67.605  1.00  0.00    -0.493 OA
ATOM     19  C   UNL     1      27.996  11.769  68.196  1.00  0.00     0.278 C 
ENDBRANCH  13  18
BRANCH  14  20
ATOM     20  O   UNL     1      31.242  10.369  68.186  1.00  0.00    -0.493 OA
ATOM     21  C   UNL     1      31.887  11.378  68.958  1.00  0.00     0.278 C 
ENDBRANCH  14  20
ENDBRANCH   1  12
BRANCH   8  22
ATOM     22  O   UNL     1      34.950  13.899  63.357  1.00  0.00    -0.490 OA
ATOM     23  C   UNL     1      35.738  13.890  64.542  1.00  0.00     0.278 C 
ENDBRANCH   8  22
BRANCH  11  24
ATOM     24  O   UNL     1      35.501   9.918  59.430  1.00  0.00    -0.492 OA
ATOM     25  C   UNL     1      36.598   9.012  59.488  1.00  0.00     0.278 C 
ENDBRANCH  11  24
BRANCH   9  26
ATOM     26  O   UNL     1      37.053  14.055  61.360  1.00  0.00    -0.490 OA
ATOM     27  C   UNL     1      36.848  15.382  60.891  1.00  0.00     0.279 C 
ENDBRANCH   9  26
BRANCH  10  28
ATOM     28  O   UNL     1      37.163  12.227  59.390  1.00  0.00    -0.490 OA
ATOM     29  C   UNL     1      36.865  12.799  58.120  1.00  0.00     0.278 C 
ENDBRANCH  10  28
TORSDOF 7
ENDMDL
MODEL 9
REMARK VINA RESULT:    -5.687      2.264      8.288
REMARK INTER + INTRA:          -8.593
REMARK INTER:                  -7.802
REMARK INTRA:                  -0.792
REMARK UNBOUND:                -0.579
REMARK SMILES COc1ccc(-c2cc(=O)c3c(OC)c(OC)c(OC)c(OC)c3o2)cc1OC
REMARK SMILES IDX 7 1 8 2 9 3 10 4 11 5 24 6 25 7 21 8 18 9 15 10 12 11 6 12
REMARK SMILES IDX 3 13 27 14 4 15 26 16 5 17 2 18 1 19 28 20 29 21 22 22 23 23
REMARK SMILES IDX 13 24 14 25 19 26 20 27 16 28 17 29
REMARK H PARENT
REMARK Flexibility Score: inf
ROOT
ATOM      1  C   UNL     1      32.662   9.981  63.094  1.00  0.00     0.138 A 
ATOM      2  C   UNL     1      31.314   9.662  62.880  1.00  0.00     0.100 A 
ATOM      3  C   UNL     1      30.342  10.209  63.715  1.00  0.00     0.197 A 
ATOM      4  O   UNL     1      29.132   9.914  63.511  1.00  0.00    -0.289 OA
ATOM      5  C   UNL     1      30.725  11.073  64.763  1.00  0.00     0.115 A 
ATOM      6  C   UNL     1      32.106  11.330  64.932  1.00  0.00     0.188 A 
ATOM      7  O   UNL     1      32.995  10.782  64.104  1.00  0.00    -0.452 OA
ATOM      8  C   UNL     1      32.551  12.190  65.954  1.00  0.00     0.209 A 
ATOM      9  C   UNL     1      31.609  12.819  66.804  1.00  0.00     0.211 A 
ATOM     10  C   UNL     1      30.244  12.537  66.655  1.00  0.00     0.208 A 
ATOM     11  C   UNL     1      29.790  11.705  65.613  1.00  0.00     0.179 A 
ENDROOT
BRANCH   1  12
ATOM     12  C   UNL     1      33.728   9.439  62.217  1.00  0.00     0.021 A 
ATOM     13  C   UNL     1      35.728   8.385  60.526  1.00  0.00     0.160 A 
ATOM     14  C   UNL     1      35.973   8.515  61.901  1.00  0.00     0.161 A 
ATOM     15  C   UNL     1      34.482   8.776  60.004  1.00  0.00     0.051 A 
ATOM     16  C   UNL     1      34.970   9.038  62.742  1.00  0.00     0.062 A 
ATOM     17  C   UNL     1      33.494   9.293  60.843  1.00  0.00     0.016 A 
BRANCH  13  18
ATOM     18  O   UNL     1      36.746   7.862  59.713  1.00  0.00    -0.493 OA
ATOM     19  C   UNL     1      36.629   6.673  58.938  1.00  0.00     0.278 C 
ENDBRANCH  13  18
BRANCH  14  20
ATOM     20  O   UNL     1      37.223   8.109  62.394  1.00  0.00    -0.493 OA
ATOM     21  C   UNL     1      37.484   6.846  63.001  1.00  0.00     0.278 C 
ENDBRANCH  14  20
ENDBRANCH   1  12
BRANCH   8  22
ATOM     22  O   UNL     1      33.918  12.434  66.112  1.00  0.00    -0.490 OA
ATOM     23  C   UNL     1      34.760  11.594  66.894  1.00  0.00     0.278 C 
ENDBRANCH   8  22
BRANCH  11  24
ATOM     24  O   UNL     1      28.420  11.524  65.400  1.00  0.00    -0.492 OA
ATOM     25  C   UNL     1      27.573  12.588  64.976  1.00  0.00     0.278 C 
ENDBRANCH  11  24
BRANCH   9  26
ATOM     26  O   UNL     1      31.960  13.715  67.832  1.00  0.00    -0.490 OA
ATOM     27  C   UNL     1      32.448  13.378  69.125  1.00  0.00     0.279 C 
ENDBRANCH   9  26
BRANCH  10  28
ATOM     28  O   UNL     1      29.352  13.105  67.573  1.00  0.00    -0.490 OA
ATOM     29  C   UNL     1      28.849  12.390  68.697  1.00  0.00     0.278 C 
ENDBRANCH  10  28
TORSDOF 7
ENDMDL
