MODEL 1
REMARK VINA RESULT:    -3.056      0.000      0.000
REMARK INTER + INTRA:          -3.862
REMARK INTER:                  -3.770
REMARK INTRA:                  -0.092
REMARK UNBOUND:                -0.092
REMARK SMILES CCCCCC(=O)[O-]
REMARK SMILES IDX 4 1 5 2 6 3 7 4 8 5 3 6 2 7 1 8
REMARK H PARENT
REMARK Flexibility Score: inf
ROOT
ATOM      1  C   UNL     1      61.667  33.781  60.302  1.00  0.00     0.006 C 
ENDROOT
BRANCH   1   2
ATOM      2  C   UNL     1      62.199  32.397  60.696  1.00  0.00     0.053 C 
BRANCH   2   3
ATOM      3  C   UNL     1      61.068  31.433  60.869  1.00  0.00     0.041 C 
ATOM      4  O   UNL     1      60.342  31.124  59.886  1.00  0.00    -0.550 OA
ATOM      5  O   UNL     1      60.845  30.835  62.103  1.00  0.00    -0.550 OA
ENDBRANCH   2   3
ENDBRANCH   1   2
BRANCH   1   6
ATOM      6  C   UNL     1      62.614  34.924  60.706  1.00  0.00     0.000 C 
BRANCH   6   7
ATOM      7  C   UNL     1      64.042  34.480  61.073  1.00  0.00    -0.003 C 
ATOM      8  C   UNL     1      64.842  35.568  61.787  1.00  0.00     0.004 C 
ENDBRANCH   6   7
ENDBRANCH   1   6
TORSDOF 4
ENDMDL
MODEL 2
REMARK VINA RESULT:    -3.038     12.238     14.065
REMARK INTER + INTRA:          -3.840
REMARK INTER:                  -3.747
REMARK INTRA:                  -0.093
REMARK UNBOUND:                -0.092
REMARK SMILES CCCCCC(=O)[O-]
REMARK SMILES IDX 4 1 5 2 6 3 7 4 8 5 3 6 2 7 1 8
REMARK H PARENT
REMARK Flexibility Score: inf
ROOT
ATOM      1  C   UNL     1      55.852  28.668  50.458  1.00  0.00     0.006 C 
ENDROOT
BRANCH   1   2
ATOM      2  C   UNL     1      57.227  28.013  50.273  1.00  0.00     0.053 C 
BRANCH   2   3
ATOM      3  C   UNL     1      58.290  29.057  50.142  1.00  0.00     0.041 C 
ATOM      4  O   UNL     1      58.669  29.706  51.154  1.00  0.00    -0.550 OA
ATOM      5  O   UNL     1      58.898  29.281  48.913  1.00  0.00    -0.550 OA
ENDBRANCH   2   3
ENDBRANCH   1   2
BRANCH   1   6
ATOM      6  C   UNL     1      54.687  27.725  50.109  1.00  0.00     0.000 C 
BRANCH   6   7
ATOM      7  C   UNL     1      55.106  26.290  49.741  1.00  0.00    -0.003 C 
ATOM      8  C   UNL     1      53.991  25.495  49.063  1.00  0.00     0.004 C 
ENDBRANCH   6   7
ENDBRANCH   1   6
TORSDOF 4
ENDMDL
MODEL 3
REMARK VINA RESULT:    -2.954      1.067      1.335
REMARK INTER + INTRA:          -3.737
REMARK INTER:                  -3.611
REMARK INTRA:                  -0.126
REMARK UNBOUND:                -0.092
REMARK SMILES CCCCCC(=O)[O-]
REMARK SMILES IDX 4 1 5 2 6 3 7 4 8 5 3 6 2 7 1 8
REMARK H PARENT
REMARK Flexibility Score: inf
ROOT
ATOM      1  C   UNL     1      61.926  32.673  60.229  1.00  0.00     0.006 C 
ENDROOT
BRANCH   1   2
ATOM      2  C   UNL     1      62.693  31.440  60.724  1.00  0.00     0.053 C 
BRANCH   2   3
ATOM      3  C   UNL     1      61.811  30.585  61.578  1.00  0.00     0.041 C 
ATOM      4  O   UNL     1      60.676  31.000  61.933  1.00  0.00    -0.550 OA
ATOM      5  O   UNL     1      62.221  29.308  61.942  1.00  0.00    -0.550 OA
ENDBRANCH   2   3
ENDBRANCH   1   2
BRANCH   1   6
ATOM      6  C   UNL     1      62.568  33.998  60.678  1.00  0.00     0.000 C 
BRANCH   6   7
ATOM      7  C   UNL     1      64.102  33.963  60.799  1.00  0.00    -0.003 C 
ATOM      8  C   UNL     1      64.665  35.132  61.607  1.00  0.00     0.004 C 
ENDBRANCH   6   7
ENDBRANCH   1   6
TORSDOF 4
ENDMDL
MODEL 4
REMARK VINA RESULT:    -2.944      2.852      4.416
REMARK INTER + INTRA:          -3.724
REMARK INTER:                  -3.661
REMARK INTRA:                  -0.063
REMARK UNBOUND:                -0.092
REMARK SMILES CCCCCC(=O)[O-]
REMARK SMILES IDX 4 1 5 2 6 3 7 4 8 5 3 6 2 7 1 8
REMARK H PARENT
REMARK Flexibility Score: inf
ROOT
ATOM      1  C   UNL     1      62.330  32.669  60.541  1.00  0.00     0.006 C 
ENDROOT
BRANCH   1   2
ATOM      2  C   UNL     1      62.046  34.161  60.325  1.00  0.00     0.053 C 
BRANCH   2   3
ATOM      3  C   UNL     1      63.065  34.995  61.034  1.00  0.00     0.041 C 
ATOM      4  O   UNL     1      62.804  36.188  61.344  1.00  0.00    -0.550 OA
ATOM      5  O   UNL     1      64.287  34.442  61.399  1.00  0.00    -0.550 OA
ENDBRANCH   2   3
ENDBRANCH   1   2
BRANCH   1   6
ATOM      6  C   UNL     1      61.051  31.815  60.579  1.00  0.00     0.000 C 
BRANCH   6   7
ATOM      7  C   UNL     1      60.981  30.808  61.741  1.00  0.00    -0.003 C 
ATOM      8  C   UNL     1      62.178  29.859  61.783  1.00  0.00     0.004 C 
ENDBRANCH   6   7
ENDBRANCH   1   6
TORSDOF 4
ENDMDL
MODEL 5
REMARK VINA RESULT:    -2.941      1.840      2.497
REMARK INTER + INTRA:          -3.721
REMARK INTER:                  -3.660
REMARK INTRA:                  -0.061
REMARK UNBOUND:                -0.092
REMARK SMILES CCCCCC(=O)[O-]
REMARK SMILES IDX 4 1 5 2 6 3 7 4 8 5 3 6 2 7 1 8
REMARK H PARENT
REMARK Flexibility Score: inf
ROOT
ATOM      1  C   UNL     1      61.111  31.709  60.586  1.00  0.00     0.006 C 
ENDROOT
BRANCH   1   2
ATOM      2  C   UNL     1      61.162  30.806  61.825  1.00  0.00     0.053 C 
BRANCH   2   3
ATOM      3  C   UNL     1      62.086  29.653  61.593  1.00  0.00     0.041 C 
ATOM      4  O   UNL     1      61.627  28.535  61.235  1.00  0.00    -0.550 OA
ATOM      5  O   UNL     1      63.459  29.823  61.725  1.00  0.00    -0.550 OA
ENDBRANCH   2   3
ENDBRANCH   1   2
BRANCH   1   6
ATOM      6  C   UNL     1      62.168  32.827  60.615  1.00  0.00     0.000 C 
BRANCH   6   7
ATOM      7  C   UNL     1      61.628  34.234  60.302  1.00  0.00    -0.003 C 
ATOM      8  C   UNL     1      62.513  35.352  60.852  1.00  0.00     0.004 C 
ENDBRANCH   6   7
ENDBRANCH   1   6
TORSDOF 4
ENDMDL
MODEL 6
REMARK VINA RESULT:    -2.908     12.348     13.518
REMARK INTER + INTRA:          -3.680
REMARK INTER:                  -3.538
REMARK INTRA:                  -0.142
REMARK UNBOUND:                -0.092
REMARK SMILES CCCCCC(=O)[O-]
REMARK SMILES IDX 4 1 5 2 6 3 7 4 8 5 3 6 2 7 1 8
REMARK H PARENT
REMARK Flexibility Score: inf
ROOT
ATOM      1  C   UNL     1      58.110  28.895  50.695  1.00  0.00     0.006 C 
ENDROOT
BRANCH   1   2
ATOM      2  C   UNL     1      58.877  28.927  49.367  1.00  0.00     0.053 C 
BRANCH   2   3
ATOM      3  C   UNL     1      59.786  27.743  49.261  1.00  0.00     0.041 C 
ATOM      4  O   UNL     1      61.035  27.905  49.217  1.00  0.00    -0.550 OA
ATOM      5  O   UNL     1      59.258  26.458  49.259  1.00  0.00    -0.550 OA
ENDBRANCH   2   3
ENDBRANCH   1   2
BRANCH   1   6
ATOM      6  C   UNL     1      56.583  28.887  50.504  1.00  0.00     0.000 C 
BRANCH   6   7
ATOM      7  C   UNL     1      55.971  27.497  50.253  1.00  0.00    -0.003 C 
ATOM      8  C   UNL     1      54.479  27.550  49.924  1.00  0.00     0.004 C 
ENDBRANCH   6   7
ENDBRANCH   1   6
TORSDOF 4
ENDMDL
MODEL 7
REMARK VINA RESULT:    -2.844     12.587     13.382
REMARK INTER + INTRA:          -3.601
REMARK INTER:                  -3.397
REMARK INTRA:                  -0.205
REMARK UNBOUND:                -0.092
REMARK SMILES CCCCCC(=O)[O-]
REMARK SMILES IDX 4 1 5 2 6 3 7 4 8 5 3 6 2 7 1 8
REMARK H PARENT
REMARK Flexibility Score: inf
ROOT
ATOM      1  C   UNL     1      57.511  28.235  50.887  1.00  0.00     0.006 C 
ENDROOT
BRANCH   1   2
ATOM      2  C   UNL     1      56.125  27.842  50.359  1.00  0.00     0.053 C 
BRANCH   2   3
ATOM      3  C   UNL     1      56.108  26.400  49.960  1.00  0.00     0.041 C 
ATOM      4  O   UNL     1      57.027  25.627  50.341  1.00  0.00    -0.550 OA
ATOM      5  O   UNL     1      55.052  25.898  49.210  1.00  0.00    -0.550 OA
ENDBRANCH   2   3
ENDBRANCH   1   2
BRANCH   1   6
ATOM      6  C   UNL     1      58.130  29.418  50.122  1.00  0.00     0.000 C 
BRANCH   6   7
ATOM      7  C   UNL     1      59.148  29.023  49.037  1.00  0.00    -0.003 C 
ATOM      8  C   UNL     1      59.772  27.648  49.274  1.00  0.00     0.004 C 
ENDBRANCH   6   7
ENDBRANCH   1   6
TORSDOF 4
ENDMDL
MODEL 8
REMARK VINA RESULT:    -2.827      2.719      4.230
REMARK INTER + INTRA:          -3.580
REMARK INTER:                  -3.394
REMARK INTRA:                  -0.186
REMARK UNBOUND:                -0.092
REMARK SMILES CCCCCC(=O)[O-]
REMARK SMILES IDX 4 1 5 2 6 3 7 4 8 5 3 6 2 7 1 8
REMARK H PARENT
REMARK Flexibility Score: inf
ROOT
ATOM      1  C   UNL     1      61.904  32.112  60.179  1.00  0.00     0.006 C 
ENDROOT
BRANCH   1   2
ATOM      2  C   UNL     1      62.315  33.531  60.592  1.00  0.00     0.053 C 
BRANCH   2   3
ATOM      3  C   UNL     1      63.805  33.636  60.685  1.00  0.00     0.041 C 
ATOM      4  O   UNL     1      64.334  34.433  61.506  1.00  0.00    -0.550 OA
ATOM      5  O   UNL     1      64.611  32.820  59.901  1.00  0.00    -0.550 OA
ENDBRANCH   2   3
ENDBRANCH   1   2
BRANCH   1   6
ATOM      6  C   UNL     1      61.121  31.371  61.278  1.00  0.00     0.000 C 
BRANCH   6   7
ATOM      7  C   UNL     1      61.748  30.042  61.734  1.00  0.00    -0.003 C 
ATOM      8  C   UNL     1      63.265  30.003  61.552  1.00  0.00     0.004 C 
ENDBRANCH   6   7
ENDBRANCH   1   6
TORSDOF 4
ENDMDL
MODEL 9
REMARK VINA RESULT:    -2.752      1.848      2.078
REMARK INTER + INTRA:          -3.487
REMARK INTER:                  -3.312
REMARK INTRA:                  -0.176
REMARK UNBOUND:                -0.092
REMARK SMILES CCCCCC(=O)[O-]
REMARK SMILES IDX 4 1 5 2 6 3 7 4 8 5 3 6 2 7 1 8
REMARK H PARENT
REMARK Flexibility Score: inf
ROOT
ATOM      1  C   UNL     1      62.704  34.374  60.057  1.00  0.00     0.006 C 
ENDROOT
BRANCH   1   2
ATOM      2  C   UNL     1      62.092  33.060  60.559  1.00  0.00     0.053 C 
BRANCH   2   3
ATOM      3  C   UNL     1      63.139  31.996  60.646  1.00  0.00     0.041 C 
ATOM      4  O   UNL     1      64.360  32.302  60.594  1.00  0.00    -0.550 OA
ATOM      5  O   UNL     1      62.770  30.670  60.835  1.00  0.00    -0.550 OA
ENDBRANCH   2   3
ENDBRANCH   1   2
BRANCH   1   6
ATOM      6  C   UNL     1      62.389  35.570  60.973  1.00  0.00     0.000 C 
BRANCH   6   7
ATOM      7  C   UNL     1      63.611  36.412  61.380  1.00  0.00    -0.003 C 
ATOM      8  C   UNL     1      64.820  35.562  61.770  1.00  0.00     0.004 C 
ENDBRANCH   6   7
ENDBRANCH   1   6
TORSDOF 4
ENDMDL
