MODEL 1
REMARK VINA RESULT:    -7.197      0.000      0.000
REMARK INTER + INTRA:          -8.934
REMARK INTER:                  -8.248
REMARK INTRA:                  -0.686
REMARK UNBOUND:                -0.686
REMARK SMILES C=C(C)[C@H]1CC[C@]2(C(=O)[O-])CC[C@]3(C)[C@H](CC[C@@H]4[C@]5(C)CC[C@H](O)C(C)(C)[C@H]5CC[C@@]43C)[C@H]12
REMARK SMILES IDX 7 1 6 2 33 3 11 4 5 5 15 6 4 7 12 8 16 9 13 10 17 11 31 12
REMARK SMILES IDX 14 13 18 14 30 15 32 16 19 17 29 18 21 19 20 20 28 21 22 22
REMARK SMILES IDX 25 23 23 24 26 25 27 26 8 27 9 28 10 29 2 30 3 31 1 32 24 33
REMARK H PARENT 24 34
REMARK Flexibility Score: inf
ROOT
ATOM      1  C   UNL     1      12.044  -2.702  32.494  1.00  0.00     0.014 C 
ATOM      2  C   UNL     1      11.724  -4.209  32.485  1.00  0.00     0.014 C 
ATOM      3  C   UNL     1      13.450  -2.639  33.161  1.00  0.00     0.012 C 
ATOM      4  C   UNL     1      12.036  -2.168  31.036  1.00  0.00     0.014 C 
ATOM      5  C   UNL     1      13.053  -4.930  32.321  1.00  0.00     0.009 C 
ATOM      6  C   UNL     1      14.309  -1.382  32.778  1.00  0.00     0.000 C 
ATOM      7  C   UNL     1      14.114  -4.034  32.972  1.00  0.00     0.018 C 
ATOM      8  C   UNL     1      12.780  -0.833  30.875  1.00  0.00     0.008 C 
ATOM      9  C   UNL     1      15.734  -1.484  33.312  1.00  0.00     0.005 C 
ATOM     10  C   UNL     1      14.291  -0.907  31.284  1.00  0.00    -0.024 C 
ATOM     11  C   UNL     1      16.406  -0.123  33.289  1.00  0.00     0.005 C 
ATOM     12  C   UNL     1      15.045   0.534  31.131  1.00  0.00    -0.024 C 
ATOM     13  C   UNL     1      14.991  -1.953  30.352  1.00  0.00     0.012 C 
ATOM     14  C   UNL     1      16.471   0.545  31.878  1.00  0.00     0.002 C 
ATOM     15  C   UNL     1      14.172   1.701  31.702  1.00  0.00     0.008 C 
ATOM     16  C   UNL     1      15.234   0.810  29.599  1.00  0.00     0.012 C 
ATOM     17  C   UNL     1      17.194   1.987  31.942  1.00  0.00    -0.026 C 
ATOM     18  C   UNL     1      14.855   3.079  31.727  1.00  0.00     0.005 C 
ATOM     19  C   UNL     1      18.443   1.963  32.895  1.00  0.00     0.010 C 
ATOM     20  C   UNL     1      17.730   2.345  30.515  1.00  0.00     0.012 C 
ATOM     21  C   UNL     1      16.184   3.054  32.516  1.00  0.00     0.003 C 
ATOM     22  C   UNL     1      19.078   3.341  33.148  1.00  0.00     0.033 C 
ATOM     23  C   UNL     1      16.790   4.487  32.826  1.00  0.00    -0.006 C 
ATOM     24  C   UNL     1      18.057   4.335  33.728  1.00  0.00     0.120 C 
ATOM     25  C   UNL     1      17.147   5.304  31.557  1.00  0.00     0.014 C 
ATOM     26  C   UNL     1      15.756   5.343  33.614  1.00  0.00     0.014 C 
ENDROOT
BRANCH   1  27
ATOM     27  C   UNL     1      10.992  -1.953  33.300  1.00  0.00     0.048 C 
ATOM     28  O   UNL     1       9.775  -2.003  32.978  1.00  0.00    -0.550 OA
ATOM     29  O   UNL     1      11.357  -1.264  34.455  1.00  0.00    -0.550 OA
ENDBRANCH   1  27
BRANCH   7  30
ATOM     30  C   UNL     1      14.652  -4.628  34.275  1.00  0.00    -0.077 C 
ATOM     31  C   UNL     1      14.302  -3.994  35.598  1.00  0.00     0.039 C 
ATOM     32  C   UNL     1      15.474  -5.693  34.278  1.00  0.00     0.008 C 
ENDBRANCH   7  30
BRANCH  24  33
ATOM     33  O   UNL     1      17.685   3.912  35.017  1.00  0.00    -0.393 OA
ATOM     34  H   UNL     1      18.072   3.009  35.154  1.00  0.00     0.210 HD
ENDBRANCH  24  33
TORSDOF 3
ENDMDL
MODEL 2
REMARK VINA RESULT:    -5.949      1.415      1.944
REMARK INTER + INTRA:          -7.504
REMARK INTER:                  -6.845
REMARK INTRA:                  -0.659
REMARK UNBOUND:                -0.686
REMARK SMILES C=C(C)[C@H]1CC[C@]2(C(=O)[O-])CC[C@]3(C)[C@H](CC[C@@H]4[C@]5(C)CC[C@H](O)C(C)(C)[C@H]5CC[C@@]43C)[C@H]12
REMARK SMILES IDX 7 1 6 2 33 3 11 4 5 5 15 6 4 7 12 8 16 9 13 10 17 11 31 12
REMARK SMILES IDX 14 13 18 14 30 15 32 16 19 17 29 18 21 19 20 20 28 21 22 22
REMARK SMILES IDX 25 23 23 24 26 25 27 26 8 27 9 28 10 29 2 30 3 31 1 32 24 33
REMARK H PARENT 24 34
REMARK Flexibility Score: inf
ROOT
ATOM      1  C   UNL     1      13.068  -2.011  31.990  1.00  0.00     0.014 C 
ATOM      2  C   UNL     1      12.727  -3.503  32.173  1.00  0.00     0.014 C 
ATOM      3  C   UNL     1      13.786  -1.643  33.321  1.00  0.00     0.012 C 
ATOM      4  C   UNL     1      13.973  -1.842  30.740  1.00  0.00     0.014 C 
ATOM      5  C   UNL     1      13.839  -4.096  33.024  1.00  0.00     0.009 C 
ATOM      6  C   UNL     1      14.777  -0.428  33.225  1.00  0.00     0.000 C 
ATOM      7  C   UNL     1      14.345  -2.963  33.926  1.00  0.00     0.018 C 
ATOM      8  C   UNL     1      14.742  -0.511  30.724  1.00  0.00     0.008 C 
ATOM      9  C   UNL     1      15.582  -0.248  34.508  1.00  0.00     0.005 C 
ATOM     10  C   UNL     1      15.693  -0.325  31.956  1.00  0.00    -0.024 C 
ATOM     11  C   UNL     1      16.212   1.132  34.547  1.00  0.00     0.005 C 
ATOM     12  C   UNL     1      16.472   1.110  31.926  1.00  0.00    -0.024 C 
ATOM     13  C   UNL     1      16.749  -1.482  31.929  1.00  0.00     0.012 C 
ATOM     14  C   UNL     1      17.156   1.450  33.342  1.00  0.00     0.002 C 
ATOM     15  C   UNL     1      15.504   2.280  31.544  1.00  0.00     0.008 C 
ATOM     16  C   UNL     1      17.563   1.034  30.802  1.00  0.00     0.012 C 
ATOM     17  C   UNL     1      17.779   2.934  33.459  1.00  0.00    -0.026 C 
ATOM     18  C   UNL     1      16.115   3.689  31.623  1.00  0.00     0.005 C 
ATOM     19  C   UNL     1      18.195   3.270  34.936  1.00  0.00     0.010 C 
ATOM     20  C   UNL     1      19.088   2.999  32.601  1.00  0.00     0.012 C 
ATOM     21  C   UNL     1      16.693   3.993  33.023  1.00  0.00     0.003 C 
ATOM     22  C   UNL     1      18.632   4.729  35.159  1.00  0.00     0.033 C 
ATOM     23  C   UNL     1      17.075   5.516  33.258  1.00  0.00    -0.006 C 
ATOM     24  C   UNL     1      17.530   5.717  34.740  1.00  0.00     0.120 C 
ATOM     25  C   UNL     1      18.175   6.041  32.299  1.00  0.00     0.014 C 
ATOM     26  C   UNL     1      15.830   6.419  33.025  1.00  0.00     0.014 C 
ENDROOT
BRANCH   1  27
ATOM     27  C   UNL     1      11.790  -1.209  31.786  1.00  0.00     0.048 C 
ATOM     28  O   UNL     1      11.128  -0.788  32.771  1.00  0.00    -0.550 OA
ATOM     29  O   UNL     1      11.381  -0.863  30.499  1.00  0.00    -0.550 OA
ENDBRANCH   1  27
BRANCH   7  30
ATOM     30  C   UNL     1      13.950  -3.171  35.389  1.00  0.00    -0.077 C 
ATOM     31  C   UNL     1      12.994  -2.216  36.059  1.00  0.00     0.039 C 
ATOM     32  C   UNL     1      14.469  -4.172  36.125  1.00  0.00     0.008 C 
ENDBRANCH   7  30
BRANCH  24  33
ATOM     33  O   UNL     1      16.430   5.575  35.606  1.00  0.00    -0.393 OA
ATOM     34  H   UNL     1      16.735   5.039  36.383  1.00  0.00     0.210 HD
ENDBRANCH  24  33
TORSDOF 3
ENDMDL
MODEL 3
REMARK VINA RESULT:    -5.923      3.109      5.505
REMARK INTER + INTRA:          -7.474
REMARK INTER:                  -6.805
REMARK INTRA:                  -0.668
REMARK UNBOUND:                -0.686
REMARK SMILES C=C(C)[C@H]1CC[C@]2(C(=O)[O-])CC[C@]3(C)[C@H](CC[C@@H]4[C@]5(C)CC[C@H](O)C(C)(C)[C@H]5CC[C@@]43C)[C@H]12
REMARK SMILES IDX 7 1 6 2 33 3 11 4 5 5 15 6 4 7 12 8 16 9 13 10 17 11 31 12
REMARK SMILES IDX 14 13 18 14 30 15 32 16 19 17 29 18 21 19 20 20 28 21 22 22
REMARK SMILES IDX 25 23 23 24 26 25 27 26 8 27 9 28 10 29 2 30 3 31 1 32 24 33
REMARK H PARENT 24 34
REMARK Flexibility Score: inf
ROOT
ATOM      1  C   UNL     1      15.628   0.994  29.559  1.00  0.00     0.014 C 
ATOM      2  C   UNL     1      15.487  -0.540  29.569  1.00  0.00     0.014 C 
ATOM      3  C   UNL     1      15.132   1.407  30.976  1.00  0.00     0.012 C 
ATOM      4  C   UNL     1      17.111   1.371  29.298  1.00  0.00     0.014 C 
ATOM      5  C   UNL     1      15.746  -0.987  30.999  1.00  0.00     0.009 C 
ATOM      6  C   UNL     1      15.703   2.770  31.507  1.00  0.00     0.000 C 
ATOM      7  C   UNL     1      15.290   0.166  31.902  1.00  0.00     0.018 C 
ATOM      8  C   UNL     1      17.456   2.808  29.721  1.00  0.00     0.008 C 
ATOM      9  C   UNL     1      15.329   3.014  32.966  1.00  0.00     0.005 C 
ATOM     10  C   UNL     1      17.218   3.083  31.246  1.00  0.00    -0.024 C 
ATOM     11  C   UNL     1      15.531   4.474  33.326  1.00  0.00     0.005 C 
ATOM     12  C   UNL     1      17.563   4.626  31.657  1.00  0.00    -0.024 C 
ATOM     13  C   UNL     1      18.142   2.116  32.060  1.00  0.00     0.012 C 
ATOM     14  C   UNL     1      16.987   5.001  33.112  1.00  0.00     0.002 C 
ATOM     15  C   UNL     1      16.986   5.641  30.613  1.00  0.00     0.008 C 
ATOM     16  C   UNL     1      19.123   4.784  31.635  1.00  0.00     0.012 C 
ATOM     17  C   UNL     1      17.114   6.559  33.513  1.00  0.00    -0.026 C 
ATOM     18  C   UNL     1      17.142   7.125  30.986  1.00  0.00     0.005 C 
ATOM     19  C   UNL     1      16.310   6.883  34.824  1.00  0.00     0.010 C 
ATOM     20  C   UNL     1      18.616   6.878  33.822  1.00  0.00     0.012 C 
ATOM     21  C   UNL     1      16.510   7.448  32.359  1.00  0.00     0.003 C 
ATOM     22  C   UNL     1      16.236   8.380  35.172  1.00  0.00     0.033 C 
ATOM     23  C   UNL     1      16.380   8.998  32.672  1.00  0.00    -0.006 C 
ATOM     24  C   UNL     1      15.620   9.196  34.023  1.00  0.00     0.120 C 
ATOM     25  C   UNL     1      17.740   9.743  32.724  1.00  0.00     0.014 C 
ATOM     26  C   UNL     1      15.546   9.698  31.560  1.00  0.00     0.014 C 
ENDROOT
BRANCH   1  27
ATOM     27  C   UNL     1      14.766   1.588  28.454  1.00  0.00     0.048 C 
ATOM     28  O   UNL     1      13.883   2.447  28.714  1.00  0.00    -0.550 OA
ATOM     29  O   UNL     1      15.001   1.242  27.124  1.00  0.00    -0.550 OA
ENDBRANCH   1  27
BRANCH   7  30
ATOM     30  C   UNL     1      14.016  -0.177  32.676  1.00  0.00    -0.077 C 
ATOM     31  C   UNL     1      12.676  -0.139  31.984  1.00  0.00     0.039 C 
ATOM     32  C   UNL     1      14.046  -0.476  33.988  1.00  0.00     0.008 C 
ENDBRANCH   7  30
BRANCH  24  33
ATOM     33  O   UNL     1      14.268   8.834  33.874  1.00  0.00    -0.393 OA
ATOM     34  H   UNL     1      13.823   8.997  34.745  1.00  0.00     0.210 HD
ENDBRANCH  24  33
TORSDOF 3
ENDMDL
MODEL 4
REMARK VINA RESULT:    -5.915      1.696      8.048
REMARK INTER + INTRA:          -7.465
REMARK INTER:                  -7.030
REMARK INTRA:                  -0.435
REMARK UNBOUND:                -0.686
REMARK SMILES C=C(C)[C@H]1CC[C@]2(C(=O)[O-])CC[C@]3(C)[C@H](CC[C@@H]4[C@]5(C)CC[C@H](O)C(C)(C)[C@H]5CC[C@@]43C)[C@H]12
REMARK SMILES IDX 7 1 6 2 33 3 11 4 5 5 15 6 4 7 12 8 16 9 13 10 17 11 31 12
REMARK SMILES IDX 14 13 18 14 30 15 32 16 19 17 29 18 21 19 20 20 28 21 22 22
REMARK SMILES IDX 25 23 23 24 26 25 27 26 8 27 9 28 10 29 2 30 3 31 1 32 24 33
REMARK H PARENT 24 34
REMARK Flexibility Score: inf
ROOT
ATOM      1  C   UNL     1      17.581   4.832  34.412  1.00  0.00     0.014 C 
ATOM      2  C   UNL     1      18.616   5.910  34.037  1.00  0.00     0.014 C 
ATOM      3  C   UNL     1      16.941   4.460  33.042  1.00  0.00     0.012 C 
ATOM      4  C   UNL     1      18.307   3.639  35.091  1.00  0.00     0.014 C 
ATOM      5  C   UNL     1      19.120   5.558  32.646  1.00  0.00     0.009 C 
ATOM      6  C   UNL     1      16.324   3.018  32.968  1.00  0.00     0.000 C 
ATOM      7  C   UNL     1      17.962   4.849  31.933  1.00  0.00     0.018 C 
ATOM      8  C   UNL     1      17.482   2.343  35.082  1.00  0.00     0.008 C 
ATOM      9  C   UNL     1      15.891   2.656  31.551  1.00  0.00     0.005 C 
ATOM     10  C   UNL     1      17.117   1.844  33.641  1.00  0.00    -0.024 C 
ATOM     11  C   UNL     1      14.952   1.464  31.574  1.00  0.00     0.005 C 
ATOM     12  C   UNL     1      16.214   0.483  33.667  1.00  0.00    -0.024 C 
ATOM     13  C   UNL     1      18.455   1.558  32.878  1.00  0.00     0.012 C 
ATOM     14  C   UNL     1      15.549   0.179  32.234  1.00  0.00     0.002 C 
ATOM     15  C   UNL     1      15.077   0.570  34.739  1.00  0.00     0.008 C 
ATOM     16  C   UNL     1      17.153  -0.700  34.090  1.00  0.00     0.012 C 
ATOM     17  C   UNL     1      14.487  -1.036  32.221  1.00  0.00    -0.026 C 
ATOM     18  C   UNL     1      14.090  -0.610  34.745  1.00  0.00     0.005 C 
ATOM     19  C   UNL     1      13.704  -1.103  30.860  1.00  0.00     0.010 C 
ATOM     20  C   UNL     1      15.267  -2.388  32.352  1.00  0.00     0.012 C 
ATOM     21  C   UNL     1      13.424  -0.815  33.365  1.00  0.00     0.003 C 
ATOM     22  C   UNL     1      12.551  -2.122  30.837  1.00  0.00     0.033 C 
ATOM     23  C   UNL     1      12.194  -1.818  33.374  1.00  0.00    -0.006 C 
ATOM     24  C   UNL     1      11.534  -1.847  31.957  1.00  0.00     0.120 C 
ATOM     25  C   UNL     1      12.565  -3.261  33.806  1.00  0.00     0.014 C 
ATOM     26  C   UNL     1      11.115  -1.328  34.382  1.00  0.00     0.014 C 
ENDROOT
BRANCH   1  27
ATOM     27  C   UNL     1      16.561   5.407  35.385  1.00  0.00     0.048 C 
ATOM     28  O   UNL     1      16.739   6.536  35.914  1.00  0.00    -0.550 OA
ATOM     29  O   UNL     1      15.375   4.720  35.639  1.00  0.00    -0.550 OA
ENDBRANCH   1  27
BRANCH   7  30
ATOM     30  C   UNL     1      17.353   5.710  30.825  1.00  0.00    -0.077 C 
ATOM     31  C   UNL     1      17.337   5.211  29.402  1.00  0.00     0.039 C 
ATOM     32  C   UNL     1      16.858   6.936  31.076  1.00  0.00     0.008 C 
ENDBRANCH   7  30
BRANCH  24  33
ATOM     33  O   UNL     1      10.886  -0.624  31.701  1.00  0.00    -0.393 OA
ATOM     34  H   UNL     1      10.762  -0.557  30.720  1.00  0.00     0.210 HD
ENDBRANCH  24  33
TORSDOF 3
ENDMDL
MODEL 5
REMARK VINA RESULT:    -5.543      2.436      3.954
REMARK INTER + INTRA:          -7.039
REMARK INTER:                  -6.499
REMARK INTRA:                  -0.539
REMARK UNBOUND:                -0.686
REMARK SMILES C=C(C)[C@H]1CC[C@]2(C(=O)[O-])CC[C@]3(C)[C@H](CC[C@@H]4[C@]5(C)CC[C@H](O)C(C)(C)[C@H]5CC[C@@]43C)[C@H]12
REMARK SMILES IDX 7 1 6 2 33 3 11 4 5 5 15 6 4 7 12 8 16 9 13 10 17 11 31 12
REMARK SMILES IDX 14 13 18 14 30 15 32 16 19 17 29 18 21 19 20 20 28 21 22 22
REMARK SMILES IDX 25 23 23 24 26 25 27 26 8 27 9 28 10 29 2 30 3 31 1 32 24 33
REMARK H PARENT 24 34
REMARK Flexibility Score: inf
ROOT
ATOM      1  C   UNL     1      15.152  -3.856  31.020  1.00  0.00     0.014 C 
ATOM      2  C   UNL     1      14.270  -5.119  31.057  1.00  0.00     0.014 C 
ATOM      3  C   UNL     1      14.225  -2.755  31.614  1.00  0.00     0.012 C 
ATOM      4  C   UNL     1      16.432  -4.099  31.866  1.00  0.00     0.014 C 
ATOM      5  C   UNL     1      13.369  -4.978  32.274  1.00  0.00     0.009 C 
ATOM      6  C   UNL     1      14.974  -1.543  32.275  1.00  0.00     0.000 C 
ATOM      7  C   UNL     1      13.147  -3.474  32.476  1.00  0.00     0.018 C 
ATOM      8  C   UNL     1      17.139  -2.799  32.283  1.00  0.00     0.008 C 
ATOM      9  C   UNL     1      14.013  -0.607  32.999  1.00  0.00     0.005 C 
ATOM     10  C   UNL     1      16.241  -1.850  33.148  1.00  0.00    -0.024 C 
ATOM     11  C   UNL     1      14.679   0.730  33.269  1.00  0.00     0.005 C 
ATOM     12  C   UNL     1      17.010  -0.465  33.548  1.00  0.00    -0.024 C 
ATOM     13  C   UNL     1      15.850  -2.616  34.457  1.00  0.00     0.012 C 
ATOM     14  C   UNL     1      15.990   0.643  34.115  1.00  0.00     0.002 C 
ATOM     15  C   UNL     1      17.777   0.139  32.325  1.00  0.00     0.008 C 
ATOM     16  C   UNL     1      18.085  -0.818  34.634  1.00  0.00     0.012 C 
ATOM     17  C   UNL     1      16.635   2.104  34.351  1.00  0.00    -0.026 C 
ATOM     18  C   UNL     1      18.419   1.515  32.568  1.00  0.00     0.005 C 
ATOM     19  C   UNL     1      15.531   3.178  34.660  1.00  0.00     0.010 C 
ATOM     20  C   UNL     1      17.564   2.046  35.611  1.00  0.00     0.012 C 
ATOM     21  C   UNL     1      17.386   2.562  33.042  1.00  0.00     0.003 C 
ATOM     22  C   UNL     1      16.050   4.625  34.720  1.00  0.00     0.033 C 
ATOM     23  C   UNL     1      17.918   4.057  33.033  1.00  0.00    -0.006 C 
ATOM     24  C   UNL     1      16.752   5.028  33.412  1.00  0.00     0.120 C 
ATOM     25  C   UNL     1      19.125   4.298  33.977  1.00  0.00     0.014 C 
ATOM     26  C   UNL     1      18.401   4.442  31.606  1.00  0.00     0.014 C 
ENDROOT
BRANCH   1  27
ATOM     27  C   UNL     1      15.560  -3.550  29.586  1.00  0.00     0.048 C 
ATOM     28  O   UNL     1      15.755  -2.364  29.208  1.00  0.00    -0.550 OA
ATOM     29  O   UNL     1      15.801  -4.592  28.691  1.00  0.00    -0.550 OA
ENDBRANCH   1  27
BRANCH   7  30
ATOM     30  C   UNL     1      11.718  -3.050  32.133  1.00  0.00    -0.077 C 
ATOM     31  C   UNL     1      10.779  -2.600  33.225  1.00  0.00     0.039 C 
ATOM     32  C   UNL     1      11.249  -3.106  30.873  1.00  0.00     0.008 C 
ENDBRANCH   7  30
BRANCH  24  33
ATOM     33  O   UNL     1      15.803   5.070  32.374  1.00  0.00    -0.393 OA
ATOM     34  H   UNL     1      14.906   5.045  32.795  1.00  0.00     0.210 HD
ENDBRANCH  24  33
TORSDOF 3
ENDMDL
MODEL 6
REMARK VINA RESULT:    -5.403      2.867      5.151
REMARK INTER + INTRA:          -6.878
REMARK INTER:                  -6.266
REMARK INTRA:                  -0.612
REMARK UNBOUND:                -0.686
REMARK SMILES C=C(C)[C@H]1CC[C@]2(C(=O)[O-])CC[C@]3(C)[C@H](CC[C@@H]4[C@]5(C)CC[C@H](O)C(C)(C)[C@H]5CC[C@@]43C)[C@H]12
REMARK SMILES IDX 7 1 6 2 33 3 11 4 5 5 15 6 4 7 12 8 16 9 13 10 17 11 31 12
REMARK SMILES IDX 14 13 18 14 30 15 32 16 19 17 29 18 21 19 20 20 28 21 22 22
REMARK SMILES IDX 25 23 23 24 26 25 27 26 8 27 9 28 10 29 2 30 3 31 1 32 24 33
REMARK H PARENT 24 34
REMARK Flexibility Score: inf
ROOT
ATOM      1  C   UNL     1      14.261  -2.689  35.091  1.00  0.00     0.014 C 
ATOM      2  C   UNL     1      13.126  -2.876  36.115  1.00  0.00     0.014 C 
ATOM      3  C   UNL     1      13.500  -2.404  33.762  1.00  0.00     0.012 C 
ATOM      4  C   UNL     1      15.167  -1.511  35.540  1.00  0.00     0.014 C 
ATOM      5  C   UNL     1      11.990  -1.967  35.671  1.00  0.00     0.009 C 
ATOM      6  C   UNL     1      14.312  -1.584  32.697  1.00  0.00     0.000 C 
ATOM      7  C   UNL     1      12.090  -1.867  34.143  1.00  0.00     0.018 C 
ATOM      8  C   UNL     1      16.026  -0.938  34.401  1.00  0.00     0.008 C 
ATOM      9  C   UNL     1      13.444  -1.181  31.509  1.00  0.00     0.005 C 
ATOM     10  C   UNL     1      15.183  -0.382  33.202  1.00  0.00    -0.024 C 
ATOM     11  C   UNL     1      14.314  -0.762  30.338  1.00  0.00     0.005 C 
ATOM     12  C   UNL     1      16.125   0.190  31.996  1.00  0.00    -0.024 C 
ATOM     13  C   UNL     1      14.282   0.779  33.744  1.00  0.00     0.012 C 
ATOM     14  C   UNL     1      15.287   0.422  30.642  1.00  0.00     0.002 C 
ATOM     15  C   UNL     1      17.315  -0.779  31.689  1.00  0.00     0.008 C 
ATOM     16  C   UNL     1      16.750   1.543  32.485  1.00  0.00     0.012 C 
ATOM     17  C   UNL     1      16.176   0.800  29.348  1.00  0.00    -0.026 C 
ATOM     18  C   UNL     1      18.179  -0.393  30.476  1.00  0.00     0.005 C 
ATOM     19  C   UNL     1      15.321   0.761  28.031  1.00  0.00     0.010 C 
ATOM     20  C   UNL     1      16.688   2.272  29.503  1.00  0.00     0.012 C 
ATOM     21  C   UNL     1      17.339  -0.253  29.187  1.00  0.00     0.003 C 
ATOM     22  C   UNL     1      16.136   0.935  26.737  1.00  0.00     0.033 C 
ATOM     23  C   UNL     1      18.196  -0.142  27.855  1.00  0.00    -0.006 C 
ATOM     24  C   UNL     1      17.240  -0.129  26.619  1.00  0.00     0.120 C 
ATOM     25  C   UNL     1      19.125   1.100  27.810  1.00  0.00     0.014 C 
ATOM     26  C   UNL     1      19.124  -1.382  27.715  1.00  0.00     0.014 C 
ENDROOT
BRANCH   1  27
ATOM     27  C   UNL     1      15.102  -3.955  35.011  1.00  0.00     0.048 C 
ATOM     28  O   UNL     1      16.037  -4.163  35.829  1.00  0.00    -0.550 OA
ATOM     29  O   UNL     1      14.793  -4.940  34.075  1.00  0.00    -0.550 OA
ENDBRANCH   1  27
BRANCH   7  30
ATOM     30  C   UNL     1      10.951  -2.609  33.441  1.00  0.00    -0.077 C 
ATOM     31  C   UNL     1      11.259  -3.703  32.448  1.00  0.00     0.039 C 
ATOM     32  C   UNL     1       9.662  -2.286  33.652  1.00  0.00     0.008 C 
ENDBRANCH   7  30
BRANCH  24  33
ATOM     33  O   UNL     1      16.645  -1.393  26.455  1.00  0.00    -0.393 OA
ATOM     34  H   UNL     1      15.662  -1.263  26.493  1.00  0.00     0.210 HD
ENDBRANCH  24  33
TORSDOF 3
ENDMDL
MODEL 7
REMARK VINA RESULT:    -5.135      2.235      7.677
REMARK INTER + INTRA:          -6.571
REMARK INTER:                  -6.010
REMARK INTRA:                  -0.562
REMARK UNBOUND:                -0.686
REMARK SMILES C=C(C)[C@H]1CC[C@]2(C(=O)[O-])CC[C@]3(C)[C@H](CC[C@@H]4[C@]5(C)CC[C@H](O)C(C)(C)[C@H]5CC[C@@]43C)[C@H]12
REMARK SMILES IDX 7 1 6 2 33 3 11 4 5 5 15 6 4 7 12 8 16 9 13 10 17 11 31 12
REMARK SMILES IDX 14 13 18 14 30 15 32 16 19 17 29 18 21 19 20 20 28 21 22 22
REMARK SMILES IDX 25 23 23 24 26 25 27 26 8 27 9 28 10 29 2 30 3 31 1 32 24 33
REMARK H PARENT 24 34
REMARK Flexibility Score: inf
ROOT
ATOM      1  C   UNL     1      17.480   3.015  30.137  1.00  0.00     0.014 C 
ATOM      2  C   UNL     1      17.760   4.528  30.204  1.00  0.00     0.014 C 
ATOM      3  C   UNL     1      17.410   2.598  31.636  1.00  0.00     0.012 C 
ATOM      4  C   UNL     1      16.150   2.773  29.372  1.00  0.00     0.014 C 
ATOM      5  C   UNL     1      17.066   5.040  31.456  1.00  0.00     0.009 C 
ATOM      6  C   UNL     1      16.557   1.312  31.926  1.00  0.00     0.000 C 
ATOM      7  C   UNL     1      17.063   3.875  32.455  1.00  0.00     0.018 C 
ATOM      8  C   UNL     1      15.540   1.388  29.641  1.00  0.00     0.008 C 
ATOM      9  C   UNL     1      16.375   1.077  33.422  1.00  0.00     0.005 C 
ATOM     10  C   UNL     1      15.205   1.136  31.151  1.00  0.00    -0.024 C 
ATOM     11  C   UNL     1      15.917  -0.347  33.681  1.00  0.00     0.005 C 
ATOM     12  C   UNL     1      14.587  -0.354  31.407  1.00  0.00    -0.024 C 
ATOM     13  C   UNL     1      14.155   2.210  31.598  1.00  0.00     0.012 C 
ATOM     14  C   UNL     1      14.581  -0.739  32.970  1.00  0.00     0.002 C 
ATOM     15  C   UNL     1      15.387  -1.449  30.625  1.00  0.00     0.008 C 
ATOM     16  C   UNL     1      13.124  -0.364  30.842  1.00  0.00     0.012 C 
ATOM     17  C   UNL     1      14.169  -2.266  33.293  1.00  0.00    -0.026 C 
ATOM     18  C   UNL     1      14.965  -2.900  30.911  1.00  0.00     0.005 C 
ATOM     19  C   UNL     1      14.431  -2.626  34.800  1.00  0.00     0.010 C 
ATOM     20  C   UNL     1      12.630  -2.432  33.056  1.00  0.00     0.012 C 
ATOM     21  C   UNL     1      15.045  -3.241  32.416  1.00  0.00     0.003 C 
ATOM     22  C   UNL     1      14.230  -4.113  35.143  1.00  0.00     0.033 C 
ATOM     23  C   UNL     1      14.904  -4.787  32.746  1.00  0.00    -0.006 C 
ATOM     24  C   UNL     1      15.123  -5.017  34.277  1.00  0.00     0.120 C 
ATOM     25  C   UNL     1      13.544  -5.398  32.316  1.00  0.00     0.014 C 
ATOM     26  C   UNL     1      15.998  -5.595  31.991  1.00  0.00     0.014 C 
ENDROOT
BRANCH   1  27
ATOM     27  C   UNL     1      18.609   2.310  29.398  1.00  0.00     0.048 C 
ATOM     28  O   UNL     1      19.054   1.203  29.802  1.00  0.00    -0.550 OA
ATOM     29  O   UNL     1      19.111   2.848  28.214  1.00  0.00    -0.550 OA
ENDBRANCH   1  27
BRANCH   7  30
ATOM     30  C   UNL     1      18.016   4.118  33.627  1.00  0.00    -0.077 C 
ATOM     31  C   UNL     1      17.765   5.257  34.583  1.00  0.00     0.039 C 
ATOM     32  C   UNL     1      19.113   3.361  33.813  1.00  0.00     0.008 C 
ENDBRANCH   7  30
BRANCH  24  33
ATOM     33  O   UNL     1      16.471  -4.789  34.610  1.00  0.00    -0.393 OA
ATOM     34  H   UNL     1      16.861  -5.662  34.874  1.00  0.00     0.210 HD
ENDBRANCH  24  33
TORSDOF 3
ENDMDL
MODEL 8
REMARK VINA RESULT:    -4.963      1.586      2.475
REMARK INTER + INTRA:          -6.374
REMARK INTER:                  -5.824
REMARK INTRA:                  -0.550
REMARK UNBOUND:                -0.686
REMARK SMILES C=C(C)[C@H]1CC[C@]2(C(=O)[O-])CC[C@]3(C)[C@H](CC[C@@H]4[C@]5(C)CC[C@H](O)C(C)(C)[C@H]5CC[C@@]43C)[C@H]12
REMARK SMILES IDX 7 1 6 2 33 3 11 4 5 5 15 6 4 7 12 8 16 9 13 10 17 11 31 12
REMARK SMILES IDX 14 13 18 14 30 15 32 16 19 17 29 18 21 19 20 20 28 21 22 22
REMARK SMILES IDX 25 23 23 24 26 25 27 26 8 27 9 28 10 29 2 30 3 31 1 32 24 33
REMARK H PARENT 24 34
REMARK Flexibility Score: inf
ROOT
ATOM      1  C   UNL     1      14.096  -2.128  32.135  1.00  0.00     0.014 C 
ATOM      2  C   UNL     1      14.174  -3.561  31.575  1.00  0.00     0.014 C 
ATOM      3  C   UNL     1      15.590  -1.751  32.360  1.00  0.00     0.012 C 
ATOM      4  C   UNL     1      13.383  -1.212  31.104  1.00  0.00     0.014 C 
ATOM      5  C   UNL     1      15.461  -3.639  30.769  1.00  0.00     0.009 C 
ATOM      6  C   UNL     1      15.896  -0.211  32.330  1.00  0.00     0.000 C 
ATOM      7  C   UNL     1      16.441  -2.658  31.425  1.00  0.00     0.018 C 
ATOM      8  C   UNL     1      13.655   0.283  31.331  1.00  0.00     0.008 C 
ATOM      9  C   UNL     1      17.394   0.072  32.364  1.00  0.00     0.005 C 
ATOM     10  C   UNL     1      15.174   0.661  31.244  1.00  0.00    -0.024 C 
ATOM     11  C   UNL     1      17.651   1.519  32.739  1.00  0.00     0.005 C 
ATOM     12  C   UNL     1      15.433   2.250  31.520  1.00  0.00    -0.024 C 
ATOM     13  C   UNL     1      15.679   0.301  29.806  1.00  0.00     0.012 C 
ATOM     14  C   UNL     1      16.989   2.566  31.785  1.00  0.00     0.002 C 
ATOM     15  C   UNL     1      14.603   2.762  32.744  1.00  0.00     0.008 C 
ATOM     16  C   UNL     1      14.928   3.038  30.262  1.00  0.00     0.012 C 
ATOM     17  C   UNL     1      17.306   4.076  32.258  1.00  0.00    -0.026 C 
ATOM     18  C   UNL     1      14.884   4.215  33.166  1.00  0.00     0.005 C 
ATOM     19  C   UNL     1      18.796   4.230  32.734  1.00  0.00     0.010 C 
ATOM     20  C   UNL     1      17.130   5.034  31.031  1.00  0.00     0.012 C 
ATOM     21  C   UNL     1      16.380   4.448  33.479  1.00  0.00     0.003 C 
ATOM     22  C   UNL     1      19.125   5.594  33.365  1.00  0.00     0.033 C 
ATOM     23  C   UNL     1      16.692   5.831  34.191  1.00  0.00    -0.006 C 
ATOM     24  C   UNL     1      18.209   5.896  34.564  1.00  0.00     0.120 C 
ATOM     25  C   UNL     1      16.309   7.073  33.344  1.00  0.00     0.014 C 
ATOM     26  C   UNL     1      15.881   5.944  35.514  1.00  0.00     0.014 C 
ENDROOT
BRANCH   1  27
ATOM     27  C   UNL     1      13.301  -2.121  33.434  1.00  0.00     0.048 C 
ATOM     28  O   UNL     1      12.079  -2.429  33.445  1.00  0.00    -0.550 OA
ATOM     29  O   UNL     1      13.940  -1.849  34.642  1.00  0.00    -0.550 OA
ENDBRANCH   1  27
BRANCH   7  30
ATOM     30  C   UNL     1      17.577  -3.379  32.154  1.00  0.00    -0.077 C 
ATOM     31  C   UNL     1      17.265  -4.432  33.188  1.00  0.00     0.039 C 
ATOM     32  C   UNL     1      18.867  -3.071  31.929  1.00  0.00     0.008 C 
ENDBRANCH   7  30
BRANCH  24  33
ATOM     33  O   UNL     1      18.491   4.986  35.600  1.00  0.00    -0.393 OA
ATOM     34  H   UNL     1      19.463   4.794  35.566  1.00  0.00     0.210 HD
ENDBRANCH  24  33
TORSDOF 3
ENDMDL
MODEL 9
REMARK VINA RESULT:    -4.787      3.478      6.559
REMARK INTER + INTRA:          -6.172
REMARK INTER:                  -5.616
REMARK INTRA:                  -0.556
REMARK UNBOUND:                -0.686
REMARK SMILES C=C(C)[C@H]1CC[C@]2(C(=O)[O-])CC[C@]3(C)[C@H](CC[C@@H]4[C@]5(C)CC[C@H](O)C(C)(C)[C@H]5CC[C@@]43C)[C@H]12
REMARK SMILES IDX 7 1 6 2 33 3 11 4 5 5 15 6 4 7 12 8 16 9 13 10 17 11 31 12
REMARK SMILES IDX 14 13 18 14 30 15 32 16 19 17 29 18 21 19 20 20 28 21 22 22
REMARK SMILES IDX 25 23 23 24 26 25 27 26 8 27 9 28 10 29 2 30 3 31 1 32 24 33
REMARK H PARENT 24 34
REMARK Flexibility Score: inf
ROOT
ATOM      1  C   UNL     1      12.422  -1.955  33.847  1.00  0.00     0.014 C 
ATOM      2  C   UNL     1      12.185  -1.371  35.253  1.00  0.00     0.014 C 
ATOM      3  C   UNL     1      13.838  -1.427  33.474  1.00  0.00     0.012 C 
ATOM      4  C   UNL     1      12.345  -3.504  33.916  1.00  0.00     0.014 C 
ATOM      5  C   UNL     1      13.547  -1.306  35.926  1.00  0.00     0.009 C 
ATOM      6  C   UNL     1      14.617  -2.301  32.427  1.00  0.00     0.000 C 
ATOM      7  C   UNL     1      14.574  -1.097  34.805  1.00  0.00     0.018 C 
ATOM      8  C   UNL     1      13.010  -4.198  32.716  1.00  0.00     0.008 C 
ATOM      9  C   UNL     1      16.059  -1.834  32.257  1.00  0.00     0.005 C 
ATOM     10  C   UNL     1      14.534  -3.861  32.566  1.00  0.00    -0.024 C 
ATOM     11  C   UNL     1      16.653  -2.408  30.984  1.00  0.00     0.005 C 
ATOM     12  C   UNL     1      15.202  -4.589  31.265  1.00  0.00    -0.024 C 
ATOM     13  C   UNL     1      15.266  -4.352  33.860  1.00  0.00     0.012 C 
ATOM     14  C   UNL     1      16.644  -3.969  30.908  1.00  0.00     0.002 C 
ATOM     15  C   UNL     1      14.281  -4.470  30.005  1.00  0.00     0.008 C 
ATOM     16  C   UNL     1      15.335  -6.117  31.593  1.00  0.00     0.012 C 
ATOM     17  C   UNL     1      17.288  -4.495  29.525  1.00  0.00    -0.026 C 
ATOM     18  C   UNL     1      14.887  -5.006  28.696  1.00  0.00     0.005 C 
ATOM     19  C   UNL     1      18.561  -3.663  29.129  1.00  0.00     0.010 C 
ATOM     20  C   UNL     1      17.765  -5.974  29.722  1.00  0.00     0.012 C 
ATOM     21  C   UNL     1      16.235  -4.328  28.362  1.00  0.00     0.003 C 
ATOM     22  C   UNL     1      19.125  -3.988  27.735  1.00  0.00     0.033 C 
ATOM     23  C   UNL     1      16.769  -4.620  26.895  1.00  0.00    -0.006 C 
ATOM     24  C   UNL     1      18.066  -3.787  26.637  1.00  0.00     0.120 C 
ATOM     25  C   UNL     1      17.047  -6.120  26.617  1.00  0.00     0.014 C 
ATOM     26  C   UNL     1      15.711  -4.174  25.846  1.00  0.00     0.014 C 
ENDROOT
BRANCH   1  27
ATOM     27  C   UNL     1      11.351  -1.451  32.889  1.00  0.00     0.048 C 
ATOM     28  O   UNL     1      11.616  -0.568  32.030  1.00  0.00    -0.550 OA
ATOM     29  O   UNL     1      10.079  -2.021  32.901  1.00  0.00    -0.550 OA
ENDBRANCH   1  27
BRANCH   7  30
ATOM     30  C   UNL     1      15.178   0.308  34.830  1.00  0.00    -0.077 C 
ATOM     31  C   UNL     1      15.779   0.852  36.102  1.00  0.00     0.039 C 
ATOM     32  C   UNL     1      15.153   1.106  33.746  1.00  0.00     0.008 C 
ENDBRANCH   7  30
BRANCH  24  33
ATOM     33  O   UNL     1      17.751  -2.419  26.546  1.00  0.00    -0.393 OA
ATOM     34  H   UNL     1      18.258  -2.051  25.776  1.00  0.00     0.210 HD
ENDBRANCH  24  33
TORSDOF 3
ENDMDL
