MODEL 1
REMARK VINA RESULT:    -3.619      0.000      0.000
REMARK INTER + INTRA:          -3.611
REMARK INTER:                  -4.466
REMARK INTRA:                   0.854
REMARK UNBOUND:                 0.854
REMARK SMILES CC1=CC=CC(C)(C)CC1=O
REMARK SMILES IDX 1 1 2 2 3 3 10 4 11 5 9 6 4 8 5 9 6 10 7 11 8 12
REMARK H PARENT
REMARK Flexibility Score: 80.00
ROOT
ATOM      1  C   UNL     1       1.132 -24.561  13.719  1.00  0.00     0.048 C 
ATOM      2  C   UNL     1       0.051 -25.534  14.128  1.00  0.00    -0.008 C 
ATOM      3  C   UNL     1      -0.591 -25.309  15.295  1.00  0.00     0.007 C 
ENDROOT
BRANCH   2   4
ATOM      4  C   UNL     1      -0.177 -26.696  13.229  1.00  0.00     0.159 C 
ATOM      5  O   UNL     1       0.486 -26.769  12.158  1.00  0.00    -0.295 OA
BRANCH   4   6
ATOM      6  C   UNL     1      -1.122 -27.821  13.531  1.00  0.00     0.091 CG0
ATOM      7  G   UNL     1      -2.541 -27.356  13.932  1.00  0.00     0.000 G0
ENDBRANCH   4   6
ENDBRANCH   2   4
BRANCH   3   8
ATOM      8  C   UNL     1      -1.684 -26.074  15.937  1.00  0.00    -0.003 C 
ATOM      9  C   UNL     1      -2.544 -26.931  15.375  1.00  0.00    -0.020 C 
BRANCH   9  10
ATOM     10  C   UNL     1      -2.548 -27.371  13.931  1.00  0.00    -0.010 CG0
ATOM     11  C   UNL     1      -3.487 -28.592  13.799  1.00  0.00     0.016 C 
ATOM     12  C   UNL     1      -3.105 -26.245  13.028  1.00  0.00     0.016 C 
ATOM     13  G   UNL     1      -1.125 -27.813  13.524  1.00  0.00     0.000 G0
ENDBRANCH   9  10
ENDBRANCH   3   8
TORSDOF 0
ENDMDL
MODEL 2
REMARK VINA RESULT:    -3.564     16.835     17.740
REMARK INTER + INTRA:          -3.543
REMARK INTER:                  -4.395
REMARK INTRA:                   0.852
REMARK UNBOUND:                 0.854
REMARK SMILES CC1=CC=CC(C)(C)CC1=O
REMARK SMILES IDX 1 1 2 2 3 3 10 4 11 5 9 6 4 8 5 9 6 10 7 11 8 12
REMARK H PARENT
REMARK Flexibility Score: 80.00
ROOT
ATOM      1  C   UNL     1       9.384 -15.042  18.326  1.00  0.00     0.048 C 
ATOM      2  C   UNL     1      10.513 -15.213  17.336  1.00  0.00    -0.008 C 
ATOM      3  C   UNL     1      11.134 -16.412  17.290  1.00  0.00     0.007 C 
ENDROOT
BRANCH   2   4
ATOM      4  C   UNL     1      10.882 -14.019  16.530  1.00  0.00     0.159 C 
ATOM      5  O   UNL     1      10.200 -12.967  16.664  1.00  0.00    -0.295 OA
BRANCH   4   6
ATOM      6  C   UNL     1      12.047 -13.969  15.586  1.00  0.00     0.091 CG0
ATOM      7  G   UNL     1      12.091 -15.142  14.582  1.00  0.00     0.000 G0
ENDBRANCH   4   6
ENDBRANCH   2   4
BRANCH   3   8
ATOM      8  C   UNL     1      12.247 -16.868  16.426  1.00  0.00    -0.003 C 
ATOM      9  C   UNL     1      12.660 -16.361  15.259  1.00  0.00    -0.020 C 
BRANCH   9  10
ATOM     10  C   UNL     1      12.108 -15.132  14.577  1.00  0.00    -0.010 CG0
ATOM     11  C   UNL     1      13.080 -14.729  13.445  1.00  0.00     0.016 C 
ATOM     12  C   UNL     1      10.736 -15.445  13.935  1.00  0.00     0.016 C 
ATOM     13  G   UNL     1      12.042 -13.967  15.591  1.00  0.00     0.000 G0
ENDBRANCH   9  10
ENDBRANCH   3   8
TORSDOF 0
ENDMDL
MODEL 3
REMARK VINA RESULT:    -3.563      1.889      2.548
REMARK INTER + INTRA:          -3.542
REMARK INTER:                  -4.401
REMARK INTRA:                   0.859
REMARK UNBOUND:                 0.854
REMARK SMILES CC1=CC=CC(C)(C)CC1=O
REMARK SMILES IDX 1 1 2 2 3 3 10 4 11 5 9 6 4 8 5 9 6 10 7 11 8 12
REMARK H PARENT
REMARK Flexibility Score: 80.00
ROOT
ATOM      1  C   UNL     1      -1.865 -23.098  14.628  1.00  0.00     0.048 C 
ATOM      2  C   UNL     1      -1.206 -24.456  14.706  1.00  0.00    -0.008 C 
ATOM      3  C   UNL     1      -0.052 -24.557  15.403  1.00  0.00     0.007 C 
ENDROOT
BRANCH   2   4
ATOM      4  C   UNL     1      -1.861 -25.561  13.959  1.00  0.00     0.159 C 
ATOM      5  O   UNL     1      -2.960 -25.332  13.383  1.00  0.00    -0.295 OA
BRANCH   4   6
ATOM      6  C   UNL     1      -1.279 -26.935  13.808  1.00  0.00     0.091 CG0
ATOM      7  G   UNL     1      -0.864 -27.591  15.144  1.00  0.00     0.000 G0
ENDBRANCH   4   6
ENDBRANCH   2   4
BRANCH   3   8
ATOM      8  C   UNL     1       0.798 -25.742  15.657  1.00  0.00    -0.003 C 
ATOM      9  C   UNL     1       0.470 -27.037  15.584  1.00  0.00    -0.020 C 
BRANCH   9  10
ATOM     10  C   UNL     1      -0.864 -27.593  15.147  1.00  0.00    -0.010 CG0
ATOM     11  C   UNL     1      -0.699 -29.111  14.905  1.00  0.00     0.016 C 
ATOM     12  C   UNL     1      -1.918 -27.403  16.264  1.00  0.00     0.016 C 
ATOM     13  G   UNL     1      -1.283 -26.937  13.812  1.00  0.00     0.000 G0
ENDBRANCH   9  10
ENDBRANCH   3   8
TORSDOF 0
ENDMDL
MODEL 4
REMARK VINA RESULT:    -3.557      1.500      2.382
REMARK INTER + INTRA:          -3.535
REMARK INTER:                  -4.376
REMARK INTRA:                   0.842
REMARK UNBOUND:                 0.854
REMARK SMILES CC1=CC=CC(C)(C)CC1=O
REMARK SMILES IDX 1 1 2 2 3 3 10 4 11 5 9 6 4 8 5 9 6 10 7 11 8 12
REMARK H PARENT
REMARK Flexibility Score: 80.00
ROOT
ATOM      1  C   UNL     1       0.847 -24.685  13.873  1.00  0.00     0.048 C 
ATOM      2  C   UNL     1      -0.164 -25.764  13.563  1.00  0.00    -0.008 C 
ATOM      3  C   UNL     1       0.296 -26.932  13.062  1.00  0.00     0.007 C 
ENDROOT
BRANCH   2   4
ATOM      4  C   UNL     1      -1.594 -25.425  13.788  1.00  0.00     0.159 C 
ATOM      5  O   UNL     1      -1.876 -24.304  14.291  1.00  0.00    -0.295 OA
BRANCH   4   6
ATOM      6  C   UNL     1      -2.738 -26.321  13.416  1.00  0.00     0.091 CG0
ATOM      7  G   UNL     1      -2.608 -27.763  13.956  1.00  0.00     0.000 G0
ENDBRANCH   4   6
ENDBRANCH   2   4
BRANCH   3   8
ATOM      8  C   UNL     1      -0.447 -28.155  12.680  1.00  0.00    -0.003 C 
ATOM      9  C   UNL     1      -1.669 -28.543  13.062  1.00  0.00    -0.020 C 
BRANCH   9  10
ATOM     10  C   UNL     1      -2.616 -27.763  13.942  1.00  0.00    -0.010 CG0
ATOM     11  C   UNL     1      -4.015 -28.415  13.845  1.00  0.00     0.016 C 
ATOM     12  C   UNL     1      -2.161 -27.835  15.419  1.00  0.00     0.016 C 
ATOM     13  G   UNL     1      -2.726 -26.312  13.421  1.00  0.00     0.000 G0
ENDBRANCH   9  10
ENDBRANCH   3   8
TORSDOF 0
ENDMDL
MODEL 5
REMARK VINA RESULT:    -3.475      1.267      1.890
REMARK INTER + INTRA:          -3.434
REMARK INTER:                  -4.287
REMARK INTRA:                   0.854
REMARK UNBOUND:                 0.854
REMARK SMILES CC1=CC=CC(C)(C)CC1=O
REMARK SMILES IDX 1 1 2 2 3 3 10 4 11 5 9 6 4 8 5 9 6 10 7 11 8 12
REMARK H PARENT
REMARK Flexibility Score: 80.00
ROOT
ATOM      1  C   UNL     1       1.467 -26.036  11.347  1.00  0.00     0.048 C 
ATOM      2  C   UNL     1       0.716 -26.044  12.658  1.00  0.00    -0.008 C 
ATOM      3  C   UNL     1       0.849 -24.970  13.467  1.00  0.00     0.007 C 
ENDROOT
BRANCH   2   4
ATOM      4  C   UNL     1      -0.070 -27.267  12.971  1.00  0.00     0.159 C 
ATOM      5  O   UNL     1      -0.131 -28.183  12.105  1.00  0.00    -0.295 OA
BRANCH   4   6
ATOM      6  C   UNL     1      -0.769 -27.507  14.276  1.00  0.00     0.091 CG0
ATOM      7  G   UNL     1      -1.691 -26.347  14.716  1.00  0.00     0.000 G0
ENDBRANCH   4   6
ENDBRANCH   2   4
BRANCH   3   8
ATOM      8  C   UNL     1       0.234 -24.697  14.786  1.00  0.00    -0.003 C 
ATOM      9  C   UNL     1      -0.857 -25.251  15.329  1.00  0.00    -0.020 C 
BRANCH   9  10
ATOM     10  C   UNL     1      -1.688 -26.358  14.726  1.00  0.00    -0.010 CG0
ATOM     11  C   UNL     1      -2.632 -26.905  15.821  1.00  0.00     0.016 C 
ATOM     12  C   UNL     1      -2.564 -25.807  13.576  1.00  0.00     0.016 C 
ATOM     13  G   UNL     1      -0.761 -27.508  14.273  1.00  0.00     0.000 G0
ENDBRANCH   9  10
ENDBRANCH   3   8
TORSDOF 0
ENDMDL
MODEL 6
REMARK VINA RESULT:    -3.445     16.931     19.146
REMARK INTER + INTRA:          -3.396
REMARK INTER:                  -4.245
REMARK INTRA:                   0.849
REMARK UNBOUND:                 0.854
REMARK SMILES CC1=CC=CC(C)(C)CC1=O
REMARK SMILES IDX 1 1 2 2 3 3 10 4 11 5 9 6 4 8 5 9 6 10 7 11 8 12
REMARK H PARENT
REMARK Flexibility Score: 80.00
ROOT
ATOM      1  C   UNL     1       9.794 -15.308  17.819  1.00  0.00     0.048 C 
ATOM      2  C   UNL     1       9.915 -13.819  17.589  1.00  0.00    -0.008 C 
ATOM      3  C   UNL     1       9.842 -13.007  18.667  1.00  0.00     0.007 C 
ENDROOT
BRANCH   2   4
ATOM      4  C   UNL     1      10.050 -13.369  16.178  1.00  0.00     0.159 C 
ATOM      5  O   UNL     1      10.123 -14.243  15.271  1.00  0.00    -0.295 OA
BRANCH   4   6
ATOM      6  C   UNL     1      10.067 -11.931  15.752  1.00  0.00     0.091 CG0
ATOM      7  G   UNL     1      11.064 -11.055  16.542  1.00  0.00     0.000 G0
ENDBRANCH   4   6
ENDBRANCH   2   4
BRANCH   3   8
ATOM      8  C   UNL     1       9.937 -11.532  18.748  1.00  0.00    -0.003 C 
ATOM      9  C   UNL     1      10.477 -10.681  17.868  1.00  0.00    -0.020 C 
BRANCH   9  10
ATOM     10  C   UNL     1      11.066 -11.042  16.526  1.00  0.00    -0.010 CG0
ATOM     11  C   UNL     1      11.266  -9.739  15.718  1.00  0.00     0.016 C 
ATOM     12  C   UNL     1      12.452 -11.704  16.708  1.00  0.00     0.016 C 
ATOM     13  G   UNL     1      10.073 -11.939  15.752  1.00  0.00     0.000 G0
ENDBRANCH   9  10
ENDBRANCH   3   8
TORSDOF 0
ENDMDL
MODEL 7
REMARK VINA RESULT:    -3.349      2.148      2.816
REMARK INTER + INTRA:          -3.279
REMARK INTER:                  -4.119
REMARK INTRA:                   0.840
REMARK UNBOUND:                 0.854
REMARK SMILES CC1=CC=CC(C)(C)CC1=O
REMARK SMILES IDX 1 1 2 2 3 3 10 4 11 5 9 6 4 8 5 9 6 10 7 11 8 12
REMARK H PARENT
REMARK Flexibility Score: 80.00
ROOT
ATOM      1  C   UNL     1       1.035 -24.663  13.657  1.00  0.00     0.048 C 
ATOM      2  C   UNL     1       0.055 -25.522  14.421  1.00  0.00    -0.008 C 
ATOM      3  C   UNL     1      -1.167 -25.718  13.879  1.00  0.00     0.007 C 
ENDROOT
BRANCH   2   4
ATOM      4  C   UNL     1       0.506 -26.038  15.740  1.00  0.00     0.159 C 
ATOM      5  O   UNL     1       1.686 -25.793  16.113  1.00  0.00    -0.295 OA
BRANCH   4   6
ATOM      6  C   UNL     1      -0.368 -26.806  16.686  1.00  0.00     0.091 CG0
ATOM      7  G   UNL     1      -1.088 -28.010  16.038  1.00  0.00     0.000 G0
ENDBRANCH   4   6
ENDBRANCH   2   4
BRANCH   3   8
ATOM      8  C   UNL     1      -2.311 -26.510  14.386  1.00  0.00    -0.003 C 
ATOM      9  C   UNL     1      -2.306 -27.504  15.282  1.00  0.00    -0.020 C 
BRANCH   9  10
ATOM     10  C   UNL     1      -1.106 -28.008  16.046  1.00  0.00    -0.010 CG0
ATOM     11  C   UNL     1      -1.609 -28.911  17.196  1.00  0.00     0.016 C 
ATOM     12  C   UNL     1      -0.206 -28.868  15.127  1.00  0.00     0.016 C 
ATOM     13  G   UNL     1      -0.353 -26.811  16.669  1.00  0.00     0.000 G0
ENDBRANCH   9  10
ENDBRANCH   3   8
TORSDOF 0
ENDMDL
MODEL 8
REMARK VINA RESULT:    -3.306      1.753      2.270
REMARK INTER + INTRA:          -3.225
REMARK INTER:                  -4.059
REMARK INTRA:                   0.834
REMARK UNBOUND:                 0.854
REMARK SMILES CC1=CC=CC(C)(C)CC1=O
REMARK SMILES IDX 1 1 2 2 3 3 10 4 11 5 9 6 4 8 5 9 6 10 7 11 8 12
REMARK H PARENT
REMARK Flexibility Score: 80.00
ROOT
ATOM      1  C   UNL     1       0.375 -25.329  15.937  1.00  0.00     0.048 C 
ATOM      2  C   UNL     1      -0.813 -25.922  15.215  1.00  0.00    -0.008 C 
ATOM      3  C   UNL     1      -1.480 -25.133  14.345  1.00  0.00     0.007 C 
ENDROOT
BRANCH   2   4
ATOM      4  C   UNL     1      -1.179 -27.319  15.568  1.00  0.00     0.159 C 
ATOM      5  O   UNL     1      -0.446 -27.949  16.378  1.00  0.00    -0.295 OA
BRANCH   4   6
ATOM      6  C   UNL     1      -2.397 -28.025  15.050  1.00  0.00     0.091 CG0
ATOM      7  G   UNL     1      -2.556 -27.959  13.514  1.00  0.00     0.000 G0
ENDBRANCH   4   6
ENDBRANCH   2   4
BRANCH   3   8
ATOM      8  C   UNL     1      -2.656 -25.440  13.499  1.00  0.00    -0.003 C 
ATOM      9  C   UNL     1      -3.115 -26.635  13.109  1.00  0.00    -0.020 C 
BRANCH   9  10
ATOM     10  C   UNL     1      -2.556 -27.978  13.513  1.00  0.00    -0.010 CG0
ATOM     11  C   UNL     1      -3.580 -29.067  13.119  1.00  0.00     0.016 C 
ATOM     12  C   UNL     1      -1.241 -28.265  12.750  1.00  0.00     0.016 C 
ATOM     13  G   UNL     1      -2.377 -28.020  15.048  1.00  0.00     0.000 G0
ENDBRANCH   9  10
ENDBRANCH   3   8
TORSDOF 0
ENDMDL
MODEL 9
REMARK VINA RESULT:    -3.299      1.766      2.787
REMARK INTER + INTRA:          -3.216
REMARK INTER:                  -4.064
REMARK INTRA:                   0.848
REMARK UNBOUND:                 0.854
REMARK SMILES CC1=CC=CC(C)(C)CC1=O
REMARK SMILES IDX 1 1 2 2 3 3 10 4 11 5 9 6 4 8 5 9 6 10 7 11 8 12
REMARK H PARENT
REMARK Flexibility Score: 80.00
ROOT
ATOM      1  C   UNL     1      -1.870 -23.084  14.490  1.00  0.00     0.048 C 
ATOM      2  C   UNL     1      -1.817 -24.582  14.305  1.00  0.00    -0.008 C 
ATOM      3  C   UNL     1      -2.741 -25.150  13.498  1.00  0.00     0.007 C 
ENDROOT
BRANCH   2   4
ATOM      4  C   UNL     1      -0.778 -25.315  15.075  1.00  0.00     0.159 C 
ATOM      5  O   UNL     1       0.052 -24.649  15.753  1.00  0.00    -0.295 OA
BRANCH   4   6
ATOM      6  C   UNL     1      -0.671 -26.810  15.132  1.00  0.00     0.091 CG0
ATOM      7  G   UNL     1      -0.635 -27.490  13.745  1.00  0.00     0.000 G0
ENDBRANCH   4   6
ENDBRANCH   2   4
BRANCH   3   8
ATOM      8  C   UNL     1      -2.925 -26.571  13.125  1.00  0.00    -0.003 C 
ATOM      9  C   UNL     1      -2.041 -27.573  13.192  1.00  0.00    -0.020 C 
BRANCH   9  10
ATOM     10  C   UNL     1      -0.638 -27.488  13.743  1.00  0.00    -0.010 CG0
ATOM     11  C   UNL     1      -0.105 -28.926  13.935  1.00  0.00     0.016 C 
ATOM     12  C   UNL     1       0.291 -26.769  12.737  1.00  0.00     0.016 C 
ATOM     13  G   UNL     1      -0.669 -26.798  15.125  1.00  0.00     0.000 G0
ENDBRANCH   9  10
ENDBRANCH   3   8
TORSDOF 0
ENDMDL
