MODEL 1
REMARK VINA RESULT:    -5.914      0.000      0.000
REMARK INTER + INTRA:          -9.831
REMARK INTER:                  -7.815
REMARK INTRA:                  -2.016
REMARK UNBOUND:                -2.016
REMARK SMILES CC[C@@H](C=C[C@@H](C)[C@H]1CC[C@@H]2[C@@H]3CC=C4C[C@H](O)CC[C@]4(C)[C@H]3CC[C@@]21C)C(C)C
REMARK SMILES IDX 6 1 7 2 5 3 4 4 3 5 2 6 1 7 28 8 29 9 30 10 8 11 9 12 26 13
REMARK SMILES IDX 10 14 11 15 25 16 27 17 12 18 24 19 23 20 13 21 21 22 14 23
REMARK SMILES IDX 15 24 20 25 22 26 16 27 19 28 17 29 18 30
REMARK H PARENT 18 31
REMARK Flexibility Score: inf
ROOT
ATOM      1  C   UNL     1      41.642  42.076   6.224  1.00  0.00     0.012 C 
ATOM      2  C   UNL     1      41.119  42.174   4.768  1.00  0.00     0.012 C 
ENDROOT
BRANCH   1   3
ATOM      3  C   UNL     1      42.116  43.460   6.637  1.00  0.00    -0.028 C 
ATOM      4  C   UNL     1      41.866  43.976   7.855  1.00  0.00    -0.027 C 
BRANCH   4   5
ATOM      5  C   UNL     1      42.333  45.352   8.302  1.00  0.00     0.014 C 
BRANCH   5   6
ATOM      6  C   UNL     1      42.663  46.279   7.103  1.00  0.00     0.004 C 
ATOM      7  C   UNL     1      42.352  47.745   7.409  1.00  0.00     0.004 C 
ENDBRANCH   5   6
BRANCH   5   8
ATOM      8  C   UNL     1      43.461  45.263   9.380  1.00  0.00    -0.011 C 
ATOM      9  C   UNL     1      44.842  45.061   8.733  1.00  0.00     0.008 C 
ATOM     10  C   UNL     1      43.229  44.193  10.460  1.00  0.00     0.008 C 
ENDBRANCH   5   8
ENDBRANCH   4   5
ENDBRANCH   1   3
BRANCH   1  11
ATOM     11  C   UNL     1      42.768  40.988   6.420  1.00  0.00     0.002 C 
ATOM     12  C   UNL     1      44.189  41.613   6.365  1.00  0.00     0.005 C 
ATOM     13  C   UNL     1      42.772  40.177   7.769  1.00  0.00    -0.026 C 
ATOM     14  C   UNL     1      44.808  41.512   7.753  1.00  0.00     0.005 C 
ATOM     15  C   UNL     1      43.707  40.994   8.682  1.00  0.00    -0.001 C 
ATOM     16  C   UNL     1      43.392  38.771   7.491  1.00  0.00     0.007 C 
ATOM     17  C   UNL     1      41.384  40.009   8.430  1.00  0.00     0.012 C 
ATOM     18  C   UNL     1      44.205  40.228   9.950  1.00  0.00     0.000 C 
ATOM     19  C   UNL     1      43.794  38.012   8.761  1.00  0.00     0.005 C 
ATOM     20  C   UNL     1      44.783  38.824   9.639  1.00  0.00     0.003 C 
ATOM     21  C   UNL     1      45.231  41.069  10.725  1.00  0.00     0.031 C 
ATOM     22  C   UNL     1      45.222  38.059  10.955  1.00  0.00    -0.008 C 
ATOM     23  C   UNL     1      45.839  40.335  11.880  1.00  0.00    -0.027 C 
ATOM     24  C   UNL     1      45.977  38.993  11.917  1.00  0.00    -0.065 C 
ATOM     25  C   UNL     1      46.172  36.884  10.556  1.00  0.00     0.014 C 
ATOM     26  C   UNL     1      43.994  37.487  11.717  1.00  0.00     0.016 C 
ATOM     27  C   UNL     1      46.762  38.381  13.063  1.00  0.00     0.063 C 
ATOM     28  C   UNL     1      46.899  36.236  11.745  1.00  0.00     0.033 C 
ATOM     29  C   UNL     1      47.689  37.268  12.559  1.00  0.00     0.118 C 
BRANCH  29  30
ATOM     30  O   UNL     1      48.717  37.809  11.767  1.00  0.00    -0.393 OA
ATOM     31  H   UNL     1      49.573  37.596  12.221  1.00  0.00     0.210 HD
ENDBRANCH  29  30
ENDBRANCH   1  11
TORSDOF 6
ENDMDL
MODEL 2
REMARK VINA RESULT:    -5.622      3.318      6.699
REMARK INTER + INTRA:          -9.446
REMARK INTER:                  -7.415
REMARK INTRA:                  -2.031
REMARK UNBOUND:                -2.016
REMARK SMILES CC[C@@H](C=C[C@@H](C)[C@H]1CC[C@@H]2[C@@H]3CC=C4C[C@H](O)CC[C@]4(C)[C@H]3CC[C@@]21C)C(C)C
REMARK SMILES IDX 6 1 7 2 5 3 4 4 3 5 2 6 1 7 28 8 29 9 30 10 8 11 9 12 26 13
REMARK SMILES IDX 10 14 11 15 25 16 27 17 12 18 24 19 23 20 13 21 21 22 14 23
REMARK SMILES IDX 15 24 20 25 22 26 16 27 19 28 17 29 18 30
REMARK H PARENT 18 31
REMARK Flexibility Score: inf
ROOT
ATOM      1  C   UNL     1      43.033  40.081   8.187  1.00  0.00     0.012 C 
ATOM      2  C   UNL     1      43.377  38.592   7.931  1.00  0.00     0.012 C 
ENDROOT
BRANCH   1   3
ATOM      3  C   UNL     1      42.321  40.609   6.952  1.00  0.00    -0.028 C 
ATOM      4  C   UNL     1      41.220  41.380   7.025  1.00  0.00    -0.027 C 
BRANCH   4   5
ATOM      5  C   UNL     1      40.490  41.930   5.811  1.00  0.00     0.014 C 
BRANCH   5   6
ATOM      6  C   UNL     1      40.801  41.123   4.523  1.00  0.00     0.004 C 
ATOM      7  C   UNL     1      39.678  41.235   3.490  1.00  0.00     0.004 C 
ENDBRANCH   5   6
BRANCH   5   8
ATOM      8  C   UNL     1      40.679  43.474   5.667  1.00  0.00    -0.011 C 
ATOM      9  C   UNL     1      41.998  43.816   4.954  1.00  0.00     0.008 C 
ATOM     10  C   UNL     1      40.582  44.255   6.989  1.00  0.00     0.008 C 
ENDBRANCH   5   8
ENDBRANCH   4   5
ENDBRANCH   1   3
BRANCH   1  11
ATOM     11  C   UNL     1      44.285  40.965   8.564  1.00  0.00     0.002 C 
ATOM     12  C   UNL     1      44.881  41.680   7.320  1.00  0.00     0.005 C 
ATOM     13  C   UNL     1      44.070  42.135   9.595  1.00  0.00    -0.026 C 
ATOM     14  C   UNL     1      44.641  43.177   7.471  1.00  0.00     0.005 C 
ATOM     15  C   UNL     1      43.753  43.351   8.704  1.00  0.00    -0.001 C 
ATOM     16  C   UNL     1      45.413  42.366  10.357  1.00  0.00     0.007 C 
ATOM     17  C   UNL     1      42.930  41.900  10.614  1.00  0.00     0.012 C 
ATOM     18  C   UNL     1      43.873  44.732   9.429  1.00  0.00     0.000 C 
ATOM     19  C   UNL     1      45.466  43.692  11.124  1.00  0.00     0.005 C 
ATOM     20  C   UNL     1      45.205  44.912  10.201  1.00  0.00     0.003 C 
ATOM     21  C   UNL     1      43.672  45.885   8.434  1.00  0.00     0.031 C 
ATOM     22  C   UNL     1      45.263  46.298  10.966  1.00  0.00    -0.008 C 
ATOM     23  C   UNL     1      43.903  47.233   9.046  1.00  0.00    -0.027 C 
ATOM     24  C   UNL     1      44.738  47.444  10.085  1.00  0.00    -0.065 C 
ATOM     25  C   UNL     1      46.750  46.600  11.339  1.00  0.00     0.014 C 
ATOM     26  C   UNL     1      44.406  46.268  12.263  1.00  0.00     0.016 C 
ATOM     27  C   UNL     1      45.018  48.876  10.503  1.00  0.00     0.063 C 
ATOM     28  C   UNL     1      46.992  48.037  11.829  1.00  0.00     0.033 C 
ATOM     29  C   UNL     1      46.509  49.074  10.809  1.00  0.00     0.118 C 
BRANCH  29  30
ATOM     30  O   UNL     1      47.268  48.968   9.631  1.00  0.00    -0.393 OA
ATOM     31  H   UNL     1      46.739  49.393   8.907  1.00  0.00     0.210 HD
ENDBRANCH  29  30
ENDBRANCH   1  11
TORSDOF 6
ENDMDL
MODEL 3
REMARK VINA RESULT:    -5.477      1.561      2.490
REMARK INTER + INTRA:          -9.254
REMARK INTER:                  -7.621
REMARK INTRA:                  -1.634
REMARK UNBOUND:                -2.016
REMARK SMILES CC[C@@H](C=C[C@@H](C)[C@H]1CC[C@@H]2[C@@H]3CC=C4C[C@H](O)CC[C@]4(C)[C@H]3CC[C@@]21C)C(C)C
REMARK SMILES IDX 6 1 7 2 5 3 4 4 3 5 2 6 1 7 28 8 29 9 30 10 8 11 9 12 26 13
REMARK SMILES IDX 10 14 11 15 25 16 27 17 12 18 24 19 23 20 13 21 21 22 14 23
REMARK SMILES IDX 15 24 20 25 22 26 16 27 19 28 17 29 18 30
REMARK H PARENT 18 31
REMARK Flexibility Score: inf
ROOT
ATOM      1  C   UNL     1      42.157  43.922   6.923  1.00  0.00     0.012 C 
ATOM      2  C   UNL     1      41.615  44.637   5.659  1.00  0.00     0.012 C 
ENDROOT
BRANCH   1   3
ATOM      3  C   UNL     1      43.347  44.722   7.429  1.00  0.00    -0.028 C 
ATOM      4  C   UNL     1      43.482  45.079   8.721  1.00  0.00    -0.027 C 
BRANCH   4   5
ATOM      5  C   UNL     1      44.662  45.870   9.260  1.00  0.00     0.014 C 
BRANCH   5   6
ATOM      6  C   UNL     1      45.497  45.058  10.285  1.00  0.00     0.004 C 
ATOM      7  C   UNL     1      44.653  44.008  11.009  1.00  0.00     0.004 C 
ENDBRANCH   5   6
BRANCH   5   8
ATOM      8  C   UNL     1      44.233  47.289   9.756  1.00  0.00    -0.011 C 
ATOM      9  C   UNL     1      43.380  48.019   8.704  1.00  0.00     0.008 C 
ATOM     10  C   UNL     1      45.398  48.189  10.201  1.00  0.00     0.008 C 
ENDBRANCH   5   8
ENDBRANCH   4   5
ENDBRANCH   1   3
BRANCH   1  11
ATOM     11  C   UNL     1      42.529  42.408   6.683  1.00  0.00     0.002 C 
ATOM     12  C   UNL     1      44.006  42.242   6.231  1.00  0.00     0.005 C 
ATOM     13  C   UNL     1      42.404  41.423   7.905  1.00  0.00    -0.026 C 
ATOM     14  C   UNL     1      44.770  41.540   7.348  1.00  0.00     0.005 C 
ATOM     15  C   UNL     1      43.810  41.442   8.535  1.00  0.00    -0.001 C 
ATOM     16  C   UNL     1      42.086  39.997   7.352  1.00  0.00     0.007 C 
ATOM     17  C   UNL     1      41.337  41.821   8.952  1.00  0.00     0.012 C 
ATOM     18  C   UNL     1      44.089  40.269   9.530  1.00  0.00     0.000 C 
ATOM     19  C   UNL     1      42.292  38.878   8.378  1.00  0.00     0.005 C 
ATOM     20  C   UNL     1      43.731  38.874   8.958  1.00  0.00     0.003 C 
ATOM     21  C   UNL     1      45.551  40.295  10.001  1.00  0.00     0.031 C 
ATOM     22  C   UNL     1      43.976  37.720  10.016  1.00  0.00    -0.008 C 
ATOM     23  C   UNL     1      45.912  39.119  10.856  1.00  0.00    -0.027 C 
ATOM     24  C   UNL     1      45.309  37.916  10.756  1.00  0.00    -0.065 C 
ATOM     25  C   UNL     1      44.022  36.352   9.261  1.00  0.00     0.014 C 
ATOM     26  C   UNL     1      42.844  37.677  11.082  1.00  0.00     0.016 C 
ATOM     27  C   UNL     1      45.878  36.758  11.556  1.00  0.00     0.063 C 
ATOM     28  C   UNL     1      44.534  35.183  10.117  1.00  0.00     0.033 C 
ATOM     29  C   UNL     1      45.916  35.476  10.713  1.00  0.00     0.118 C 
BRANCH  29  30
ATOM     30  O   UNL     1      46.860  35.599   9.679  1.00  0.00    -0.393 OA
ATOM     31  H   UNL     1      46.962  36.569   9.494  1.00  0.00     0.210 HD
ENDBRANCH  29  30
ENDBRANCH   1  11
TORSDOF 6
ENDMDL
MODEL 4
REMARK VINA RESULT:    -5.469      1.099      1.423
REMARK INTER + INTRA:          -9.243
REMARK INTER:                  -7.786
REMARK INTRA:                  -1.457
REMARK UNBOUND:                -2.016
REMARK SMILES CC[C@@H](C=C[C@@H](C)[C@H]1CC[C@@H]2[C@@H]3CC=C4C[C@H](O)CC[C@]4(C)[C@H]3CC[C@@]21C)C(C)C
REMARK SMILES IDX 6 1 7 2 5 3 4 4 3 5 2 6 1 7 28 8 29 9 30 10 8 11 9 12 26 13
REMARK SMILES IDX 10 14 11 15 25 16 27 17 12 18 24 19 23 20 13 21 21 22 14 23
REMARK SMILES IDX 15 24 20 25 22 26 16 27 19 28 17 29 18 30
REMARK H PARENT 18 31
REMARK Flexibility Score: inf
ROOT
ATOM      1  C   UNL     1      41.728  41.626   7.608  1.00  0.00     0.012 C 
ATOM      2  C   UNL     1      40.616  41.544   6.532  1.00  0.00     0.012 C 
ENDROOT
BRANCH   1   3
ATOM      3  C   UNL     1      42.346  43.013   7.528  1.00  0.00    -0.028 C 
ATOM      4  C   UNL     1      42.620  43.747   8.623  1.00  0.00    -0.027 C 
BRANCH   4   5
ATOM      5  C   UNL     1      43.243  45.132   8.578  1.00  0.00     0.014 C 
BRANCH   5   6
ATOM      6  C   UNL     1      42.990  45.847   7.224  1.00  0.00     0.004 C 
ATOM      7  C   UNL     1      42.391  47.242   7.415  1.00  0.00     0.004 C 
ENDBRANCH   5   6
BRANCH   5   8
ATOM      8  C   UNL     1      44.739  45.112   9.028  1.00  0.00    -0.011 C 
ATOM      9  C   UNL     1      45.035  43.914   9.946  1.00  0.00     0.008 C 
ATOM     10  C   UNL     1      45.223  46.412   9.693  1.00  0.00     0.008 C 
ENDBRANCH   5   8
ENDBRANCH   4   5
ENDBRANCH   1   3
BRANCH   1  11
ATOM     11  C   UNL     1      42.818  40.491   7.480  1.00  0.00     0.002 C 
ATOM     12  C   UNL     1      44.246  41.080   7.317  1.00  0.00     0.005 C 
ATOM     13  C   UNL     1      42.968  39.484   8.681  1.00  0.00    -0.026 C 
ATOM     14  C   UNL     1      45.043  40.752   8.574  1.00  0.00     0.005 C 
ATOM     15  C   UNL     1      44.056  40.128   9.562  1.00  0.00    -0.001 C 
ATOM     16  C   UNL     1      43.477  38.121   8.114  1.00  0.00     0.007 C 
ATOM     17  C   UNL     1      41.676  39.254   9.500  1.00  0.00     0.012 C 
ATOM     18  C   UNL     1      44.685  39.164  10.621  1.00  0.00     0.000 C 
ATOM     19  C   UNL     1      44.011  37.168   9.188  1.00  0.00     0.005 C 
ATOM     20  C   UNL     1      45.148  37.809  10.027  1.00  0.00     0.003 C 
ATOM     21  C   UNL     1      45.846  39.850  11.357  1.00  0.00     0.031 C 
ATOM     22  C   UNL     1      45.726  36.842  11.141  1.00  0.00    -0.008 C 
ATOM     23  C   UNL     1      46.570  38.933  12.293  1.00  0.00    -0.027 C 
ATOM     24  C   UNL     1      46.648  37.598  12.112  1.00  0.00    -0.065 C 
ATOM     25  C   UNL     1      46.556  35.717  10.442  1.00  0.00     0.014 C 
ATOM     26  C   UNL     1      44.587  36.193  11.977  1.00  0.00     0.016 C 
ATOM     27  C   UNL     1      47.552  36.798  13.033  1.00  0.00     0.063 C 
ATOM     28  C   UNL     1      47.407  34.876  11.408  1.00  0.00     0.033 C 
ATOM     29  C   UNL     1      48.348  35.751  12.244  1.00  0.00     0.118 C 
BRANCH  29  30
ATOM     30  O   UNL     1      49.283  36.378  11.402  1.00  0.00    -0.393 OA
ATOM     31  H   UNL     1      48.834  37.175  11.016  1.00  0.00     0.210 HD
ENDBRANCH  29  30
ENDBRANCH   1  11
TORSDOF 6
ENDMDL
MODEL 5
REMARK VINA RESULT:    -5.268      3.766      9.158
REMARK INTER + INTRA:          -8.978
REMARK INTER:                  -6.921
REMARK INTRA:                  -2.057
REMARK UNBOUND:                -2.016
REMARK SMILES CC[C@@H](C=C[C@@H](C)[C@H]1CC[C@@H]2[C@@H]3CC=C4C[C@H](O)CC[C@]4(C)[C@H]3CC[C@@]21C)C(C)C
REMARK SMILES IDX 6 1 7 2 5 3 4 4 3 5 2 6 1 7 28 8 29 9 30 10 8 11 9 12 26 13
REMARK SMILES IDX 10 14 11 15 25 16 27 17 12 18 24 19 23 20 13 21 21 22 14 23
REMARK SMILES IDX 15 24 20 25 22 26 16 27 19 28 17 29 18 30
REMARK H PARENT 18 31
REMARK Flexibility Score: inf
ROOT
ATOM      1  C   UNL     1      43.817  41.906   9.509  1.00  0.00     0.012 C 
ATOM      2  C   UNL     1      45.088  41.749  10.381  1.00  0.00     0.012 C 
ENDROOT
BRANCH   1   3
ATOM      3  C   UNL     1      43.584  40.586   8.792  1.00  0.00    -0.028 C 
ATOM      4  C   UNL     1      42.363  40.028   8.683  1.00  0.00    -0.027 C 
BRANCH   4   5
ATOM      5  C   UNL     1      42.095  38.714   7.968  1.00  0.00     0.014 C 
BRANCH   5   6
ATOM      6  C   UNL     1      43.377  37.853   7.818  1.00  0.00     0.004 C 
ATOM      7  C   UNL     1      43.503  36.812   8.931  1.00  0.00     0.004 C 
ENDBRANCH   5   6
BRANCH   5   8
ATOM      8  C   UNL     1      41.301  38.926   6.639  1.00  0.00    -0.011 C 
ATOM      9  C   UNL     1      42.226  39.375   5.496  1.00  0.00     0.008 C 
ATOM     10  C   UNL     1      40.107  39.889   6.755  1.00  0.00     0.008 C 
ENDBRANCH   5   8
ENDBRANCH   4   5
ENDBRANCH   1   3
BRANCH   1  11
ATOM     11  C   UNL     1      43.888  43.116   8.498  1.00  0.00     0.002 C 
ATOM     12  C   UNL     1      44.558  42.708   7.157  1.00  0.00     0.005 C 
ATOM     13  C   UNL     1      42.529  43.772   8.047  1.00  0.00    -0.026 C 
ATOM     14  C   UNL     1      43.498  42.748   6.063  1.00  0.00     0.005 C 
ATOM     15  C   UNL     1      42.162  43.004   6.763  1.00  0.00    -0.001 C 
ATOM     16  C   UNL     1      42.799  45.273   7.713  1.00  0.00     0.007 C 
ATOM     17  C   UNL     1      41.385  43.670   9.083  1.00  0.00     0.012 C 
ATOM     18  C   UNL     1      41.066  43.694   5.887  1.00  0.00     0.000 C 
ATOM     19  C   UNL     1      41.668  45.942   6.924  1.00  0.00     0.005 C 
ATOM     20  C   UNL     1      41.352  45.191   5.604  1.00  0.00     0.003 C 
ATOM     21  C   UNL     1      40.863  42.929   4.570  1.00  0.00     0.031 C 
ATOM     22  C   UNL     1      40.192  45.866   4.763  1.00  0.00    -0.008 C 
ATOM     23  C   UNL     1      39.917  43.616   3.634  1.00  0.00    -0.027 C 
ATOM     24  C   UNL     1      39.731  44.953   3.615  1.00  0.00    -0.065 C 
ATOM     25  C   UNL     1      40.730  47.200   4.151  1.00  0.00     0.014 C 
ATOM     26  C   UNL     1      38.952  46.175   5.650  1.00  0.00     0.016 C 
ATOM     27  C   UNL     1      38.877  45.544   2.508  1.00  0.00     0.063 C 
ATOM     28  C   UNL     1      39.810  47.815   3.084  1.00  0.00     0.033 C 
ATOM     29  C   UNL     1      39.513  46.825   1.952  1.00  0.00     0.118 C 
BRANCH  29  30
ATOM     30  O   UNL     1      40.701  46.522   1.264  1.00  0.00    -0.393 OA
ATOM     31  H   UNL     1      40.498  45.764   0.657  1.00  0.00     0.210 HD
ENDBRANCH  29  30
ENDBRANCH   1  11
TORSDOF 6
ENDMDL
MODEL 6
REMARK VINA RESULT:    -5.249      3.869      6.639
REMARK INTER + INTRA:          -8.952
REMARK INTER:                  -7.833
REMARK INTRA:                  -1.119
REMARK UNBOUND:                -2.016
REMARK SMILES CC[C@@H](C=C[C@@H](C)[C@H]1CC[C@@H]2[C@@H]3CC=C4C[C@H](O)CC[C@]4(C)[C@H]3CC[C@@]21C)C(C)C
REMARK SMILES IDX 6 1 7 2 5 3 4 4 3 5 2 6 1 7 28 8 29 9 30 10 8 11 9 12 26 13
REMARK SMILES IDX 10 14 11 15 25 16 27 17 12 18 24 19 23 20 13 21 21 22 14 23
REMARK SMILES IDX 15 24 20 25 22 26 16 27 19 28 17 29 18 30
REMARK H PARENT 18 31
REMARK Flexibility Score: inf
ROOT
ATOM      1  C   UNL     1      46.394  44.884  12.278  1.00  0.00     0.012 C 
ATOM      2  C   UNL     1      46.567  45.044  13.810  1.00  0.00     0.012 C 
ENDROOT
BRANCH   1   3
ATOM      3  C   UNL     1      46.697  46.229  11.637  1.00  0.00    -0.028 C 
ATOM      4  C   UNL     1      47.738  46.994  12.020  1.00  0.00    -0.027 C 
BRANCH   4   5
ATOM      5  C   UNL     1      48.073  48.338  11.395  1.00  0.00     0.014 C 
BRANCH   5   6
ATOM      6  C   UNL     1      47.082  48.726  10.266  1.00  0.00     0.004 C 
ATOM      7  C   UNL     1      46.065  49.771  10.729  1.00  0.00     0.004 C 
ENDBRANCH   5   6
BRANCH   5   8
ATOM      8  C   UNL     1      49.580  48.433  10.992  1.00  0.00    -0.011 C 
ATOM      9  C   UNL     1      50.391  47.259  11.566  1.00  0.00     0.008 C 
ATOM     10  C   UNL     1      50.256  49.765  11.361  1.00  0.00     0.008 C 
ENDBRANCH   5   8
ENDBRANCH   4   5
ENDBRANCH   1   3
BRANCH   1  11
ATOM     11  C   UNL     1      44.974  44.340  11.855  1.00  0.00     0.002 C 
ATOM     12  C   UNL     1      44.271  45.291  10.847  1.00  0.00     0.005 C 
ATOM     13  C   UNL     1      44.912  42.937  11.144  1.00  0.00    -0.026 C 
ATOM     14  C   UNL     1      44.184  44.580   9.502  1.00  0.00     0.005 C 
ATOM     15  C   UNL     1      44.985  43.284   9.645  1.00  0.00    -0.001 C 
ATOM     16  C   UNL     1      43.533  42.283  11.474  1.00  0.00     0.007 C 
ATOM     17  C   UNL     1      46.051  41.964  11.529  1.00  0.00     0.012 C 
ATOM     18  C   UNL     1      44.558  42.122   8.690  1.00  0.00     0.000 C 
ATOM     19  C   UNL     1      43.182  41.095  10.572  1.00  0.00     0.005 C 
ATOM     20  C   UNL     1      43.201  41.476   9.068  1.00  0.00     0.003 C 
ATOM     21  C   UNL     1      44.534  42.600   7.230  1.00  0.00     0.031 C 
ATOM     22  C   UNL     1      42.832  40.268   8.112  1.00  0.00    -0.008 C 
ATOM     23  C   UNL     1      44.008  41.566   6.283  1.00  0.00    -0.027 C 
ATOM     24  C   UNL     1      43.124  40.612   6.642  1.00  0.00    -0.065 C 
ATOM     25  C   UNL     1      41.306  39.964   8.258  1.00  0.00     0.014 C 
ATOM     26  C   UNL     1      43.645  38.992   8.470  1.00  0.00     0.016 C 
ATOM     27  C   UNL     1      42.536  39.730   5.555  1.00  0.00     0.063 C 
ATOM     28  C   UNL     1      40.753  39.010   7.186  1.00  0.00     0.033 C 
ATOM     29  C   UNL     1      41.030  39.527   5.770  1.00  0.00     0.118 C 
BRANCH  29  30
ATOM     30  O   UNL     1      40.339  40.733   5.562  1.00  0.00    -0.393 OA
ATOM     31  H   UNL     1      39.402  40.493   5.339  1.00  0.00     0.210 HD
ENDBRANCH  29  30
ENDBRANCH   1  11
TORSDOF 6
ENDMDL
MODEL 7
REMARK VINA RESULT:    -5.224      3.548      8.916
REMARK INTER + INTRA:          -8.919
REMARK INTER:                  -7.275
REMARK INTRA:                  -1.644
REMARK UNBOUND:                -2.016
REMARK SMILES CC[C@@H](C=C[C@@H](C)[C@H]1CC[C@@H]2[C@@H]3CC=C4C[C@H](O)CC[C@]4(C)[C@H]3CC[C@@]21C)C(C)C
REMARK SMILES IDX 6 1 7 2 5 3 4 4 3 5 2 6 1 7 28 8 29 9 30 10 8 11 9 12 26 13
REMARK SMILES IDX 10 14 11 15 25 16 27 17 12 18 24 19 23 20 13 21 21 22 14 23
REMARK SMILES IDX 15 24 20 25 22 26 16 27 19 28 17 29 18 30
REMARK H PARENT 18 31
REMARK Flexibility Score: inf
ROOT
ATOM      1  C   UNL     1      43.993  40.544   8.745  1.00  0.00     0.012 C 
ATOM      2  C   UNL     1      45.150  39.931   9.575  1.00  0.00     0.012 C 
ENDROOT
BRANCH   1   3
ATOM      3  C   UNL     1      43.715  39.607   7.581  1.00  0.00    -0.028 C 
ATOM      4  C   UNL     1      42.469  39.232   7.236  1.00  0.00    -0.027 C 
BRANCH   4   5
ATOM      5  C   UNL     1      42.156  38.303   6.074  1.00  0.00     0.014 C 
BRANCH   5   6
ATOM      6  C   UNL     1      40.960  38.807   5.224  1.00  0.00     0.004 C 
ATOM      7  C   UNL     1      41.091  40.289   4.869  1.00  0.00     0.004 C 
ENDBRANCH   5   6
BRANCH   5   8
ATOM      8  C   UNL     1      42.040  36.814   6.534  1.00  0.00    -0.011 C 
ATOM      9  C   UNL     1      41.242  35.974   5.522  1.00  0.00     0.008 C 
ATOM     10  C   UNL     1      41.457  36.626   7.945  1.00  0.00     0.008 C 
ENDBRANCH   5   8
ENDBRANCH   4   5
ENDBRANCH   1   3
BRANCH   1  11
ATOM     11  C   UNL     1      44.277  42.018   8.255  1.00  0.00     0.002 C 
ATOM     12  C   UNL     1      44.666  42.060   6.752  1.00  0.00     0.005 C 
ATOM     13  C   UNL     1      43.104  43.062   8.364  1.00  0.00    -0.026 C 
ATOM     14  C   UNL     1      43.545  42.755   5.989  1.00  0.00     0.005 C 
ATOM     15  C   UNL     1      42.409  42.972   6.992  1.00  0.00    -0.001 C 
ATOM     16  C   UNL     1      43.729  44.480   8.554  1.00  0.00     0.007 C 
ATOM     17  C   UNL     1      42.092  42.785   9.501  1.00  0.00     0.012 C 
ATOM     18  C   UNL     1      41.451  44.166   6.673  1.00  0.00     0.000 C 
ATOM     19  C   UNL     1      42.741  45.626   8.314  1.00  0.00     0.005 C 
ATOM     20  C   UNL     1      42.095  45.556   6.905  1.00  0.00     0.003 C 
ATOM     21  C   UNL     1      40.910  44.059   5.238  1.00  0.00     0.031 C 
ATOM     22  C   UNL     1      41.075  46.736   6.625  1.00  0.00    -0.008 C 
ATOM     23  C   UNL     1      40.088  45.244   4.833  1.00  0.00    -0.027 C 
ATOM     24  C   UNL     1      40.266  46.481   5.343  1.00  0.00    -0.065 C 
ATOM     25  C   UNL     1      41.882  48.062   6.448  1.00  0.00     0.014 C 
ATOM     26  C   UNL     1      40.066  46.905   7.796  1.00  0.00     0.016 C 
ATOM     27  C   UNL     1      39.488  47.631   4.729  1.00  0.00     0.063 C 
ATOM     28  C   UNL     1      41.052  49.230   5.892  1.00  0.00     0.033 C 
ATOM     29  C   UNL     1      40.381  48.868   4.562  1.00  0.00     0.118 C 
BRANCH  29  30
ATOM     30  O   UNL     1      41.363  48.634   3.584  1.00  0.00    -0.393 OA
ATOM     31  H   UNL     1      40.964  48.881   2.710  1.00  0.00     0.210 HD
ENDBRANCH  29  30
ENDBRANCH   1  11
TORSDOF 6
ENDMDL
MODEL 8
REMARK VINA RESULT:    -5.154      2.768      8.595
REMARK INTER + INTRA:          -8.828
REMARK INTER:                  -7.662
REMARK INTRA:                  -1.166
REMARK UNBOUND:                -2.016
REMARK SMILES CC[C@@H](C=C[C@@H](C)[C@H]1CC[C@@H]2[C@@H]3CC=C4C[C@H](O)CC[C@]4(C)[C@H]3CC[C@@]21C)C(C)C
REMARK SMILES IDX 6 1 7 2 5 3 4 4 3 5 2 6 1 7 28 8 29 9 30 10 8 11 9 12 26 13
REMARK SMILES IDX 10 14 11 15 25 16 27 17 12 18 24 19 23 20 13 21 21 22 14 23
REMARK SMILES IDX 15 24 20 25 22 26 16 27 19 28 17 29 18 30
REMARK H PARENT 18 31
REMARK Flexibility Score: inf
ROOT
ATOM      1  C   UNL     1      44.991  36.006   9.992  1.00  0.00     0.012 C 
ATOM      2  C   UNL     1      44.547  34.711  10.719  1.00  0.00     0.012 C 
ENDROOT
BRANCH   1   3
ATOM      3  C   UNL     1      46.444  36.264  10.358  1.00  0.00    -0.028 C 
ATOM      4  C   UNL     1      47.388  35.306  10.289  1.00  0.00    -0.027 C 
BRANCH   4   5
ATOM      5  C   UNL     1      48.849  35.533  10.640  1.00  0.00     0.014 C 
BRANCH   5   6
ATOM      6  C   UNL     1      49.790  35.278   9.433  1.00  0.00     0.004 C 
ATOM      7  C   UNL     1      49.214  34.245   8.463  1.00  0.00     0.004 C 
ENDBRANCH   5   6
BRANCH   5   8
ATOM      8  C   UNL     1      49.258  34.780  11.947  1.00  0.00    -0.011 C 
ATOM      9  C   UNL     1      50.735  34.353  11.912  1.00  0.00     0.008 C 
ATOM     10  C   UNL     1      48.371  33.571  12.291  1.00  0.00     0.008 C 
ENDBRANCH   5   8
ENDBRANCH   4   5
ENDBRANCH   1   3
BRANCH   1  11
ATOM     11  C   UNL     1      44.077  37.254  10.307  1.00  0.00     0.002 C 
ATOM     12  C   UNL     1      44.886  38.411  10.956  1.00  0.00     0.005 C 
ATOM     13  C   UNL     1      43.346  37.947   9.098  1.00  0.00    -0.026 C 
ATOM     14  C   UNL     1      44.942  39.567   9.966  1.00  0.00     0.005 C 
ATOM     15  C   UNL     1      44.329  39.051   8.662  1.00  0.00    -0.001 C 
ATOM     16  C   UNL     1      42.024  38.587   9.629  1.00  0.00     0.007 C 
ATOM     17  C   UNL     1      43.026  37.010   7.910  1.00  0.00     0.012 C 
ATOM     18  C   UNL     1      43.704  40.144   7.735  1.00  0.00     0.000 C 
ATOM     19  C   UNL     1      41.394  39.594   8.660  1.00  0.00     0.005 C 
ATOM     20  C   UNL     1      42.377  40.733   8.279  1.00  0.00     0.003 C 
ATOM     21  C   UNL     1      44.716  41.268   7.464  1.00  0.00     0.031 C 
ATOM     22  C   UNL     1      41.749  41.794   7.284  1.00  0.00    -0.008 C 
ATOM     23  C   UNL     1      44.132  42.407   6.686  1.00  0.00    -0.027 C 
ATOM     24  C   UNL     1      42.825  42.741   6.726  1.00  0.00    -0.065 C 
ATOM     25  C   UNL     1      40.694  42.645   8.063  1.00  0.00     0.014 C 
ATOM     26  C   UNL     1      41.055  41.101   6.077  1.00  0.00     0.016 C 
ATOM     27  C   UNL     1      42.386  44.017   6.031  1.00  0.00     0.063 C 
ATOM     28  C   UNL     1      40.214  43.893   7.305  1.00  0.00     0.033 C 
ATOM     29  C   UNL     1      41.384  44.794   6.895  1.00  0.00     0.118 C 
BRANCH  29  30
ATOM     30  O   UNL     1      42.017  45.299   8.044  1.00  0.00    -0.393 OA
ATOM     31  H   UNL     1      42.525  46.104   7.763  1.00  0.00     0.210 HD
ENDBRANCH  29  30
ENDBRANCH   1  11
TORSDOF 6
ENDMDL
MODEL 9
REMARK VINA RESULT:    -5.026      2.801      8.577
REMARK INTER + INTRA:          -8.658
REMARK INTER:                  -7.649
REMARK INTRA:                  -1.010
REMARK UNBOUND:                -2.016
REMARK SMILES CC[C@@H](C=C[C@@H](C)[C@H]1CC[C@@H]2[C@@H]3CC=C4C[C@H](O)CC[C@]4(C)[C@H]3CC[C@@]21C)C(C)C
REMARK SMILES IDX 6 1 7 2 5 3 4 4 3 5 2 6 1 7 28 8 29 9 30 10 8 11 9 12 26 13
REMARK SMILES IDX 10 14 11 15 25 16 27 17 12 18 24 19 23 20 13 21 21 22 14 23
REMARK SMILES IDX 15 24 20 25 22 26 16 27 19 28 17 29 18 30
REMARK H PARENT 18 31
REMARK Flexibility Score: inf
ROOT
ATOM      1  C   UNL     1      44.632  36.611  10.427  1.00  0.00     0.012 C 
ATOM      2  C   UNL     1      43.953  35.599  11.386  1.00  0.00     0.012 C 
ENDROOT
BRANCH   1   3
ATOM      3  C   UNL     1      46.105  36.245  10.339  1.00  0.00    -0.028 C 
ATOM      4  C   UNL     1      46.536  34.969  10.367  1.00  0.00    -0.027 C 
BRANCH   4   5
ATOM      5  C   UNL     1      47.998  34.569  10.274  1.00  0.00     0.014 C 
BRANCH   5   6
ATOM      6  C   UNL     1      48.927  35.550  11.037  1.00  0.00     0.004 C 
ATOM      7  C   UNL     1      49.776  34.835  12.089  1.00  0.00     0.004 C 
ENDBRANCH   5   6
BRANCH   5   8
ATOM      8  C   UNL     1      48.432  34.285   8.799  1.00  0.00    -0.011 C 
ATOM      9  C   UNL     1      48.346  32.786   8.466  1.00  0.00     0.008 C 
ATOM     10  C   UNL     1      49.824  34.824   8.429  1.00  0.00     0.008 C 
ENDBRANCH   5   8
ENDBRANCH   4   5
ENDBRANCH   1   3
BRANCH   1  11
ATOM     11  C   UNL     1      44.427  38.118  10.849  1.00  0.00     0.002 C 
ATOM     12  C   UNL     1      45.740  38.937  10.714  1.00  0.00     0.005 C 
ATOM     13  C   UNL     1      43.377  38.966  10.039  1.00  0.00    -0.026 C 
ATOM     14  C   UNL     1      45.559  39.945   9.585  1.00  0.00     0.005 C 
ATOM     15  C   UNL     1      44.217  39.619   8.925  1.00  0.00    -0.001 C 
ATOM     16  C   UNL     1      42.801  40.065  10.988  1.00  0.00     0.007 C 
ATOM     17  C   UNL     1      42.214  38.148   9.429  1.00  0.00     0.012 C 
ATOM     18  C   UNL     1      43.516  40.816   8.203  1.00  0.00     0.000 C 
ATOM     19  C   UNL     1      42.049  41.181  10.255  1.00  0.00     0.005 C 
ATOM     20  C   UNL     1      42.929  41.869   9.178  1.00  0.00     0.003 C 
ATOM     21  C   UNL     1      44.475  41.485   7.207  1.00  0.00     0.031 C 
ATOM     22  C   UNL     1      42.180  43.034   8.409  1.00  0.00    -0.008 C 
ATOM     23  C   UNL     1      43.901  42.718   6.579  1.00  0.00    -0.027 C 
ATOM     24  C   UNL     1      42.983  43.501   7.184  1.00  0.00    -0.065 C 
ATOM     25  C   UNL     1      42.009  44.245   9.382  1.00  0.00     0.014 C 
ATOM     26  C   UNL     1      40.779  42.577   7.911  1.00  0.00     0.016 C 
ATOM     27  C   UNL     1      42.606  44.813   6.519  1.00  0.00     0.063 C 
ATOM     28  C   UNL     1      41.557  45.542   8.693  1.00  0.00     0.033 C 
ATOM     29  C   UNL     1      42.504  45.941   7.555  1.00  0.00     0.118 C 
BRANCH  29  30
ATOM     30  O   UNL     1      43.773  46.241   8.079  1.00  0.00    -0.393 OA
ATOM     31  H   UNL     1      44.420  45.633   7.635  1.00  0.00     0.210 HD
ENDBRANCH  29  30
ENDBRANCH   1  11
TORSDOF 6
ENDMDL
