MODEL 1
REMARK VINA RESULT:    -5.229      0.000      0.000
REMARK INTER + INTRA:          -7.658
REMARK INTER:                  -7.063
REMARK INTRA:                  -0.595
REMARK UNBOUND:                -0.595
REMARK SMILES COc1ccc(-c2cc(=O)c3c(OC)c(OC)c(OC)c(OC)c3o2)cc1
REMARK SMILES IDX 7 1 8 2 9 3 10 4 11 5 24 6 25 7 21 8 18 9 15 10 12 11 6 12
REMARK SMILES IDX 3 13 4 14 27 15 5 16 26 17 2 18 1 19 22 20 23 21 13 22 14 23
REMARK SMILES IDX 19 24 20 25 16 26 17 27
REMARK H PARENT
REMARK Flexibility Score: inf
ROOT
ATOM      1  C   UNL     1      75.079  61.090  58.412  1.00  0.00     0.138 A 
ATOM      2  C   UNL     1      73.863  61.786  58.385  1.00  0.00     0.100 A 
ATOM      3  C   UNL     1      73.624  62.704  57.362  1.00  0.00     0.197 A 
ATOM      4  O   UNL     1      72.527  63.325  57.351  1.00  0.00    -0.289 OA
ATOM      5  C   UNL     1      74.606  62.920  56.369  1.00  0.00     0.115 A 
ATOM      6  C   UNL     1      75.798  62.169  56.457  1.00  0.00     0.188 A 
ATOM      7  O   UNL     1      75.976  61.305  57.454  1.00  0.00    -0.452 OA
ATOM      8  C   UNL     1      76.810  62.303  55.498  1.00  0.00     0.209 A 
ATOM      9  C   UNL     1      76.653  63.227  54.435  1.00  0.00     0.211 A 
ATOM     10  C   UNL     1      75.489  64.033  54.386  1.00  0.00     0.208 A 
ATOM     11  C   UNL     1      74.434  63.829  55.304  1.00  0.00     0.179 A 
ENDROOT
BRANCH   1  12
ATOM     12  C   UNL     1      75.393  60.101  59.474  1.00  0.00     0.018 A 
ATOM     13  C   UNL     1      75.974  58.258  61.536  1.00  0.00     0.118 A 
ATOM     14  C   UNL     1      76.032  59.642  61.780  1.00  0.00     0.047 A 
ATOM     15  C   UNL     1      75.616  57.806  60.261  1.00  0.00     0.047 A 
ATOM     16  C   UNL     1      75.741  60.551  60.759  1.00  0.00     0.016 A 
ATOM     17  C   UNL     1      75.324  58.714  59.239  1.00  0.00     0.016 A 
BRANCH  13  18
ATOM     18  O   UNL     1      76.259  57.305  62.525  1.00  0.00    -0.497 OA
ATOM     19  C   UNL     1      76.086  57.522  63.922  1.00  0.00     0.278 C 
ENDBRANCH  13  18
ENDBRANCH   1  12
BRANCH   8  20
ATOM     20  O   UNL     1      77.944  61.484  55.666  1.00  0.00    -0.490 OA
ATOM     21  C   UNL     1      79.180  61.846  56.271  1.00  0.00     0.278 C 
ENDBRANCH   8  20
BRANCH  11  22
ATOM     22  O   UNL     1      73.211  64.515  55.181  1.00  0.00    -0.492 OA
ATOM     23  C   UNL     1      72.189  64.185  54.245  1.00  0.00     0.278 C 
ENDBRANCH  11  22
BRANCH   9  24
ATOM     24  O   UNL     1      77.669  63.319  53.466  1.00  0.00    -0.490 OA
ATOM     25  C   UNL     1      77.860  62.456  52.351  1.00  0.00     0.279 C 
ENDBRANCH   9  24
BRANCH  10  26
ATOM     26  O   UNL     1      75.404  65.078  53.465  1.00  0.00    -0.490 OA
ATOM     27  C   UNL     1      75.030  64.835  52.113  1.00  0.00     0.278 C 
ENDBRANCH  10  26
TORSDOF 6
ENDMDL
MODEL 2
REMARK VINA RESULT:    -5.202      5.048      7.951
REMARK INTER + INTRA:          -7.622
REMARK INTER:                  -6.911
REMARK INTRA:                  -0.711
REMARK UNBOUND:                -0.595
REMARK SMILES COc1ccc(-c2cc(=O)c3c(OC)c(OC)c(OC)c(OC)c3o2)cc1
REMARK SMILES IDX 7 1 8 2 9 3 10 4 11 5 24 6 25 7 21 8 18 9 15 10 12 11 6 12
REMARK SMILES IDX 3 13 4 14 27 15 5 16 26 17 2 18 1 19 22 20 23 21 13 22 14 23
REMARK SMILES IDX 19 24 20 25 16 26 17 27
REMARK H PARENT
REMARK Flexibility Score: inf
ROOT
ATOM      1  C   UNL     1      73.062  62.803  53.296  1.00  0.00     0.138 A 
ATOM      2  C   UNL     1      72.381  64.023  53.413  1.00  0.00     0.100 A 
ATOM      3  C   UNL     1      71.001  64.020  53.614  1.00  0.00     0.197 A 
ATOM      4  O   UNL     1      70.402  65.124  53.715  1.00  0.00    -0.289 OA
ATOM      5  C   UNL     1      70.308  62.792  53.700  1.00  0.00     0.115 A 
ATOM      6  C   UNL     1      71.066  61.606  53.589  1.00  0.00     0.188 A 
ATOM      7  O   UNL     1      72.381  61.665  53.397  1.00  0.00    -0.452 OA
ATOM      8  C   UNL     1      70.458  60.348  53.690  1.00  0.00     0.209 A 
ATOM      9  C   UNL     1      69.057  60.256  53.879  1.00  0.00     0.211 A 
ATOM     10  C   UNL     1      68.286  61.444  53.918  1.00  0.00     0.208 A 
ATOM     11  C   UNL     1      68.914  62.710  53.907  1.00  0.00     0.179 A 
ENDROOT
BRANCH   1  12
ATOM     12  C   UNL     1      74.529  62.740  53.081  1.00  0.00     0.018 A 
ATOM     13  C   UNL     1      77.318  62.668  52.633  1.00  0.00     0.118 A 
ATOM     14  C   UNL     1      76.454  63.202  51.660  1.00  0.00     0.047 A 
ATOM     15  C   UNL     1      76.779  62.182  53.829  1.00  0.00     0.047 A 
ATOM     16  C   UNL     1      75.075  63.240  51.885  1.00  0.00     0.016 A 
ATOM     17  C   UNL     1      75.400  62.219  54.056  1.00  0.00     0.016 A 
BRANCH  13  18
ATOM     18  O   UNL     1      78.708  62.605  52.454  1.00  0.00    -0.497 OA
ATOM     19  C   UNL     1      79.659  62.688  53.511  1.00  0.00     0.278 C 
ENDBRANCH  13  18
ENDBRANCH   1  12
BRANCH   8  20
ATOM     20  O   UNL     1      71.313  59.231  53.594  1.00  0.00    -0.490 OA
ATOM     21  C   UNL     1      71.862  58.477  54.669  1.00  0.00     0.278 C 
ENDBRANCH   8  20
BRANCH  11  22
ATOM     22  O   UNL     1      68.180  63.895  54.095  1.00  0.00    -0.492 OA
ATOM     23  C   UNL     1      67.665  64.338  55.347  1.00  0.00     0.278 C 
ENDBRANCH  11  22
BRANCH   9  24
ATOM     24  O   UNL     1      68.476  58.982  54.011  1.00  0.00    -0.490 OA
ATOM     25  C   UNL     1      68.140  58.323  55.227  1.00  0.00     0.279 C 
ENDBRANCH   9  24
BRANCH  10  26
ATOM     26  O   UNL     1      66.893  61.370  53.908  1.00  0.00    -0.490 OA
ATOM     27  C   UNL     1      66.167  61.369  52.684  1.00  0.00     0.278 C 
ENDBRANCH  10  26
TORSDOF 6
ENDMDL
MODEL 3
REMARK VINA RESULT:    -5.188      4.609      7.222
REMARK INTER + INTRA:          -7.603
REMARK INTER:                  -6.850
REMARK INTRA:                  -0.753
REMARK UNBOUND:                -0.595
REMARK SMILES COc1ccc(-c2cc(=O)c3c(OC)c(OC)c(OC)c(OC)c3o2)cc1
REMARK SMILES IDX 7 1 8 2 9 3 10 4 11 5 24 6 25 7 21 8 18 9 15 10 12 11 6 12
REMARK SMILES IDX 3 13 4 14 27 15 5 16 26 17 2 18 1 19 22 20 23 21 13 22 14 23
REMARK SMILES IDX 19 24 20 25 16 26 17 27
REMARK H PARENT
REMARK Flexibility Score: inf
ROOT
ATOM      1  C   UNL     1      70.571  60.994  53.335  1.00  0.00     0.138 A 
ATOM      2  C   UNL     1      70.536  62.187  52.600  1.00  0.00     0.100 A 
ATOM      3  C   UNL     1      71.622  63.060  52.662  1.00  0.00     0.197 A 
ATOM      4  O   UNL     1      71.576  64.130  51.997  1.00  0.00    -0.289 OA
ATOM      5  C   UNL     1      72.741  62.732  53.459  1.00  0.00     0.115 A 
ATOM      6  C   UNL     1      72.707  61.505  54.157  1.00  0.00     0.188 A 
ATOM      7  O   UNL     1      71.646  60.708  54.064  1.00  0.00    -0.452 OA
ATOM      8  C   UNL     1      73.788  61.094  54.948  1.00  0.00     0.209 A 
ATOM      9  C   UNL     1      74.924  61.930  55.077  1.00  0.00     0.211 A 
ATOM     10  C   UNL     1      74.929  63.193  54.436  1.00  0.00     0.208 A 
ATOM     11  C   UNL     1      73.877  63.563  53.568  1.00  0.00     0.179 A 
ENDROOT
BRANCH   1  12
ATOM     12  C   UNL     1      69.447  60.025  53.312  1.00  0.00     0.018 A 
ATOM     13  C   UNL     1      67.298  58.192  53.209  1.00  0.00     0.118 A 
ATOM     14  C   UNL     1      67.340  59.291  52.332  1.00  0.00     0.047 A 
ATOM     15  C   UNL     1      68.338  58.014  54.127  1.00  0.00     0.047 A 
ATOM     16  C   UNL     1      68.406  60.193  52.382  1.00  0.00     0.016 A 
ATOM     17  C   UNL     1      69.405  58.916  54.179  1.00  0.00     0.016 A 
BRANCH  13  18
ATOM     18  O   UNL     1      66.250  57.260  53.200  1.00  0.00    -0.497 OA
ATOM     19  C   UNL     1      65.508  56.874  54.353  1.00  0.00     0.278 C 
ENDBRANCH  13  18
ENDBRANCH   1  12
BRANCH   8  20
ATOM     20  O   UNL     1      73.661  59.838  55.577  1.00  0.00    -0.490 OA
ATOM     21  C   UNL     1      74.231  58.606  55.152  1.00  0.00     0.278 C 
ENDBRANCH   8  20
BRANCH  11  22
ATOM     22  O   UNL     1      73.934  64.745  52.807  1.00  0.00    -0.492 OA
ATOM     23  C   UNL     1      74.815  64.958  51.708  1.00  0.00     0.278 C 
ENDBRANCH  11  22
BRANCH   9  24
ATOM     24  O   UNL     1      76.009  61.479  55.850  1.00  0.00    -0.490 OA
ATOM     25  C   UNL     1      76.188  61.660  57.251  1.00  0.00     0.279 C 
ENDBRANCH   9  24
BRANCH  10  26
ATOM     26  O   UNL     1      75.947  64.107  54.706  1.00  0.00    -0.490 OA
ATOM     27  C   UNL     1      75.819  65.060  55.756  1.00  0.00     0.278 C 
ENDBRANCH  10  26
TORSDOF 6
ENDMDL
MODEL 4
REMARK VINA RESULT:    -5.157      1.595      3.531
REMARK INTER + INTRA:          -7.561
REMARK INTER:                  -6.949
REMARK INTRA:                  -0.611
REMARK UNBOUND:                -0.595
REMARK SMILES COc1ccc(-c2cc(=O)c3c(OC)c(OC)c(OC)c(OC)c3o2)cc1
REMARK SMILES IDX 7 1 8 2 9 3 10 4 11 5 24 6 25 7 21 8 18 9 15 10 12 11 6 12
REMARK SMILES IDX 3 13 4 14 27 15 5 16 26 17 2 18 1 19 22 20 23 21 13 22 14 23
REMARK SMILES IDX 19 24 20 25 16 26 17 27
REMARK H PARENT
REMARK Flexibility Score: inf
ROOT
ATOM      1  C   UNL     1      76.069  60.118  57.699  1.00  0.00     0.138 A 
ATOM      2  C   UNL     1      76.721  59.401  56.686  1.00  0.00     0.100 A 
ATOM      3  C   UNL     1      76.619  59.837  55.365  1.00  0.00     0.197 A 
ATOM      4  O   UNL     1      77.209  59.182  54.464  1.00  0.00    -0.289 OA
ATOM      5  C   UNL     1      75.864  60.993  55.064  1.00  0.00     0.115 A 
ATOM      6  C   UNL     1      75.250  61.669  56.141  1.00  0.00     0.188 A 
ATOM      7  O   UNL     1      75.378  61.210  57.383  1.00  0.00    -0.452 OA
ATOM      8  C   UNL     1      74.506  62.837  55.931  1.00  0.00     0.209 A 
ATOM      9  C   UNL     1      74.340  63.339  54.617  1.00  0.00     0.211 A 
ATOM     10  C   UNL     1      74.895  62.622  53.528  1.00  0.00     0.208 A 
ATOM     11  C   UNL     1      75.719  61.496  53.753  1.00  0.00     0.179 A 
ENDROOT
BRANCH   1  12
ATOM     12  C   UNL     1      76.139  59.704  59.122  1.00  0.00     0.018 A 
ATOM     13  C   UNL     1      76.227  58.956  61.846  1.00  0.00     0.118 A 
ATOM     14  C   UNL     1      75.781  60.237  61.473  1.00  0.00     0.047 A 
ATOM     15  C   UNL     1      76.618  58.055  60.850  1.00  0.00     0.047 A 
ATOM     16  C   UNL     1      75.734  60.603  60.125  1.00  0.00     0.016 A 
ATOM     17  C   UNL     1      76.572  58.419  59.501  1.00  0.00     0.016 A 
BRANCH  13  18
ATOM     18  O   UNL     1      76.294  58.541  63.184  1.00  0.00    -0.497 OA
ATOM     19  C   UNL     1      77.234  59.036  64.132  1.00  0.00     0.278 C 
ENDBRANCH  13  18
ENDBRANCH   1  12
BRANCH   8  20
ATOM     20  O   UNL     1      73.961  63.447  57.079  1.00  0.00    -0.490 OA
ATOM     21  C   UNL     1      72.669  63.229  57.634  1.00  0.00     0.278 C 
ENDBRANCH   8  20
BRANCH  11  22
ATOM     22  O   UNL     1      76.399  60.861  52.698  1.00  0.00    -0.492 OA
ATOM     23  C   UNL     1      77.624  61.318  52.134  1.00  0.00     0.278 C 
ENDBRANCH  11  22
BRANCH   9  24
ATOM     24  O   UNL     1      73.617  64.532  54.436  1.00  0.00    -0.490 OA
ATOM     25  C   UNL     1      72.231  64.648  54.132  1.00  0.00     0.279 C 
ENDBRANCH   9  24
BRANCH  10  26
ATOM     26  O   UNL     1      74.580  62.990  52.220  1.00  0.00    -0.490 OA
ATOM     27  C   UNL     1      75.299  64.024  51.555  1.00  0.00     0.278 C 
ENDBRANCH  10  26
TORSDOF 6
ENDMDL
MODEL 5
REMARK VINA RESULT:    -5.142      4.960      8.243
REMARK INTER + INTRA:          -7.541
REMARK INTER:                  -6.784
REMARK INTRA:                  -0.757
REMARK UNBOUND:                -0.595
REMARK SMILES COc1ccc(-c2cc(=O)c3c(OC)c(OC)c(OC)c(OC)c3o2)cc1
REMARK SMILES IDX 7 1 8 2 9 3 10 4 11 5 24 6 25 7 21 8 18 9 15 10 12 11 6 12
REMARK SMILES IDX 3 13 4 14 27 15 5 16 26 17 2 18 1 19 22 20 23 21 13 22 14 23
REMARK SMILES IDX 19 24 20 25 16 26 17 27
REMARK H PARENT
REMARK Flexibility Score: inf
ROOT
ATOM      1  C   UNL     1      70.500  59.839  53.601  1.00  0.00     0.138 A 
ATOM      2  C   UNL     1      71.232  58.789  54.174  1.00  0.00     0.100 A 
ATOM      3  C   UNL     1      72.474  59.055  54.748  1.00  0.00     0.197 A 
ATOM      4  O   UNL     1      73.122  58.101  55.258  1.00  0.00    -0.289 OA
ATOM      5  C   UNL     1      72.979  60.375  54.748  1.00  0.00     0.115 A 
ATOM      6  C   UNL     1      72.176  61.379  54.166  1.00  0.00     0.188 A 
ATOM      7  O   UNL     1      70.997  61.072  53.631  1.00  0.00    -0.452 OA
ATOM      8  C   UNL     1      72.592  62.717  54.149  1.00  0.00     0.209 A 
ATOM      9  C   UNL     1      73.849  63.070  54.698  1.00  0.00     0.211 A 
ATOM     10  C   UNL     1      74.687  62.052  55.217  1.00  0.00     0.208 A 
ATOM     11  C   UNL     1      74.225  60.720  55.313  1.00  0.00     0.179 A 
ENDROOT
BRANCH   1  12
ATOM     12  C   UNL     1      69.173  59.620  52.974  1.00  0.00     0.018 A 
ATOM     13  C   UNL     1      66.651  59.256  51.752  1.00  0.00     0.118 A 
ATOM     14  C   UNL     1      67.148  60.550  51.989  1.00  0.00     0.047 A 
ATOM     15  C   UNL     1      67.426  58.151  52.121  1.00  0.00     0.047 A 
ATOM     16  C   UNL     1      68.397  60.728  52.590  1.00  0.00     0.016 A 
ATOM     17  C   UNL     1      68.676  58.327  52.722  1.00  0.00     0.016 A 
BRANCH  13  18
ATOM     18  O   UNL     1      65.403  59.025  51.154  1.00  0.00    -0.497 OA
ATOM     19  C   UNL     1      64.970  57.761  50.662  1.00  0.00     0.278 C 
ENDBRANCH  13  18
ENDBRANCH   1  12
BRANCH   8  20
ATOM     20  O   UNL     1      71.700  63.642  53.569  1.00  0.00    -0.490 OA
ATOM     21  C   UNL     1      70.764  64.471  54.249  1.00  0.00     0.278 C 
ENDBRANCH   8  20
BRANCH  11  22
ATOM     22  O   UNL     1      74.982  59.726  55.960  1.00  0.00    -0.492 OA
ATOM     23  C   UNL     1      75.259  59.701  57.357  1.00  0.00     0.278 C 
ENDBRANCH  11  22
BRANCH   9  24
ATOM     24  O   UNL     1      74.229  64.425  54.698  1.00  0.00    -0.490 OA
ATOM     25  C   UNL     1      74.879  65.125  53.643  1.00  0.00     0.279 C 
ENDBRANCH   9  24
BRANCH  10  26
ATOM     26  O   UNL     1      76.000  62.350  55.582  1.00  0.00    -0.490 OA
ATOM     27  C   UNL     1      77.070  62.208  54.653  1.00  0.00     0.278 C 
ENDBRANCH  10  26
TORSDOF 6
ENDMDL
MODEL 6
REMARK VINA RESULT:    -5.090      4.779      7.934
REMARK INTER + INTRA:          -7.470
REMARK INTER:                  -6.813
REMARK INTRA:                  -0.657
REMARK UNBOUND:                -0.595
REMARK SMILES COc1ccc(-c2cc(=O)c3c(OC)c(OC)c(OC)c(OC)c3o2)cc1
REMARK SMILES IDX 7 1 8 2 9 3 10 4 11 5 24 6 25 7 21 8 18 9 15 10 12 11 6 12
REMARK SMILES IDX 3 13 4 14 27 15 5 16 26 17 2 18 1 19 22 20 23 21 13 22 14 23
REMARK SMILES IDX 19 24 20 25 16 26 17 27
REMARK H PARENT
REMARK Flexibility Score: inf
ROOT
ATOM      1  C   UNL     1      70.190  61.346  52.893  1.00  0.00     0.138 A 
ATOM      2  C   UNL     1      70.323  62.629  52.344  1.00  0.00     0.100 A 
ATOM      3  C   UNL     1      71.456  63.386  52.641  1.00  0.00     0.197 A 
ATOM      4  O   UNL     1      71.561  64.539  52.141  1.00  0.00    -0.289 OA
ATOM      5  C   UNL     1      72.454  62.853  53.487  1.00  0.00     0.115 A 
ATOM      6  C   UNL     1      72.255  61.548  53.988  1.00  0.00     0.188 A 
ATOM      7  O   UNL     1      71.155  60.868  53.674  1.00  0.00    -0.452 OA
ATOM      8  C   UNL     1      73.209  60.937  54.812  1.00  0.00     0.209 A 
ATOM      9  C   UNL     1      74.382  61.644  55.175  1.00  0.00     0.211 A 
ATOM     10  C   UNL     1      74.548  62.980  54.732  1.00  0.00     0.208 A 
ATOM     11  C   UNL     1      73.628  63.558  53.829  1.00  0.00     0.179 A 
ENDROOT
BRANCH   1  12
ATOM     12  C   UNL     1      69.008  60.492  52.616  1.00  0.00     0.018 A 
ATOM     13  C   UNL     1      66.738  58.907  52.049  1.00  0.00     0.118 A 
ATOM     14  C   UNL     1      66.680  60.307  51.922  1.00  0.00     0.047 A 
ATOM     15  C   UNL     1      67.937  58.310  52.452  1.00  0.00     0.047 A 
ATOM     16  C   UNL     1      67.805  61.088  52.199  1.00  0.00     0.016 A 
ATOM     17  C   UNL     1      69.064  59.089  52.729  1.00  0.00     0.016 A 
BRANCH  13  18
ATOM     18  O   UNL     1      65.637  58.080  51.785  1.00  0.00    -0.497 OA
ATOM     19  C   UNL     1      65.667  56.958  50.909  1.00  0.00     0.278 C 
ENDBRANCH  13  18
ENDBRANCH   1  12
BRANCH   8  20
ATOM     20  O   UNL     1      72.923  59.622  55.232  1.00  0.00    -0.490 OA
ATOM     21  C   UNL     1      73.583  58.430  54.823  1.00  0.00     0.278 C 
ENDBRANCH   8  20
BRANCH  11  22
ATOM     22  O   UNL     1      73.853  64.826  53.261  1.00  0.00    -0.492 OA
ATOM     23  C   UNL     1      74.896  65.125  52.338  1.00  0.00     0.278 C 
ENDBRANCH  11  22
BRANCH   9  24
ATOM     24  O   UNL     1      75.340  60.997  55.975  1.00  0.00    -0.490 OA
ATOM     25  C   UNL     1      76.605  60.499  55.552  1.00  0.00     0.279 C 
ENDBRANCH   9  24
BRANCH  10  26
ATOM     26  O   UNL     1      75.594  63.754  55.233  1.00  0.00    -0.490 OA
ATOM     27  C   UNL     1      75.415  64.571  56.386  1.00  0.00     0.278 C 
ENDBRANCH  10  26
TORSDOF 6
ENDMDL
MODEL 7
REMARK VINA RESULT:    -5.026      4.080      8.040
REMARK INTER + INTRA:          -7.384
REMARK INTER:                  -6.871
REMARK INTRA:                  -0.513
REMARK UNBOUND:                -0.595
REMARK SMILES COc1ccc(-c2cc(=O)c3c(OC)c(OC)c(OC)c(OC)c3o2)cc1
REMARK SMILES IDX 7 1 8 2 9 3 10 4 11 5 24 6 25 7 21 8 18 9 15 10 12 11 6 12
REMARK SMILES IDX 3 13 4 14 27 15 5 16 26 17 2 18 1 19 22 20 23 21 13 22 14 23
REMARK SMILES IDX 19 24 20 25 16 26 17 27
REMARK H PARENT
REMARK Flexibility Score: inf
ROOT
ATOM      1  C   UNL     1      73.374  63.072  52.777  1.00  0.00     0.138 A 
ATOM      2  C   UNL     1      74.373  63.614  51.958  1.00  0.00     0.100 A 
ATOM      3  C   UNL     1      75.675  63.120  52.050  1.00  0.00     0.197 A 
ATOM      4  O   UNL     1      76.564  63.618  51.308  1.00  0.00    -0.289 OA
ATOM      5  C   UNL     1      75.969  62.084  52.963  1.00  0.00     0.115 A 
ATOM      6  C   UNL     1      74.905  61.580  53.742  1.00  0.00     0.188 A 
ATOM      7  O   UNL     1      73.681  62.086  53.616  1.00  0.00    -0.452 OA
ATOM      8  C   UNL     1      75.108  60.534  54.652  1.00  0.00     0.209 A 
ATOM      9  C   UNL     1      76.404  59.987  54.819  1.00  0.00     0.211 A 
ATOM     10  C   UNL     1      77.486  60.540  54.090  1.00  0.00     0.208 A 
ATOM     11  C   UNL     1      77.260  61.532  53.109  1.00  0.00     0.179 A 
ENDROOT
BRANCH   1  12
ATOM     12  C   UNL     1      71.971  63.554  52.727  1.00  0.00     0.018 A 
ATOM     13  C   UNL     1      69.318  64.525  52.649  1.00  0.00     0.118 A 
ATOM     14  C   UNL     1      70.262  65.098  53.521  1.00  0.00     0.047 A 
ATOM     15  C   UNL     1      69.713  63.475  51.814  1.00  0.00     0.047 A 
ATOM     16  C   UNL     1      71.574  64.619  53.555  1.00  0.00     0.016 A 
ATOM     17  C   UNL     1      71.025  62.993  51.847  1.00  0.00     0.016 A 
BRANCH  13  18
ATOM     18  O   UNL     1      67.990  64.969  52.579  1.00  0.00    -0.497 OA
ATOM     19  C   UNL     1      66.911  64.197  52.062  1.00  0.00     0.278 C 
ENDBRANCH  13  18
ENDBRANCH   1  12
BRANCH   8  20
ATOM     20  O   UNL     1      73.971  60.089  55.357  1.00  0.00    -0.490 OA
ATOM     21  C   UNL     1      73.125  58.997  55.016  1.00  0.00     0.278 C 
ENDBRANCH   8  20
BRANCH  11  22
ATOM     22  O   UNL     1      78.296  61.987  52.273  1.00  0.00    -0.492 OA
ATOM     23  C   UNL     1      79.370  62.822  52.695  1.00  0.00     0.278 C 
ENDBRANCH  11  22
BRANCH   9  24
ATOM     24  O   UNL     1      76.574  58.916  55.714  1.00  0.00    -0.490 OA
ATOM     25  C   UNL     1      76.621  57.532  55.383  1.00  0.00     0.279 C 
ENDBRANCH   9  24
BRANCH  10  26
ATOM     26  O   UNL     1      78.793  60.149  54.381  1.00  0.00    -0.490 OA
ATOM     27  C   UNL     1      79.458  60.623  55.547  1.00  0.00     0.278 C 
ENDBRANCH  10  26
TORSDOF 6
ENDMDL
MODEL 8
REMARK VINA RESULT:    -4.988      2.580      8.137
REMARK INTER + INTRA:          -7.333
REMARK INTER:                  -6.735
REMARK INTRA:                  -0.597
REMARK UNBOUND:                -0.595
REMARK SMILES COc1ccc(-c2cc(=O)c3c(OC)c(OC)c(OC)c(OC)c3o2)cc1
REMARK SMILES IDX 7 1 8 2 9 3 10 4 11 5 24 6 25 7 21 8 18 9 15 10 12 11 6 12
REMARK SMILES IDX 3 13 4 14 27 15 5 16 26 17 2 18 1 19 22 20 23 21 13 22 14 23
REMARK SMILES IDX 19 24 20 25 16 26 17 27
REMARK H PARENT
REMARK Flexibility Score: inf
ROOT
ATOM      1  C   UNL     1      72.889  63.423  52.904  1.00  0.00     0.138 A 
ATOM      2  C   UNL     1      73.948  63.599  52.001  1.00  0.00     0.100 A 
ATOM      3  C   UNL     1      75.257  63.391  52.435  1.00  0.00     0.197 A 
ATOM      4  O   UNL     1      76.200  63.554  51.614  1.00  0.00    -0.289 OA
ATOM      5  C   UNL     1      75.501  63.008  53.773  1.00  0.00     0.115 A 
ATOM      6  C   UNL     1      74.381  62.837  54.616  1.00  0.00     0.188 A 
ATOM      7  O   UNL     1      73.152  63.047  54.152  1.00  0.00    -0.452 OA
ATOM      8  C   UNL     1      74.535  62.432  55.948  1.00  0.00     0.209 A 
ATOM      9  C   UNL     1      75.833  62.215  56.473  1.00  0.00     0.211 A 
ATOM     10  C   UNL     1      76.960  62.457  55.649  1.00  0.00     0.208 A 
ATOM     11  C   UNL     1      76.797  62.777  54.282  1.00  0.00     0.179 A 
ENDROOT
BRANCH   1  12
ATOM     12  C   UNL     1      71.475  63.629  52.503  1.00  0.00     0.018 A 
ATOM     13  C   UNL     1      68.800  64.066  51.706  1.00  0.00     0.118 A 
ATOM     14  C   UNL     1      69.726  65.125  51.704  1.00  0.00     0.047 A 
ATOM     15  C   UNL     1      69.223  62.792  52.099  1.00  0.00     0.047 A 
ATOM     16  C   UNL     1      71.049  64.905  52.095  1.00  0.00     0.016 A 
ATOM     17  C   UNL     1      70.547  62.571  52.490  1.00  0.00     0.016 A 
BRANCH  13  18
ATOM     18  O   UNL     1      67.461  64.235  51.324  1.00  0.00    -0.497 OA
ATOM     19  C   UNL     1      66.363  64.253  52.231  1.00  0.00     0.278 C 
ENDBRANCH  13  18
ENDBRANCH   1  12
BRANCH   8  20
ATOM     20  O   UNL     1      73.349  62.263  56.692  1.00  0.00    -0.490 OA
ATOM     21  C   UNL     1      72.752  63.203  57.577  1.00  0.00     0.278 C 
ENDBRANCH   8  20
BRANCH  11  22
ATOM     22  O   UNL     1      77.899  62.874  53.414  1.00  0.00    -0.492 OA
ATOM     23  C   UNL     1      78.591  61.760  52.857  1.00  0.00     0.278 C 
ENDBRANCH  11  22
BRANCH   9  24
ATOM     24  O   UNL     1      75.959  61.777  57.803  1.00  0.00    -0.490 OA
ATOM     25  C   UNL     1      75.916  60.430  58.262  1.00  0.00     0.279 C 
ENDBRANCH   9  24
BRANCH  10  26
ATOM     26  O   UNL     1      78.242  62.438  56.199  1.00  0.00    -0.490 OA
ATOM     27  C   UNL     1      78.964  61.219  56.335  1.00  0.00     0.278 C 
ENDBRANCH  10  26
TORSDOF 6
ENDMDL
MODEL 9
REMARK VINA RESULT:    -4.967      2.627      7.659
REMARK INTER + INTRA:          -7.304
REMARK INTER:                  -6.773
REMARK INTRA:                  -0.530
REMARK UNBOUND:                -0.595
REMARK SMILES COc1ccc(-c2cc(=O)c3c(OC)c(OC)c(OC)c(OC)c3o2)cc1
REMARK SMILES IDX 7 1 8 2 9 3 10 4 11 5 24 6 25 7 21 8 18 9 15 10 12 11 6 12
REMARK SMILES IDX 3 13 4 14 27 15 5 16 26 17 2 18 1 19 22 20 23 21 13 22 14 23
REMARK SMILES IDX 19 24 20 25 16 26 17 27
REMARK H PARENT
REMARK Flexibility Score: inf
ROOT
ATOM      1  C   UNL     1      72.624  62.926  54.092  1.00  0.00     0.138 A 
ATOM      2  C   UNL     1      72.555  62.746  55.480  1.00  0.00     0.100 A 
ATOM      3  C   UNL     1      73.698  62.353  56.177  1.00  0.00     0.197 A 
ATOM      4  O   UNL     1      73.620  62.193  57.425  1.00  0.00    -0.289 OA
ATOM      5  C   UNL     1      74.908  62.144  55.479  1.00  0.00     0.115 A 
ATOM      6  C   UNL     1      74.901  62.361  54.083  1.00  0.00     0.188 A 
ATOM      7  O   UNL     1      73.783  62.736  53.467  1.00  0.00    -0.452 OA
ATOM      8  C   UNL     1      76.066  62.202  53.322  1.00  0.00     0.209 A 
ATOM      9  C   UNL     1      77.267  61.789  53.950  1.00  0.00     0.211 A 
ATOM     10  C   UNL     1      77.257  61.501  55.337  1.00  0.00     0.208 A 
ATOM     11  C   UNL     1      76.104  61.750  56.115  1.00  0.00     0.179 A 
ENDROOT
BRANCH   1  12
ATOM     12  C   UNL     1      71.444  63.342  53.295  1.00  0.00     0.018 A 
ATOM     13  C   UNL     1      69.229  64.179  51.753  1.00  0.00     0.118 A 
ATOM     14  C   UNL     1      70.221  65.101  52.134  1.00  0.00     0.047 A 
ATOM     15  C   UNL     1      69.358  62.841  52.140  1.00  0.00     0.047 A 
ATOM     16  C   UNL     1      71.317  64.684  52.893  1.00  0.00     0.016 A 
ATOM     17  C   UNL     1      70.454  62.422  52.899  1.00  0.00     0.016 A 
BRANCH  13  18
ATOM     18  O   UNL     1      68.109  64.548  50.993  1.00  0.00    -0.497 OA
ATOM     19  C   UNL     1      67.969  64.304  49.597  1.00  0.00     0.278 C 
ENDBRANCH  13  18
ENDBRANCH   1  12
BRANCH   8  20
ATOM     20  O   UNL     1      75.954  62.473  51.943  1.00  0.00    -0.490 OA
ATOM     21  C   UNL     1      76.114  63.733  51.302  1.00  0.00     0.278 C 
ENDBRANCH   8  20
BRANCH  11  22
ATOM     22  O   UNL     1      76.120  61.613  57.515  1.00  0.00    -0.492 OA
ATOM     23  C   UNL     1      76.130  60.367  58.206  1.00  0.00     0.278 C 
ENDBRANCH  11  22
BRANCH   9  24
ATOM     24  O   UNL     1      78.430  61.669  53.169  1.00  0.00    -0.490 OA
ATOM     25  C   UNL     1      79.381  62.693  52.897  1.00  0.00     0.279 C 
ENDBRANCH   9  24
BRANCH  10  26
ATOM     26  O   UNL     1      78.372  60.911  55.933  1.00  0.00    -0.490 OA
ATOM     27  C   UNL     1      79.406  61.706  56.504  1.00  0.00     0.278 C 
ENDBRANCH  10  26
TORSDOF 6
ENDMDL
