MODEL 1
REMARK VINA RESULT:    -7.377      0.000      0.000
REMARK INTER + INTRA:         -10.827
REMARK INTER:                  -9.965
REMARK INTRA:                  -0.862
REMARK UNBOUND:                -0.862
REMARK SMILES O=c1c(-c2ccc(O)cc2)coc2c([C@@H]3O[C@H](CO)[C@@H](O)[C@@H](O)[C@H]3O)c(O)ccc12
REMARK SMILES IDX 3 1 11 2 12 3 13 4 30 5 2 6 1 7 29 8 28 9 26 10 14 11 4 12
REMARK SMILES IDX 5 13 6 14 7 15 10 16 9 17 8 18 15 20 24 21 16 22 22 23 17 24
REMARK SMILES IDX 20 25 25 26 23 28 18 30 19 31 21 33 27 35
REMARK H PARENT 8 19 25 27 23 29 19 32 21 34 27 36
REMARK Flexibility Score: inf
ROOT
ATOM      1  C   UNL     1       8.737  52.485  21.273  1.00  0.00     0.065 A 
ATOM      2  C   UNL     1       9.917  52.563  20.519  1.00  0.00     0.208 A 
ATOM      3  O   UNL     1      11.101  52.373  21.086  1.00  0.00    -0.463 OA
ATOM      4  C   UNL     1      11.255  52.104  22.381  1.00  0.00     0.147 A 
ATOM      5  C   UNL     1      10.117  52.018  23.217  1.00  0.00     0.066 A 
ATOM      6  C   UNL     1       8.845  52.216  22.648  1.00  0.00     0.200 A 
ATOM      7  O   UNL     1       7.812  52.174  23.371  1.00  0.00    -0.288 OA
ATOM      8  C   UNL     1      10.282  51.752  24.586  1.00  0.00     0.020 A 
ATOM      9  C   UNL     1      11.557  51.584  25.120  1.00  0.00     0.047 A 
ATOM     10  C   UNL     1      12.689  51.669  24.302  1.00  0.00     0.125 A 
ATOM     11  C   UNL     1      12.550  51.910  22.916  1.00  0.00     0.069 A 
ENDROOT
BRANCH   1  12
ATOM     12  C   UNL     1       7.422  52.691  20.613  1.00  0.00    -0.011 A 
ATOM     13  C   UNL     1       6.598  53.771  20.979  1.00  0.00     0.013 A 
ATOM     14  C   UNL     1       5.358  53.954  20.362  1.00  0.00     0.047 A 
ATOM     15  C   UNL     1       4.921  53.059  19.376  1.00  0.00     0.115 A 
ATOM     16  C   UNL     1       6.974  51.793  19.628  1.00  0.00     0.013 A 
ATOM     17  C   UNL     1       5.732  51.980  19.012  1.00  0.00     0.047 A 
BRANCH  15  18
ATOM     18  O   UNL     1       3.687  53.232  18.755  1.00  0.00    -0.508 OA
ATOM     19  H   UNL     1       3.096  54.028  18.965  1.00  0.00     0.293 HD
ENDBRANCH  15  18
ENDBRANCH   1  12
BRANCH  11  20
ATOM     20  C   UNL     1      13.780  52.022  22.027  1.00  0.00     0.188 C 
ATOM     21  C   UNL     1      14.311  53.482  22.017  1.00  0.00     0.179 C 
ATOM     22  O   UNL     1      14.776  51.123  22.485  1.00  0.00    -0.362 OA
ATOM     23  C   UNL     1      15.857  53.512  21.992  1.00  0.00     0.177 C 
ATOM     24  C   UNL     1      15.811  50.988  21.521  1.00  0.00     0.176 C 
ATOM     25  C   UNL     1      16.447  52.367  21.143  1.00  0.00     0.177 C 
BRANCH  21  26
ATOM     26  O   UNL     1      13.797  54.172  20.906  1.00  0.00    -0.387 OA
ATOM     27  H   UNL     1      14.562  54.644  20.485  1.00  0.00     0.211 HD
ENDBRANCH  21  26
BRANCH  23  28
ATOM     28  O   UNL     1      16.331  54.749  21.524  1.00  0.00    -0.387 OA
ATOM     29  H   UNL     1      15.923  54.892  20.630  1.00  0.00     0.211 HD
ENDBRANCH  23  28
BRANCH  24  30
ATOM     30  C   UNL     1      16.872  50.033  22.086  1.00  0.00     0.191 C 
BRANCH  30  31
ATOM     31  O   UNL     1      16.613  49.751  23.435  1.00  0.00    -0.394 OA
ATOM     32  H   UNL     1      17.493  49.587  23.865  1.00  0.00     0.210 HD
ENDBRANCH  30  31
ENDBRANCH  24  30
BRANCH  25  33
ATOM     33  O   UNL     1      16.307  52.630  19.767  1.00  0.00    -0.388 OA
ATOM     34  H   UNL     1      16.248  51.762  19.291  1.00  0.00     0.211 HD
ENDBRANCH  25  33
ENDBRANCH  11  20
BRANCH  10  35
ATOM     35  O   UNL     1      13.957  51.524  24.867  1.00  0.00    -0.507 OA
ATOM     36  H   UNL     1      14.483  52.320  25.205  1.00  0.00     0.293 HD
ENDBRANCH  10  35
TORSDOF 9
ENDMDL
MODEL 2
REMARK VINA RESULT:    -7.187      1.698      8.472
REMARK INTER + INTRA:         -10.569
REMARK INTER:                  -9.746
REMARK INTRA:                  -0.823
REMARK UNBOUND:                -0.862
REMARK SMILES O=c1c(-c2ccc(O)cc2)coc2c([C@@H]3O[C@H](CO)[C@@H](O)[C@@H](O)[C@H]3O)c(O)ccc12
REMARK SMILES IDX 3 1 11 2 12 3 13 4 30 5 2 6 1 7 29 8 28 9 26 10 14 11 4 12
REMARK SMILES IDX 5 13 6 14 7 15 10 16 9 17 8 18 15 20 24 21 16 22 22 23 17 24
REMARK SMILES IDX 20 25 25 26 23 28 18 30 19 31 21 33 27 35
REMARK H PARENT 8 19 25 27 23 29 19 32 21 34 27 36
REMARK Flexibility Score: inf
ROOT
ATOM      1  C   UNL     1      12.242  52.048  22.150  1.00  0.00     0.065 A 
ATOM      2  C   UNL     1      11.470  52.488  21.066  1.00  0.00     0.208 A 
ATOM      3  O   UNL     1      10.154  52.617  21.175  1.00  0.00    -0.463 OA
ATOM      4  C   UNL     1       9.485  52.344  22.293  1.00  0.00     0.147 A 
ATOM      5  C   UNL     1      10.186  51.884  23.433  1.00  0.00     0.066 A 
ATOM      6  C   UNL     1      11.582  51.734  23.350  1.00  0.00     0.200 A 
ATOM      7  O   UNL     1      12.234  51.299  24.340  1.00  0.00    -0.288 OA
ATOM      8  C   UNL     1       9.477  51.580  24.606  1.00  0.00     0.020 A 
ATOM      9  C   UNL     1       8.092  51.718  24.645  1.00  0.00     0.047 A 
ATOM     10  C   UNL     1       7.388  52.170  23.522  1.00  0.00     0.125 A 
ATOM     11  C   UNL     1       8.081  52.509  22.337  1.00  0.00     0.069 A 
ENDROOT
BRANCH   1  12
ATOM     12  C   UNL     1      13.715  51.921  22.006  1.00  0.00    -0.011 A 
ATOM     13  C   UNL     1      14.581  52.797  22.684  1.00  0.00     0.013 A 
ATOM     14  C   UNL     1      15.966  52.678  22.537  1.00  0.00     0.047 A 
ATOM     15  C   UNL     1      16.504  51.686  21.707  1.00  0.00     0.115 A 
ATOM     16  C   UNL     1      14.263  50.932  21.170  1.00  0.00     0.013 A 
ATOM     17  C   UNL     1      15.649  50.815  21.025  1.00  0.00     0.047 A 
BRANCH  15  18
ATOM     18  O   UNL     1      17.881  51.558  21.553  1.00  0.00    -0.508 OA
ATOM     19  H   UNL     1      18.527  51.913  22.250  1.00  0.00     0.293 HD
ENDBRANCH  15  18
ENDBRANCH   1  12
BRANCH  11  20
ATOM     20  C   UNL     1       7.317  52.982  21.109  1.00  0.00     0.188 C 
ATOM     21  C   UNL     1       7.052  51.794  20.144  1.00  0.00     0.179 C 
ATOM     22  O   UNL     1       6.100  53.587  21.514  1.00  0.00    -0.362 OA
ATOM     23  C   UNL     1       5.657  51.911  19.487  1.00  0.00     0.177 C 
ATOM     24  C   UNL     1       5.508  54.293  20.433  1.00  0.00     0.176 C 
ATOM     25  C   UNL     1       5.276  53.375  19.186  1.00  0.00     0.177 C 
BRANCH  21  26
ATOM     26  O   UNL     1       8.049  51.748  19.154  1.00  0.00    -0.387 OA
ATOM     27  H   UNL     1       8.525  50.884  19.268  1.00  0.00     0.211 HD
ENDBRANCH  21  26
BRANCH  23  28
ATOM     28  O   UNL     1       5.587  51.147  18.309  1.00  0.00    -0.387 OA
ATOM     29  H   UNL     1       6.489  51.179  17.894  1.00  0.00     0.211 HD
ENDBRANCH  23  28
BRANCH  24  30
ATOM     30  C   UNL     1       4.182  54.895  20.922  1.00  0.00     0.191 C 
BRANCH  30  31
ATOM     31  O   UNL     1       3.102  54.092  20.529  1.00  0.00    -0.394 OA
ATOM     32  H   UNL     1       2.645  54.571  19.790  1.00  0.00     0.210 HD
ENDBRANCH  30  31
ENDBRANCH  24  30
BRANCH  25  33
ATOM     33  O   UNL     1       5.972  53.861  18.063  1.00  0.00    -0.388 OA
ATOM     34  H   UNL     1       6.080  53.114  17.420  1.00  0.00     0.211 HD
ENDBRANCH  25  33
ENDBRANCH  11  20
BRANCH  10  35
ATOM     35  O   UNL     1       5.998  52.274  23.580  1.00  0.00    -0.507 OA
ATOM     36  H   UNL     1       5.460  51.824  24.310  1.00  0.00     0.293 HD
ENDBRANCH  10  35
TORSDOF 9
ENDMDL
MODEL 3
REMARK VINA RESULT:    -6.544      1.015      2.353
REMARK INTER + INTRA:          -9.701
REMARK INTER:                  -9.397
REMARK INTRA:                  -0.304
REMARK UNBOUND:                -0.862
REMARK SMILES O=c1c(-c2ccc(O)cc2)coc2c([C@@H]3O[C@H](CO)[C@@H](O)[C@@H](O)[C@H]3O)c(O)ccc12
REMARK SMILES IDX 3 1 11 2 12 3 13 4 30 5 2 6 1 7 29 8 28 9 26 10 14 11 4 12
REMARK SMILES IDX 5 13 6 14 7 15 10 16 9 17 8 18 15 20 24 21 16 22 22 23 17 24
REMARK SMILES IDX 20 25 25 26 23 28 18 30 19 31 21 33 27 35
REMARK H PARENT 8 19 25 27 23 29 19 32 21 34 27 36
REMARK Flexibility Score: inf
ROOT
ATOM      1  C   UNL     1       8.888  52.446  21.276  1.00  0.00     0.065 A 
ATOM      2  C   UNL     1      10.089  52.706  20.600  1.00  0.00     0.208 A 
ATOM      3  O   UNL     1      11.260  52.535  21.200  1.00  0.00    -0.463 OA
ATOM      4  C   UNL     1      11.380  52.117  22.458  1.00  0.00     0.147 A 
ATOM      5  C   UNL     1      10.218  51.841  23.218  1.00  0.00     0.066 A 
ATOM      6  C   UNL     1       8.960  52.015  22.612  1.00  0.00     0.200 A 
ATOM      7  O   UNL     1       7.904  51.804  23.270  1.00  0.00    -0.288 OA
ATOM      8  C   UNL     1      10.346  51.417  24.550  1.00  0.00     0.020 A 
ATOM      9  C   UNL     1      11.607  51.279  25.125  1.00  0.00     0.047 A 
ATOM     10  C   UNL     1      12.762  51.551  24.383  1.00  0.00     0.125 A 
ATOM     11  C   UNL     1      12.663  51.954  23.032  1.00  0.00     0.069 A 
ENDROOT
BRANCH   1  12
ATOM     12  C   UNL     1       7.590  52.635  20.580  1.00  0.00    -0.011 A 
ATOM     13  C   UNL     1       6.711  53.662  20.969  1.00  0.00     0.013 A 
ATOM     14  C   UNL     1       5.486  53.829  20.316  1.00  0.00     0.047 A 
ATOM     15  C   UNL     1       5.121  52.970  19.271  1.00  0.00     0.115 A 
ATOM     16  C   UNL     1       7.214  51.773  19.535  1.00  0.00     0.013 A 
ATOM     17  C   UNL     1       5.988  51.943  18.883  1.00  0.00     0.047 A 
BRANCH  15  18
ATOM     18  O   UNL     1       3.904  53.127  18.614  1.00  0.00    -0.508 OA
ATOM     19  H   UNL     1       3.061  52.672  18.946  1.00  0.00     0.293 HD
ENDBRANCH  15  18
ENDBRANCH   1  12
BRANCH  11  20
ATOM     20  C   UNL     1      13.916  52.268  22.228  1.00  0.00     0.188 C 
ATOM     21  C   UNL     1      14.603  50.956  21.759  1.00  0.00     0.179 C 
ATOM     22  O   UNL     1      13.573  53.084  21.120  1.00  0.00    -0.362 OA
ATOM     23  C   UNL     1      15.190  51.112  20.337  1.00  0.00     0.177 C 
ATOM     24  C   UNL     1      14.740  53.633  20.523  1.00  0.00     0.176 C 
ATOM     25  C   UNL     1      15.759  52.525  20.094  1.00  0.00     0.177 C 
BRANCH  21  26
ATOM     26  O   UNL     1      15.618  50.596  22.663  1.00  0.00    -0.387 OA
ATOM     27  H   UNL     1      15.658  49.604  22.667  1.00  0.00     0.211 HD
ENDBRANCH  21  26
BRANCH  23  28
ATOM     28  O   UNL     1      16.181  50.147  20.090  1.00  0.00    -0.387 OA
ATOM     29  H   UNL     1      16.253  49.595  20.913  1.00  0.00     0.211 HD
ENDBRANCH  23  28
BRANCH  24  30
ATOM     30  C   UNL     1      14.309  54.477  19.314  1.00  0.00     0.191 C 
BRANCH  30  31
ATOM     31  O   UNL     1      12.924  54.383  19.116  1.00  0.00    -0.394 OA
ATOM     32  H   UNL     1      12.740  54.756  18.215  1.00  0.00     0.210 HD
ENDBRANCH  30  31
ENDBRANCH  24  30
BRANCH  25  33
ATOM     33  O   UNL     1      16.995  52.694  20.746  1.00  0.00    -0.388 OA
ATOM     34  H   UNL     1      17.347  51.796  20.976  1.00  0.00     0.211 HD
ENDBRANCH  25  33
ENDBRANCH  11  20
BRANCH  10  35
ATOM     35  O   UNL     1      14.012  51.430  24.992  1.00  0.00    -0.507 OA
ATOM     36  H   UNL     1      14.539  52.241  25.293  1.00  0.00     0.293 HD
ENDBRANCH  10  35
TORSDOF 9
ENDMDL
MODEL 4
REMARK VINA RESULT:    -6.385      1.891      3.975
REMARK INTER + INTRA:          -9.487
REMARK INTER:                  -8.968
REMARK INTRA:                  -0.519
REMARK UNBOUND:                -0.862
REMARK SMILES O=c1c(-c2ccc(O)cc2)coc2c([C@@H]3O[C@H](CO)[C@@H](O)[C@@H](O)[C@H]3O)c(O)ccc12
REMARK SMILES IDX 3 1 11 2 12 3 13 4 30 5 2 6 1 7 29 8 28 9 26 10 14 11 4 12
REMARK SMILES IDX 5 13 6 14 7 15 10 16 9 17 8 18 15 20 24 21 16 22 22 23 17 24
REMARK SMILES IDX 20 25 25 26 23 28 18 30 19 31 21 33 27 35
REMARK H PARENT 8 19 25 27 23 29 19 32 21 34 27 36
REMARK Flexibility Score: inf
ROOT
ATOM      1  C   UNL     1       9.205  52.844  19.879  1.00  0.00     0.065 A 
ATOM      2  C   UNL     1       9.939  52.773  21.071  1.00  0.00     0.208 A 
ATOM      3  O   UNL     1      11.265  52.770  21.057  1.00  0.00    -0.463 OA
ATOM      4  C   UNL     1      11.982  52.831  19.936  1.00  0.00     0.147 A 
ATOM      5  C   UNL     1      11.321  52.894  18.686  1.00  0.00     0.066 A 
ATOM      6  C   UNL     1       9.915  52.897  18.667  1.00  0.00     0.200 A 
ATOM      7  O   UNL     1       9.294  52.924  17.567  1.00  0.00    -0.288 OA
ATOM      8  C   UNL     1      12.078  52.941  17.504  1.00  0.00     0.020 A 
ATOM      9  C   UNL     1      13.469  52.913  17.560  1.00  0.00     0.047 A 
ATOM     10  C   UNL     1      14.132  52.848  18.791  1.00  0.00     0.125 A 
ATOM     11  C   UNL     1      13.395  52.827  19.997  1.00  0.00     0.069 A 
ENDROOT
BRANCH   1  12
ATOM     12  C   UNL     1       7.721  52.855  19.922  1.00  0.00    -0.011 A 
ATOM     13  C   UNL     1       6.971  52.101  19.002  1.00  0.00     0.013 A 
ATOM     14  C   UNL     1       5.574  52.124  19.041  1.00  0.00     0.047 A 
ATOM     15  C   UNL     1       4.908  52.904  19.996  1.00  0.00     0.115 A 
ATOM     16  C   UNL     1       7.045  53.641  20.873  1.00  0.00     0.013 A 
ATOM     17  C   UNL     1       5.647  53.661  20.910  1.00  0.00     0.047 A 
BRANCH  15  18
ATOM     18  O   UNL     1       3.517  52.933  20.045  1.00  0.00    -0.508 OA
ATOM     19  H   UNL     1       2.977  53.498  19.399  1.00  0.00     0.293 HD
ENDBRANCH  15  18
ENDBRANCH   1  12
BRANCH  11  20
ATOM     20  C   UNL     1      14.112  52.738  21.336  1.00  0.00     0.188 C 
ATOM     21  C   UNL     1      14.615  51.288  21.586  1.00  0.00     0.179 C 
ATOM     22  O   UNL     1      15.191  53.658  21.356  1.00  0.00    -0.362 OA
ATOM     23  C   UNL     1      15.993  51.291  22.287  1.00  0.00     0.177 C 
ATOM     24  C   UNL     1      15.695  53.811  22.675  1.00  0.00     0.176 C 
ATOM     25  C   UNL     1      16.128  52.444  23.302  1.00  0.00     0.177 C 
BRANCH  21  26
ATOM     26  O   UNL     1      13.679  50.584  22.363  1.00  0.00    -0.387 OA
ATOM     27  H   UNL     1      12.828  50.583  21.853  1.00  0.00     0.211 HD
ENDBRANCH  21  26
BRANCH  23  28
ATOM     28  O   UNL     1      16.239  50.062  22.923  1.00  0.00    -0.387 OA
ATOM     29  H   UNL     1      16.404  50.263  23.881  1.00  0.00     0.211 HD
ENDBRANCH  23  28
BRANCH  24  30
ATOM     30  C   UNL     1      16.877  54.790  22.627  1.00  0.00     0.191 C 
BRANCH  30  31
ATOM     31  O   UNL     1      16.419  56.115  22.639  1.00  0.00    -0.394 OA
ATOM     32  H   UNL     1      16.149  56.315  23.573  1.00  0.00     0.210 HD
ENDBRANCH  30  31
ENDBRANCH  24  30
BRANCH  25  33
ATOM     33  O   UNL     1      15.403  52.174  24.478  1.00  0.00    -0.388 OA
ATOM     34  H   UNL     1      14.902  52.993  24.727  1.00  0.00     0.211 HD
ENDBRANCH  25  33
ENDBRANCH  11  20
BRANCH  10  35
ATOM     35  O   UNL     1      15.527  52.794  18.817  1.00  0.00    -0.507 OA
ATOM     36  H   UNL     1      16.059  53.155  19.599  1.00  0.00     0.293 HD
ENDBRANCH  10  35
TORSDOF 9
ENDMDL
MODEL 5
REMARK VINA RESULT:    -6.327      2.696      4.503
REMARK INTER + INTRA:          -9.408
REMARK INTER:                  -8.666
REMARK INTRA:                  -0.742
REMARK UNBOUND:                -0.862
REMARK SMILES O=c1c(-c2ccc(O)cc2)coc2c([C@@H]3O[C@H](CO)[C@@H](O)[C@@H](O)[C@H]3O)c(O)ccc12
REMARK SMILES IDX 3 1 11 2 12 3 13 4 30 5 2 6 1 7 29 8 28 9 26 10 14 11 4 12
REMARK SMILES IDX 5 13 6 14 7 15 10 16 9 17 8 18 15 20 24 21 16 22 22 23 17 24
REMARK SMILES IDX 20 25 25 26 23 28 18 30 19 31 21 33 27 35
REMARK H PARENT 8 19 25 27 23 29 19 32 21 34 27 36
REMARK Flexibility Score: inf
ROOT
ATOM      1  C   UNL     1      11.915  51.505  23.170  1.00  0.00     0.065 A 
ATOM      2  C   UNL     1      12.311  50.875  21.982  1.00  0.00     0.208 A 
ATOM      3  O   UNL     1      13.596  50.720  21.688  1.00  0.00    -0.463 OA
ATOM      4  C   UNL     1      14.580  51.142  22.479  1.00  0.00     0.147 A 
ATOM      5  C   UNL     1      14.269  51.799  23.693  1.00  0.00     0.066 A 
ATOM      6  C   UNL     1      12.916  51.982  24.033  1.00  0.00     0.200 A 
ATOM      7  O   UNL     1      12.604  52.588  25.096  1.00  0.00    -0.288 OA
ATOM      8  C   UNL     1      15.308  52.259  24.518  1.00  0.00     0.020 A 
ATOM      9  C   UNL     1      16.636  52.082  24.139  1.00  0.00     0.047 A 
ATOM     10  C   UNL     1      16.955  51.436  22.939  1.00  0.00     0.125 A 
ATOM     11  C   UNL     1      15.928  50.939  22.103  1.00  0.00     0.069 A 
ENDROOT
BRANCH   1  12
ATOM     12  C   UNL     1      10.470  51.658  23.480  1.00  0.00    -0.011 A 
ATOM     13  C   UNL     1       9.619  52.355  22.605  1.00  0.00     0.013 A 
ATOM     14  C   UNL     1       8.262  52.504  22.907  1.00  0.00     0.047 A 
ATOM     15  C   UNL     1       7.740  51.965  24.090  1.00  0.00     0.115 A 
ATOM     16  C   UNL     1       9.940  51.126  24.669  1.00  0.00     0.013 A 
ATOM     17  C   UNL     1       8.583  51.277  24.969  1.00  0.00     0.047 A 
BRANCH  15  18
ATOM     18  O   UNL     1       6.391  52.108  24.402  1.00  0.00    -0.508 OA
ATOM     19  H   UNL     1       5.974  53.021  24.544  1.00  0.00     0.293 HD
ENDBRANCH  15  18
ENDBRANCH   1  12
BRANCH  11  20
ATOM     20  C   UNL     1      16.271  50.253  20.789  1.00  0.00     0.188 C 
ATOM     21  C   UNL     1      16.705  51.301  19.727  1.00  0.00     0.179 C 
ATOM     22  O   UNL     1      17.297  49.299  21.008  1.00  0.00    -0.362 OA
ATOM     23  C   UNL     1      17.852  50.756  18.844  1.00  0.00     0.177 C 
ATOM     24  C   UNL     1      17.436  48.445  19.881  1.00  0.00     0.176 C 
ATOM     25  C   UNL     1      17.704  49.247  18.564  1.00  0.00     0.177 C 
BRANCH  21  26
ATOM     26  O   UNL     1      15.606  51.656  18.926  1.00  0.00    -0.387 OA
ATOM     27  H   UNL     1      15.571  50.999  18.182  1.00  0.00     0.211 HD
ENDBRANCH  21  26
BRANCH  23  28
ATOM     28  O   UNL     1      17.935  51.462  17.632  1.00  0.00    -0.387 OA
ATOM     29  H   UNL     1      17.003  51.639  17.339  1.00  0.00     0.211 HD
ENDBRANCH  23  28
BRANCH  24  30
ATOM     30  C   UNL     1      18.579  47.459  20.164  1.00  0.00     0.191 C 
BRANCH  30  31
ATOM     31  O   UNL     1      18.122  46.137  20.074  1.00  0.00    -0.394 OA
ATOM     32  H   UNL     1      17.858  45.864  20.991  1.00  0.00     0.210 HD
ENDBRANCH  30  31
ENDBRANCH  24  30
BRANCH  25  33
ATOM     33  O   UNL     1      16.700  49.002  17.609  1.00  0.00    -0.388 OA
ATOM     34  H   UNL     1      16.404  49.875  17.242  1.00  0.00     0.211 HD
ENDBRANCH  25  33
ENDBRANCH  11  20
BRANCH  10  35
ATOM     35  O   UNL     1      18.293  51.295  22.570  1.00  0.00    -0.507 OA
ATOM     36  H   UNL     1      18.566  50.778  21.744  1.00  0.00     0.293 HD
ENDBRANCH  10  35
TORSDOF 9
ENDMDL
MODEL 6
REMARK VINA RESULT:    -6.245      1.293      2.019
REMARK INTER + INTRA:          -9.297
REMARK INTER:                  -9.724
REMARK INTRA:                   0.427
REMARK UNBOUND:                -0.862
REMARK SMILES O=c1c(-c2ccc(O)cc2)coc2c([C@@H]3O[C@H](CO)[C@@H](O)[C@@H](O)[C@H]3O)c(O)ccc12
REMARK SMILES IDX 3 1 11 2 12 3 13 4 30 5 2 6 1 7 29 8 28 9 26 10 14 11 4 12
REMARK SMILES IDX 5 13 6 14 7 15 10 16 9 17 8 18 15 20 24 21 16 22 22 23 17 24
REMARK SMILES IDX 20 25 25 26 23 28 18 30 19 31 21 33 27 35
REMARK H PARENT 8 19 25 27 23 29 19 32 21 34 27 36
REMARK Flexibility Score: inf
ROOT
ATOM      1  C   UNL     1       8.138  52.509  21.271  1.00  0.00     0.065 A 
ATOM      2  C   UNL     1       9.316  52.502  20.510  1.00  0.00     0.208 A 
ATOM      3  O   UNL     1      10.490  52.253  21.075  1.00  0.00    -0.463 OA
ATOM      4  C   UNL     1      10.635  51.999  22.375  1.00  0.00     0.147 A 
ATOM      5  C   UNL     1       9.498  51.997  23.217  1.00  0.00     0.066 A 
ATOM      6  C   UNL     1       8.238  52.260  22.650  1.00  0.00     0.200 A 
ATOM      7  O   UNL     1       7.208  52.293  23.379  1.00  0.00    -0.288 OA
ATOM      8  C   UNL     1       9.655  51.747  24.590  1.00  0.00     0.020 A 
ATOM      9  C   UNL     1      10.921  51.514  25.122  1.00  0.00     0.047 A 
ATOM     10  C   UNL     1      12.051  51.516  24.297  1.00  0.00     0.125 A 
ATOM     11  C   UNL     1      11.919  51.739  22.907  1.00  0.00     0.069 A 
ENDROOT
BRANCH   1  12
ATOM     12  C   UNL     1       6.834  52.781  20.614  1.00  0.00    -0.011 A 
ATOM     13  C   UNL     1       6.415  52.019  19.508  1.00  0.00     0.013 A 
ATOM     14  C   UNL     1       5.191  52.286  18.888  1.00  0.00     0.047 A 
ATOM     15  C   UNL     1       4.373  53.321  19.360  1.00  0.00     0.115 A 
ATOM     16  C   UNL     1       6.010  53.822  21.077  1.00  0.00     0.013 A 
ATOM     17  C   UNL     1       4.786  54.087  20.454  1.00  0.00     0.047 A 
BRANCH  15  18
ATOM     18  O   UNL     1       3.152  53.596  18.750  1.00  0.00    -0.508 OA
ATOM     19  H   UNL     1       3.014  54.435  18.196  1.00  0.00     0.293 HD
ENDBRANCH  15  18
ENDBRANCH   1  12
BRANCH  11  20
ATOM     20  C   UNL     1      13.148  51.760  22.011  1.00  0.00     0.188 C 
ATOM     21  C   UNL     1      12.763  52.202  20.572  1.00  0.00     0.179 C 
ATOM     22  O   UNL     1      14.121  52.631  22.565  1.00  0.00    -0.362 OA
ATOM     23  C   UNL     1      13.862  53.096  19.951  1.00  0.00     0.177 C 
ATOM     24  C   UNL     1      15.375  52.454  21.923  1.00  0.00     0.176 C 
ATOM     25  C   UNL     1      15.278  52.655  20.373  1.00  0.00     0.177 C 
BRANCH  21  26
ATOM     26  O   UNL     1      12.546  51.072  19.765  1.00  0.00    -0.387 OA
ATOM     27  H   UNL     1      12.000  51.374  18.992  1.00  0.00     0.211 HD
ENDBRANCH  21  26
BRANCH  23  28
ATOM     28  O   UNL     1      13.764  53.115  18.549  1.00  0.00    -0.387 OA
ATOM     29  H   UNL     1      12.841  52.828  18.323  1.00  0.00     0.211 HD
ENDBRANCH  23  28
BRANCH  24  30
ATOM     30  C   UNL     1      16.375  53.444  22.540  1.00  0.00     0.191 C 
BRANCH  30  31
ATOM     31  O   UNL     1      15.734  54.643  22.880  1.00  0.00    -0.394 OA
ATOM     32  H   UNL     1      15.543  54.598  23.854  1.00  0.00     0.210 HD
ENDBRANCH  30  31
ENDBRANCH  24  30
BRANCH  25  33
ATOM     33  O   UNL     1      15.675  51.492  19.686  1.00  0.00    -0.388 OA
ATOM     34  H   UNL     1      16.042  50.852  20.349  1.00  0.00     0.211 HD
ENDBRANCH  25  33
ENDBRANCH  11  20
BRANCH  10  35
ATOM     35  O   UNL     1      13.311  51.306  24.860  1.00  0.00    -0.507 OA
ATOM     36  H   UNL     1      13.734  51.981  25.485  1.00  0.00     0.293 HD
ENDBRANCH  10  35
TORSDOF 9
ENDMDL
MODEL 7
REMARK VINA RESULT:    -6.108      2.479      8.506
REMARK INTER + INTRA:          -9.112
REMARK INTER:                  -8.487
REMARK INTRA:                  -0.626
REMARK UNBOUND:                -0.862
REMARK SMILES O=c1c(-c2ccc(O)cc2)coc2c([C@@H]3O[C@H](CO)[C@@H](O)[C@@H](O)[C@H]3O)c(O)ccc12
REMARK SMILES IDX 3 1 11 2 12 3 13 4 30 5 2 6 1 7 29 8 28 9 26 10 14 11 4 12
REMARK SMILES IDX 5 13 6 14 7 15 10 16 9 17 8 18 15 20 24 21 16 22 22 23 17 24
REMARK SMILES IDX 20 25 25 26 23 28 18 30 19 31 21 33 27 35
REMARK H PARENT 8 19 25 27 23 29 19 32 21 34 27 36
REMARK Flexibility Score: inf
ROOT
ATOM      1  C   UNL     1      15.521  52.022  23.543  1.00  0.00     0.065 A 
ATOM      2  C   UNL     1      14.829  52.760  22.573  1.00  0.00     0.208 A 
ATOM      3  O   UNL     1      13.536  52.558  22.356  1.00  0.00    -0.463 OA
ATOM      4  C   UNL     1      12.817  51.659  23.026  1.00  0.00     0.147 A 
ATOM      5  C   UNL     1      13.439  50.862  24.015  1.00  0.00     0.066 A 
ATOM      6  C   UNL     1      14.810  51.050  24.268  1.00  0.00     0.200 A 
ATOM      7  O   UNL     1      15.402  50.336  25.124  1.00  0.00    -0.288 OA
ATOM      8  C   UNL     1      12.684  49.902  24.708  1.00  0.00     0.020 A 
ATOM      9  C   UNL     1      11.333  49.727  24.415  1.00  0.00     0.047 A 
ATOM     10  C   UNL     1      10.708  50.509  23.437  1.00  0.00     0.125 A 
ATOM     11  C   UNL     1      11.439  51.501  22.743  1.00  0.00     0.069 A 
ENDROOT
BRANCH   1  12
ATOM     12  C   UNL     1      16.966  52.273  23.773  1.00  0.00    -0.011 A 
ATOM     13  C   UNL     1      17.933  51.769  22.884  1.00  0.00     0.013 A 
ATOM     14  C   UNL     1      19.292  52.000  23.112  1.00  0.00     0.047 A 
ATOM     15  C   UNL     1      19.705  52.733  24.232  1.00  0.00     0.115 A 
ATOM     16  C   UNL     1      17.389  53.002  24.899  1.00  0.00     0.013 A 
ATOM     17  C   UNL     1      18.750  53.232  25.124  1.00  0.00     0.047 A 
BRANCH  15  18
ATOM     18  O   UNL     1      21.056  52.970  24.469  1.00  0.00    -0.508 OA
ATOM     19  H   UNL     1      21.770  52.650  23.824  1.00  0.00     0.293 HD
ENDBRANCH  15  18
ENDBRANCH   1  12
BRANCH  11  20
ATOM     20  C   UNL     1      10.768  52.339  21.666  1.00  0.00     0.188 C 
ATOM     21  C   UNL     1      11.223  51.875  20.255  1.00  0.00     0.179 C 
ATOM     22  O   UNL     1       9.360  52.241  21.801  1.00  0.00    -0.362 OA
ATOM     23  C   UNL     1      10.054  51.938  19.244  1.00  0.00     0.177 C 
ATOM     24  C   UNL     1       8.711  53.228  21.011  1.00  0.00     0.176 C 
ATOM     25  C   UNL     1       9.125  53.141  19.504  1.00  0.00     0.177 C 
BRANCH  21  26
ATOM     26  O   UNL     1      12.291  52.672  19.808  1.00  0.00    -0.387 OA
ATOM     27  H   UNL     1      12.318  52.586  18.820  1.00  0.00     0.211 HD
ENDBRANCH  21  26
BRANCH  23  28
ATOM     28  O   UNL     1      10.531  51.978  17.922  1.00  0.00    -0.387 OA
ATOM     29  H   UNL     1      11.219  51.266  17.846  1.00  0.00     0.211 HD
ENDBRANCH  23  28
BRANCH  24  30
ATOM     30  C   UNL     1       7.194  53.051  21.172  1.00  0.00     0.191 C 
BRANCH  30  31
ATOM     31  O   UNL     1       6.504  54.019  20.429  1.00  0.00    -0.394 OA
ATOM     32  H   UNL     1       6.898  54.012  19.518  1.00  0.00     0.210 HD
ENDBRANCH  30  31
ENDBRANCH  24  30
BRANCH  25  33
ATOM     33  O   UNL     1       9.715  54.343  19.070  1.00  0.00    -0.388 OA
ATOM     34  H   UNL     1      10.366  54.126  18.354  1.00  0.00     0.211 HD
ENDBRANCH  25  33
ENDBRANCH  11  20
BRANCH  10  35
ATOM     35  O   UNL     1       9.361  50.294  23.145  1.00  0.00    -0.507 OA
ATOM     36  H   UNL     1       9.036  50.164  22.195  1.00  0.00     0.293 HD
ENDBRANCH  10  35
TORSDOF 9
ENDMDL
MODEL 8
REMARK VINA RESULT:    -5.885      4.752      6.876
REMARK INTER + INTRA:          -8.812
REMARK INTER:                  -8.505
REMARK INTRA:                  -0.307
REMARK UNBOUND:                -0.862
REMARK SMILES O=c1c(-c2ccc(O)cc2)coc2c([C@@H]3O[C@H](CO)[C@@H](O)[C@@H](O)[C@H]3O)c(O)ccc12
REMARK SMILES IDX 3 1 11 2 12 3 13 4 30 5 2 6 1 7 29 8 28 9 26 10 14 11 4 12
REMARK SMILES IDX 5 13 6 14 7 15 10 16 9 17 8 18 15 20 24 21 16 22 22 23 17 24
REMARK SMILES IDX 20 25 25 26 23 28 18 30 19 31 21 33 27 35
REMARK H PARENT 8 19 25 27 23 29 19 32 21 34 27 36
REMARK Flexibility Score: inf
ROOT
ATOM      1  C   UNL     1      12.086  50.328  16.512  1.00  0.00     0.065 A 
ATOM      2  C   UNL     1      11.414  50.259  17.740  1.00  0.00     0.208 A 
ATOM      3  O   UNL     1      11.673  51.127  18.709  1.00  0.00    -0.463 OA
ATOM      4  C   UNL     1      12.572  52.103  18.592  1.00  0.00     0.147 A 
ATOM      5  C   UNL     1      13.304  52.238  17.389  1.00  0.00     0.066 A 
ATOM      6  C   UNL     1      13.055  51.332  16.342  1.00  0.00     0.200 A 
ATOM      7  O   UNL     1      13.710  51.408  15.266  1.00  0.00    -0.288 OA
ATOM      8  C   UNL     1      14.264  53.257  17.273  1.00  0.00     0.020 A 
ATOM      9  C   UNL     1      14.502  54.121  18.338  1.00  0.00     0.047 A 
ATOM     10  C   UNL     1      13.784  53.995  19.533  1.00  0.00     0.125 A 
ATOM     11  C   UNL     1      12.794  52.995  19.667  1.00  0.00     0.069 A 
ENDROOT
BRANCH   1  12
ATOM     12  C   UNL     1      11.771  49.350  15.439  1.00  0.00    -0.011 A 
ATOM     13  C   UNL     1      11.093  49.756  14.276  1.00  0.00     0.013 A 
ATOM     14  C   UNL     1      10.790  48.829  13.274  1.00  0.00     0.047 A 
ATOM     15  C   UNL     1      11.155  47.485  13.423  1.00  0.00     0.115 A 
ATOM     16  C   UNL     1      12.128  47.998  15.585  1.00  0.00     0.013 A 
ATOM     17  C   UNL     1      11.824  47.073  14.580  1.00  0.00     0.047 A 
BRANCH  15  18
ATOM     18  O   UNL     1      10.859  46.554  12.432  1.00  0.00    -0.508 OA
ATOM     19  H   UNL     1      11.564  45.920  12.074  1.00  0.00     0.293 HD
ENDBRANCH  15  18
ENDBRANCH   1  12
BRANCH  11  20
ATOM     20  C   UNL     1      12.025  52.843  20.971  1.00  0.00     0.188 C 
ATOM     21  C   UNL     1      10.500  52.742  20.693  1.00  0.00     0.179 C 
ATOM     22  O   UNL     1      12.491  51.695  21.662  1.00  0.00    -0.362 OA
ATOM     23  C   UNL     1       9.824  51.737  21.655  1.00  0.00     0.177 C 
ATOM     24  C   UNL     1      12.011  51.686  22.999  1.00  0.00     0.176 C 
ATOM     25  C   UNL     1      10.449  51.770  23.065  1.00  0.00     0.177 C 
BRANCH  21  26
ATOM     26  O   UNL     1       9.904  54.009  20.822  1.00  0.00    -0.387 OA
ATOM     27  H   UNL     1       9.511  54.047  21.733  1.00  0.00     0.211 HD
ENDBRANCH  21  26
BRANCH  23  28
ATOM     28  O   UNL     1       8.441  51.971  21.739  1.00  0.00    -0.387 OA
ATOM     29  H   UNL     1       8.313  52.953  21.678  1.00  0.00     0.211 HD
ENDBRANCH  23  28
BRANCH  24  30
ATOM     30  C   UNL     1      12.519  50.409  23.683  1.00  0.00     0.191 C 
BRANCH  30  31
ATOM     31  O   UNL     1      11.802  49.291  23.233  1.00  0.00    -0.394 OA
ATOM     32  H   UNL     1      11.776  48.647  23.989  1.00  0.00     0.210 HD
ENDBRANCH  30  31
ENDBRANCH  24  30
BRANCH  25  33
ATOM     33  O   UNL     1      10.033  52.909  23.779  1.00  0.00    -0.388 OA
ATOM     34  H   UNL     1       9.872  53.640  23.128  1.00  0.00     0.211 HD
ENDBRANCH  25  33
ENDBRANCH  11  20
BRANCH  10  35
ATOM     35  O   UNL     1      14.062  54.858  20.595  1.00  0.00    -0.507 OA
ATOM     36  H   UNL     1      14.952  54.840  21.077  1.00  0.00     0.293 HD
ENDBRANCH  10  35
TORSDOF 9
ENDMDL
MODEL 9
REMARK VINA RESULT:    -5.804      2.379      8.060
REMARK INTER + INTRA:          -8.702
REMARK INTER:                  -8.444
REMARK INTRA:                  -0.258
REMARK UNBOUND:                -0.862
REMARK SMILES O=c1c(-c2ccc(O)cc2)coc2c([C@@H]3O[C@H](CO)[C@@H](O)[C@@H](O)[C@H]3O)c(O)ccc12
REMARK SMILES IDX 3 1 11 2 12 3 13 4 30 5 2 6 1 7 29 8 28 9 26 10 14 11 4 12
REMARK SMILES IDX 5 13 6 14 7 15 10 16 9 17 8 18 15 20 24 21 16 22 22 23 17 24
REMARK SMILES IDX 20 25 25 26 23 28 18 30 19 31 21 33 27 35
REMARK H PARENT 8 19 25 27 23 29 19 32 21 34 27 36
REMARK Flexibility Score: inf
ROOT
ATOM      1  C   UNL     1      15.460  52.519  22.915  1.00  0.00     0.065 A 
ATOM      2  C   UNL     1      14.590  52.722  21.834  1.00  0.00     0.208 A 
ATOM      3  O   UNL     1      13.342  52.274  21.871  1.00  0.00    -0.463 OA
ATOM      4  C   UNL     1      12.835  51.612  22.909  1.00  0.00     0.147 A 
ATOM      5  C   UNL     1      13.648  51.354  24.038  1.00  0.00     0.066 A 
ATOM      6  C   UNL     1      14.978  51.814  24.031  1.00  0.00     0.200 A 
ATOM      7  O   UNL     1      15.738  51.576  25.010  1.00  0.00    -0.288 OA
ATOM      8  C   UNL     1      13.118  50.640  25.125  1.00  0.00     0.020 A 
ATOM      9  C   UNL     1      11.804  50.179  25.088  1.00  0.00     0.047 A 
ATOM     10  C   UNL     1      10.992  50.427  23.976  1.00  0.00     0.125 A 
ATOM     11  C   UNL     1      11.493  51.166  22.879  1.00  0.00     0.069 A 
ENDROOT
BRANCH   1  12
ATOM     12  C   UNL     1      16.850  53.039  22.854  1.00  0.00    -0.011 A 
ATOM     13  C   UNL     1      17.932  52.168  22.637  1.00  0.00     0.013 A 
ATOM     14  C   UNL     1      19.239  52.662  22.591  1.00  0.00     0.047 A 
ATOM     15  C   UNL     1      19.482  54.031  22.766  1.00  0.00     0.115 A 
ATOM     16  C   UNL     1      17.103  54.411  23.036  1.00  0.00     0.013 A 
ATOM     17  C   UNL     1      18.411  54.902  22.989  1.00  0.00     0.047 A 
BRANCH  15  18
ATOM     18  O   UNL     1      20.780  54.534  22.722  1.00  0.00    -0.508 OA
ATOM     19  H   UNL     1      21.301  54.729  23.570  1.00  0.00     0.293 HD
ENDBRANCH  15  18
ENDBRANCH   1  12
BRANCH  11  20
ATOM     20  C   UNL     1      10.619  51.422  21.660  1.00  0.00     0.188 C 
ATOM     21  C   UNL     1       9.535  52.487  21.983  1.00  0.00     0.179 C 
ATOM     22  O   UNL     1      11.432  51.839  20.576  1.00  0.00    -0.362 OA
ATOM     23  C   UNL     1       9.291  53.418  20.772  1.00  0.00     0.177 C 
ATOM     24  C   UNL     1      10.701  51.803  19.359  1.00  0.00     0.176 C 
ATOM     25  C   UNL     1       9.396  52.665  19.430  1.00  0.00     0.177 C 
BRANCH  21  26
ATOM     26  O   UNL     1       8.336  51.854  22.355  1.00  0.00    -0.387 OA
ATOM     27  H   UNL     1       8.427  51.613  23.314  1.00  0.00     0.211 HD
ENDBRANCH  21  26
BRANCH  23  28
ATOM     28  O   UNL     1       8.042  54.054  20.868  1.00  0.00    -0.387 OA
ATOM     29  H   UNL     1       7.408  53.385  21.237  1.00  0.00     0.211 HD
ENDBRANCH  23  28
BRANCH  24  30
ATOM     30  C   UNL     1      11.620  52.295  18.231  1.00  0.00     0.191 C 
BRANCH  30  31
ATOM     31  O   UNL     1      12.892  52.604  18.733  1.00  0.00    -0.394 OA
ATOM     32  H   UNL     1      12.858  53.550  19.032  1.00  0.00     0.210 HD
ENDBRANCH  30  31
ENDBRANCH  24  30
BRANCH  25  33
ATOM     33  O   UNL     1       8.254  51.876  19.198  1.00  0.00    -0.388 OA
ATOM     34  H   UNL     1       8.203  51.190  19.913  1.00  0.00     0.211 HD
ENDBRANCH  25  33
ENDBRANCH  11  20
BRANCH  10  35
ATOM     35  O   UNL     1       9.688  49.931  23.954  1.00  0.00    -0.507 OA
ATOM     36  H   UNL     1       9.469  49.028  23.552  1.00  0.00     0.293 HD
ENDBRANCH  10  35
TORSDOF 9
ENDMDL
