MODEL 1
REMARK VINA RESULT:     8.383      0.000      0.000
REMARK INTER + INTRA:          14.427
REMARK INTER:                  15.245
REMARK INTRA:                  -0.818
REMARK UNBOUND:                -0.818
REMARK SMILES CCCCCCCCCCCCCCCC(=O)[O-]
REMARK SMILES IDX 9 1 10 2 11 3 12 4 13 5 14 6 15 7 16 8 17 9 18 10 8 11 7 12
REMARK SMILES IDX 6 13 5 14 4 15 3 16 2 17 1 18
REMARK H PARENT
REMARK Flexibility Score: inf
ROOT
ATOM      1  C   UNL     1     -35.589  24.227   7.177  1.00  0.00     0.000 C 
ENDROOT
BRANCH   1   2
ATOM      2  C   UNL     1     -35.856  22.731   6.956  1.00  0.00     0.000 C 
BRANCH   2   3
ATOM      3  C   UNL     1     -36.663  22.142   8.125  1.00  0.00     0.000 C 
BRANCH   3   4
ATOM      4  C   UNL     1     -38.130  22.601   8.125  1.00  0.00     0.000 C 
BRANCH   4   5
ATOM      5  C   UNL     1     -39.020  21.734   7.216  1.00  0.00     0.000 C 
BRANCH   5   6
ATOM      6  C   UNL     1     -39.017  22.216   5.756  1.00  0.00     0.006 C 
BRANCH   6   7
ATOM      7  C   UNL     1     -38.980  23.745   5.636  1.00  0.00     0.053 C 
BRANCH   7   8
ATOM      8  C   UNL     1     -38.760  24.151   4.213  1.00  0.00     0.041 C 
ATOM      9  O   UNL     1     -38.204  23.360   3.406  1.00  0.00    -0.550 OA
ATOM     10  O   UNL     1     -39.124  25.423   3.789  1.00  0.00    -0.550 OA
ENDBRANCH   7   8
ENDBRANCH   6   7
ENDBRANCH   5   6
ENDBRANCH   4   5
ENDBRANCH   3   4
ENDBRANCH   2   3
ENDBRANCH   1   2
BRANCH   1  11
ATOM     11  C   UNL     1     -34.120  24.530   7.523  1.00  0.00     0.000 C 
BRANCH  11  12
ATOM     12  C   UNL     1     -33.338  25.286   6.433  1.00  0.00    -0.000 C 
BRANCH  12  13
ATOM     13  C   UNL     1     -31.847  24.921   6.402  1.00  0.00    -0.000 C 
BRANCH  13  14
ATOM     14  C   UNL     1     -31.309  24.686   7.820  1.00  0.00    -0.000 C 
BRANCH  14  15
ATOM     15  C   UNL     1     -30.179  23.644   7.859  1.00  0.00    -0.000 C 
BRANCH  15  16
ATOM     16  C   UNL     1     -29.041  23.971   6.876  1.00  0.00    -0.000 C 
BRANCH  16  17
ATOM     17  C   UNL     1     -27.993  24.915   7.484  1.00  0.00    -0.003 C 
ATOM     18  C   UNL     1     -27.474  25.946   6.481  1.00  0.00     0.004 C 
ENDBRANCH  16  17
ENDBRANCH  15  16
ENDBRANCH  14  15
ENDBRANCH  13  14
ENDBRANCH  12  13
ENDBRANCH  11  12
ENDBRANCH   1  11
TORSDOF 14
ENDMDL
MODEL 2
REMARK VINA RESULT:     8.627     17.335     19.893
REMARK INTER + INTRA:          14.869
REMARK INTER:                  15.395
REMARK INTRA:                  -0.526
REMARK UNBOUND:                -0.818
REMARK SMILES CCCCCCCCCCCCCCCC(=O)[O-]
REMARK SMILES IDX 9 1 10 2 11 3 12 4 13 5 14 6 15 7 16 8 17 9 18 10 8 11 7 12
REMARK SMILES IDX 6 13 5 14 4 15 3 16 2 17 1 18
REMARK H PARENT
REMARK Flexibility Score: inf
ROOT
ATOM      1  C   UNL     1     -24.044  27.252  -7.696  1.00  0.00     0.000 C 
ENDROOT
BRANCH   1   2
ATOM      2  C   UNL     1     -22.960  28.138  -7.065  1.00  0.00     0.000 C 
BRANCH   2   3
ATOM      3  C   UNL     1     -21.617  27.392  -6.993  1.00  0.00     0.000 C 
BRANCH   3   4
ATOM      4  C   UNL     1     -21.628  26.250  -5.964  1.00  0.00     0.000 C 
BRANCH   4   5
ATOM      5  C   UNL     1     -20.441  26.324  -4.987  1.00  0.00     0.000 C 
BRANCH   5   6
ATOM      6  C   UNL     1     -19.173  25.658  -5.548  1.00  0.00     0.006 C 
BRANCH   6   7
ATOM      7  C   UNL     1     -19.462  24.756  -6.754  1.00  0.00     0.053 C 
BRANCH   7   8
ATOM      8  C   UNL     1     -19.288  23.317  -6.383  1.00  0.00     0.041 C 
ATOM      9  O   UNL     1     -18.991  22.467  -7.263  1.00  0.00    -0.550 OA
ATOM     10  O   UNL     1     -19.501  22.907  -5.072  1.00  0.00    -0.550 OA
ENDBRANCH   7   8
ENDBRANCH   6   7
ENDBRANCH   5   6
ENDBRANCH   4   5
ENDBRANCH   3   4
ENDBRANCH   2   3
ENDBRANCH   1   2
BRANCH   1  11
ATOM     11  C   UNL     1     -25.243  28.057  -8.228  1.00  0.00     0.000 C 
BRANCH  11  12
ATOM     12  C   UNL     1     -26.580  27.778  -7.518  1.00  0.00    -0.000 C 
BRANCH  12  13
ATOM     13  C   UNL     1     -27.174  29.023  -6.844  1.00  0.00    -0.000 C 
BRANCH  13  14
ATOM     14  C   UNL     1     -27.193  30.215  -7.811  1.00  0.00    -0.000 C 
BRANCH  14  15
ATOM     15  C   UNL     1     -25.932  31.088  -7.700  1.00  0.00    -0.000 C 
BRANCH  15  16
ATOM     16  C   UNL     1     -25.353  31.466  -9.075  1.00  0.00    -0.000 C 
BRANCH  16  17
ATOM     17  C   UNL     1     -24.145  32.409  -8.964  1.00  0.00    -0.003 C 
ATOM     18  C   UNL     1     -22.811  31.677  -9.107  1.00  0.00     0.004 C 
ENDBRANCH  16  17
ENDBRANCH  15  16
ENDBRANCH  14  15
ENDBRANCH  13  14
ENDBRANCH  12  13
ENDBRANCH  11  12
ENDBRANCH   1  11
TORSDOF 14
ENDMDL
MODEL 3
REMARK VINA RESULT:     8.688     16.265     19.963
REMARK INTER + INTRA:          14.980
REMARK INTER:                  15.621
REMARK INTRA:                  -0.641
REMARK UNBOUND:                -0.818
REMARK SMILES CCCCCCCCCCCCCCCC(=O)[O-]
REMARK SMILES IDX 9 1 10 2 11 3 12 4 13 5 14 6 15 7 16 8 17 9 18 10 8 11 7 12
REMARK SMILES IDX 6 13 5 14 4 15 3 16 2 17 1 18
REMARK H PARENT
REMARK Flexibility Score: inf
ROOT
ATOM      1  C   UNL     1     -23.326  29.662  -8.018  1.00  0.00     0.000 C 
ENDROOT
BRANCH   1   2
ATOM      2  C   UNL     1     -22.100  28.740  -7.958  1.00  0.00     0.000 C 
BRANCH   2   3
ATOM      3  C   UNL     1     -22.264  27.683  -6.854  1.00  0.00     0.000 C 
BRANCH   3   4
ATOM      4  C   UNL     1     -21.032  26.775  -6.713  1.00  0.00     0.000 C 
BRANCH   4   5
ATOM      5  C   UNL     1     -20.892  26.184  -5.299  1.00  0.00     0.000 C 
BRANCH   5   6
ATOM      6  C   UNL     1     -19.529  25.510  -5.073  1.00  0.00     0.006 C 
BRANCH   6   7
ATOM      7  C   UNL     1     -18.969  24.863  -6.346  1.00  0.00     0.053 C 
BRANCH   7   8
ATOM      8  C   UNL     1     -19.238  23.392  -6.345  1.00  0.00     0.041 C 
ATOM      9  O   UNL     1     -19.565  22.807  -5.279  1.00  0.00    -0.550 OA
ATOM     10  O   UNL     1     -19.079  22.655  -7.513  1.00  0.00    -0.550 OA
ENDBRANCH   7   8
ENDBRANCH   6   7
ENDBRANCH   5   6
ENDBRANCH   4   5
ENDBRANCH   3   4
ENDBRANCH   2   3
ENDBRANCH   1   2
BRANCH   1  11
ATOM     11  C   UNL     1     -23.066  30.956  -8.811  1.00  0.00     0.000 C 
BRANCH  11  12
ATOM     12  C   UNL     1     -24.266  31.917  -8.898  1.00  0.00    -0.000 C 
BRANCH  12  13
ATOM     13  C   UNL     1     -25.617  31.188  -8.948  1.00  0.00    -0.000 C 
BRANCH  13  14
ATOM     14  C   UNL     1     -26.363  31.321  -7.613  1.00  0.00    -0.000 C 
BRANCH  14  15
ATOM     15  C   UNL     1     -27.574  30.380  -7.516  1.00  0.00    -0.000 C 
BRANCH  15  16
ATOM     16  C   UNL     1     -27.165  28.899  -7.422  1.00  0.00    -0.000 C 
BRANCH  16  17
ATOM     17  C   UNL     1     -27.858  28.170  -6.261  1.00  0.00    -0.003 C 
ATOM     18  C   UNL     1     -28.874  27.132  -6.740  1.00  0.00     0.004 C 
ENDBRANCH  16  17
ENDBRANCH  15  16
ENDBRANCH  14  15
ENDBRANCH  13  14
ENDBRANCH  12  13
ENDBRANCH  11  12
ENDBRANCH   1  11
TORSDOF 14
ENDMDL
MODEL 4
REMARK VINA RESULT:     9.334     16.668     18.757
REMARK INTER + INTRA:          16.155
REMARK INTER:                  17.108
REMARK INTRA:                  -0.953
REMARK UNBOUND:                -0.818
REMARK SMILES CCCCCCCCCCCCCCCC(=O)[O-]
REMARK SMILES IDX 9 1 10 2 11 3 12 4 13 5 14 6 15 7 16 8 17 9 18 10 8 11 7 12
REMARK SMILES IDX 6 13 5 14 4 15 3 16 2 17 1 18
REMARK H PARENT
REMARK Flexibility Score: inf
ROOT
ATOM      1  C   UNL     1     -23.061  28.006  -6.887  1.00  0.00     0.000 C 
ENDROOT
BRANCH   1   2
ATOM      2  C   UNL     1     -22.835  28.923  -8.098  1.00  0.00     0.000 C 
BRANCH   2   3
ATOM      3  C   UNL     1     -23.489  30.296  -7.873  1.00  0.00     0.000 C 
BRANCH   3   4
ATOM      4  C   UNL     1     -24.384  30.726  -9.047  1.00  0.00     0.000 C 
BRANCH   4   5
ATOM      5  C   UNL     1     -25.643  31.478  -8.584  1.00  0.00     0.000 C 
BRANCH   5   6
ATOM      6  C   UNL     1     -26.164  30.977  -7.227  1.00  0.00     0.006 C 
BRANCH   6   7
ATOM      7  C   UNL     1     -27.501  30.234  -7.343  1.00  0.00     0.053 C 
BRANCH   7   8
ATOM      8  C   UNL     1     -27.291  28.758  -7.210  1.00  0.00     0.041 C 
ATOM      9  O   UNL     1     -26.339  28.196  -7.813  1.00  0.00    -0.550 OA
ATOM     10  O   UNL     1     -28.177  27.995  -6.459  1.00  0.00    -0.550 OA
ENDBRANCH   7   8
ENDBRANCH   6   7
ENDBRANCH   5   6
ENDBRANCH   4   5
ENDBRANCH   3   4
ENDBRANCH   2   3
ENDBRANCH   1   2
BRANCH   1  11
ATOM     11  C   UNL     1     -21.849  27.109  -6.578  1.00  0.00     0.000 C 
BRANCH  11  12
ATOM     12  C   UNL     1     -21.513  26.964  -5.082  1.00  0.00    -0.000 C 
BRANCH  12  13
ATOM     13  C   UNL     1     -20.291  26.070  -4.825  1.00  0.00    -0.000 C 
BRANCH  13  14
ATOM     14  C   UNL     1     -19.238  26.249  -5.928  1.00  0.00    -0.000 C 
BRANCH  14  15
ATOM     15  C   UNL     1     -18.992  24.958  -6.726  1.00  0.00    -0.000 C 
BRANCH  15  16
ATOM     16  C   UNL     1     -19.553  23.712  -6.020  1.00  0.00    -0.000 C 
BRANCH  16  17
ATOM     17  C   UNL     1     -19.982  22.619  -7.011  1.00  0.00    -0.003 C 
ATOM     18  C   UNL     1     -18.901  22.301  -8.043  1.00  0.00     0.004 C 
ENDBRANCH  16  17
ENDBRANCH  15  16
ENDBRANCH  14  15
ENDBRANCH  13  14
ENDBRANCH  12  13
ENDBRANCH  11  12
ENDBRANCH   1  11
TORSDOF 14
ENDMDL
MODEL 5
REMARK VINA RESULT:     9.400     17.373     18.938
REMARK INTER + INTRA:          16.275
REMARK INTER:                  14.993
REMARK INTRA:                   1.282
REMARK UNBOUND:                -0.818
REMARK SMILES CCCCCCCCCCCCCCCC(=O)[O-]
REMARK SMILES IDX 9 1 10 2 11 3 12 4 13 5 14 6 15 7 16 8 17 9 18 10 8 11 7 12
REMARK SMILES IDX 6 13 5 14 4 15 3 16 2 17 1 18
REMARK H PARENT
REMARK Flexibility Score: inf
ROOT
ATOM      1  C   UNL     1     -22.712  27.976  -7.111  1.00  0.00     0.000 C 
ENDROOT
BRANCH   1   2
ATOM      2  C   UNL     1     -23.918  27.197  -7.656  1.00  0.00     0.000 C 
BRANCH   2   3
ATOM      3  C   UNL     1     -25.019  28.157  -8.133  1.00  0.00     0.000 C 
BRANCH   3   4
ATOM      4  C   UNL     1     -26.396  27.826  -7.534  1.00  0.00     0.000 C 
BRANCH   4   5
ATOM      5  C   UNL     1     -27.162  29.083  -7.087  1.00  0.00     0.000 C 
BRANCH   5   6
ATOM      6  C   UNL     1     -27.004  30.253  -8.073  1.00  0.00     0.006 C 
BRANCH   6   7
ATOM      7  C   UNL     1     -25.877  31.215  -7.675  1.00  0.00     0.053 C 
BRANCH   7   8
ATOM      8  C   UNL     1     -25.020  31.532  -8.860  1.00  0.00     0.041 C 
ATOM      9  O   UNL     1     -25.543  31.709  -9.992  1.00  0.00    -0.550 OA
ATOM     10  O   UNL     1     -23.638  31.584  -8.724  1.00  0.00    -0.550 OA
ENDBRANCH   7   8
ENDBRANCH   6   7
ENDBRANCH   5   6
ENDBRANCH   4   5
ENDBRANCH   3   4
ENDBRANCH   2   3
ENDBRANCH   1   2
BRANCH   1  11
ATOM     11  C   UNL     1     -21.493  27.078  -6.831  1.00  0.00     0.000 C 
BRANCH  11  12
ATOM     12  C   UNL     1     -21.356  26.603  -5.373  1.00  0.00    -0.000 C 
BRANCH  12  13
ATOM     13  C   UNL     1     -19.995  25.958  -5.077  1.00  0.00    -0.000 C 
BRANCH  13  14
ATOM     14  C   UNL     1     -18.956  26.356  -6.136  1.00  0.00    -0.000 C 
BRANCH  14  15
ATOM     15  C   UNL     1     -18.954  25.409  -7.347  1.00  0.00    -0.000 C 
BRANCH  15  16
ATOM     16  C   UNL     1     -18.876  23.928  -6.938  1.00  0.00    -0.000 C 
BRANCH  16  17
ATOM     17  C   UNL     1     -18.924  23.736  -5.414  1.00  0.00    -0.003 C 
ATOM     18  C   UNL     1     -19.752  22.520  -4.998  1.00  0.00     0.004 C 
ENDBRANCH  16  17
ENDBRANCH  15  16
ENDBRANCH  14  15
ENDBRANCH  13  14
ENDBRANCH  12  13
ENDBRANCH  11  12
ENDBRANCH   1  11
TORSDOF 14
ENDMDL
MODEL 6
REMARK VINA RESULT:     9.507     12.744     14.982
REMARK INTER + INTRA:          16.470
REMARK INTER:                  17.171
REMARK INTRA:                  -0.701
REMARK UNBOUND:                -0.818
REMARK SMILES CCCCCCCCCCCCCCCC(=O)[O-]
REMARK SMILES IDX 9 1 10 2 11 3 12 4 13 5 14 6 15 7 16 8 17 9 18 10 8 11 7 12
REMARK SMILES IDX 6 13 5 14 4 15 3 16 2 17 1 18
REMARK H PARENT
REMARK Flexibility Score: inf
ROOT
ATOM      1  C   UNL     1     -27.668  31.125  -3.477  1.00  0.00     0.000 C 
ENDROOT
BRANCH   1   2
ATOM      2  C   UNL     1     -28.690  32.246  -3.241  1.00  0.00     0.000 C 
BRANCH   2   3
ATOM      3  C   UNL     1     -29.690  31.852  -2.142  1.00  0.00     0.000 C 
BRANCH   3   4
ATOM      4  C   UNL     1     -31.078  31.498  -2.702  1.00  0.00     0.000 C 
BRANCH   4   5
ATOM      5  C   UNL     1     -31.855  30.535  -1.788  1.00  0.00     0.000 C 
BRANCH   5   6
ATOM      6  C   UNL     1     -32.965  29.778  -2.536  1.00  0.00     0.006 C 
BRANCH   6   7
ATOM      7  C   UNL     1     -34.370  30.157  -2.050  1.00  0.00     0.053 C 
BRANCH   7   8
ATOM      8  C   UNL     1     -35.341  30.126  -3.188  1.00  0.00     0.041 C 
ATOM      9  O   UNL     1     -36.551  29.842  -2.983  1.00  0.00    -0.550 OA
ATOM     10  O   UNL     1     -34.901  30.364  -4.485  1.00  0.00    -0.550 OA
ENDBRANCH   7   8
ENDBRANCH   6   7
ENDBRANCH   5   6
ENDBRANCH   4   5
ENDBRANCH   3   4
ENDBRANCH   2   3
ENDBRANCH   1   2
BRANCH   1  11
ATOM     11  C   UNL     1     -26.329  31.641  -4.037  1.00  0.00     0.000 C 
BRANCH  11  12
ATOM     12  C   UNL     1     -26.017  31.203  -5.479  1.00  0.00    -0.000 C 
BRANCH  12  13
ATOM     13  C   UNL     1     -27.189  31.433  -6.444  1.00  0.00    -0.000 C 
BRANCH  13  14
ATOM     14  C   UNL     1     -27.096  30.494  -7.655  1.00  0.00    -0.000 C 
BRANCH  14  15
ATOM     15  C   UNL     1     -25.646  30.246  -8.102  1.00  0.00    -0.000 C 
BRANCH  15  16
ATOM     16  C   UNL     1     -25.279  31.027  -9.375  1.00  0.00    -0.000 C 
BRANCH  16  17
ATOM     17  C   UNL     1     -24.473  32.300  -9.071  1.00  0.00    -0.003 C 
ATOM     18  C   UNL     1     -22.963  32.061  -9.099  1.00  0.00     0.004 C 
ENDBRANCH  16  17
ENDBRANCH  15  16
ENDBRANCH  14  15
ENDBRANCH  13  14
ENDBRANCH  12  13
ENDBRANCH  11  12
ENDBRANCH   1  11
TORSDOF 14
ENDMDL
MODEL 7
REMARK VINA RESULT:     9.654     16.689     19.767
REMARK INTER + INTRA:          16.738
REMARK INTER:                  17.513
REMARK INTRA:                  -0.775
REMARK UNBOUND:                -0.818
REMARK SMILES CCCCCCCCCCCCCCCC(=O)[O-]
REMARK SMILES IDX 9 1 10 2 11 3 12 4 13 5 14 6 15 7 16 8 17 9 18 10 8 11 7 12
REMARK SMILES IDX 6 13 5 14 4 15 3 16 2 17 1 18
REMARK H PARENT
REMARK Flexibility Score: inf
ROOT
ATOM      1  C   UNL     1     -23.750  29.710  -8.016  1.00  0.00     0.000 C 
ENDROOT
BRANCH   1   2
ATOM      2  C   UNL     1     -22.373  29.040  -7.915  1.00  0.00     0.000 C 
BRANCH   2   3
ATOM      3  C   UNL     1     -22.437  27.790  -7.022  1.00  0.00     0.000 C 
BRANCH   3   4
ATOM      4  C   UNL     1     -21.054  27.352  -6.513  1.00  0.00     0.000 C 
BRANCH   4   5
ATOM      5  C   UNL     1     -21.096  25.998  -5.782  1.00  0.00     0.000 C 
BRANCH   5   6
ATOM      6  C   UNL     1     -19.697  25.500  -5.383  1.00  0.00     0.006 C 
BRANCH   6   7
ATOM      7  C   UNL     1     -18.972  24.786  -6.532  1.00  0.00     0.053 C 
BRANCH   7   8
ATOM      8  C   UNL     1     -19.208  23.310  -6.460  1.00  0.00     0.041 C 
ATOM      9  O   UNL     1     -19.513  22.770  -5.364  1.00  0.00    -0.550 OA
ATOM     10  O   UNL     1     -19.042  22.524  -7.594  1.00  0.00    -0.550 OA
ENDBRANCH   7   8
ENDBRANCH   6   7
ENDBRANCH   5   6
ENDBRANCH   4   5
ENDBRANCH   3   4
ENDBRANCH   2   3
ENDBRANCH   1   2
BRANCH   1  11
ATOM     11  C   UNL     1     -23.689  31.120  -8.630  1.00  0.00     0.000 C 
BRANCH  11  12
ATOM     12  C   UNL     1     -25.042  31.684  -9.100  1.00  0.00    -0.000 C 
BRANCH  12  13
ATOM     13  C   UNL     1     -26.205  30.702  -8.898  1.00  0.00    -0.000 C 
BRANCH  13  14
ATOM     14  C   UNL     1     -27.185  31.221  -7.837  1.00  0.00    -0.000 C 
BRANCH  14  15
ATOM     15  C   UNL     1     -27.087  30.448  -6.512  1.00  0.00    -0.000 C 
BRANCH  15  16
ATOM     16  C   UNL     1     -25.973  30.985  -5.597  1.00  0.00    -0.000 C 
BRANCH  16  17
ATOM     17  C   UNL     1     -26.488  31.350  -4.196  1.00  0.00    -0.003 C 
ATOM     18  C   UNL     1     -25.513  32.237  -3.422  1.00  0.00     0.004 C 
ENDBRANCH  16  17
ENDBRANCH  15  16
ENDBRANCH  14  15
ENDBRANCH  13  14
ENDBRANCH  12  13
ENDBRANCH  11  12
ENDBRANCH   1  11
TORSDOF 14
ENDMDL
MODEL 8
REMARK VINA RESULT:     9.692     17.104     18.664
REMARK INTER + INTRA:          16.806
REMARK INTER:                  17.555
REMARK INTRA:                  -0.749
REMARK UNBOUND:                -0.818
REMARK SMILES CCCCCCCCCCCCCCCC(=O)[O-]
REMARK SMILES IDX 9 1 10 2 11 3 12 4 13 5 14 6 15 7 16 8 17 9 18 10 8 11 7 12
REMARK SMILES IDX 6 13 5 14 4 15 3 16 2 17 1 18
REMARK H PARENT
REMARK Flexibility Score: inf
ROOT
ATOM      1  C   UNL     1     -24.629  27.811  -8.091  1.00  0.00     0.000 C 
ENDROOT
BRANCH   1   2
ATOM      2  C   UNL     1     -25.665  26.836  -7.512  1.00  0.00     0.000 C 
BRANCH   2   3
ATOM      3  C   UNL     1     -27.070  27.460  -7.525  1.00  0.00     0.000 C 
BRANCH   3   4
ATOM      4  C   UNL     1     -27.141  28.781  -6.742  1.00  0.00     0.000 C 
BRANCH   4   5
ATOM      5  C   UNL     1     -27.651  29.950  -7.601  1.00  0.00     0.000 C 
BRANCH   5   6
ATOM      6  C   UNL     1     -26.801  31.220  -7.435  1.00  0.00     0.006 C 
BRANCH   6   7
ATOM      7  C   UNL     1     -25.298  30.951  -7.585  1.00  0.00     0.053 C 
BRANCH   7   8
ATOM      8  C   UNL     1     -24.813  31.431  -8.917  1.00  0.00     0.041 C 
ATOM      9  O   UNL     1     -23.697  32.005  -9.016  1.00  0.00    -0.550 OA
ATOM     10  O   UNL     1     -25.616  31.288 -10.042  1.00  0.00    -0.550 OA
ENDBRANCH   7   8
ENDBRANCH   6   7
ENDBRANCH   5   6
ENDBRANCH   4   5
ENDBRANCH   3   4
ENDBRANCH   2   3
ENDBRANCH   1   2
BRANCH   1  11
ATOM     11  C   UNL     1     -23.180  27.319  -7.920  1.00  0.00     0.000 C 
BRANCH  11  12
ATOM     12  C   UNL     1     -22.700  27.204  -6.462  1.00  0.00    -0.000 C 
BRANCH  12  13
ATOM     13  C   UNL     1     -21.176  27.065  -6.341  1.00  0.00    -0.000 C 
BRANCH  13  14
ATOM     14  C   UNL     1     -20.801  25.829  -5.509  1.00  0.00    -0.000 C 
BRANCH  14  15
ATOM     15  C   UNL     1     -19.281  25.625  -5.407  1.00  0.00    -0.000 C 
BRANCH  15  16
ATOM     16  C   UNL     1     -18.875  24.146  -5.533  1.00  0.00    -0.000 C 
BRANCH  16  17
ATOM     17  C   UNL     1     -19.728  23.388  -6.562  1.00  0.00    -0.003 C 
ATOM     18  C   UNL     1     -18.885  22.710  -7.641  1.00  0.00     0.004 C 
ENDBRANCH  16  17
ENDBRANCH  15  16
ENDBRANCH  14  15
ENDBRANCH  13  14
ENDBRANCH  12  13
ENDBRANCH  11  12
ENDBRANCH   1  11
TORSDOF 14
ENDMDL
MODEL 9
REMARK VINA RESULT:    10.288     17.489     19.206
REMARK INTER + INTRA:          17.891
REMARK INTER:                  17.639
REMARK INTRA:                   0.252
REMARK UNBOUND:                -0.818
REMARK SMILES CCCCCCCCCCCCCCCC(=O)[O-]
REMARK SMILES IDX 9 1 10 2 11 3 12 4 13 5 14 6 15 7 16 8 17 9 18 10 8 11 7 12
REMARK SMILES IDX 6 13 5 14 4 15 3 16 2 17 1 18
REMARK H PARENT
REMARK Flexibility Score: inf
ROOT
ATOM      1  C   UNL     1     -22.789  27.346  -6.741  1.00  0.00     0.000 C 
ENDROOT
BRANCH   1   2
ATOM      2  C   UNL     1     -22.569  28.283  -7.938  1.00  0.00     0.000 C 
BRANCH   2   3
ATOM      3  C   UNL     1     -23.705  29.313  -8.041  1.00  0.00     0.000 C 
BRANCH   3   4
ATOM      4  C   UNL     1     -23.191  30.739  -8.302  1.00  0.00     0.000 C 
BRANCH   4   5
ATOM      5  C   UNL     1     -24.286  31.669  -8.853  1.00  0.00     0.000 C 
BRANCH   5   6
ATOM      6  C   UNL     1     -25.554  30.906  -9.269  1.00  0.00     0.006 C 
BRANCH   6   7
ATOM      7  C   UNL     1     -26.782  31.299  -8.437  1.00  0.00     0.053 C 
BRANCH   7   8
ATOM      8  C   UNL     1     -26.883  30.439  -7.217  1.00  0.00     0.041 C 
ATOM      9  O   UNL     1     -27.570  29.384  -7.240  1.00  0.00    -0.550 OA
ATOM     10  O   UNL     1     -26.257  30.827  -6.039  1.00  0.00    -0.550 OA
ENDBRANCH   7   8
ENDBRANCH   6   7
ENDBRANCH   5   6
ENDBRANCH   4   5
ENDBRANCH   3   4
ENDBRANCH   2   3
ENDBRANCH   1   2
BRANCH   1  11
ATOM     11  C   UNL     1     -21.475  26.779  -6.172  1.00  0.00     0.000 C 
BRANCH  11  12
ATOM     12  C   UNL     1     -20.200  27.228  -6.909  1.00  0.00    -0.000 C 
BRANCH  12  13
ATOM     13  C   UNL     1     -19.237  26.069  -7.202  1.00  0.00    -0.000 C 
BRANCH  13  14
ATOM     14  C   UNL     1     -18.888  25.306  -5.916  1.00  0.00    -0.000 C 
BRANCH  14  15
ATOM     15  C   UNL     1     -20.103  24.584  -5.310  1.00  0.00    -0.000 C 
BRANCH  15  16
ATOM     16  C   UNL     1     -20.099  23.074  -5.604  1.00  0.00    -0.000 C 
BRANCH  16  17
ATOM     17  C   UNL     1     -18.875  22.639  -6.424  1.00  0.00    -0.003 C 
ATOM     18  C   UNL     1     -19.137  22.662  -7.930  1.00  0.00     0.004 C 
ENDBRANCH  16  17
ENDBRANCH  15  16
ENDBRANCH  14  15
ENDBRANCH  13  14
ENDBRANCH  12  13
ENDBRANCH  11  12
ENDBRANCH   1  11
TORSDOF 14
ENDMDL
