MODEL 1
REMARK VINA RESULT:    -3.986      0.000      0.000
REMARK INTER + INTRA:         -10.162
REMARK INTER:                  -7.714
REMARK INTRA:                  -2.448
REMARK UNBOUND:                -2.448
REMARK SMILES CCCCCCCCCCCCCCCCCC(=O)[O-]
REMARK SMILES IDX 10 1 11 2 12 3 13 4 14 5 15 6 16 7 17 8 18 9 19 10 20 11
REMARK SMILES IDX 9 12 8 13 7 14 6 15 5 16 4 17 3 18 2 19 1 20
REMARK H PARENT
REMARK Flexibility Score: inf
ROOT
ATOM      1  C   UNL     1      48.946  -3.475  75.445  1.00  0.00     0.000 C 
ENDROOT
BRANCH   1   2
ATOM      2  C   UNL     1      47.860  -3.984  74.485  1.00  0.00     0.000 C 
BRANCH   2   3
ATOM      3  C   UNL     1      48.242  -3.814  73.003  1.00  0.00     0.000 C 
BRANCH   3   4
ATOM      4  C   UNL     1      49.409  -4.699  72.526  1.00  0.00     0.000 C 
BRANCH   4   5
ATOM      5  C   UNL     1      50.614  -3.886  72.032  1.00  0.00     0.000 C 
BRANCH   5   6
ATOM      6  C   UNL     1      51.724  -3.851  73.095  1.00  0.00     0.000 C 
BRANCH   6   7
ATOM      7  C   UNL     1      52.102  -2.419  73.517  1.00  0.00     0.006 C 
BRANCH   7   8
ATOM      8  C   UNL     1      51.530  -1.320  72.607  1.00  0.00     0.053 C 
BRANCH   8   9
ATOM      9  C   UNL     1      52.607  -0.576  71.880  1.00  0.00     0.041 C 
ATOM     10  O   UNL     1      53.703  -1.140  71.623  1.00  0.00    -0.550 OA
ATOM     11  O   UNL     1      52.388   0.728  71.454  1.00  0.00    -0.550 OA
ENDBRANCH   8   9
ENDBRANCH   7   8
ENDBRANCH   6   7
ENDBRANCH   5   6
ENDBRANCH   4   5
ENDBRANCH   3   4
ENDBRANCH   2   3
ENDBRANCH   1   2
BRANCH   1  12
ATOM     12  C   UNL     1      48.763  -1.979  75.736  1.00  0.00     0.000 C 
BRANCH  12  13
ATOM     13  C   UNL     1      49.907  -1.390  76.580  1.00  0.00    -0.000 C 
BRANCH  13  14
ATOM     14  C   UNL     1      50.926  -2.418  77.108  1.00  0.00    -0.000 C 
BRANCH  14  15
ATOM     15  C   UNL     1      51.292  -2.270  78.596  1.00  0.00    -0.000 C 
BRANCH  15  16
ATOM     16  C   UNL     1      51.010  -3.542  79.410  1.00  0.00    -0.000 C 
BRANCH  16  17
ATOM     17  C   UNL     1      51.542  -4.787  78.683  1.00  0.00    -0.000 C 
BRANCH  17  18
ATOM     18  C   UNL     1      50.465  -5.865  78.489  1.00  0.00    -0.000 C 
BRANCH  18  19
ATOM     19  C   UNL     1      49.079  -5.409  78.966  1.00  0.00    -0.003 C 
ATOM     20  C   UNL     1      47.978  -5.967  78.068  1.00  0.00     0.004 C 
ENDBRANCH  18  19
ENDBRANCH  17  18
ENDBRANCH  16  17
ENDBRANCH  15  16
ENDBRANCH  14  15
ENDBRANCH  13  14
ENDBRANCH  12  13
ENDBRANCH   1  12
TORSDOF 16
ENDMDL
MODEL 2
REMARK VINA RESULT:    -3.957      2.707      3.876
REMARK INTER + INTRA:         -10.107
REMARK INTER:                  -7.452
REMARK INTRA:                  -2.655
REMARK UNBOUND:                -2.448
REMARK SMILES CCCCCCCCCCCCCCCCCC(=O)[O-]
REMARK SMILES IDX 10 1 11 2 12 3 13 4 14 5 15 6 16 7 17 8 18 9 19 10 20 11
REMARK SMILES IDX 9 12 8 13 7 14 6 15 5 16 4 17 3 18 2 19 1 20
REMARK H PARENT
REMARK Flexibility Score: inf
ROOT
ATOM      1  C   UNL     1      51.641  -3.973  74.659  1.00  0.00     0.000 C 
ENDROOT
BRANCH   1   2
ATOM      2  C   UNL     1      51.884  -3.601  73.189  1.00  0.00     0.000 C 
BRANCH   2   3
ATOM      3  C   UNL     1      52.423  -2.170  73.013  1.00  0.00     0.000 C 
BRANCH   3   4
ATOM      4  C   UNL     1      51.461  -1.196  72.308  1.00  0.00     0.000 C 
BRANCH   4   5
ATOM      5  C   UNL     1      50.151  -1.863  71.864  1.00  0.00     0.000 C 
BRANCH   5   6
ATOM      6  C   UNL     1      48.960  -0.911  72.053  1.00  0.00     0.000 C 
BRANCH   6   7
ATOM      7  C   UNL     1      49.137   0.037  73.254  1.00  0.00     0.006 C 
BRANCH   7   8
ATOM      8  C   UNL     1      48.133   1.200  73.295  1.00  0.00     0.053 C 
BRANCH   8   9
ATOM      9  C   UNL     1      47.145   1.049  74.411  1.00  0.00     0.041 C 
ATOM     10  O   UNL     1      46.020   1.611  74.341  1.00  0.00    -0.550 OA
ATOM     11  O   UNL     1      47.453   0.259  75.512  1.00  0.00    -0.550 OA
ENDBRANCH   8   9
ENDBRANCH   7   8
ENDBRANCH   6   7
ENDBRANCH   5   6
ENDBRANCH   4   5
ENDBRANCH   3   4
ENDBRANCH   2   3
ENDBRANCH   1   2
BRANCH   1  12
ATOM     12  C   UNL     1      50.159  -4.292  74.907  1.00  0.00     0.000 C 
BRANCH  12  13
ATOM     13  C   UNL     1      49.369  -3.084  75.442  1.00  0.00    -0.000 C 
BRANCH  13  14
ATOM     14  C   UNL     1      50.226  -1.974  76.082  1.00  0.00    -0.000 C 
BRANCH  14  15
ATOM     15  C   UNL     1      50.055  -1.812  77.603  1.00  0.00    -0.000 C 
BRANCH  15  16
ATOM     16  C   UNL     1      51.257  -2.342  78.399  1.00  0.00    -0.000 C 
BRANCH  16  17
ATOM     17  C   UNL     1      50.876  -3.598  79.197  1.00  0.00    -0.000 C 
BRANCH  17  18
ATOM     18  C   UNL     1      51.557  -4.868  78.665  1.00  0.00    -0.000 C 
BRANCH  18  19
ATOM     19  C   UNL     1      50.576  -6.034  78.484  1.00  0.00    -0.003 C 
ATOM     20  C   UNL     1      49.153  -5.614  78.839  1.00  0.00     0.004 C 
ENDBRANCH  18  19
ENDBRANCH  17  18
ENDBRANCH  16  17
ENDBRANCH  15  16
ENDBRANCH  14  15
ENDBRANCH  13  14
ENDBRANCH  12  13
ENDBRANCH   1  12
TORSDOF 16
ENDMDL
MODEL 3
REMARK VINA RESULT:    -3.930      3.477      5.140
REMARK INTER + INTRA:         -10.053
REMARK INTER:                  -7.630
REMARK INTRA:                  -2.424
REMARK UNBOUND:                -2.448
REMARK SMILES CCCCCCCCCCCCCCCCCC(=O)[O-]
REMARK SMILES IDX 10 1 11 2 12 3 13 4 14 5 15 6 16 7 17 8 18 9 19 10 20 11
REMARK SMILES IDX 9 12 8 13 7 14 6 15 5 16 4 17 3 18 2 19 1 20
REMARK H PARENT
REMARK Flexibility Score: inf
ROOT
ATOM      1  C   UNL     1      49.968  -1.227  71.554  1.00  0.00     0.000 C 
ENDROOT
BRANCH   1   2
ATOM      2  C   UNL     1      51.161  -0.509  72.203  1.00  0.00     0.000 C 
BRANCH   2   3
ATOM      3  C   UNL     1      52.349  -1.449  72.480  1.00  0.00     0.000 C 
BRANCH   3   4
ATOM      4  C   UNL     1      51.993  -2.946  72.541  1.00  0.00     0.000 C 
BRANCH   4   5
ATOM      5  C   UNL     1      52.815  -3.714  73.586  1.00  0.00     0.000 C 
BRANCH   5   6
ATOM      6  C   UNL     1      52.191  -5.090  73.869  1.00  0.00     0.000 C 
BRANCH   6   7
ATOM      7  C   UNL     1      53.206  -6.101  74.434  1.00  0.00     0.006 C 
BRANCH   7   8
ATOM      8  C   UNL     1      54.667  -5.810  74.054  1.00  0.00     0.053 C 
BRANCH   8   9
ATOM      9  C   UNL     1      55.325  -6.990  73.407  1.00  0.00     0.041 C 
ATOM     10  O   UNL     1      56.355  -6.831  72.700  1.00  0.00    -0.550 OA
ATOM     11  O   UNL     1      54.822  -8.268  73.614  1.00  0.00    -0.550 OA
ENDBRANCH   8   9
ENDBRANCH   7   8
ENDBRANCH   6   7
ENDBRANCH   5   6
ENDBRANCH   4   5
ENDBRANCH   3   4
ENDBRANCH   2   3
ENDBRANCH   1   2
BRANCH   1  12
ATOM     12  C   UNL     1      48.640  -0.695  72.111  1.00  0.00     0.000 C 
BRANCH  12  13
ATOM     13  C   UNL     1      48.789  -0.049  73.500  1.00  0.00    -0.000 C 
BRANCH  13  14
ATOM     14  C   UNL     1      48.361  -0.938  74.684  1.00  0.00    -0.000 C 
BRANCH  14  15
ATOM     15  C   UNL     1      49.511  -1.666  75.404  1.00  0.00    -0.000 C 
BRANCH  15  16
ATOM     16  C   UNL     1      49.475  -3.188  75.198  1.00  0.00    -0.000 C 
BRANCH  16  17
ATOM     17  C   UNL     1      48.234  -3.603  74.393  1.00  0.00    -0.000 C 
BRANCH  17  18
ATOM     18  C   UNL     1      48.592  -4.282  73.062  1.00  0.00    -0.000 C 
BRANCH  18  19
ATOM     19  C   UNL     1      47.544  -5.316  72.625  1.00  0.00    -0.003 C 
ATOM     20  C   UNL     1      46.489  -5.519  73.708  1.00  0.00     0.004 C 
ENDBRANCH  18  19
ENDBRANCH  17  18
ENDBRANCH  16  17
ENDBRANCH  15  16
ENDBRANCH  14  15
ENDBRANCH  13  14
ENDBRANCH  12  13
ENDBRANCH   1  12
TORSDOF 16
ENDMDL
MODEL 4
REMARK VINA RESULT:    -3.925      3.390      5.166
REMARK INTER + INTRA:         -10.045
REMARK INTER:                  -7.336
REMARK INTRA:                  -2.709
REMARK UNBOUND:                -2.448
REMARK SMILES CCCCCCCCCCCCCCCCCC(=O)[O-]
REMARK SMILES IDX 10 1 11 2 12 3 13 4 14 5 15 6 16 7 17 8 18 9 19 10 20 11
REMARK SMILES IDX 9 12 8 13 7 14 6 15 5 16 4 17 3 18 2 19 1 20
REMARK H PARENT
REMARK Flexibility Score: inf
ROOT
ATOM      1  C   UNL     1      51.229  -0.760  72.283  1.00  0.00     0.000 C 
ENDROOT
BRANCH   1   2
ATOM      2  C   UNL     1      52.243  -1.884  72.549  1.00  0.00     0.000 C 
BRANCH   2   3
ATOM      3  C   UNL     1      51.605  -3.285  72.527  1.00  0.00     0.000 C 
BRANCH   3   4
ATOM      4  C   UNL     1      51.393  -3.924  73.912  1.00  0.00     0.000 C 
BRANCH   4   5
ATOM      5  C   UNL     1      50.183  -4.869  73.956  1.00  0.00     0.000 C 
BRANCH   5   6
ATOM      6  C   UNL     1      49.378  -4.789  72.649  1.00  0.00     0.000 C 
BRANCH   6   7
ATOM      7  C   UNL     1      47.910  -4.384  72.876  1.00  0.00     0.006 C 
BRANCH   7   8
ATOM      8  C   UNL     1      47.433  -4.524  74.331  1.00  0.00     0.053 C 
BRANCH   8   9
ATOM      9  C   UNL     1      46.109  -5.218  74.424  1.00  0.00     0.041 C 
ATOM     10  O   UNL     1      45.282  -4.888  75.315  1.00  0.00    -0.550 OA
ATOM     11  O   UNL     1      45.773  -6.204  73.504  1.00  0.00    -0.550 OA
ENDBRANCH   8   9
ENDBRANCH   7   8
ENDBRANCH   6   7
ENDBRANCH   5   6
ENDBRANCH   4   5
ENDBRANCH   3   4
ENDBRANCH   2   3
ENDBRANCH   1   2
BRANCH   1  12
ATOM     12  C   UNL     1      49.881  -1.335  71.826  1.00  0.00     0.000 C 
BRANCH  12  13
ATOM     13  C   UNL     1      48.690  -0.438  72.205  1.00  0.00    -0.000 C 
BRANCH  13  14
ATOM     14  C   UNL     1      48.592  -0.080  73.702  1.00  0.00    -0.000 C 
BRANCH  14  15
ATOM     15  C   UNL     1      48.699  -1.274  74.668  1.00  0.00    -0.000 C 
BRANCH  15  16
ATOM     16  C   UNL     1      49.230  -0.875  76.053  1.00  0.00    -0.000 C 
BRANCH  16  17
ATOM     17  C   UNL     1      50.092  -1.996  76.653  1.00  0.00    -0.000 C 
BRANCH  17  18
ATOM     18  C   UNL     1      49.253  -3.090  77.330  1.00  0.00    -0.000 C 
BRANCH  18  19
ATOM     19  C   UNL     1      50.085  -4.324  77.707  1.00  0.00    -0.003 C 
ATOM     20  C   UNL     1      49.415  -5.118  78.825  1.00  0.00     0.004 C 
ENDBRANCH  18  19
ENDBRANCH  17  18
ENDBRANCH  16  17
ENDBRANCH  15  16
ENDBRANCH  14  15
ENDBRANCH  13  14
ENDBRANCH  12  13
ENDBRANCH   1  12
TORSDOF 16
ENDMDL
MODEL 5
REMARK VINA RESULT:    -3.913      1.985      4.174
REMARK INTER + INTRA:         -10.021
REMARK INTER:                  -8.047
REMARK INTRA:                  -1.974
REMARK UNBOUND:                -2.448
REMARK SMILES CCCCCCCCCCCCCCCCCC(=O)[O-]
REMARK SMILES IDX 10 1 11 2 12 3 13 4 14 5 15 6 16 7 17 8 18 9 19 10 20 11
REMARK SMILES IDX 9 12 8 13 7 14 6 15 5 16 4 17 3 18 2 19 1 20
REMARK H PARENT
REMARK Flexibility Score: inf
ROOT
ATOM      1  C   UNL     1      47.885  -5.004  72.663  1.00  0.00     0.000 C 
ENDROOT
BRANCH   1   2
ATOM      2  C   UNL     1      49.085  -5.297  73.577  1.00  0.00     0.000 C 
BRANCH   2   3
ATOM      3  C   UNL     1      49.129  -4.390  74.820  1.00  0.00     0.000 C 
BRANCH   3   4
ATOM      4  C   UNL     1      48.319  -3.086  74.702  1.00  0.00     0.000 C 
BRANCH   4   5
ATOM      5  C   UNL     1      49.182  -1.880  74.303  1.00  0.00     0.000 C 
BRANCH   5   6
ATOM      6  C   UNL     1      48.937  -1.492  72.836  1.00  0.00     0.000 C 
BRANCH   6   7
ATOM      7  C   UNL     1      50.237  -1.410  72.014  1.00  0.00     0.006 C 
BRANCH   7   8
ATOM      8  C   UNL     1      51.332  -2.390  72.464  1.00  0.00     0.053 C 
BRANCH   8   9
ATOM      9  C   UNL     1      52.674  -1.731  72.554  1.00  0.00     0.041 C 
ATOM     10  O   UNL     1      53.569  -2.216  73.294  1.00  0.00    -0.550 OA
ATOM     11  O   UNL     1      52.947  -0.600  71.794  1.00  0.00    -0.550 OA
ENDBRANCH   8   9
ENDBRANCH   7   8
ENDBRANCH   6   7
ENDBRANCH   5   6
ENDBRANCH   4   5
ENDBRANCH   3   4
ENDBRANCH   2   3
ENDBRANCH   1   2
BRANCH   1  12
ATOM     12  C   UNL     1      46.833  -6.118  72.765  1.00  0.00     0.000 C 
BRANCH  12  13
ATOM     13  C   UNL     1      45.788  -5.855  73.864  1.00  0.00    -0.000 C 
BRANCH  13  14
ATOM     14  C   UNL     1      45.112  -7.115  74.438  1.00  0.00    -0.000 C 
BRANCH  14  15
ATOM     15  C   UNL     1      45.718  -7.640  75.753  1.00  0.00    -0.000 C 
BRANCH  15  16
ATOM     16  C   UNL     1      46.587  -6.595  76.469  1.00  0.00    -0.000 C 
BRANCH  16  17
ATOM     17  C   UNL     1      47.471  -7.255  77.537  1.00  0.00    -0.000 C 
BRANCH  17  18
ATOM     18  C   UNL     1      47.919  -6.269  78.627  1.00  0.00    -0.000 C 
BRANCH  18  19
ATOM     19  C   UNL     1      49.444  -6.108  78.687  1.00  0.00    -0.003 C 
ATOM     20  C   UNL     1      49.834  -4.649  78.905  1.00  0.00     0.004 C 
ENDBRANCH  18  19
ENDBRANCH  17  18
ENDBRANCH  16  17
ENDBRANCH  15  16
ENDBRANCH  14  15
ENDBRANCH  13  14
ENDBRANCH  12  13
ENDBRANCH   1  12
TORSDOF 16
ENDMDL
MODEL 6
REMARK VINA RESULT:    -3.867      2.884      4.804
REMARK INTER + INTRA:          -9.932
REMARK INTER:                  -7.565
REMARK INTRA:                  -2.367
REMARK UNBOUND:                -2.448
REMARK SMILES CCCCCCCCCCCCCCCCCC(=O)[O-]
REMARK SMILES IDX 10 1 11 2 12 3 13 4 14 5 15 6 16 7 17 8 18 9 19 10 20 11
REMARK SMILES IDX 9 12 8 13 7 14 6 15 5 16 4 17 3 18 2 19 1 20
REMARK H PARENT
REMARK Flexibility Score: inf
ROOT
ATOM      1  C   UNL     1      48.099  -1.409  75.539  1.00  0.00     0.000 C 
ENDROOT
BRANCH   1   2
ATOM      2  C   UNL     1      48.764  -0.037  75.728  1.00  0.00     0.000 C 
BRANCH   2   3
ATOM      3  C   UNL     1      49.029   0.690  74.397  1.00  0.00     0.000 C 
BRANCH   3   4
ATOM      4  C   UNL     1      48.210   0.173  73.200  1.00  0.00     0.000 C 
BRANCH   4   5
ATOM      5  C   UNL     1      49.075  -0.517  72.135  1.00  0.00     0.000 C 
BRANCH   5   6
ATOM      6  C   UNL     1      50.560  -0.482  72.529  1.00  0.00     0.000 C 
BRANCH   6   7
ATOM      7  C   UNL     1      51.293  -1.800  72.216  1.00  0.00     0.006 C 
BRANCH   7   8
ATOM      8  C   UNL     1      52.754  -1.839  72.692  1.00  0.00     0.053 C 
BRANCH   8   9
ATOM      9  C   UNL     1      53.086  -3.127  73.381  1.00  0.00     0.041 C 
ATOM     10  O   UNL     1      52.167  -3.851  73.845  1.00  0.00    -0.550 OA
ATOM     11  O   UNL     1      54.407  -3.544  73.478  1.00  0.00    -0.550 OA
ENDBRANCH   8   9
ENDBRANCH   7   8
ENDBRANCH   6   7
ENDBRANCH   5   6
ENDBRANCH   4   5
ENDBRANCH   3   4
ENDBRANCH   2   3
ENDBRANCH   1   2
BRANCH   1  12
ATOM     12  C   UNL     1      49.145  -2.532  75.554  1.00  0.00     0.000 C 
BRANCH  12  13
ATOM     13  C   UNL     1      48.646  -3.822  74.879  1.00  0.00    -0.000 C 
BRANCH  13  14
ATOM     14  C   UNL     1      48.305  -3.688  73.382  1.00  0.00    -0.000 C 
BRANCH  14  15
ATOM     15  C   UNL     1      48.930  -4.761  72.471  1.00  0.00    -0.000 C 
BRANCH  15  16
ATOM     16  C   UNL     1      48.376  -6.168  72.740  1.00  0.00    -0.000 C 
BRANCH  16  17
ATOM     17  C   UNL     1      46.855  -6.208  72.528  1.00  0.00    -0.000 C 
BRANCH  17  18
ATOM     18  C   UNL     1      46.126  -7.019  73.610  1.00  0.00    -0.000 C 
BRANCH  18  19
ATOM     19  C   UNL     1      44.829  -6.347  74.079  1.00  0.00    -0.003 C 
ATOM     20  C   UNL     1      45.123  -5.068  74.858  1.00  0.00     0.004 C 
ENDBRANCH  18  19
ENDBRANCH  17  18
ENDBRANCH  16  17
ENDBRANCH  15  16
ENDBRANCH  14  15
ENDBRANCH  13  14
ENDBRANCH  12  13
ENDBRANCH   1  12
TORSDOF 16
ENDMDL
MODEL 7
REMARK VINA RESULT:    -3.860      1.234      2.572
REMARK INTER + INTRA:          -9.919
REMARK INTER:                  -7.672
REMARK INTRA:                  -2.247
REMARK UNBOUND:                -2.448
REMARK SMILES CCCCCCCCCCCCCCCCCC(=O)[O-]
REMARK SMILES IDX 10 1 11 2 12 3 13 4 14 5 15 6 16 7 17 8 18 9 19 10 20 11
REMARK SMILES IDX 9 12 8 13 7 14 6 15 5 16 4 17 3 18 2 19 1 20
REMARK H PARENT
REMARK Flexibility Score: inf
ROOT
ATOM      1  C   UNL     1      50.299  -2.445  76.463  1.00  0.00     0.000 C 
ENDROOT
BRANCH   1   2
ATOM      2  C   UNL     1      49.101  -2.328  75.509  1.00  0.00     0.000 C 
BRANCH   2   3
ATOM      3  C   UNL     1      48.711  -3.673  74.868  1.00  0.00     0.000 C 
BRANCH   3   4
ATOM      4  C   UNL     1      48.616  -3.657  73.331  1.00  0.00     0.000 C 
BRANCH   4   5
ATOM      5  C   UNL     1      49.991  -3.647  72.647  1.00  0.00     0.000 C 
BRANCH   5   6
ATOM      6  C   UNL     1      50.207  -2.337  71.873  1.00  0.00     0.000 C 
BRANCH   6   7
ATOM      7  C   UNL     1      51.143  -1.358  72.605  1.00  0.00     0.006 C 
BRANCH   7   8
ATOM      8  C   UNL     1      52.393  -2.013  73.213  1.00  0.00     0.053 C 
BRANCH   8   9
ATOM      9  C   UNL     1      53.548  -2.012  72.259  1.00  0.00     0.041 C 
ATOM     10  O   UNL     1      53.877  -0.952  71.665  1.00  0.00    -0.550 OA
ATOM     11  O   UNL     1      54.283  -3.173  72.053  1.00  0.00    -0.550 OA
ENDBRANCH   8   9
ENDBRANCH   7   8
ENDBRANCH   6   7
ENDBRANCH   5   6
ENDBRANCH   4   5
ENDBRANCH   3   4
ENDBRANCH   2   3
ENDBRANCH   1   2
BRANCH   1  12
ATOM     12  C   UNL     1      50.198  -1.416  77.598  1.00  0.00     0.000 C 
BRANCH  12  13
ATOM     13  C   UNL     1      49.162  -1.806  78.667  1.00  0.00    -0.000 C 
BRANCH  13  14
ATOM     14  C   UNL     1      49.459  -3.120  79.417  1.00  0.00    -0.000 C 
BRANCH  14  15
ATOM     15  C   UNL     1      48.313  -4.148  79.411  1.00  0.00    -0.000 C 
BRANCH  15  16
ATOM     16  C   UNL     1      48.491  -5.233  78.338  1.00  0.00    -0.000 C 
BRANCH  16  17
ATOM     17  C   UNL     1      49.642  -6.182  78.704  1.00  0.00    -0.000 C 
BRANCH  17  18
ATOM     18  C   UNL     1      50.887  -5.969  77.829  1.00  0.00    -0.000 C 
BRANCH  18  19
ATOM     19  C   UNL     1      52.196  -6.167  78.606  1.00  0.00    -0.003 C 
ATOM     20  C   UNL     1      52.622  -4.878  79.303  1.00  0.00     0.004 C 
ENDBRANCH  18  19
ENDBRANCH  17  18
ENDBRANCH  16  17
ENDBRANCH  15  16
ENDBRANCH  14  15
ENDBRANCH  13  14
ENDBRANCH  12  13
ENDBRANCH   1  12
TORSDOF 16
ENDMDL
MODEL 8
REMARK VINA RESULT:    -3.848      3.223      5.836
REMARK INTER + INTRA:          -9.896
REMARK INTER:                  -7.453
REMARK INTRA:                  -2.443
REMARK UNBOUND:                -2.448
REMARK SMILES CCCCCCCCCCCCCCCCCC(=O)[O-]
REMARK SMILES IDX 10 1 11 2 12 3 13 4 14 5 15 6 16 7 17 8 18 9 19 10 20 11
REMARK SMILES IDX 9 12 8 13 7 14 6 15 5 16 4 17 3 18 2 19 1 20
REMARK H PARENT
REMARK Flexibility Score: inf
ROOT
ATOM      1  C   UNL     1      49.686  -1.230  71.862  1.00  0.00     0.000 C 
ENDROOT
BRANCH   1   2
ATOM      2  C   UNL     1      48.646  -0.353  72.574  1.00  0.00     0.000 C 
BRANCH   2   3
ATOM      3  C   UNL     1      48.828  -0.326  74.103  1.00  0.00     0.000 C 
BRANCH   3   4
ATOM      4  C   UNL     1      48.599  -1.676  74.808  1.00  0.00     0.000 C 
BRANCH   4   5
ATOM      5  C   UNL     1      49.102  -1.685  76.259  1.00  0.00     0.000 C 
BRANCH   5   6
ATOM      6  C   UNL     1      50.480  -2.359  76.357  1.00  0.00     0.000 C 
BRANCH   6   7
ATOM      7  C   UNL     1      50.840  -2.778  77.794  1.00  0.00     0.006 C 
BRANCH   7   8
ATOM      8  C   UNL     1      49.760  -3.618  78.496  1.00  0.00     0.053 C 
BRANCH   8   9
ATOM      9  C   UNL     1      50.230  -5.011  78.781  1.00  0.00     0.041 C 
ATOM     10  O   UNL     1      49.398  -5.915  79.058  1.00  0.00    -0.550 OA
ATOM     11  O   UNL     1      51.582  -5.320  78.705  1.00  0.00    -0.550 OA
ENDBRANCH   8   9
ENDBRANCH   7   8
ENDBRANCH   6   7
ENDBRANCH   5   6
ENDBRANCH   4   5
ENDBRANCH   3   4
ENDBRANCH   2   3
ENDBRANCH   1   2
BRANCH   1  12
ATOM     12  C   UNL     1      51.110  -0.844  72.285  1.00  0.00     0.000 C 
BRANCH  12  13
ATOM     13  C   UNL     1      52.013  -2.067  72.530  1.00  0.00    -0.000 C 
BRANCH  13  14
ATOM     14  C   UNL     1      51.336  -3.434  72.308  1.00  0.00    -0.000 C 
BRANCH  14  15
ATOM     15  C   UNL     1      51.294  -4.350  73.546  1.00  0.00    -0.000 C 
BRANCH  15  16
ATOM     16  C   UNL     1      49.961  -5.102  73.686  1.00  0.00    -0.000 C 
BRANCH  16  17
ATOM     17  C   UNL     1      48.937  -4.598  72.659  1.00  0.00    -0.000 C 
BRANCH  17  18
ATOM     18  C   UNL     1      47.506  -5.063  72.971  1.00  0.00    -0.000 C 
BRANCH  18  19
ATOM     19  C   UNL     1      47.190  -5.037  74.473  1.00  0.00    -0.003 C 
ATOM     20  C   UNL     1      45.684  -5.023  74.717  1.00  0.00     0.004 C 
ENDBRANCH  18  19
ENDBRANCH  17  18
ENDBRANCH  16  17
ENDBRANCH  15  16
ENDBRANCH  14  15
ENDBRANCH  13  14
ENDBRANCH  12  13
ENDBRANCH   1  12
TORSDOF 16
ENDMDL
MODEL 9
REMARK VINA RESULT:    -3.834      3.525      6.979
REMARK INTER + INTRA:          -9.868
REMARK INTER:                  -7.690
REMARK INTRA:                  -2.178
REMARK UNBOUND:                -2.448
REMARK SMILES CCCCCCCCCCCCCCCCCC(=O)[O-]
REMARK SMILES IDX 10 1 11 2 12 3 13 4 14 5 15 6 16 7 17 8 18 9 19 10 20 11
REMARK SMILES IDX 9 12 8 13 7 14 6 15 5 16 4 17 3 18 2 19 1 20
REMARK H PARENT
REMARK Flexibility Score: inf
ROOT
ATOM      1  C   UNL     1      49.703  -4.571  75.037  1.00  0.00     0.000 C 
ENDROOT
BRANCH   1   2
ATOM      2  C   UNL     1      51.010  -3.965  75.569  1.00  0.00     0.000 C 
BRANCH   2   3
ATOM      3  C   UNL     1      50.859  -2.494  75.999  1.00  0.00     0.000 C 
BRANCH   3   4
ATOM      4  C   UNL     1      50.944  -2.249  77.517  1.00  0.00     0.000 C 
BRANCH   4   5
ATOM      5  C   UNL     1      50.913  -3.549  78.336  1.00  0.00     0.000 C 
BRANCH   5   6
ATOM      6  C   UNL     1      49.500  -3.824  78.874  1.00  0.00     0.000 C 
BRANCH   6   7
ATOM      7  C   UNL     1      49.173  -5.326  78.951  1.00  0.00     0.006 C 
BRANCH   7   8
ATOM      8  C   UNL     1      50.337  -6.248  78.555  1.00  0.00     0.053 C 
BRANCH   8   9
ATOM      9  C   UNL     1      49.857  -7.563  78.023  1.00  0.00     0.041 C 
ATOM     10  O   UNL     1      50.444  -8.629  78.345  1.00  0.00    -0.550 OA
ATOM     11  O   UNL     1      48.739  -7.615  77.199  1.00  0.00    -0.550 OA
ENDBRANCH   8   9
ENDBRANCH   7   8
ENDBRANCH   6   7
ENDBRANCH   5   6
ENDBRANCH   4   5
ENDBRANCH   3   4
ENDBRANCH   2   3
ENDBRANCH   1   2
BRANCH   1  12
ATOM     12  C   UNL     1      49.641  -4.483  73.506  1.00  0.00     0.000 C 
BRANCH  12  13
ATOM     13  C   UNL     1      48.550  -3.520  73.006  1.00  0.00    -0.000 C 
BRANCH  13  14
ATOM     14  C   UNL     1      48.993  -2.050  72.856  1.00  0.00    -0.000 C 
BRANCH  14  15
ATOM     15  C   UNL     1      50.109  -1.807  71.824  1.00  0.00    -0.000 C 
BRANCH  15  16
ATOM     16  C   UNL     1      51.082  -0.696  72.248  1.00  0.00    -0.000 C 
BRANCH  16  17
ATOM     17  C   UNL     1      52.531  -1.204  72.240  1.00  0.00    -0.000 C 
BRANCH  17  18
ATOM     18  C   UNL     1      52.639  -2.694  72.603  1.00  0.00    -0.000 C 
BRANCH  18  19
ATOM     19  C   UNL     1      54.058  -3.248  72.413  1.00  0.00    -0.003 C 
ATOM     20  C   UNL     1      54.431  -4.202  73.543  1.00  0.00     0.004 C 
ENDBRANCH  18  19
ENDBRANCH  17  18
ENDBRANCH  16  17
ENDBRANCH  15  16
ENDBRANCH  14  15
ENDBRANCH  13  14
ENDBRANCH  12  13
ENDBRANCH   1  12
TORSDOF 16
ENDMDL
