MODEL 1
REMARK VINA RESULT:    -6.057      0.000      0.000
REMARK INTER + INTRA:          -9.340
REMARK INTER:                  -8.182
REMARK INTRA:                  -1.158
REMARK UNBOUND:                -1.158
REMARK SMILES CC(=O)CCC=C(C)CCC=C(C)C
REMARK SMILES IDX 7 1 6 2 8 3 9 4 10 5 11 6 13 7 12 8 14 9 5 10 4 11 2 12 3 13
REMARK SMILES IDX 1 14
REMARK H PARENT
REMARK Flexibility Score: inf
ROOT
ATOM      1  C   UNL     1      -4.952 -14.098  31.095  1.00  0.00    -0.077 C 
ATOM      2  C   UNL     1      -5.475 -14.303  29.864  1.00  0.00    -0.028 C 
ATOM      3  C   UNL     1      -5.182 -15.148  32.151  1.00  0.00     0.039 C 
ENDROOT
BRANCH   1   4
ATOM      4  C   UNL     1      -4.113 -12.881  31.444  1.00  0.00     0.034 C 
BRANCH   4   5
ATOM      5  C   UNL     1      -2.649 -13.253  31.719  1.00  0.00     0.032 C 
BRANCH   5   6
ATOM      6  C   UNL     1      -1.878 -13.484  30.441  1.00  0.00    -0.028 C 
ATOM      7  C   UNL     1       0.069 -13.502  28.942  1.00  0.00     0.039 C 
ATOM      8  C   UNL     1      -0.579 -13.160  30.260  1.00  0.00    -0.080 C 
ATOM      9  C   UNL     1       0.229 -12.457  31.326  1.00  0.00     0.039 C 
ENDBRANCH   5   6
ENDBRANCH   4   5
ENDBRANCH   1   4
BRANCH   2  10
ATOM     10  C   UNL     1      -5.391 -13.326  28.716  1.00  0.00     0.035 C 
BRANCH  10  11
ATOM     11  C   UNL     1      -4.195 -13.623  27.802  1.00  0.00     0.079 C 
BRANCH  11  12
ATOM     12  C   UNL     1      -3.576 -12.358  27.268  1.00  0.00     0.130 C 
ATOM     13  O   UNL     1      -3.189 -12.316  26.111  1.00  0.00    -0.300 OA
ATOM     14  C   UNL     1      -3.388 -11.159  28.149  1.00  0.00     0.087 C 
ENDBRANCH  11  12
ENDBRANCH  10  11
ENDBRANCH   2  10
TORSDOF 6
ENDMDL
MODEL 2
REMARK VINA RESULT:    -5.994      2.155      5.369
REMARK INTER + INTRA:          -9.255
REMARK INTER:                  -8.309
REMARK INTRA:                  -0.946
REMARK UNBOUND:                -1.158
REMARK SMILES CC(=O)CCC=C(C)CCC=C(C)C
REMARK SMILES IDX 7 1 6 2 8 3 9 4 10 5 11 6 13 7 12 8 14 9 5 10 4 11 2 12 3 13
REMARK SMILES IDX 1 14
REMARK H PARENT
REMARK Flexibility Score: inf
ROOT
ATOM      1  C   UNL     1      -3.374 -11.454  28.213  1.00  0.00    -0.077 C 
ATOM      2  C   UNL     1      -2.541 -10.831  29.079  1.00  0.00    -0.028 C 
ATOM      3  C   UNL     1      -3.033 -11.420  26.746  1.00  0.00     0.039 C 
ENDROOT
BRANCH   1   4
ATOM      4  C   UNL     1      -4.611 -12.215  28.659  1.00  0.00     0.034 C 
BRANCH   4   5
ATOM      5  C   UNL     1      -4.497 -13.717  28.362  1.00  0.00     0.032 C 
BRANCH   5   6
ATOM      6  C   UNL     1      -5.847 -14.343  28.103  1.00  0.00    -0.028 C 
ATOM      7  C   UNL     1      -7.958 -15.478  28.643  1.00  0.00     0.039 C 
ATOM      8  C   UNL     1      -6.606 -14.945  29.045  1.00  0.00    -0.080 C 
ATOM      9  C   UNL     1      -6.134 -15.112  30.470  1.00  0.00     0.039 C 
ENDBRANCH   5   6
ENDBRANCH   4   5
ENDBRANCH   1   4
BRANCH   2  10
ATOM     10  C   UNL     1      -2.769 -10.716  30.567  1.00  0.00     0.035 C 
BRANCH  10  11
ATOM     11  C   UNL     1      -1.613 -11.330  31.367  1.00  0.00     0.079 C 
BRANCH  11  12
ATOM     12  C   UNL     1      -1.699 -12.834  31.402  1.00  0.00     0.130 C 
ATOM     13  O   UNL     1      -0.718 -13.502  31.116  1.00  0.00    -0.300 OA
ATOM     14  C   UNL     1      -2.985 -13.526  31.742  1.00  0.00     0.087 C 
ENDBRANCH  11  12
ENDBRANCH  10  11
ENDBRANCH   2  10
TORSDOF 6
ENDMDL
MODEL 3
REMARK VINA RESULT:    -5.921      2.156      4.747
REMARK INTER + INTRA:          -9.156
REMARK INTER:                  -7.737
REMARK INTRA:                  -1.419
REMARK UNBOUND:                -1.158
REMARK SMILES CC(=O)CCC=C(C)CCC=C(C)C
REMARK SMILES IDX 7 1 6 2 8 3 9 4 10 5 11 6 13 7 12 8 14 9 5 10 4 11 2 12 3 13
REMARK SMILES IDX 1 14
REMARK H PARENT
REMARK Flexibility Score: inf
ROOT
ATOM      1  C   UNL     1      -2.936 -13.236  27.746  1.00  0.00    -0.077 C 
ATOM      2  C   UNL     1      -1.738 -13.792  28.043  1.00  0.00    -0.028 C 
ATOM      3  C   UNL     1      -3.884 -14.011  26.868  1.00  0.00     0.039 C 
ENDROOT
BRANCH   1   4
ATOM      4  C   UNL     1      -3.379 -11.889  28.291  1.00  0.00     0.034 C 
BRANCH   4   5
ATOM      5  C   UNL     1      -4.598 -12.018  29.215  1.00  0.00     0.032 C 
BRANCH   5   6
ATOM      6  C   UNL     1      -4.247 -12.698  30.518  1.00  0.00    -0.028 C 
ATOM      7  C   UNL     1      -4.242 -14.474  32.215  1.00  0.00     0.039 C 
ATOM      8  C   UNL     1      -4.726 -13.900  30.909  1.00  0.00    -0.080 C 
ATOM      9  C   UNL     1      -5.738 -14.666  30.088  1.00  0.00     0.039 C 
ENDBRANCH   5   6
ENDBRANCH   4   5
ENDBRANCH   1   4
BRANCH   2  10
ATOM     10  C   UNL     1      -0.652 -13.125  28.853  1.00  0.00     0.035 C 
BRANCH  10  11
ATOM     11  C   UNL     1      -0.692 -13.561  30.324  1.00  0.00     0.079 C 
BRANCH  11  12
ATOM     12  C   UNL     1      -0.334 -12.428  31.249  1.00  0.00     0.130 C 
ATOM     13  O   UNL     1       0.769 -12.402  31.774  1.00  0.00    -0.300 OA
ATOM     14  C   UNL     1      -1.325 -11.350  31.570  1.00  0.00     0.087 C 
ENDBRANCH  11  12
ENDBRANCH  10  11
ENDBRANCH   2  10
TORSDOF 6
ENDMDL
MODEL 4
REMARK VINA RESULT:    -5.904      2.221      3.906
REMARK INTER + INTRA:          -9.132
REMARK INTER:                  -8.173
REMARK INTRA:                  -0.959
REMARK UNBOUND:                -1.158
REMARK SMILES CC(=O)CCC=C(C)CCC=C(C)C
REMARK SMILES IDX 7 1 6 2 8 3 9 4 10 5 11 6 13 7 12 8 14 9 5 10 4 11 2 12 3 13
REMARK SMILES IDX 1 14
REMARK H PARENT
REMARK Flexibility Score: inf
ROOT
ATOM      1  C   UNL     1      -3.794 -11.903  28.521  1.00  0.00    -0.077 C 
ATOM      2  C   UNL     1      -4.964 -12.490  28.863  1.00  0.00    -0.028 C 
ATOM      3  C   UNL     1      -3.532 -10.499  29.004  1.00  0.00     0.039 C 
ENDROOT
BRANCH   1   4
ATOM      4  C   UNL     1      -2.722 -12.609  27.709  1.00  0.00     0.034 C 
BRANCH   4   5
ATOM      5  C   UNL     1      -2.021 -13.710  28.519  1.00  0.00     0.032 C 
BRANCH   5   6
ATOM      6  C   UNL     1      -0.928 -13.152  29.399  1.00  0.00    -0.028 C 
ATOM      7  C   UNL     1       0.181 -12.497  31.491  1.00  0.00     0.039 C 
ATOM      8  C   UNL     1      -1.016 -13.024  30.742  1.00  0.00    -0.080 C 
ATOM      9  C   UNL     1      -2.274 -13.373  31.501  1.00  0.00     0.039 C 
ENDBRANCH   5   6
ENDBRANCH   4   5
ENDBRANCH   1   4
BRANCH   2  10
ATOM     10  C   UNL     1      -5.408 -13.860  28.412  1.00  0.00     0.035 C 
BRANCH  10  11
ATOM     11  C   UNL     1      -5.830 -14.740  29.596  1.00  0.00     0.079 C 
BRANCH  11  12
ATOM     12  C   UNL     1      -6.896 -15.728  29.202  1.00  0.00     0.130 C 
ATOM     13  O   UNL     1      -6.727 -16.918  29.418  1.00  0.00    -0.300 OA
ATOM     14  C   UNL     1      -8.147 -15.279  28.508  1.00  0.00     0.087 C 
ENDBRANCH  11  12
ENDBRANCH  10  11
ENDBRANCH   2  10
TORSDOF 6
ENDMDL
MODEL 5
REMARK VINA RESULT:    -5.856      1.413      3.982
REMARK INTER + INTRA:          -9.068
REMARK INTER:                  -7.958
REMARK INTRA:                  -1.110
REMARK UNBOUND:                -1.158
REMARK SMILES CC(=O)CCC=C(C)CCC=C(C)C
REMARK SMILES IDX 7 1 6 2 8 3 9 4 10 5 11 6 13 7 12 8 14 9 5 10 4 11 2 12 3 13
REMARK SMILES IDX 1 14
REMARK H PARENT
REMARK Flexibility Score: inf
ROOT
ATOM      1  C   UNL     1      -3.803 -13.259  31.194  1.00  0.00    -0.077 C 
ATOM      2  C   UNL     1      -2.606 -13.558  31.749  1.00  0.00    -0.028 C 
ATOM      3  C   UNL     1      -4.888 -14.304  31.231  1.00  0.00     0.039 C 
ENDROOT
BRANCH   1   4
ATOM      4  C   UNL     1      -4.111 -11.907  30.573  1.00  0.00     0.034 C 
BRANCH   4   5
ATOM      5  C   UNL     1      -4.786 -12.047  29.201  1.00  0.00     0.032 C 
BRANCH   5   6
ATOM      6  C   UNL     1      -3.966 -11.411  28.103  1.00  0.00    -0.028 C 
ATOM      7  C   UNL     1      -2.703 -11.292  26.000  1.00  0.00     0.039 C 
ATOM      8  C   UNL     1      -3.458 -12.076  27.042  1.00  0.00    -0.080 C 
ATOM      9  C   UNL     1      -3.612 -13.571  26.884  1.00  0.00     0.039 C 
ENDBRANCH   5   6
ENDBRANCH   4   5
ENDBRANCH   1   4
BRANCH   2  10
ATOM     10  C   UNL     1      -1.398 -12.652  31.740  1.00  0.00     0.035 C 
BRANCH  10  11
ATOM     11  C   UNL     1      -0.233 -13.267  30.953  1.00  0.00     0.079 C 
BRANCH  11  12
ATOM     12  C   UNL     1      -0.400 -13.069  29.469  1.00  0.00     0.130 C 
ATOM     13  O   UNL     1      -0.800 -11.997  29.043  1.00  0.00    -0.300 OA
ATOM     14  C   UNL     1      -0.122 -14.184  28.506  1.00  0.00     0.087 C 
ENDBRANCH  11  12
ENDBRANCH  10  11
ENDBRANCH   2  10
TORSDOF 6
ENDMDL
MODEL 6
REMARK VINA RESULT:    -5.828      1.824      4.653
REMARK INTER + INTRA:          -9.030
REMARK INTER:                  -8.506
REMARK INTRA:                  -0.525
REMARK UNBOUND:                -1.158
REMARK SMILES CC(=O)CCC=C(C)CCC=C(C)C
REMARK SMILES IDX 7 1 6 2 8 3 9 4 10 5 11 6 13 7 12 8 14 9 5 10 4 11 2 12 3 13
REMARK SMILES IDX 1 14
REMARK H PARENT
REMARK Flexibility Score: inf
ROOT
ATOM      1  C   UNL     1      -3.416 -12.056  31.789  1.00  0.00    -0.077 C 
ATOM      2  C   UNL     1      -2.082 -12.006  31.568  1.00  0.00    -0.028 C 
ATOM      3  C   UNL     1      -4.145 -10.763  32.045  1.00  0.00     0.039 C 
ENDROOT
BRANCH   1   4
ATOM      4  C   UNL     1      -4.212 -13.349  31.750  1.00  0.00     0.034 C 
BRANCH   4   5
ATOM      5  C   UNL     1      -4.329 -13.908  30.325  1.00  0.00     0.032 C 
BRANCH   5   6
ATOM      6  C   UNL     1      -5.710 -14.453  30.046  1.00  0.00    -0.028 C 
ATOM      7  C   UNL     1      -7.581 -15.297  28.696  1.00  0.00     0.039 C 
ATOM      8  C   UNL     1      -6.201 -14.703  28.812  1.00  0.00    -0.080 C 
ATOM      9  C   UNL     1      -5.418 -14.389  27.559  1.00  0.00     0.039 C 
ENDBRANCH   5   6
ENDBRANCH   4   5
ENDBRANCH   1   4
BRANCH   2  10
ATOM     10  C   UNL     1      -1.194 -13.210  31.360  1.00  0.00     0.035 C 
BRANCH  10  11
ATOM     11  C   UNL     1      -0.117 -12.945  30.299  1.00  0.00     0.079 C 
BRANCH  11  12
ATOM     12  C   UNL     1      -0.536 -13.454  28.945  1.00  0.00     0.130 C 
ATOM     13  O   UNL     1       0.101 -14.350  28.412  1.00  0.00    -0.300 OA
ATOM     14  C   UNL     1      -1.699 -12.848  28.218  1.00  0.00     0.087 C 
ENDBRANCH  11  12
ENDBRANCH  10  11
ENDBRANCH   2  10
TORSDOF 6
ENDMDL
MODEL 7
REMARK VINA RESULT:    -5.696      1.403      3.725
REMARK INTER + INTRA:          -8.852
REMARK INTER:                  -7.998
REMARK INTRA:                  -0.854
REMARK UNBOUND:                -1.158
REMARK SMILES CC(=O)CCC=C(C)CCC=C(C)C
REMARK SMILES IDX 7 1 6 2 8 3 9 4 10 5 11 6 13 7 12 8 14 9 5 10 4 11 2 12 3 13
REMARK SMILES IDX 1 14
REMARK H PARENT
REMARK Flexibility Score: inf
ROOT
ATOM      1  C   UNL     1      -1.317 -13.078  28.846  1.00  0.00    -0.077 C 
ATOM      2  C   UNL     1      -2.344 -13.262  27.984  1.00  0.00    -0.028 C 
ATOM      3  C   UNL     1      -0.198 -14.087  28.849  1.00  0.00     0.039 C 
ENDROOT
BRANCH   1   4
ATOM      4  C   UNL     1      -1.226 -11.883  29.779  1.00  0.00     0.034 C 
BRANCH   4   5
ATOM      5  C   UNL     1      -1.149 -12.310  31.252  1.00  0.00     0.032 C 
BRANCH   5   6
ATOM      6  C   UNL     1      -2.196 -13.344  31.593  1.00  0.00    -0.028 C 
ATOM      7  C   UNL     1      -4.420 -14.206  32.185  1.00  0.00     0.039 C 
ATOM      8  C   UNL     1      -3.476 -13.061  31.920  1.00  0.00    -0.080 C 
ATOM      9  C   UNL     1      -3.977 -11.640  32.043  1.00  0.00     0.039 C 
ENDBRANCH   5   6
ENDBRANCH   4   5
ENDBRANCH   1   4
BRANCH   2  10
ATOM     10  C   UNL     1      -3.569 -12.385  27.899  1.00  0.00     0.035 C 
BRANCH  10  11
ATOM     11  C   UNL     1      -4.736 -12.958  28.713  1.00  0.00     0.079 C 
BRANCH  11  12
ATOM     12  C   UNL     1      -5.385 -14.122  28.010  1.00  0.00     0.130 C 
ATOM     13  O   UNL     1      -4.957 -14.489  26.927  1.00  0.00    -0.300 OA
ATOM     14  C   UNL     1      -6.577 -14.814  28.600  1.00  0.00     0.087 C 
ENDBRANCH  11  12
ENDBRANCH  10  11
ENDBRANCH   2  10
TORSDOF 6
ENDMDL
MODEL 8
REMARK VINA RESULT:    -5.692      2.042      3.182
REMARK INTER + INTRA:          -8.846
REMARK INTER:                  -7.605
REMARK INTRA:                  -1.242
REMARK UNBOUND:                -1.158
REMARK SMILES CC(=O)CCC=C(C)CCC=C(C)C
REMARK SMILES IDX 7 1 6 2 8 3 9 4 10 5 11 6 13 7 12 8 14 9 5 10 4 11 2 12 3 13
REMARK SMILES IDX 1 14
REMARK H PARENT
REMARK Flexibility Score: inf
ROOT
ATOM      1  C   UNL     1      -4.017 -11.505  31.427  1.00  0.00    -0.077 C 
ATOM      2  C   UNL     1      -4.148 -12.777  31.871  1.00  0.00    -0.028 C 
ATOM      3  C   UNL     1      -4.148 -10.384  32.425  1.00  0.00     0.039 C 
ENDROOT
BRANCH   1   4
ATOM      4  C   UNL     1      -3.705 -11.164  29.981  1.00  0.00     0.034 C 
BRANCH   4   5
ATOM      5  C   UNL     1      -2.197 -11.001  29.742  1.00  0.00     0.032 C 
BRANCH   5   6
ATOM      6  C   UNL     1      -1.620 -12.165  28.972  1.00  0.00    -0.028 C 
ATOM      7  C   UNL     1      -0.313 -14.213  28.605  1.00  0.00     0.039 C 
ATOM      8  C   UNL     1      -0.762 -13.074  29.485  1.00  0.00    -0.080 C 
ATOM      9  C   UNL     1      -0.233 -12.971  30.897  1.00  0.00     0.039 C 
ENDBRANCH   5   6
ENDBRANCH   4   5
ENDBRANCH   1   4
BRANCH   2  10
ATOM     10  C   UNL     1      -4.108 -14.007  30.997  1.00  0.00     0.035 C 
BRANCH  10  11
ATOM     11  C   UNL     1      -5.476 -14.697  30.924  1.00  0.00     0.079 C 
BRANCH  11  12
ATOM     12  C   UNL     1      -5.999 -14.745  29.513  1.00  0.00     0.130 C 
ATOM     13  O   UNL     1      -6.865 -15.554  29.216  1.00  0.00    -0.300 OA
ATOM     14  C   UNL     1      -5.444 -13.842  28.452  1.00  0.00     0.087 C 
ENDBRANCH  11  12
ENDBRANCH  10  11
ENDBRANCH   2  10
TORSDOF 6
ENDMDL
MODEL 9
REMARK VINA RESULT:    -5.656      2.399      5.041
REMARK INTER + INTRA:          -8.798
REMARK INTER:                  -7.657
REMARK INTRA:                  -1.141
REMARK UNBOUND:                -1.158
REMARK SMILES CC(=O)CCC=C(C)CCC=C(C)C
REMARK SMILES IDX 7 1 6 2 8 3 9 4 10 5 11 6 13 7 12 8 14 9 5 10 4 11 2 12 3 13
REMARK SMILES IDX 1 14
REMARK H PARENT
REMARK Flexibility Score: inf
ROOT
ATOM      1  C   UNL     1      -3.843 -10.350  29.380  1.00  0.00    -0.077 C 
ATOM      2  C   UNL     1      -3.064 -10.114  30.461  1.00  0.00    -0.028 C 
ATOM      3  C   UNL     1      -5.283  -9.909  29.428  1.00  0.00     0.039 C 
ENDROOT
BRANCH   1   4
ATOM      4  C   UNL     1      -3.320 -11.002  28.111  1.00  0.00     0.034 C 
BRANCH   4   5
ATOM      5  C   UNL     1      -3.153 -12.519  28.273  1.00  0.00     0.032 C 
BRANCH   5   6
ATOM      6  C   UNL     1      -4.450 -13.257  28.037  1.00  0.00    -0.028 C 
ATOM      7  C   UNL     1      -6.476 -14.519  28.620  1.00  0.00     0.039 C 
ATOM      8  C   UNL     1      -5.172 -13.867  29.003  1.00  0.00    -0.080 C 
ATOM      9  C   UNL     1      -4.703 -13.928  30.438  1.00  0.00     0.039 C 
ENDBRANCH   5   6
ENDBRANCH   4   5
ENDBRANCH   1   4
BRANCH   2  10
ATOM     10  C   UNL     1      -1.625 -10.547  30.601  1.00  0.00     0.035 C 
BRANCH  10  11
ATOM     11  C   UNL     1      -1.484 -11.759  31.532  1.00  0.00     0.079 C 
BRANCH  11  12
ATOM     12  C   UNL     1      -0.262 -12.575  31.200  1.00  0.00     0.130 C 
ATOM     13  O   UNL     1       0.781 -12.373  31.802  1.00  0.00    -0.300 OA
ATOM     14  C   UNL     1      -0.294 -13.605  30.111  1.00  0.00     0.087 C 
ENDBRANCH  11  12
ENDBRANCH  10  11
ENDBRANCH   2  10
TORSDOF 6
ENDMDL
