MODEL 1
REMARK VINA RESULT:     0.000      0.000      0.000
REMARK INTER + INTRA:          -3.351
REMARK INTER:                   0.000
REMARK INTRA:                  -3.351
REMARK UNBOUND:                -3.351
REMARK SMILES CCCCCCCCCCCCCC[C@@H](C)C(=O)[O-]
REMARK SMILES IDX 9 1 10 2 11 3 12 4 13 5 14 6 15 7 16 8 17 9 18 10 19 11 8 12
REMARK SMILES IDX 7 13 6 14 5 15 4 16 3 17 2 18 1 19
REMARK H PARENT
REMARK Flexibility Score: inf
ROOT
ATOM      1  C   UNL     1     164.143 193.912 190.464  1.00  0.00     0.000 C 
ENDROOT
BRANCH   1   2
ATOM      2  C   UNL     1     165.545 194.152 189.887  1.00  0.00     0.000 C 
BRANCH   2   3
ATOM      3  C   UNL     1     166.089 195.521 190.318  1.00  0.00     0.000 C 
BRANCH   3   4
ATOM      4  C   UNL     1     166.795 196.227 189.149  1.00  0.00     0.000 C 
BRANCH   4   5
ATOM      5  C   UNL     1     166.977 195.299 187.934  1.00  0.00     0.001 C 
BRANCH   5   6
ATOM      6  C   UNL     1     166.786 196.020 186.581  1.00  0.00     0.009 C 
BRANCH   6   7
ATOM      7  C   UNL     1     166.833 195.069 185.364  1.00  0.00     0.032 C 
ATOM      8  C   UNL     1     166.659 193.599 185.766  1.00  0.00     0.014 C 
BRANCH   7   9
ATOM      9  C   UNL     1     165.766 195.455 184.378  1.00  0.00     0.044 C 
ATOM     10  O   UNL     1     165.514 194.711 183.394  1.00  0.00    -0.550 OA
ATOM     11  O   UNL     1     165.064 196.645 184.532  1.00  0.00    -0.550 OA
ENDBRANCH   7   9
ENDBRANCH   6   7
ENDBRANCH   5   6
ENDBRANCH   4   5
ENDBRANCH   3   4
ENDBRANCH   2   3
ENDBRANCH   1   2
BRANCH   1  12
ATOM     12  C   UNL     1     163.069 193.760 189.374  1.00  0.00     0.000 C 
BRANCH  12  13
ATOM     13  C   UNL     1     163.671 193.593 187.970  1.00  0.00    -0.000 C 
BRANCH  13  14
ATOM     14  C   UNL     1     163.261 194.720 187.007  1.00  0.00    -0.000 C 
BRANCH  14  15
ATOM     15  C   UNL     1     162.590 195.920 187.710  1.00  0.00    -0.000 C 
BRANCH  15  16
ATOM     16  C   UNL     1     163.480 197.174 187.693  1.00  0.00    -0.000 C 
BRANCH  16  17
ATOM     17  C   UNL     1     163.492 197.911 189.042  1.00  0.00    -0.000 C 
BRANCH  17  18
ATOM     18  C   UNL     1     162.476 197.336 190.038  1.00  0.00    -0.003 C 
ATOM     19  C   UNL     1     163.037 197.339 191.457  1.00  0.00     0.004 C 
ENDBRANCH  17  18
ENDBRANCH  16  17
ENDBRANCH  15  16
ENDBRANCH  14  15
ENDBRANCH  13  14
ENDBRANCH  12  13
ENDBRANCH   1  12
TORSDOF 14
ENDMDL
MODEL 2
REMARK VINA RESULT:     0.005      2.486      3.061
REMARK INTER + INTRA:          -3.343
REMARK INTER:                   0.000
REMARK INTRA:                  -3.343
REMARK UNBOUND:                -3.351
REMARK SMILES CCCCCCCCCCCCCC[C@@H](C)C(=O)[O-]
REMARK SMILES IDX 9 1 10 2 11 3 12 4 13 5 14 6 15 7 16 8 17 9 18 10 19 11 8 12
REMARK SMILES IDX 7 13 6 14 5 15 4 16 3 17 2 18 1 19
REMARK H PARENT
REMARK Flexibility Score: inf
ROOT
ATOM      1  C   UNL     1     165.623 195.103 190.478  1.00  0.00     0.000 C 
ENDROOT
BRANCH   1   2
ATOM      2  C   UNL     1     167.156 195.148 190.430  1.00  0.00     0.000 C 
BRANCH   2   3
ATOM      3  C   UNL     1     167.691 196.408 191.122  1.00  0.00     0.000 C 
BRANCH   3   4
ATOM      4  C   UNL     1     168.805 197.064 190.292  1.00  0.00     0.000 C 
BRANCH   4   5
ATOM      5  C   UNL     1     169.170 196.233 189.049  1.00  0.00     0.001 C 
BRANCH   5   6
ATOM      6  C   UNL     1     169.788 197.075 187.910  1.00  0.00     0.009 C 
BRANCH   6   7
ATOM      7  C   UNL     1     170.021 196.276 186.609  1.00  0.00     0.032 C 
ATOM      8  C   UNL     1     169.603 194.806 186.744  1.00  0.00     0.014 C 
BRANCH   7   9
ATOM      9  C   UNL     1     169.263 196.916 185.479  1.00  0.00     0.044 C 
ATOM     10  O   UNL     1     169.161 198.170 185.415  1.00  0.00    -0.550 OA
ATOM     11  O   UNL     1     168.651 196.131 184.508  1.00  0.00    -0.550 OA
ENDBRANCH   7   9
ENDBRANCH   6   7
ENDBRANCH   5   6
ENDBRANCH   4   5
ENDBRANCH   3   4
ENDBRANCH   2   3
ENDBRANCH   1   2
BRANCH   1  12
ATOM     12  C   UNL     1     164.988 194.943 189.087  1.00  0.00     0.000 C 
BRANCH  12  13
ATOM     13  C   UNL     1     166.031 194.694 187.986  1.00  0.00    -0.000 C 
BRANCH  13  14
ATOM     14  C   UNL     1     166.004 195.768 186.884  1.00  0.00    -0.000 C 
BRANCH  14  15
ATOM     15  C   UNL     1     165.319 197.081 187.319  1.00  0.00    -0.000 C 
BRANCH  15  16
ATOM     16  C   UNL     1     166.332 198.221 187.529  1.00  0.00    -0.000 C 
BRANCH  16  17
ATOM     17  C   UNL     1     166.079 199.008 188.824  1.00  0.00    -0.000 C 
BRANCH  17  18
ATOM     18  C   UNL     1     164.746 198.638 189.490  1.00  0.00    -0.003 C 
ATOM     19  C   UNL     1     164.842 198.748 191.009  1.00  0.00     0.004 C 
ENDBRANCH  17  18
ENDBRANCH  16  17
ENDBRANCH  15  16
ENDBRANCH  14  15
ENDBRANCH  13  14
ENDBRANCH  12  13
ENDBRANCH   1  12
TORSDOF 14
ENDMDL
MODEL 3
REMARK VINA RESULT:     0.008      3.818      5.594
REMARK INTER + INTRA:          -3.336
REMARK INTER:                   0.000
REMARK INTRA:                  -3.336
REMARK UNBOUND:                -3.351
REMARK SMILES CCCCCCCCCCCCCC[C@@H](C)C(=O)[O-]
REMARK SMILES IDX 9 1 10 2 11 3 12 4 13 5 14 6 15 7 16 8 17 9 18 10 19 11 8 12
REMARK SMILES IDX 7 13 6 14 5 15 4 16 3 17 2 18 1 19
REMARK H PARENT
REMARK Flexibility Score: inf
ROOT
ATOM      1  C   UNL     1     162.450 192.702 189.618  1.00  0.00     0.000 C 
ENDROOT
BRANCH   1   2
ATOM      2  C   UNL     1     163.784 192.934 190.341  1.00  0.00     0.000 C 
BRANCH   2   3
ATOM      3  C   UNL     1     164.440 191.601 190.724  1.00  0.00     0.000 C 
BRANCH   3   4
ATOM      4  C   UNL     1     165.936 191.602 190.376  1.00  0.00     0.000 C 
BRANCH   4   5
ATOM      5  C   UNL     1     166.537 193.020 190.398  1.00  0.00     0.001 C 
BRANCH   5   6
ATOM      6  C   UNL     1     167.335 193.364 189.120  1.00  0.00     0.009 C 
BRANCH   6   7
ATOM      7  C   UNL     1     168.071 192.152 188.507  1.00  0.00     0.032 C 
ATOM      8  C   UNL     1     168.294 192.309 186.996  1.00  0.00     0.014 C 
BRANCH   7   9
ATOM      9  C   UNL     1     169.392 191.959 189.197  1.00  0.00     0.044 C 
ATOM     10  O   UNL     1     170.290 192.837 189.102  1.00  0.00    -0.550 OA
ATOM     11  O   UNL     1     169.642 190.802 189.926  1.00  0.00    -0.550 OA
ENDBRANCH   7   9
ENDBRANCH   6   7
ENDBRANCH   5   6
ENDBRANCH   4   5
ENDBRANCH   3   4
ENDBRANCH   2   3
ENDBRANCH   1   2
BRANCH   1  12
ATOM     12  C   UNL     1     162.514 193.057 188.123  1.00  0.00     0.000 C 
BRANCH  12  13
ATOM     13  C   UNL     1     163.848 193.709 187.727  1.00  0.00    -0.000 C 
BRANCH  13  14
ATOM     14  C   UNL     1     164.602 192.916 186.646  1.00  0.00    -0.000 C 
BRANCH  14  15
ATOM     15  C   UNL     1     164.089 191.471 186.468  1.00  0.00    -0.000 C 
BRANCH  15  16
ATOM     16  C   UNL     1     165.092 190.430 186.995  1.00  0.00    -0.000 C 
BRANCH  16  17
ATOM     17  C   UNL     1     164.418 189.313 187.806  1.00  0.00    -0.000 C 
BRANCH  17  18
ATOM     18  C   UNL     1     162.885 189.392 187.759  1.00  0.00    -0.003 C 
ATOM     19  C   UNL     1     162.275 189.012 189.105  1.00  0.00     0.004 C 
ENDBRANCH  17  18
ENDBRANCH  16  17
ENDBRANCH  15  16
ENDBRANCH  14  15
ENDBRANCH  13  14
ENDBRANCH  12  13
ENDBRANCH   1  12
TORSDOF 14
ENDMDL
MODEL 4
REMARK VINA RESULT:     0.010      6.447      9.050
REMARK INTER + INTRA:          -3.334
REMARK INTER:                   0.000
REMARK INTRA:                  -3.334
REMARK UNBOUND:                -3.351
REMARK SMILES CCCCCCCCCCCCCC[C@@H](C)C(=O)[O-]
REMARK SMILES IDX 9 1 10 2 11 3 12 4 13 5 14 6 15 7 16 8 17 9 18 10 19 11 8 12
REMARK SMILES IDX 7 13 6 14 5 15 4 16 3 17 2 18 1 19
REMARK H PARENT
REMARK Flexibility Score: inf
ROOT
ATOM      1  C   UNL     1     169.948 191.756 184.658  1.00  0.00     0.000 C 
ENDROOT
BRANCH   1   2
ATOM      2  C   UNL     1     169.201 191.737 185.999  1.00  0.00     0.000 C 
BRANCH   2   3
ATOM      3  C   UNL     1     168.967 193.162 186.517  1.00  0.00     0.000 C 
BRANCH   3   4
ATOM      4  C   UNL     1     169.293 193.264 188.015  1.00  0.00     0.000 C 
BRANCH   4   5
ATOM      5  C   UNL     1     169.255 191.893 188.714  1.00  0.00     0.001 C 
BRANCH   5   6
ATOM      6  C   UNL     1     170.411 191.687 189.719  1.00  0.00     0.009 C 
BRANCH   6   7
ATOM      7  C   UNL     1     170.775 190.202 189.943  1.00  0.00     0.032 C 
ATOM      8  C   UNL     1     170.028 189.267 188.983  1.00  0.00     0.014 C 
BRANCH   7   9
ATOM      9  C   UNL     1     172.259 190.015 189.782  1.00  0.00     0.044 C 
ATOM     10  O   UNL     1     173.060 190.838 190.297  1.00  0.00    -0.550 OA
ATOM     11  O   UNL     1     172.757 188.945 189.046  1.00  0.00    -0.550 OA
ENDBRANCH   7   9
ENDBRANCH   6   7
ENDBRANCH   5   6
ENDBRANCH   4   5
ENDBRANCH   3   4
ENDBRANCH   2   3
ENDBRANCH   1   2
BRANCH   1  12
ATOM     12  C   UNL     1     171.255 190.947 184.694  1.00  0.00     0.000 C 
BRANCH  12  13
ATOM     13  C   UNL     1     171.789 190.749 186.121  1.00  0.00    -0.000 C 
BRANCH  13  14
ATOM     14  C   UNL     1     173.098 191.515 186.380  1.00  0.00    -0.000 C 
BRANCH  14  15
ATOM     15  C   UNL     1     172.920 192.756 187.281  1.00  0.00    -0.000 C 
BRANCH  15  16
ATOM     16  C   UNL     1     172.627 194.028 186.465  1.00  0.00    -0.000 C 
BRANCH  16  17
ATOM     17  C   UNL     1     173.348 194.041 185.109  1.00  0.00    -0.000 C 
BRANCH  17  18
ATOM     18  C   UNL     1     172.429 194.468 183.956  1.00  0.00    -0.003 C 
ATOM     19  C   UNL     1     171.235 195.264 184.472  1.00  0.00     0.004 C 
ENDBRANCH  17  18
ENDBRANCH  16  17
ENDBRANCH  15  16
ENDBRANCH  14  15
ENDBRANCH  13  14
ENDBRANCH  12  13
ENDBRANCH   1  12
TORSDOF 14
ENDMDL
MODEL 5
REMARK VINA RESULT:     0.010      3.699      5.718
REMARK INTER + INTRA:          -3.333
REMARK INTER:                   0.000
REMARK INTRA:                  -3.333
REMARK UNBOUND:                -3.351
REMARK SMILES CCCCCCCCCCCCCC[C@@H](C)C(=O)[O-]
REMARK SMILES IDX 9 1 10 2 11 3 12 4 13 5 14 6 15 7 16 8 17 9 18 10 19 11 8 12
REMARK SMILES IDX 7 13 6 14 5 15 4 16 3 17 2 18 1 19
REMARK H PARENT
REMARK Flexibility Score: inf
ROOT
ATOM      1  C   UNL     1     163.013 195.539 185.734  1.00  0.00     0.000 C 
ENDROOT
BRANCH   1   2
ATOM      2  C   UNL     1     163.761 196.049 184.494  1.00  0.00     0.000 C 
BRANCH   2   3
ATOM      3  C   UNL     1     162.805 196.218 183.307  1.00  0.00     0.000 C 
BRANCH   3   4
ATOM      4  C   UNL     1     163.401 195.609 182.028  1.00  0.00     0.000 C 
BRANCH   4   5
ATOM      5  C   UNL     1     164.939 195.547 182.075  1.00  0.00     0.001 C 
BRANCH   5   6
ATOM      6  C   UNL     1     165.514 194.222 181.526  1.00  0.00     0.009 C 
BRANCH   6   7
ATOM      7  C   UNL     1     166.908 193.873 182.094  1.00  0.00     0.032 C 
ATOM      8  C   UNL     1     167.318 194.802 183.244  1.00  0.00     0.014 C 
BRANCH   7   9
ATOM      9  C   UNL     1     166.918 192.446 182.567  1.00  0.00     0.044 C 
ATOM     10  O   UNL     1     167.460 192.146 183.664  1.00  0.00    -0.550 OA
ATOM     11  O   UNL     1     166.350 191.443 181.789  1.00  0.00    -0.550 OA
ENDBRANCH   7   9
ENDBRANCH   6   7
ENDBRANCH   5   6
ENDBRANCH   4   5
ENDBRANCH   3   4
ENDBRANCH   2   3
ENDBRANCH   1   2
BRANCH   1  12
ATOM     12  C   UNL     1     163.602 194.232 186.288  1.00  0.00     0.000 C 
BRANCH  12  13
ATOM     13  C   UNL     1     164.533 193.530 185.286  1.00  0.00    -0.000 C 
BRANCH  13  14
ATOM     14  C   UNL     1     164.009 192.152 184.848  1.00  0.00    -0.000 C 
BRANCH  14  15
ATOM     15  C   UNL     1     163.250 192.178 183.504  1.00  0.00    -0.000 C 
BRANCH  15  16
ATOM     16  C   UNL     1     161.742 191.931 183.685  1.00  0.00    -0.000 C 
BRANCH  16  17
ATOM     17  C   UNL     1     160.883 193.088 183.151  1.00  0.00    -0.000 C 
BRANCH  17  18
ATOM     18  C   UNL     1     160.092 193.796 184.260  1.00  0.00    -0.003 C 
ATOM     19  C   UNL     1     160.172 193.022 185.572  1.00  0.00     0.004 C 
ENDBRANCH  17  18
ENDBRANCH  16  17
ENDBRANCH  15  16
ENDBRANCH  14  15
ENDBRANCH  13  14
ENDBRANCH  12  13
ENDBRANCH   1  12
TORSDOF 14
ENDMDL
MODEL 6
REMARK VINA RESULT:     0.010      9.284     12.669
REMARK INTER + INTRA:          -3.332
REMARK INTER:                   0.000
REMARK INTRA:                  -3.332
REMARK UNBOUND:                -3.351
REMARK SMILES CCCCCCCCCCCCCC[C@@H](C)C(=O)[O-]
REMARK SMILES IDX 9 1 10 2 11 3 12 4 13 5 14 6 15 7 16 8 17 9 18 10 19 11 8 12
REMARK SMILES IDX 7 13 6 14 5 15 4 16 3 17 2 18 1 19
REMARK H PARENT
REMARK Flexibility Score: inf
ROOT
ATOM      1  C   UNL     1     174.473 191.036 182.721  1.00  0.00     0.000 C 
ENDROOT
BRANCH   1   2
ATOM      2  C   UNL     1     174.516 191.546 184.169  1.00  0.00     0.000 C 
BRANCH   2   3
ATOM      3  C   UNL     1     175.895 191.304 184.796  1.00  0.00     0.000 C 
BRANCH   3   4
ATOM      4  C   UNL     1     175.763 190.722 186.212  1.00  0.00     0.000 C 
BRANCH   4   5
ATOM      5  C   UNL     1     174.404 191.055 186.853  1.00  0.00     0.001 C 
BRANCH   5   6
ATOM      6  C   UNL     1     173.788 189.870 187.631  1.00  0.00     0.009 C 
BRANCH   6   7
ATOM      7  C   UNL     1     172.249 189.938 187.742  1.00  0.00     0.032 C 
ATOM      8  C   UNL     1     171.654 191.078 186.904  1.00  0.00     0.014 C 
BRANCH   7   9
ATOM      9  C   UNL     1     171.652 188.627 187.311  1.00  0.00     0.044 C 
ATOM     10  O   UNL     1     170.626 188.608 186.580  1.00  0.00    -0.550 OA
ATOM     11  O   UNL     1     172.213 187.426 187.731  1.00  0.00    -0.550 OA
ENDBRANCH   7   9
ENDBRANCH   6   7
ENDBRANCH   5   6
ENDBRANCH   4   5
ENDBRANCH   3   4
ENDBRANCH   2   3
ENDBRANCH   1   2
BRANCH   1  12
ATOM     12  C   UNL     1     173.377 189.983 182.494  1.00  0.00     0.000 C 
BRANCH  12  13
ATOM     13  C   UNL     1     172.797 189.438 183.810  1.00  0.00    -0.000 C 
BRANCH  13  14
ATOM     14  C   UNL     1     173.043 187.931 183.991  1.00  0.00    -0.000 C 
BRANCH  14  15
ATOM     15  C   UNL     1     174.307 187.605 184.815  1.00  0.00    -0.000 C 
BRANCH  15  16
ATOM     16  C   UNL     1     175.432 187.019 183.944  1.00  0.00    -0.000 C 
BRANCH  16  17
ATOM     17  C   UNL     1     176.745 187.809 184.060  1.00  0.00    -0.000 C 
BRANCH  17  18
ATOM     18  C   UNL     1     177.163 188.459 182.734  1.00  0.00    -0.003 C 
ATOM     19  C   UNL     1     176.332 187.921 181.573  1.00  0.00     0.004 C 
ENDBRANCH  17  18
ENDBRANCH  16  17
ENDBRANCH  15  16
ENDBRANCH  14  15
ENDBRANCH  13  14
ENDBRANCH  12  13
ENDBRANCH   1  12
TORSDOF 14
ENDMDL
MODEL 7
REMARK VINA RESULT:     0.016      8.011     10.798
REMARK INTER + INTRA:          -3.322
REMARK INTER:                   0.000
REMARK INTRA:                  -3.322
REMARK UNBOUND:                -3.351
REMARK SMILES CCCCCCCCCCCCCC[C@@H](C)C(=O)[O-]
REMARK SMILES IDX 9 1 10 2 11 3 12 4 13 5 14 6 15 7 16 8 17 9 18 10 19 11 8 12
REMARK SMILES IDX 7 13 6 14 5 15 4 16 3 17 2 18 1 19
REMARK H PARENT
REMARK Flexibility Score: inf
ROOT
ATOM      1  C   UNL     1     170.229 185.018 187.270  1.00  0.00     0.000 C 
ENDROOT
BRANCH   1   2
ATOM      2  C   UNL     1     171.463 185.296 186.400  1.00  0.00     0.000 C 
BRANCH   2   3
ATOM      3  C   UNL     1     171.072 186.032 185.112  1.00  0.00     0.000 C 
BRANCH   3   4
ATOM      4  C   UNL     1     169.705 186.717 185.260  1.00  0.00     0.000 C 
BRANCH   4   5
ATOM      5  C   UNL     1     169.834 188.242 185.425  1.00  0.00     0.001 C 
BRANCH   5   6
ATOM      6  C   UNL     1     168.897 188.821 186.509  1.00  0.00     0.009 C 
BRANCH   6   7
ATOM      7  C   UNL     1     167.752 187.864 186.910  1.00  0.00     0.032 C 
ATOM      8  C   UNL     1     167.534 187.820 188.428  1.00  0.00     0.014 C 
BRANCH   7   9
ATOM      9  C   UNL     1     166.479 188.283 186.227  1.00  0.00     0.044 C 
ATOM     10  O   UNL     1     166.233 187.897 185.054  1.00  0.00    -0.550 OA
ATOM     11  O   UNL     1     165.575 189.117 186.876  1.00  0.00    -0.550 OA
ENDBRANCH   7   9
ENDBRANCH   6   7
ENDBRANCH   5   6
ENDBRANCH   4   5
ENDBRANCH   3   4
ENDBRANCH   2   3
ENDBRANCH   1   2
BRANCH   1  12
ATOM     12  C   UNL     1     170.405 185.492 188.721  1.00  0.00     0.000 C 
BRANCH  12  13
ATOM     13  C   UNL     1     171.589 186.457 188.889  1.00  0.00    -0.000 C 
BRANCH  13  14
ATOM     14  C   UNL     1     171.154 187.865 189.328  1.00  0.00    -0.000 C 
BRANCH  14  15
ATOM     15  C   UNL     1     171.912 189.000 188.604  1.00  0.00    -0.000 C 
BRANCH  15  16
ATOM     16  C   UNL     1     173.002 188.460 187.662  1.00  0.00    -0.000 C 
BRANCH  16  17
ATOM     17  C   UNL     1     173.174 189.318 186.399  1.00  0.00    -0.000 C 
BRANCH  17  18
ATOM     18  C   UNL     1     173.781 188.532 185.229  1.00  0.00    -0.003 C 
ATOM     19  C   UNL     1     174.562 187.320 185.728  1.00  0.00     0.004 C 
ENDBRANCH  17  18
ENDBRANCH  16  17
ENDBRANCH  15  16
ENDBRANCH  14  15
ENDBRANCH  13  14
ENDBRANCH  12  13
ENDBRANCH   1  12
TORSDOF 14
ENDMDL
MODEL 8
REMARK VINA RESULT:     0.019      6.459      8.714
REMARK INTER + INTRA:          -3.317
REMARK INTER:                   0.000
REMARK INTRA:                  -3.317
REMARK UNBOUND:                -3.351
REMARK SMILES CCCCCCCCCCCCCC[C@@H](C)C(=O)[O-]
REMARK SMILES IDX 9 1 10 2 11 3 12 4 13 5 14 6 15 7 16 8 17 9 18 10 19 11 8 12
REMARK SMILES IDX 7 13 6 14 5 15 4 16 3 17 2 18 1 19
REMARK H PARENT
REMARK Flexibility Score: inf
ROOT
ATOM      1  C   UNL     1     169.711 193.910 181.390  1.00  0.00     0.000 C 
ENDROOT
BRANCH   1   2
ATOM      2  C   UNL     1     169.206 192.994 182.513  1.00  0.00     0.000 C 
BRANCH   2   3
ATOM      3  C   UNL     1     170.236 191.905 182.839  1.00  0.00     0.000 C 
BRANCH   3   4
ATOM      4  C   UNL     1     171.655 192.356 182.462  1.00  0.00     0.000 C 
BRANCH   4   5
ATOM      5  C   UNL     1     172.477 192.779 183.693  1.00  0.00     0.001 C 
BRANCH   5   6
ATOM      6  C   UNL     1     172.859 194.277 183.687  1.00  0.00     0.009 C 
BRANCH   6   7
ATOM      7  C   UNL     1     173.274 194.802 182.294  1.00  0.00     0.032 C 
ATOM      8  C   UNL     1     173.144 196.327 182.184  1.00  0.00     0.014 C 
BRANCH   7   9
ATOM      9  C   UNL     1     174.689 194.390 181.998  1.00  0.00     0.044 C 
ATOM     10  O   UNL     1     174.929 193.565 181.078  1.00  0.00    -0.550 OA
ATOM     11  O   UNL     1     175.742 194.901 182.750  1.00  0.00    -0.550 OA
ENDBRANCH   7   9
ENDBRANCH   6   7
ENDBRANCH   5   6
ENDBRANCH   4   5
ENDBRANCH   3   4
ENDBRANCH   2   3
ENDBRANCH   1   2
BRANCH   1  12
ATOM     12  C   UNL     1     169.554 195.403 181.723  1.00  0.00     0.000 C 
BRANCH  12  13
ATOM     13  C   UNL     1     169.041 195.639 183.152  1.00  0.00    -0.000 C 
BRANCH  13  14
ATOM     14  C   UNL     1     169.904 196.642 183.938  1.00  0.00    -0.000 C 
BRANCH  14  15
ATOM     15  C   UNL     1     170.235 196.181 185.373  1.00  0.00    -0.000 C 
BRANCH  15  16
ATOM     16  C   UNL     1     169.544 194.853 185.730  1.00  0.00    -0.000 C 
BRANCH  16  17
ATOM     17  C   UNL     1     170.446 193.914 186.546  1.00  0.00    -0.000 C 
BRANCH  17  18
ATOM     18  C   UNL     1     169.970 192.456 186.507  1.00  0.00    -0.003 C 
ATOM     19  C   UNL     1     168.492 192.371 186.139  1.00  0.00     0.004 C 
ENDBRANCH  17  18
ENDBRANCH  16  17
ENDBRANCH  15  16
ENDBRANCH  14  15
ENDBRANCH  13  14
ENDBRANCH  12  13
ENDBRANCH   1  12
TORSDOF 14
ENDMDL
MODEL 9
REMARK VINA RESULT:     0.028      6.042      7.710
REMARK INTER + INTRA:          -3.299
REMARK INTER:                   0.000
REMARK INTRA:                  -3.299
REMARK UNBOUND:                -3.351
REMARK SMILES CCCCCCCCCCCCCC[C@@H](C)C(=O)[O-]
REMARK SMILES IDX 9 1 10 2 11 3 12 4 13 5 14 6 15 7 16 8 17 9 18 10 19 11 8 12
REMARK SMILES IDX 7 13 6 14 5 15 4 16 3 17 2 18 1 19
REMARK H PARENT
REMARK Flexibility Score: inf
ROOT
ATOM      1  C   UNL     1     162.744 192.840 194.041  1.00  0.00     0.000 C 
ENDROOT
BRANCH   1   2
ATOM      2  C   UNL     1     162.611 191.391 193.550  1.00  0.00     0.000 C 
BRANCH   2   3
ATOM      3  C   UNL     1     161.648 190.595 194.439  1.00  0.00     0.000 C 
BRANCH   3   4
ATOM      4  C   UNL     1     160.745 189.682 193.596  1.00  0.00     0.000 C 
BRANCH   4   5
ATOM      5  C   UNL     1     161.319 189.435 192.190  1.00  0.00     0.001 C 
BRANCH   5   6
ATOM      6  C   UNL     1     160.316 189.746 191.056  1.00  0.00     0.009 C 
BRANCH   6   7
ATOM      7  C   UNL     1     160.992 190.076 189.707  1.00  0.00     0.032 C 
ATOM      8  C   UNL     1     162.524 190.062 189.804  1.00  0.00     0.014 C 
BRANCH   7   9
ATOM      9  C   UNL     1     160.542 189.094 188.661  1.00  0.00     0.044 C 
ATOM     10  O   UNL     1     160.678 187.857 188.854  1.00  0.00    -0.550 OA
ATOM     11  O   UNL     1     159.991 189.542 187.466  1.00  0.00    -0.550 OA
ENDBRANCH   7   9
ENDBRANCH   6   7
ENDBRANCH   5   6
ENDBRANCH   4   5
ENDBRANCH   3   4
ENDBRANCH   2   3
ENDBRANCH   1   2
BRANCH   1  12
ATOM     12  C   UNL     1     162.257 193.866 193.007  1.00  0.00     0.000 C 
BRANCH  12  13
ATOM     13  C   UNL     1     161.949 193.231 191.641  1.00  0.00    -0.000 C 
BRANCH  13  14
ATOM     14  C   UNL     1     160.504 193.481 191.178  1.00  0.00    -0.000 C 
BRANCH  14  15
ATOM     15  C   UNL     1     159.539 193.837 192.330  1.00  0.00    -0.000 C 
BRANCH  15  16
ATOM     16  C   UNL     1     158.663 192.641 192.742  1.00  0.00    -0.000 C 
BRANCH  16  17
ATOM     17  C   UNL     1     158.465 192.547 194.263  1.00  0.00    -0.000 C 
BRANCH  17  18
ATOM     18  C   UNL     1     159.147 193.695 195.020  1.00  0.00    -0.003 C 
ATOM     19  C   UNL     1     159.779 193.198 196.317  1.00  0.00     0.004 C 
ENDBRANCH  17  18
ENDBRANCH  16  17
ENDBRANCH  15  16
ENDBRANCH  14  15
ENDBRANCH  13  14
ENDBRANCH  12  13
ENDBRANCH   1  12
TORSDOF 14
ENDMDL
