MODEL 1
REMARK VINA RESULT:    10.646      0.000      0.000
REMARK INTER + INTRA:          17.560
REMARK INTER:                  18.114
REMARK INTRA:                  -0.554
REMARK UNBOUND:                -0.554
REMARK SMILES CCCCCCCCCCCCCC(=O)[O-]
REMARK SMILES IDX 8 1 9 2 10 3 11 4 12 5 13 6 14 7 15 8 16 9 7 10 6 11 5 12
REMARK SMILES IDX 4 13 3 14 2 15 1 16
REMARK H PARENT
REMARK Flexibility Score: inf
ROOT
ATOM      1  C   UNL     1      18.498  18.033  20.805  1.00  0.00     0.000 C 
ENDROOT
BRANCH   1   2
ATOM      2  C   UNL     1      18.034  17.102  19.667  1.00  0.00     0.000 C 
BRANCH   2   3
ATOM      3  C   UNL     1      16.518  17.108  19.403  1.00  0.00     0.000 C 
BRANCH   3   4
ATOM      4  C   UNL     1      16.147  17.800  18.079  1.00  0.00     0.000 C 
BRANCH   4   5
ATOM      5  C   UNL     1      17.114  17.446  16.938  1.00  0.00     0.006 C 
BRANCH   5   6
ATOM      6  C   UNL     1      16.466  17.583  15.554  1.00  0.00     0.053 C 
BRANCH   6   7
ATOM      7  C   UNL     1      17.483  17.368  14.479  1.00  0.00     0.041 C 
ATOM      8  O   UNL     1      18.042  18.353  13.930  1.00  0.00    -0.550 OA
ATOM      9  O   UNL     1      17.777  16.081  14.047  1.00  0.00    -0.550 OA
ENDBRANCH   6   7
ENDBRANCH   5   6
ENDBRANCH   4   5
ENDBRANCH   3   4
ENDBRANCH   2   3
ENDBRANCH   1   2
BRANCH   1  10
ATOM     10  C   UNL     1      20.022  18.246  20.898  1.00  0.00     0.000 C 
BRANCH  10  11
ATOM     11  C   UNL     1      20.821  17.755  19.678  1.00  0.00    -0.000 C 
BRANCH  11  12
ATOM     12  C   UNL     1      22.312  18.113  19.758  1.00  0.00    -0.000 C 
BRANCH  12  13
ATOM     13  C   UNL     1      22.894  17.743  21.128  1.00  0.00    -0.000 C 
BRANCH  13  14
ATOM     14  C   UNL     1      24.400  18.041  21.186  1.00  0.00    -0.000 C 
BRANCH  14  15
ATOM     15  C   UNL     1      24.806  18.783  22.468  1.00  0.00    -0.003 C 
ATOM     16  C   UNL     1      25.503  17.874  23.481  1.00  0.00     0.004 C 
ENDBRANCH  14  15
ENDBRANCH  13  14
ENDBRANCH  12  13
ENDBRANCH  11  12
ENDBRANCH  10  11
ENDBRANCH   1  10
TORSDOF 12
ENDMDL
MODEL 2
REMARK VINA RESULT:    11.262      4.131      8.228
REMARK INTER + INTRA:          18.609
REMARK INTER:                  19.139
REMARK INTRA:                  -0.530
REMARK UNBOUND:                -0.554
REMARK SMILES CCCCCCCCCCCCCC(=O)[O-]
REMARK SMILES IDX 8 1 9 2 10 3 11 4 12 5 13 6 14 7 15 8 16 9 7 10 6 11 5 12
REMARK SMILES IDX 4 13 3 14 2 15 1 16
REMARK H PARENT
REMARK Flexibility Score: inf
ROOT
ATOM      1  C   UNL     1      18.256  18.015  20.742  1.00  0.00     0.000 C 
ENDROOT
BRANCH   1   2
ATOM      2  C   UNL     1      19.760  18.318  20.901  1.00  0.00     0.000 C 
BRANCH   2   3
ATOM      3  C   UNL     1      20.667  17.662  19.844  1.00  0.00     0.000 C 
BRANCH   3   4
ATOM      4  C   UNL     1      22.117  18.173  19.905  1.00  0.00     0.000 C 
BRANCH   4   5
ATOM      5  C   UNL     1      22.860  17.688  21.160  1.00  0.00     0.006 C 
BRANCH   5   6
ATOM      6  C   UNL     1      24.379  17.879  21.055  1.00  0.00     0.053 C 
BRANCH   6   7
ATOM      7  C   UNL     1      24.946  18.285  22.377  1.00  0.00     0.041 C 
ATOM      8  O   UNL     1      25.035  19.503  22.683  1.00  0.00    -0.550 OA
ATOM      9  O   UNL     1      25.425  17.320  23.255  1.00  0.00    -0.550 OA
ENDBRANCH   6   7
ENDBRANCH   5   6
ENDBRANCH   4   5
ENDBRANCH   3   4
ENDBRANCH   2   3
ENDBRANCH   1   2
BRANCH   1  10
ATOM     10  C   UNL     1      17.893  17.105  19.552  1.00  0.00     0.000 C 
BRANCH  10  11
ATOM     11  C   UNL     1      16.410  17.132  19.142  1.00  0.00    -0.000 C 
BRANCH  11  12
ATOM     12  C   UNL     1      16.175  17.846  17.803  1.00  0.00    -0.000 C 
BRANCH  12  13
ATOM     13  C   UNL     1      17.236  17.443  16.771  1.00  0.00    -0.000 C 
BRANCH  13  14
ATOM     14  C   UNL     1      16.858  17.942  15.369  1.00  0.00    -0.000 C 
BRANCH  14  15
ATOM     15  C   UNL     1      17.792  17.400  14.277  1.00  0.00    -0.003 C 
ATOM     16  C   UNL     1      17.575  15.912  13.999  1.00  0.00     0.004 C 
ENDBRANCH  14  15
ENDBRANCH  13  14
ENDBRANCH  12  13
ENDBRANCH  11  12
ENDBRANCH  10  11
ENDBRANCH   1  10
TORSDOF 12
ENDMDL
MODEL 3
REMARK VINA RESULT:    11.351      4.681      8.244
REMARK INTER + INTRA:          18.759
REMARK INTER:                  19.279
REMARK INTRA:                  -0.520
REMARK UNBOUND:                -0.554
REMARK SMILES CCCCCCCCCCCCCC(=O)[O-]
REMARK SMILES IDX 8 1 9 2 10 3 11 4 12 5 13 6 14 7 15 8 16 9 7 10 6 11 5 12
REMARK SMILES IDX 4 13 3 14 2 15 1 16
REMARK H PARENT
REMARK Flexibility Score: inf
ROOT
ATOM      1  C   UNL     1      16.800  17.805  19.812  1.00  0.00     0.000 C 
ENDROOT
BRANCH   1   2
ATOM      2  C   UNL     1      18.232  17.261  19.988  1.00  0.00     0.000 C 
BRANCH   2   3
ATOM      3  C   UNL     1      19.273  18.307  20.427  1.00  0.00     0.000 C 
BRANCH   3   4
ATOM      4  C   UNL     1      19.581  18.244  21.933  1.00  0.00     0.000 C 
BRANCH   4   5
ATOM      5  C   UNL     1      20.439  19.427  22.409  1.00  0.00     0.006 C 
BRANCH   5   6
ATOM      6  C   UNL     1      20.903  19.270  23.863  1.00  0.00     0.053 C 
BRANCH   6   7
ATOM      7  C   UNL     1      21.661  20.482  24.302  1.00  0.00     0.041 C 
ATOM      8  O   UNL     1      21.211  21.632  24.064  1.00  0.00    -0.550 OA
ATOM      9  O   UNL     1      22.892  20.342  24.931  1.00  0.00    -0.550 OA
ENDBRANCH   6   7
ENDBRANCH   5   6
ENDBRANCH   4   5
ENDBRANCH   3   4
ENDBRANCH   2   3
ENDBRANCH   1   2
BRANCH   1  10
ATOM     10  C   UNL     1      16.203  17.632  18.401  1.00  0.00     0.000 C 
BRANCH  10  11
ATOM     11  C   UNL     1      17.237  17.434  17.278  1.00  0.00    -0.000 C 
BRANCH  11  12
ATOM     12  C   UNL     1      16.638  17.618  15.877  1.00  0.00    -0.000 C 
BRANCH  12  13
ATOM     13  C   UNL     1      17.494  16.916  14.816  1.00  0.00    -0.000 C 
BRANCH  13  14
ATOM     14  C   UNL     1      18.155  17.936  13.877  1.00  0.00    -0.000 C 
BRANCH  14  15
ATOM     15  C   UNL     1      17.726  19.380  14.179  1.00  0.00    -0.003 C 
ATOM     16  C   UNL     1      18.914  20.311  14.423  1.00  0.00     0.004 C 
ENDBRANCH  14  15
ENDBRANCH  13  14
ENDBRANCH  12  13
ENDBRANCH  11  12
ENDBRANCH  10  11
ENDBRANCH   1  10
TORSDOF 12
ENDMDL
MODEL 4
REMARK VINA RESULT:    11.419      4.810      8.615
REMARK INTER + INTRA:          18.876
REMARK INTER:                  19.343
REMARK INTRA:                  -0.467
REMARK UNBOUND:                -0.554
REMARK SMILES CCCCCCCCCCCCCC(=O)[O-]
REMARK SMILES IDX 8 1 9 2 10 3 11 4 12 5 13 6 14 7 15 8 16 9 7 10 6 11 5 12
REMARK SMILES IDX 4 13 3 14 2 15 1 16
REMARK H PARENT
REMARK Flexibility Score: inf
ROOT
ATOM      1  C   UNL     1      18.639  17.127  19.830  1.00  0.00     0.000 C 
ENDROOT
BRANCH   1   2
ATOM      2  C   UNL     1      19.603  18.220  20.334  1.00  0.00     0.000 C 
BRANCH   2   3
ATOM      3  C   UNL     1      19.581  18.449  21.856  1.00  0.00     0.000 C 
BRANCH   3   4
ATOM      4  C   UNL     1      20.591  19.516  22.312  1.00  0.00     0.000 C 
BRANCH   4   5
ATOM      5  C   UNL     1      20.939  19.400  23.804  1.00  0.00     0.006 C 
BRANCH   5   6
ATOM      6  C   UNL     1      21.300  20.752  24.432  1.00  0.00     0.053 C 
BRANCH   6   7
ATOM      7  C   UNL     1      22.782  20.878  24.586  1.00  0.00     0.041 C 
ATOM      8  O   UNL     1      23.433  21.655  23.841  1.00  0.00    -0.550 OA
ATOM      9  O   UNL     1      23.452  20.097  25.519  1.00  0.00    -0.550 OA
ENDBRANCH   6   7
ENDBRANCH   5   6
ENDBRANCH   4   5
ENDBRANCH   3   4
ENDBRANCH   2   3
ENDBRANCH   1   2
BRANCH   1  10
ATOM     10  C   UNL     1      17.140  17.475  19.936  1.00  0.00     0.000 C 
BRANCH  10  11
ATOM     11  C   UNL     1      16.385  17.510  18.596  1.00  0.00    -0.000 C 
BRANCH  11  12
ATOM     12  C   UNL     1      17.319  17.411  17.382  1.00  0.00    -0.000 C 
BRANCH  12  13
ATOM     13  C   UNL     1      16.604  17.854  16.100  1.00  0.00    -0.000 C 
BRANCH  13  14
ATOM     14  C   UNL     1      17.053  17.009  14.898  1.00  0.00    -0.000 C 
BRANCH  14  15
ATOM     15  C   UNL     1      17.989  17.778  13.953  1.00  0.00    -0.003 C 
ATOM     16  C   UNL     1      17.999  19.282  14.227  1.00  0.00     0.004 C 
ENDBRANCH  14  15
ENDBRANCH  13  14
ENDBRANCH  12  13
ENDBRANCH  11  12
ENDBRANCH  10  11
ENDBRANCH   1  10
TORSDOF 12
ENDMDL
MODEL 5
REMARK VINA RESULT:    11.560      1.970      2.529
REMARK INTER + INTRA:          19.115
REMARK INTER:                  19.668
REMARK INTRA:                  -0.553
REMARK UNBOUND:                -0.554
REMARK SMILES CCCCCCCCCCCCCC(=O)[O-]
REMARK SMILES IDX 8 1 9 2 10 3 11 4 12 5 13 6 14 7 15 8 16 9 7 10 6 11 5 12
REMARK SMILES IDX 4 13 3 14 2 15 1 16
REMARK H PARENT
REMARK Flexibility Score: inf
ROOT
ATOM      1  C   UNL     1      18.379  16.867  20.245  1.00  0.00     0.000 C 
ENDROOT
BRANCH   1   2
ATOM      2  C   UNL     1      16.923  16.763  19.748  1.00  0.00     0.000 C 
BRANCH   2   3
ATOM      3  C   UNL     1      16.348  18.060  19.152  1.00  0.00     0.000 C 
BRANCH   3   4
ATOM      4  C   UNL     1      15.792  17.867  17.731  1.00  0.00     0.000 C 
BRANCH   4   5
ATOM      5  C   UNL     1      16.870  17.413  16.733  1.00  0.00     0.006 C 
BRANCH   5   6
ATOM      6  C   UNL     1      16.396  17.497  15.276  1.00  0.00     0.053 C 
BRANCH   6   7
ATOM      7  C   UNL     1      17.566  17.463  14.345  1.00  0.00     0.041 C 
ATOM      8  O   UNL     1      18.085  16.364  14.018  1.00  0.00    -0.550 OA
ATOM      9  O   UNL     1      18.116  18.649  13.876  1.00  0.00    -0.550 OA
ENDBRANCH   6   7
ENDBRANCH   5   6
ENDBRANCH   4   5
ENDBRANCH   3   4
ENDBRANCH   2   3
ENDBRANCH   1   2
BRANCH   1  10
ATOM     10  C   UNL     1      18.942  18.301  20.328  1.00  0.00     0.000 C 
BRANCH  10  11
ATOM     11  C   UNL     1      20.157  18.469  21.256  1.00  0.00    -0.000 C 
BRANCH  11  12
ATOM     12  C   UNL     1      19.765  18.611  22.733  1.00  0.00    -0.000 C 
BRANCH  12  13
ATOM     13  C   UNL     1      20.983  18.970  23.593  1.00  0.00    -0.000 C 
BRANCH  13  14
ATOM     14  C   UNL     1      21.063  20.486  23.830  1.00  0.00    -0.000 C 
BRANCH  14  15
ATOM     15  C   UNL     1      22.073  20.861  24.925  1.00  0.00    -0.003 C 
ATOM     16  C   UNL     1      23.521  20.806  24.436  1.00  0.00     0.004 C 
ENDBRANCH  14  15
ENDBRANCH  13  14
ENDBRANCH  12  13
ENDBRANCH  11  12
ENDBRANCH  10  11
ENDBRANCH   1  10
TORSDOF 12
ENDMDL
MODEL 6
REMARK VINA RESULT:    11.737      4.304      7.604
REMARK INTER + INTRA:          19.417
REMARK INTER:                  20.164
REMARK INTRA:                  -0.746
REMARK UNBOUND:                -0.554
REMARK SMILES CCCCCCCCCCCCCC(=O)[O-]
REMARK SMILES IDX 8 1 9 2 10 3 11 4 12 5 13 6 14 7 15 8 16 9 7 10 6 11 5 12
REMARK SMILES IDX 4 13 3 14 2 15 1 16
REMARK H PARENT
REMARK Flexibility Score: inf
ROOT
ATOM      1  C   UNL     1      16.248  17.935  18.889  1.00  0.00     0.000 C 
ENDROOT
BRANCH   1   2
ATOM      2  C   UNL     1      16.509  16.566  19.548  1.00  0.00     0.000 C 
BRANCH   2   3
ATOM      3  C   UNL     1      17.783  16.494  20.409  1.00  0.00     0.000 C 
BRANCH   3   4
ATOM      4  C   UNL     1      18.776  17.627  20.096  1.00  0.00     0.000 C 
BRANCH   4   5
ATOM      5  C   UNL     1      18.923  18.620  21.260  1.00  0.00     0.006 C 
BRANCH   5   6
ATOM      6  C   UNL     1      20.377  18.767  21.728  1.00  0.00     0.053 C 
BRANCH   6   7
ATOM      7  C   UNL     1      20.440  18.825  23.221  1.00  0.00     0.041 C 
ATOM      8  O   UNL     1      19.765  18.022  23.916  1.00  0.00    -0.550 OA
ATOM      9  O   UNL     1      21.207  19.799  23.847  1.00  0.00    -0.550 OA
ENDBRANCH   6   7
ENDBRANCH   5   6
ENDBRANCH   4   5
ENDBRANCH   3   4
ENDBRANCH   2   3
ENDBRANCH   1   2
BRANCH   1  10
ATOM     10  C   UNL     1      16.095  17.905  17.354  1.00  0.00     0.000 C 
BRANCH  10  11
ATOM     11  C   UNL     1      17.354  17.473  16.584  1.00  0.00    -0.000 C 
BRANCH  11  12
ATOM     12  C   UNL     1      17.042  16.958  15.172  1.00  0.00    -0.000 C 
BRANCH  12  13
ATOM     13  C   UNL     1      17.813  17.757  14.113  1.00  0.00    -0.000 C 
BRANCH  13  14
ATOM     14  C   UNL     1      17.709  19.267  14.379  1.00  0.00    -0.000 C 
BRANCH  14  15
ATOM     15  C   UNL     1      18.942  20.039  13.884  1.00  0.00    -0.003 C 
ATOM     16  C   UNL     1      19.102  21.396  14.571  1.00  0.00     0.004 C 
ENDBRANCH  14  15
ENDBRANCH  13  14
ENDBRANCH  12  13
ENDBRANCH  11  12
ENDBRANCH  10  11
ENDBRANCH   1  10
TORSDOF 12
ENDMDL
MODEL 7
REMARK VINA RESULT:    11.752      3.527      6.868
REMARK INTER + INTRA:          19.442
REMARK INTER:                  19.626
REMARK INTRA:                  -0.185
REMARK UNBOUND:                -0.554
REMARK SMILES CCCCCCCCCCCCCC(=O)[O-]
REMARK SMILES IDX 8 1 9 2 10 3 11 4 12 5 13 6 14 7 15 8 16 9 7 10 6 11 5 12
REMARK SMILES IDX 4 13 3 14 2 15 1 16
REMARK H PARENT
REMARK Flexibility Score: inf
ROOT
ATOM      1  C   UNL     1      16.853  17.113  17.175  1.00  0.00     0.000 C 
ENDROOT
BRANCH   1   2
ATOM      2  C   UNL     1      16.242  18.225  18.051  1.00  0.00     0.000 C 
BRANCH   2   3
ATOM      3  C   UNL     1      15.746  17.762  19.432  1.00  0.00     0.000 C 
BRANCH   3   4
ATOM      4  C   UNL     1      16.603  16.628  20.022  1.00  0.00     0.000 C 
BRANCH   4   5
ATOM      5  C   UNL     1      17.884  17.147  20.694  1.00  0.00     0.006 C 
BRANCH   5   6
ATOM      6  C   UNL     1      18.971  17.523  19.678  1.00  0.00     0.053 C 
BRANCH   6   7
ATOM      7  C   UNL     1      20.148  18.128  20.374  1.00  0.00     0.041 C 
ATOM      8  O   UNL     1      21.306  17.988  19.900  1.00  0.00    -0.550 OA
ATOM      9  O   UNL     1      19.974  18.805  21.575  1.00  0.00    -0.550 OA
ENDBRANCH   6   7
ENDBRANCH   5   6
ENDBRANCH   4   5
ENDBRANCH   3   4
ENDBRANCH   2   3
ENDBRANCH   1   2
BRANCH   1  10
ATOM     10  C   UNL     1      16.418  17.131  15.695  1.00  0.00     0.000 C 
BRANCH  10  11
ATOM     11  C   UNL     1      17.518  16.743  14.691  1.00  0.00    -0.000 C 
BRANCH  11  12
ATOM     12  C   UNL     1      18.029  17.939  13.876  1.00  0.00    -0.000 C 
BRANCH  12  13
ATOM     13  C   UNL     1      17.943  19.237  14.689  1.00  0.00    -0.000 C 
BRANCH  13  14
ATOM     14  C   UNL     1      18.496  20.426  13.889  1.00  0.00    -0.000 C 
BRANCH  14  15
ATOM     15  C   UNL     1      19.577  21.203  14.657  1.00  0.00    -0.003 C 
ATOM     16  C   UNL     1      19.490  22.713  14.432  1.00  0.00     0.004 C 
ENDBRANCH  14  15
ENDBRANCH  13  14
ENDBRANCH  12  13
ENDBRANCH  11  12
ENDBRANCH  10  11
ENDBRANCH   1  10
TORSDOF 12
ENDMDL
MODEL 8
REMARK VINA RESULT:    11.900      4.052      7.943
REMARK INTER + INTRA:          19.695
REMARK INTER:                  20.210
REMARK INTRA:                  -0.515
REMARK UNBOUND:                -0.554
REMARK SMILES CCCCCCCCCCCCCC(=O)[O-]
REMARK SMILES IDX 8 1 9 2 10 3 11 4 12 5 13 6 14 7 15 8 16 9 7 10 6 11 5 12
REMARK SMILES IDX 4 13 3 14 2 15 1 16
REMARK H PARENT
REMARK Flexibility Score: inf
ROOT
ATOM      1  C   UNL     1      17.282  17.910  19.852  1.00  0.00     0.000 C 
ENDROOT
BRANCH   1   2
ATOM      2  C   UNL     1      18.659  17.280  20.142  1.00  0.00     0.000 C 
BRANCH   2   3
ATOM      3  C   UNL     1      19.773  18.287  20.478  1.00  0.00     0.000 C 
BRANCH   3   4
ATOM      4  C   UNL     1      21.152  17.844  19.959  1.00  0.00     0.000 C 
BRANCH   4   5
ATOM      5  C   UNL     1      22.183  17.685  21.088  1.00  0.00     0.006 C 
BRANCH   5   6
ATOM      6  C   UNL     1      23.621  17.929  20.610  1.00  0.00     0.053 C 
BRANCH   6   7
ATOM      7  C   UNL     1      24.524  18.168  21.778  1.00  0.00     0.041 C 
ATOM      8  O   UNL     1      24.936  17.202  22.470  1.00  0.00    -0.550 OA
ATOM      9  O   UNL     1      24.872  19.466  22.133  1.00  0.00    -0.550 OA
ENDBRANCH   6   7
ENDBRANCH   5   6
ENDBRANCH   4   5
ENDBRANCH   3   4
ENDBRANCH   2   3
ENDBRANCH   1   2
BRANCH   1  10
ATOM     10  C   UNL     1      16.456  17.204  18.757  1.00  0.00     0.000 C 
BRANCH  10  11
ATOM     11  C   UNL     1      16.567  17.829  17.355  1.00  0.00    -0.000 C 
BRANCH  11  12
ATOM     12  C   UNL     1      17.593  17.116  16.464  1.00  0.00    -0.000 C 
BRANCH  12  13
ATOM     13  C   UNL     1      17.251  17.295  14.980  1.00  0.00    -0.000 C 
BRANCH  13  14
ATOM     14  C   UNL     1      17.140  18.783  14.615  1.00  0.00    -0.000 C 
BRANCH  14  15
ATOM     15  C   UNL     1      18.381  19.304  13.875  1.00  0.00    -0.003 C 
ATOM     16  C   UNL     1      18.845  20.668  14.387  1.00  0.00     0.004 C 
ENDBRANCH  14  15
ENDBRANCH  13  14
ENDBRANCH  12  13
ENDBRANCH  11  12
ENDBRANCH  10  11
ENDBRANCH   1  10
TORSDOF 12
ENDMDL
MODEL 9
REMARK VINA RESULT:    12.124      2.305      2.851
REMARK INTER + INTRA:          20.075
REMARK INTER:                  20.625
REMARK INTRA:                  -0.550
REMARK UNBOUND:                -0.554
REMARK SMILES CCCCCCCCCCCCCC(=O)[O-]
REMARK SMILES IDX 8 1 9 2 10 3 11 4 12 5 13 6 14 7 15 8 16 9 7 10 6 11 5 12
REMARK SMILES IDX 4 13 3 14 2 15 1 16
REMARK H PARENT
REMARK Flexibility Score: inf
ROOT
ATOM      1  C   UNL     1      17.213  16.758  19.454  1.00  0.00     0.000 C 
ENDROOT
BRANCH   1   2
ATOM      2  C   UNL     1      16.054  17.594  18.874  1.00  0.00     0.000 C 
BRANCH   2   3
ATOM      3  C   UNL     1      16.292  18.129  17.450  1.00  0.00     0.000 C 
BRANCH   3   4
ATOM      4  C   UNL     1      17.313  17.290  16.662  1.00  0.00     0.000 C 
BRANCH   4   5
ATOM      5  C   UNL     1      16.930  17.134  15.182  1.00  0.00     0.006 C 
BRANCH   5   6
ATOM      6  C   UNL     1      17.965  17.759  14.237  1.00  0.00     0.053 C 
BRANCH   6   7
ATOM      7  C   UNL     1      17.935  19.250  14.344  1.00  0.00     0.041 C 
ATOM      8  O   UNL     1      16.854  19.847  14.588  1.00  0.00    -0.550 OA
ATOM      9  O   UNL     1      19.093  19.986  14.124  1.00  0.00    -0.550 OA
ENDBRANCH   6   7
ENDBRANCH   5   6
ENDBRANCH   4   5
ENDBRANCH   3   4
ENDBRANCH   2   3
ENDBRANCH   1   2
BRANCH   1  10
ATOM     10  C   UNL     1      18.075  17.478  20.511  1.00  0.00     0.000 C 
BRANCH  10  11
ATOM     11  C   UNL     1      19.387  18.079  19.980  1.00  0.00    -0.000 C 
BRANCH  11  12
ATOM     12  C   UNL     1      20.440  18.280  21.079  1.00  0.00    -0.000 C 
BRANCH  12  13
ATOM     13  C   UNL     1      19.835  18.993  22.295  1.00  0.00    -0.000 C 
BRANCH  13  14
ATOM     14  C   UNL     1      20.842  19.054  23.454  1.00  0.00    -0.000 C 
BRANCH  14  15
ATOM     15  C   UNL     1      21.181  20.494  23.866  1.00  0.00    -0.003 C 
ATOM     16  C   UNL     1      22.430  20.579  24.744  1.00  0.00     0.004 C 
ENDBRANCH  14  15
ENDBRANCH  13  14
ENDBRANCH  12  13
ENDBRANCH  11  12
ENDBRANCH  10  11
ENDBRANCH   1  10
TORSDOF 12
ENDMDL
