MODEL 1
REMARK VINA RESULT:    -4.960      0.000      0.000
REMARK INTER + INTRA:          -7.005
REMARK INTER:                  -6.120
REMARK INTRA:                  -0.886
REMARK UNBOUND:                -0.886
REMARK SMILES CC(C)=CCC[C@H](C)c1ccc(C)cc1
REMARK SMILES IDX 6 1 7 2 8 3 9 4 13 5 12 6 11 7 14 8 10 9 15 10 5 11 4 12
REMARK SMILES IDX 2 13 1 14 3 15
REMARK H PARENT
REMARK Flexibility Score: inf
ROOT
ATOM      1  C   UNL     1     -13.886 -12.432  -0.041  1.00  0.00     0.012 C 
ENDROOT
BRANCH   1   2
ATOM      2  C   UNL     1     -14.910 -12.900   1.026  1.00  0.00     0.016 C 
ATOM      3  C   UNL     1     -16.125 -11.965   1.153  1.00  0.00     0.013 C 
BRANCH   2   4
ATOM      4  C   UNL     1     -14.255 -13.244   2.356  1.00  0.00    -0.045 A 
ATOM      5  C   UNL     1     -12.522 -14.156   6.209  1.00  0.00     0.044 C 
ATOM      6  C   UNL     1     -13.152 -13.853   4.883  1.00  0.00    -0.051 A 
ATOM      7  C   UNL     1     -13.061 -14.775   3.830  1.00  0.00     0.004 A 
ATOM      8  C   UNL     1     -13.784 -12.620   4.663  1.00  0.00     0.004 A 
ATOM      9  C   UNL     1     -13.617 -14.480   2.582  1.00  0.00     0.004 A 
ATOM     10  C   UNL     1     -14.340 -12.325   3.417  1.00  0.00     0.004 A 
ENDBRANCH   2   4
ENDBRANCH   1   2
BRANCH   1  11
ATOM     11  C   UNL     1     -14.240 -11.149  -0.821  1.00  0.00     0.028 C 
BRANCH  11  12
ATOM     12  C   UNL     1     -13.115 -10.144  -0.866  1.00  0.00    -0.028 C 
ATOM     13  C   UNL     1     -12.871  -9.214   0.083  1.00  0.00    -0.080 C 
ATOM     14  C   UNL     1     -13.756  -9.047   1.297  1.00  0.00     0.039 C 
ATOM     15  C   UNL     1     -11.693  -8.292  -0.106  1.00  0.00     0.039 C 
ENDBRANCH  11  12
ENDBRANCH   1  11
TORSDOF 4
ENDMDL
MODEL 2
REMARK VINA RESULT:    -4.687      2.182      4.602
REMARK INTER + INTRA:          -6.669
REMARK INTER:                  -5.456
REMARK INTRA:                  -1.214
REMARK UNBOUND:                -0.886
REMARK SMILES CC(C)=CCC[C@H](C)c1ccc(C)cc1
REMARK SMILES IDX 6 1 7 2 8 3 9 4 13 5 12 6 11 7 14 8 10 9 15 10 5 11 4 12
REMARK SMILES IDX 2 13 1 14 3 15
REMARK H PARENT
REMARK Flexibility Score: inf
ROOT
ATOM      1  C   UNL     1     -12.864 -14.675   4.264  1.00  0.00     0.012 C 
ENDROOT
BRANCH   1   2
ATOM      2  C   UNL     1     -13.691 -13.856   5.288  1.00  0.00     0.016 C 
ATOM      3  C   UNL     1     -15.183 -14.230   5.303  1.00  0.00     0.013 C 
BRANCH   2   4
ATOM      4  C   UNL     1     -13.432 -12.359   5.188  1.00  0.00    -0.045 A 
ATOM      5  C   UNL     1     -12.855  -8.085   4.906  1.00  0.00     0.044 C 
ATOM      6  C   UNL     1     -13.076  -9.563   5.029  1.00  0.00    -0.051 A 
ATOM      7  C   UNL     1     -12.239 -10.337   5.844  1.00  0.00     0.004 A 
ATOM      8  C   UNL     1     -14.083 -10.193   4.283  1.00  0.00     0.004 A 
ATOM      9  C   UNL     1     -12.421 -11.720   5.933  1.00  0.00     0.004 A 
ATOM     10  C   UNL     1     -14.266 -11.575   4.372  1.00  0.00     0.004 A 
ENDBRANCH   2   4
ENDBRANCH   1   2
BRANCH   1  11
ATOM     11  C   UNL     1     -13.604 -15.138   2.992  1.00  0.00     0.028 C 
BRANCH  11  12
ATOM     12  C   UNL     1     -13.545 -14.136   1.865  1.00  0.00    -0.028 C 
ATOM     13  C   UNL     1     -14.615 -13.499   1.342  1.00  0.00    -0.080 C 
ATOM     14  C   UNL     1     -16.026 -13.769   1.812  1.00  0.00     0.039 C 
ATOM     15  C   UNL     1     -14.383 -12.513   0.226  1.00  0.00     0.039 C 
ENDBRANCH  11  12
ENDBRANCH   1  11
TORSDOF 4
ENDMDL
MODEL 3
REMARK VINA RESULT:    -4.570      1.366      2.960
REMARK INTER + INTRA:          -6.525
REMARK INTER:                  -5.582
REMARK INTRA:                  -0.943
REMARK UNBOUND:                -0.886
REMARK SMILES CC(C)=CCC[C@H](C)c1ccc(C)cc1
REMARK SMILES IDX 6 1 7 2 8 3 9 4 13 5 12 6 11 7 14 8 10 9 15 10 5 11 4 12
REMARK SMILES IDX 2 13 1 14 3 15
REMARK H PARENT
REMARK Flexibility Score: inf
ROOT
ATOM      1  C   UNL     1     -15.199 -14.150   2.273  1.00  0.00     0.012 C 
ENDROOT
BRANCH   1   2
ATOM      2  C   UNL     1     -13.714 -13.838   2.593  1.00  0.00     0.016 C 
ATOM      3  C   UNL     1     -12.747 -14.940   2.128  1.00  0.00     0.013 C 
BRANCH   2   4
ATOM      4  C   UNL     1     -13.504 -13.403   4.037  1.00  0.00    -0.045 A 
ATOM      5  C   UNL     1     -12.774 -12.255   8.140  1.00  0.00     0.044 C 
ATOM      6  C   UNL     1     -12.996 -12.645   6.709  1.00  0.00    -0.051 A 
ATOM      7  C   UNL     1     -13.485 -11.707   5.788  1.00  0.00     0.004 A 
ATOM      8  C   UNL     1     -12.776 -13.966   6.292  1.00  0.00     0.004 A 
ATOM      9  C   UNL     1     -13.726 -12.078   4.462  1.00  0.00     0.004 A 
ATOM     10  C   UNL     1     -13.016 -14.337   4.967  1.00  0.00     0.004 A 
ENDBRANCH   2   4
ENDBRANCH   1   2
BRANCH   1  11
ATOM     11  C   UNL     1     -15.900 -13.213   1.269  1.00  0.00     0.028 C 
BRANCH  11  12
ATOM     12  C   UNL     1     -14.965 -12.626   0.240  1.00  0.00    -0.028 C 
ATOM     13  C   UNL     1     -14.478 -11.366   0.267  1.00  0.00    -0.080 C 
ATOM     14  C   UNL     1     -14.872 -10.371   1.335  1.00  0.00     0.039 C 
ATOM     15  C   UNL     1     -13.540 -10.939  -0.832  1.00  0.00     0.039 C 
ENDBRANCH  11  12
ENDBRANCH   1  11
TORSDOF 4
ENDMDL
MODEL 4
REMARK VINA RESULT:    -4.559      0.970      5.655
REMARK INTER + INTRA:          -6.511
REMARK INTER:                  -5.734
REMARK INTRA:                  -0.777
REMARK UNBOUND:                -0.886
REMARK SMILES CC(C)=CCC[C@H](C)c1ccc(C)cc1
REMARK SMILES IDX 6 1 7 2 8 3 9 4 13 5 12 6 11 7 14 8 10 9 15 10 5 11 4 12
REMARK SMILES IDX 2 13 1 14 3 15
REMARK H PARENT
REMARK Flexibility Score: inf
ROOT
ATOM      1  C   UNL     1     -15.756 -12.137   2.780  1.00  0.00     0.012 C 
ENDROOT
BRANCH   1   2
ATOM      2  C   UNL     1     -15.560 -12.154   1.242  1.00  0.00     0.016 C 
ATOM      3  C   UNL     1     -15.241 -13.553   0.686  1.00  0.00     0.013 C 
BRANCH   2   4
ATOM      4  C   UNL     1     -14.609 -11.068   0.759  1.00  0.00    -0.045 A 
ATOM      5  C   UNL     1     -11.848  -7.976  -0.467  1.00  0.00     0.044 C 
ATOM      6  C   UNL     1     -12.781  -9.066  -0.027  1.00  0.00    -0.051 A 
ATOM      7  C   UNL     1     -13.055 -10.146  -0.877  1.00  0.00     0.004 A 
ATOM      8  C   UNL     1     -13.435  -8.982   1.210  1.00  0.00     0.004 A 
ATOM      9  C   UNL     1     -13.951 -11.145  -0.485  1.00  0.00     0.004 A 
ATOM     10  C   UNL     1     -14.330  -9.980   1.604  1.00  0.00     0.004 A 
ENDBRANCH   2   4
ENDBRANCH   1   2
BRANCH   1  11
ATOM     11  C   UNL     1     -15.758 -13.506   3.491  1.00  0.00     0.028 C 
BRANCH  11  12
ATOM     12  C   UNL     1     -14.797 -13.582   4.652  1.00  0.00    -0.028 C 
ATOM     13  C   UNL     1     -13.588 -14.183   4.617  1.00  0.00    -0.080 C 
ATOM     14  C   UNL     1     -13.081 -14.906   3.390  1.00  0.00     0.039 C 
ATOM     15  C   UNL     1     -12.740 -14.157   5.863  1.00  0.00     0.039 C 
ENDBRANCH  11  12
ENDBRANCH   1  11
TORSDOF 4
ENDMDL
MODEL 5
REMARK VINA RESULT:    -4.455      1.213      2.202
REMARK INTER + INTRA:          -6.383
REMARK INTER:                  -5.597
REMARK INTRA:                  -0.786
REMARK UNBOUND:                -0.886
REMARK SMILES CC(C)=CCC[C@H](C)c1ccc(C)cc1
REMARK SMILES IDX 6 1 7 2 8 3 9 4 13 5 12 6 11 7 14 8 10 9 15 10 5 11 4 12
REMARK SMILES IDX 2 13 1 14 3 15
REMARK H PARENT
REMARK Flexibility Score: inf
ROOT
ATOM      1  C   UNL     1     -13.886 -13.622   1.304  1.00  0.00     0.012 C 
ENDROOT
BRANCH   1   2
ATOM      2  C   UNL     1     -14.501 -14.231   2.591  1.00  0.00     0.016 C 
ATOM      3  C   UNL     1     -16.039 -14.239   2.584  1.00  0.00     0.013 C 
BRANCH   2   4
ATOM      4  C   UNL     1     -13.893 -13.654   3.862  1.00  0.00    -0.045 A 
ATOM      5  C   UNL     1     -12.049 -12.120   7.457  1.00  0.00     0.044 C 
ATOM      6  C   UNL     1     -12.659 -12.650   6.194  1.00  0.00    -0.051 A 
ATOM      7  C   UNL     1     -13.244 -11.773   5.270  1.00  0.00     0.004 A 
ATOM      8  C   UNL     1     -12.706 -14.031   5.955  1.00  0.00     0.004 A 
ATOM      9  C   UNL     1     -13.846 -12.268   4.109  1.00  0.00     0.004 A 
ATOM     10  C   UNL     1     -13.306 -14.526   4.795  1.00  0.00     0.004 A 
ENDBRANCH   2   4
ENDBRANCH   1   2
BRANCH   1  11
ATOM     11  C   UNL     1     -14.798 -12.694   0.475  1.00  0.00     0.028 C 
BRANCH  11  12
ATOM     12  C   UNL     1     -14.037 -11.699  -0.366  1.00  0.00    -0.028 C 
ATOM     13  C   UNL     1     -13.740 -10.436   0.011  1.00  0.00    -0.080 C 
ATOM     14  C   UNL     1     -14.196  -9.859   1.330  1.00  0.00     0.039 C 
ATOM     15  C   UNL     1     -12.957  -9.572  -0.944  1.00  0.00     0.039 C 
ENDBRANCH  11  12
ENDBRANCH   1  11
TORSDOF 4
ENDMDL
MODEL 6
REMARK VINA RESULT:    -4.359      1.407      5.406
REMARK INTER + INTRA:          -6.264
REMARK INTER:                  -5.227
REMARK INTRA:                  -1.036
REMARK UNBOUND:                -0.886
REMARK SMILES CC(C)=CCC[C@H](C)c1ccc(C)cc1
REMARK SMILES IDX 6 1 7 2 8 3 9 4 13 5 12 6 11 7 14 8 10 9 15 10 5 11 4 12
REMARK SMILES IDX 2 13 1 14 3 15
REMARK H PARENT
REMARK Flexibility Score: inf
ROOT
ATOM      1  C   UNL     1     -13.562 -14.671   3.325  1.00  0.00     0.012 C 
ENDROOT
BRANCH   1   2
ATOM      2  C   UNL     1     -14.816 -13.784   3.113  1.00  0.00     0.016 C 
ATOM      3  C   UNL     1     -16.102 -14.595   2.883  1.00  0.00     0.013 C 
BRANCH   2   4
ATOM      4  C   UNL     1     -14.590 -12.683   2.086  1.00  0.00    -0.045 A 
ATOM      5  C   UNL     1     -13.858  -9.482  -0.725  1.00  0.00     0.044 C 
ATOM      6  C   UNL     1     -14.079 -10.595   0.257  1.00  0.00    -0.051 A 
ATOM      7  C   UNL     1     -14.097 -11.927  -0.178  1.00  0.00     0.004 A 
ATOM      8  C   UNL     1     -14.332 -10.309   1.606  1.00  0.00     0.004 A 
ATOM      9  C   UNL     1     -14.339 -12.964   0.728  1.00  0.00     0.004 A 
ATOM     10  C   UNL     1     -14.572 -11.344   2.513  1.00  0.00     0.004 A 
ENDBRANCH   2   4
ENDBRANCH   1   2
BRANCH   1  11
ATOM     11  C   UNL     1     -12.813 -14.500   4.662  1.00  0.00     0.028 C 
BRANCH  11  12
ATOM     12  C   UNL     1     -13.652 -13.865   5.743  1.00  0.00    -0.028 C 
ATOM     13  C   UNL     1     -13.527 -12.589   6.169  1.00  0.00    -0.080 C 
ATOM     14  C   UNL     1     -12.471 -11.655   5.624  1.00  0.00     0.039 C 
ATOM     15  C   UNL     1     -14.457 -12.102   7.251  1.00  0.00     0.039 C 
ENDBRANCH  11  12
ENDBRANCH   1  11
TORSDOF 4
ENDMDL
MODEL 7
REMARK VINA RESULT:    -4.352      2.515      4.762
REMARK INTER + INTRA:          -6.256
REMARK INTER:                  -5.181
REMARK INTRA:                  -1.075
REMARK UNBOUND:                -0.886
REMARK SMILES CC(C)=CCC[C@H](C)c1ccc(C)cc1
REMARK SMILES IDX 6 1 7 2 8 3 9 4 13 5 12 6 11 7 14 8 10 9 15 10 5 11 4 12
REMARK SMILES IDX 2 13 1 14 3 15
REMARK H PARENT
REMARK Flexibility Score: inf
ROOT
ATOM      1  C   UNL     1     -16.125 -13.778   4.704  1.00  0.00     0.012 C 
ENDROOT
BRANCH   1   2
ATOM      2  C   UNL     1     -15.220 -14.226   5.881  1.00  0.00     0.016 C 
ATOM      3  C   UNL     1     -16.007 -14.553   7.162  1.00  0.00     0.013 C 
BRANCH   2   4
ATOM      4  C   UNL     1     -14.041 -13.290   6.105  1.00  0.00    -0.045 A 
ATOM      5  C   UNL     1     -10.600 -10.758   6.763  1.00  0.00     0.044 C 
ATOM      6  C   UNL     1     -11.776 -11.655   6.513  1.00  0.00    -0.051 A 
ATOM      7  C   UNL     1     -12.706 -11.339   5.512  1.00  0.00     0.004 A 
ATOM      8  C   UNL     1     -11.991 -12.783   7.318  1.00  0.00     0.004 A 
ATOM      9  C   UNL     1     -13.822 -12.154   5.301  1.00  0.00     0.004 A 
ATOM     10  C   UNL     1     -13.105 -13.598   7.107  1.00  0.00     0.004 A 
ENDBRANCH   2   4
ENDBRANCH   1   2
BRANCH   1  11
ATOM     11  C   UNL     1     -16.056 -14.628   3.418  1.00  0.00     0.028 C 
BRANCH  11  12
ATOM     12  C   UNL     1     -15.556 -13.861   2.218  1.00  0.00    -0.028 C 
ATOM     13  C   UNL     1     -14.272 -13.831   1.801  1.00  0.00    -0.080 C 
ATOM     14  C   UNL     1     -13.164 -14.542   2.544  1.00  0.00     0.039 C 
ATOM     15  C   UNL     1     -13.939 -13.026   0.571  1.00  0.00     0.039 C 
ENDBRANCH  11  12
ENDBRANCH   1  11
TORSDOF 4
ENDMDL
MODEL 8
REMARK VINA RESULT:    -4.281      1.850      3.732
REMARK INTER + INTRA:          -6.168
REMARK INTER:                  -5.175
REMARK INTRA:                  -0.993
REMARK UNBOUND:                -0.886
REMARK SMILES CC(C)=CCC[C@H](C)c1ccc(C)cc1
REMARK SMILES IDX 6 1 7 2 8 3 9 4 13 5 12 6 11 7 14 8 10 9 15 10 5 11 4 12
REMARK SMILES IDX 2 13 1 14 3 15
REMARK H PARENT
REMARK Flexibility Score: inf
ROOT
ATOM      1  C   UNL     1     -13.485 -14.464   3.240  1.00  0.00     0.012 C 
ENDROOT
BRANCH   1   2
ATOM      2  C   UNL     1     -13.933 -14.419   4.724  1.00  0.00     0.016 C 
ATOM      3  C   UNL     1     -15.442 -14.173   4.894  1.00  0.00     0.013 C 
BRANCH   2   4
ATOM      4  C   UNL     1     -13.061 -13.506   5.574  1.00  0.00    -0.045 A 
ATOM      5  C   UNL     1     -10.685 -10.796   7.960  1.00  0.00     0.044 C 
ATOM      6  C   UNL     1     -11.537 -11.727   7.149  1.00  0.00    -0.051 A 
ATOM      7  C   UNL     1     -11.726 -13.053   7.563  1.00  0.00     0.004 A 
ATOM      8  C   UNL     1     -12.100 -11.298   5.939  1.00  0.00     0.004 A 
ATOM      9  C   UNL     1     -12.490 -13.932   6.790  1.00  0.00     0.004 A 
ATOM     10  C   UNL     1     -12.864 -12.175   5.166  1.00  0.00     0.004 A 
ENDBRANCH   2   4
ENDBRANCH   1   2
BRANCH   1  11
ATOM     11  C   UNL     1     -14.580 -14.229   2.180  1.00  0.00     0.028 C 
BRANCH  11  12
ATOM     12  C   UNL     1     -14.235 -13.145   1.189  1.00  0.00    -0.028 C 
ATOM     13  C   UNL     1     -14.555 -11.840   1.330  1.00  0.00    -0.080 C 
ATOM     14  C   UNL     1     -15.358 -11.327   2.503  1.00  0.00     0.039 C 
ATOM     15  C   UNL     1     -14.122 -10.878   0.253  1.00  0.00     0.039 C 
ENDBRANCH  11  12
ENDBRANCH   1  11
TORSDOF 4
ENDMDL
