MODEL 1
REMARK VINA RESULT:    -4.244      0.000      0.000
REMARK INTER + INTRA:          -6.635
REMARK INTER:                  -5.733
REMARK INTRA:                  -0.902
REMARK UNBOUND:                -0.902
REMARK SMILES CC(=O)CCC=C(C)CCC=C(C)C
REMARK SMILES IDX 7 1 6 2 8 3 9 4 10 5 11 6 13 7 12 8 14 9 5 10 4 11 2 12 3 13
REMARK SMILES IDX 1 14
REMARK H PARENT
REMARK Flexibility Score: inf
ROOT
ATOM      1  C   UNL     1      16.509  61.645  21.524  1.00  0.00    -0.077 C 
ATOM      2  C   UNL     1      17.289  60.991  22.416  1.00  0.00    -0.028 C 
ATOM      3  C   UNL     1      16.379  61.186  20.090  1.00  0.00     0.039 C 
ENDROOT
BRANCH   1   4
ATOM      4  C   UNL     1      15.762  62.883  21.970  1.00  0.00     0.034 C 
BRANCH   4   5
ATOM      5  C   UNL     1      14.254  62.614  22.038  1.00  0.00     0.032 C 
BRANCH   5   6
ATOM      6  C   UNL     1      13.524  63.392  20.973  1.00  0.00    -0.028 C 
ATOM      7  C   UNL     1      11.914  63.781  19.158  1.00  0.00     0.039 C 
ATOM      8  C   UNL     1      12.589  62.870  20.149  1.00  0.00    -0.080 C 
ATOM      9  C   UNL     1      12.220  61.404  20.184  1.00  0.00     0.039 C 
ENDBRANCH   5   6
ENDBRANCH   4   5
ENDBRANCH   1   4
BRANCH   2  10
ATOM     10  C   UNL     1      18.056  59.729  22.114  1.00  0.00     0.035 C 
BRANCH  10  11
ATOM     11  C   UNL     1      17.332  58.502  22.678  1.00  0.00     0.079 C 
BRANCH  11  12
ATOM     12  C   UNL     1      16.747  57.671  21.567  1.00  0.00     0.130 C 
ATOM     13  O   UNL     1      17.466  56.896  20.954  1.00  0.00    -0.300 OA
ATOM     14  C   UNL     1      15.301  57.781  21.185  1.00  0.00     0.087 C 
ENDBRANCH  11  12
ENDBRANCH  10  11
ENDBRANCH   2  10
TORSDOF 6
ENDMDL
MODEL 2
REMARK VINA RESULT:    -4.135      2.904      4.103
REMARK INTER + INTRA:          -6.487
REMARK INTER:                  -5.779
REMARK INTRA:                  -0.708
REMARK UNBOUND:                -0.902
REMARK SMILES CC(=O)CCC=C(C)CCC=C(C)C
REMARK SMILES IDX 7 1 6 2 8 3 9 4 10 5 11 6 13 7 12 8 14 9 5 10 4 11 2 12 3 13
REMARK SMILES IDX 1 14
REMARK H PARENT
REMARK Flexibility Score: inf
ROOT
ATOM      1  C   UNL     1      13.468  62.698  21.918  1.00  0.00    -0.077 C 
ATOM      2  C   UNL     1      14.794  62.626  22.179  1.00  0.00    -0.028 C 
ATOM      3  C   UNL     1      12.943  63.103  20.560  1.00  0.00     0.039 C 
ENDROOT
BRANCH   1   4
ATOM      4  C   UNL     1      12.484  62.383  23.023  1.00  0.00     0.034 C 
BRANCH   4   5
ATOM      5  C   UNL     1      12.572  63.426  24.144  1.00  0.00     0.032 C 
BRANCH   5   6
ATOM      6  C   UNL     1      11.765  64.651  23.798  1.00  0.00    -0.028 C 
ATOM      7  C   UNL     1      11.130  67.025  23.829  1.00  0.00     0.039 C 
ATOM      8  C   UNL     1      11.996  65.886  24.298  1.00  0.00    -0.080 C 
ATOM      9  C   UNL     1      13.082  66.146  25.317  1.00  0.00     0.039 C 
ENDBRANCH   5   6
ENDBRANCH   4   5
ENDBRANCH   1   4
BRANCH   2  10
ATOM     10  C   UNL     1      15.879  62.878  21.162  1.00  0.00     0.035 C 
BRANCH  10  11
ATOM     11  C   UNL     1      16.185  61.606  20.365  1.00  0.00     0.079 C 
BRANCH  11  12
ATOM     12  C   UNL     1      16.750  60.537  21.263  1.00  0.00     0.130 C 
ATOM     13  O   UNL     1      17.797  60.745  21.858  1.00  0.00    -0.300 OA
ATOM     14  C   UNL     1      16.062  59.216  21.436  1.00  0.00     0.087 C 
ENDBRANCH  11  12
ENDBRANCH  10  11
ENDBRANCH   2  10
TORSDOF 6
ENDMDL
MODEL 3
REMARK VINA RESULT:    -4.132     15.576     16.783
REMARK INTER + INTRA:          -6.484
REMARK INTER:                  -5.885
REMARK INTRA:                  -0.598
REMARK UNBOUND:                -0.902
REMARK SMILES CC(=O)CCC=C(C)CCC=C(C)C
REMARK SMILES IDX 7 1 6 2 8 3 9 4 10 5 11 6 13 7 12 8 14 9 5 10 4 11 2 12 3 13
REMARK SMILES IDX 1 14
REMARK H PARENT
REMARK Flexibility Score: inf
ROOT
ATOM      1  C   UNL     1      15.372  52.233  35.421  1.00  0.00    -0.077 C 
ATOM      2  C   UNL     1      16.576  52.345  34.813  1.00  0.00    -0.028 C 
ATOM      3  C   UNL     1      15.247  51.855  36.879  1.00  0.00     0.039 C 
ENDROOT
BRANCH   1   4
ATOM      4  C   UNL     1      14.115  52.473  34.614  1.00  0.00     0.034 C 
BRANCH   4   5
ATOM      5  C   UNL     1      13.911  51.359  33.580  1.00  0.00     0.032 C 
BRANCH   5   6
ATOM      6  C   UNL     1      13.054  50.256  34.145  1.00  0.00    -0.028 C 
ATOM      7  C   UNL     1      12.046  48.019  34.284  1.00  0.00     0.039 C 
ATOM      8  C   UNL     1      12.906  49.036  33.582  1.00  0.00    -0.080 C 
ATOM      9  C   UNL     1      13.564  48.677  32.269  1.00  0.00     0.039 C 
ENDBRANCH   5   6
ENDBRANCH   4   5
ENDBRANCH   1   4
BRANCH   2  10
ATOM     10  C   UNL     1      17.903  52.168  35.507  1.00  0.00     0.035 C 
BRANCH  10  11
ATOM     11  C   UNL     1      18.467  53.519  35.956  1.00  0.00     0.079 C 
BRANCH  11  12
ATOM     12  C   UNL     1      19.102  54.243  34.798  1.00  0.00     0.130 C 
ATOM     13  O   UNL     1      18.589  55.269  34.376  1.00  0.00    -0.300 OA
ATOM     14  C   UNL     1      20.348  53.727  34.141  1.00  0.00     0.087 C 
ENDBRANCH  11  12
ENDBRANCH  10  11
ENDBRANCH   2  10
TORSDOF 6
ENDMDL
MODEL 4
REMARK VINA RESULT:    -4.068      2.227      5.297
REMARK INTER + INTRA:          -6.396
REMARK INTER:                  -5.299
REMARK INTRA:                  -1.098
REMARK UNBOUND:                -0.902
REMARK SMILES CC(=O)CCC=C(C)CCC=C(C)C
REMARK SMILES IDX 7 1 6 2 8 3 9 4 10 5 11 6 13 7 12 8 14 9 5 10 4 11 2 12 3 13
REMARK SMILES IDX 1 14
REMARK H PARENT
REMARK Flexibility Score: inf
ROOT
ATOM      1  C   UNL     1      16.379  61.592  21.308  1.00  0.00    -0.077 C 
ATOM      2  C   UNL     1      15.432  62.325  21.939  1.00  0.00    -0.028 C 
ATOM      3  C   UNL     1      16.278  61.253  19.839  1.00  0.00     0.039 C 
ENDROOT
BRANCH   1   4
ATOM      4  C   UNL     1      17.562  61.080  22.101  1.00  0.00     0.034 C 
BRANCH   4   5
ATOM      5  C   UNL     1      17.180  59.828  22.900  1.00  0.00     0.032 C 
BRANCH   5   6
ATOM      6  C   UNL     1      17.816  58.599  22.302  1.00  0.00    -0.028 C 
ATOM      7  C   UNL     1      17.942  56.536  20.973  1.00  0.00     0.039 C 
ATOM      8  C   UNL     1      17.164  57.697  21.535  1.00  0.00    -0.080 C 
ATOM      9  C   UNL     1      15.685  57.814  21.243  1.00  0.00     0.039 C 
ENDBRANCH   5   6
ENDBRANCH   4   5
ENDBRANCH   1   4
BRANCH   2  10
ATOM     10  C   UNL     1      14.225  62.924  21.262  1.00  0.00     0.035 C 
BRANCH  10  11
ATOM     11  C   UNL     1      12.933  62.455  21.937  1.00  0.00     0.079 C 
BRANCH  11  12
ATOM     12  C   UNL     1      12.476  61.142  21.358  1.00  0.00     0.130 C 
ATOM     13  O   UNL     1      11.879  61.131  20.291  1.00  0.00    -0.300 OA
ATOM     14  C   UNL     1      12.725  59.844  22.068  1.00  0.00     0.087 C 
ENDBRANCH  11  12
ENDBRANCH  10  11
ENDBRANCH   2  10
TORSDOF 6
ENDMDL
MODEL 5
REMARK VINA RESULT:    -4.028     15.158     16.657
REMARK INTER + INTRA:          -6.343
REMARK INTER:                  -5.818
REMARK INTRA:                  -0.525
REMARK UNBOUND:                -0.902
REMARK SMILES CC(=O)CCC=C(C)CCC=C(C)C
REMARK SMILES IDX 7 1 6 2 8 3 9 4 10 5 11 6 13 7 12 8 14 9 5 10 4 11 2 12 3 13
REMARK SMILES IDX 1 14
REMARK H PARENT
REMARK Flexibility Score: inf
ROOT
ATOM      1  C   UNL     1      16.103  52.903  36.178  1.00  0.00    -0.077 C 
ATOM      2  C   UNL     1      15.643  52.558  34.953  1.00  0.00    -0.028 C 
ATOM      3  C   UNL     1      15.283  52.686  37.429  1.00  0.00     0.039 C 
ENDROOT
BRANCH   1   4
ATOM      4  C   UNL     1      17.469  53.542  36.297  1.00  0.00     0.034 C 
BRANCH   4   5
ATOM      5  C   UNL     1      18.535  52.682  35.607  1.00  0.00     0.032 C 
BRANCH   5   6
ATOM      6  C   UNL     1      19.645  53.542  35.060  1.00  0.00    -0.028 C 
ATOM      7  C   UNL     1      21.245  54.382  33.395  1.00  0.00     0.039 C 
ATOM      8  C   UNL     1      20.164  53.423  33.818  1.00  0.00    -0.080 C 
ATOM      9  C   UNL     1      19.702  52.350  32.858  1.00  0.00     0.039 C 
ENDBRANCH   5   6
ENDBRANCH   4   5
ENDBRANCH   1   4
BRANCH   2  10
ATOM     10  C   UNL     1      14.319  51.884  34.698  1.00  0.00     0.035 C 
BRANCH  10  11
ATOM     11  C   UNL     1      14.256  51.328  33.271  1.00  0.00     0.079 C 
BRANCH  11  12
ATOM     12  C   UNL     1      13.148  50.318  33.141  1.00  0.00     0.130 C 
ATOM     13  O   UNL     1      12.583  50.180  32.066  1.00  0.00    -0.300 OA
ATOM     14  C   UNL     1      12.710  49.481  34.306  1.00  0.00     0.087 C 
ENDBRANCH  11  12
ENDBRANCH  10  11
ENDBRANCH   2  10
TORSDOF 6
ENDMDL
MODEL 6
REMARK VINA RESULT:    -3.994     14.959     16.960
REMARK INTER + INTRA:          -6.296
REMARK INTER:                  -5.713
REMARK INTRA:                  -0.583
REMARK UNBOUND:                -0.902
REMARK SMILES CC(=O)CCC=C(C)CCC=C(C)C
REMARK SMILES IDX 7 1 6 2 8 3 9 4 10 5 11 6 13 7 12 8 14 9 5 10 4 11 2 12 3 13
REMARK SMILES IDX 1 14
REMARK H PARENT
REMARK Flexibility Score: inf
ROOT
ATOM      1  C   UNL     1      14.389  52.698  34.459  1.00  0.00    -0.077 C 
ATOM      2  C   UNL     1      15.091  52.040  35.411  1.00  0.00    -0.028 C 
ATOM      3  C   UNL     1      14.667  54.143  34.118  1.00  0.00     0.039 C 
ENDROOT
BRANCH   1   4
ATOM      4  C   UNL     1      13.279  51.972  33.731  1.00  0.00     0.034 C 
BRANCH   4   5
ATOM      5  C   UNL     1      13.646  50.499  33.510  1.00  0.00     0.032 C 
BRANCH   5   6
ATOM      6  C   UNL     1      12.585  49.593  34.081  1.00  0.00    -0.028 C 
ATOM      7  C   UNL     1      11.442  47.472  34.564  1.00  0.00     0.039 C 
ATOM      8  C   UNL     1      12.542  48.255  33.897  1.00  0.00    -0.080 C 
ATOM      9  C   UNL     1      13.552  47.533  33.034  1.00  0.00     0.039 C 
ENDBRANCH   5   6
ENDBRANCH   4   5
ENDBRANCH   1   4
BRANCH   2  10
ATOM     10  C   UNL     1      16.241  52.632  36.185  1.00  0.00     0.035 C 
BRANCH  10  11
ATOM     11  C   UNL     1      17.572  52.360  35.477  1.00  0.00     0.079 C 
BRANCH  11  12
ATOM     12  C   UNL     1      18.353  53.635  35.301  1.00  0.00     0.130 C 
ATOM     13  O   UNL     1      17.846  54.700  35.623  1.00  0.00    -0.300 OA
ATOM     14  C   UNL     1      19.739  53.631  34.729  1.00  0.00     0.087 C 
ENDBRANCH  11  12
ENDBRANCH  10  11
ENDBRANCH   2  10
TORSDOF 6
ENDMDL
MODEL 7
REMARK VINA RESULT:    -3.901     14.960     16.152
REMARK INTER + INTRA:          -6.171
REMARK INTER:                  -5.006
REMARK INTRA:                  -1.165
REMARK UNBOUND:                -0.902
REMARK SMILES CC(=O)CCC=C(C)CCC=C(C)C
REMARK SMILES IDX 7 1 6 2 8 3 9 4 10 5 11 6 13 7 12 8 14 9 5 10 4 11 2 12 3 13
REMARK SMILES IDX 1 14
REMARK H PARENT
REMARK Flexibility Score: inf
ROOT
ATOM      1  C   UNL     1      15.322  53.647  36.347  1.00  0.00    -0.077 C 
ATOM      2  C   UNL     1      16.503  54.021  35.801  1.00  0.00    -0.028 C 
ATOM      3  C   UNL     1      15.245  52.632  37.463  1.00  0.00     0.039 C 
ENDROOT
BRANCH   1   4
ATOM      4  C   UNL     1      14.041  54.247  35.809  1.00  0.00     0.034 C 
BRANCH   4   5
ATOM      5  C   UNL     1      13.911  53.992  34.303  1.00  0.00     0.032 C 
BRANCH   5   6
ATOM      6  C   UNL     1      13.359  52.614  34.040  1.00  0.00    -0.028 C 
ATOM      7  C   UNL     1      13.391  50.263  33.326  1.00  0.00     0.039 C 
ATOM      8  C   UNL     1      14.065  51.600  33.492  1.00  0.00    -0.080 C 
ATOM      9  C   UNL     1      15.493  51.776  33.031  1.00  0.00     0.039 C 
ENDBRANCH   5   6
ENDBRANCH   4   5
ENDBRANCH   1   4
BRANCH   2  10
ATOM     10  C   UNL     1      17.851  53.529  36.264  1.00  0.00     0.035 C 
BRANCH  10  11
ATOM     11  C   UNL     1      18.368  52.416  35.348  1.00  0.00     0.079 C 
BRANCH  11  12
ATOM     12  C   UNL     1      19.370  52.959  34.363  1.00  0.00     0.130 C 
ATOM     13  O   UNL     1      20.081  53.900  34.685  1.00  0.00    -0.300 OA
ATOM     14  C   UNL     1      19.508  52.379  32.987  1.00  0.00     0.087 C 
ENDBRANCH  11  12
ENDBRANCH  10  11
ENDBRANCH   2  10
TORSDOF 6
ENDMDL
MODEL 8
REMARK VINA RESULT:    -3.881     13.408     16.023
REMARK INTER + INTRA:          -6.144
REMARK INTER:                  -5.105
REMARK INTRA:                  -1.039
REMARK UNBOUND:                -0.902
REMARK SMILES CC(=O)CCC=C(C)CCC=C(C)C
REMARK SMILES IDX 7 1 6 2 8 3 9 4 10 5 11 6 13 7 12 8 14 9 5 10 4 11 2 12 3 13
REMARK SMILES IDX 1 14
REMARK H PARENT
REMARK Flexibility Score: inf
ROOT
ATOM      1  C   UNL     1      19.229  54.126  34.759  1.00  0.00    -0.077 C 
ATOM      2  C   UNL     1      18.704  53.245  35.643  1.00  0.00    -0.028 C 
ATOM      3  C   UNL     1      18.624  55.492  34.540  1.00  0.00     0.039 C 
ENDROOT
BRANCH   1   4
ATOM      4  C   UNL     1      20.445  53.722  33.954  1.00  0.00     0.034 C 
BRANCH   4   5
ATOM      5  C   UNL     1      20.103  52.579  32.990  1.00  0.00     0.032 C 
BRANCH   5   6
ATOM      6  C   UNL     1      19.373  53.102  31.779  1.00  0.00    -0.028 C 
ATOM      7  C   UNL     1      17.455  53.531  30.304  1.00  0.00     0.039 C 
ATOM      8  C   UNL     1      18.056  52.914  31.539  1.00  0.00    -0.080 C 
ATOM      9  C   UNL     1      17.184  52.094  32.462  1.00  0.00     0.039 C 
ENDBRANCH   5   6
ENDBRANCH   4   5
ENDBRANCH   1   4
BRANCH   2  10
ATOM     10  C   UNL     1      17.521  53.532  36.532  1.00  0.00     0.035 C 
BRANCH  10  11
ATOM     11  C   UNL     1      16.308  52.695  36.112  1.00  0.00     0.079 C 
BRANCH  11  12
ATOM     12  C   UNL     1      15.184  52.851  37.102  1.00  0.00     0.130 C 
ATOM     13  O   UNL     1      14.502  53.865  37.081  1.00  0.00    -0.300 OA
ATOM     14  C   UNL     1      14.888  51.794  38.123  1.00  0.00     0.087 C 
ENDBRANCH  11  12
ENDBRANCH  10  11
ENDBRANCH   2  10
TORSDOF 6
ENDMDL
