MODEL 1
REMARK VINA RESULT:    -3.271      0.000      0.000
REMARK INTER + INTRA:          -4.340
REMARK INTER:                  -4.036
REMARK INTRA:                  -0.304
REMARK UNBOUND:                -0.304
REMARK SMILES C=CCc1ccc(OC)c(OC)c1
REMARK SMILES IDX 7 1 10 2 13 3 4 4 5 5 6 6 8 7 9 8 11 9 12 10 3 11 2 12 1 13
REMARK H PARENT
REMARK Flexibility Score: inf
ROOT
ATOM      1  C   UNL     1     137.009 147.462 144.069  1.00  0.00     0.160 A 
ATOM      2  C   UNL     1     137.347 146.106 144.192  1.00  0.00     0.160 A 
ATOM      3  C   UNL     1     138.627 145.745 144.659  1.00  0.00     0.054 A 
ATOM      4  C   UNL     1     139.562 146.731 145.007  1.00  0.00    -0.040 A 
ATOM      5  C   UNL     1     139.221 148.083 144.871  1.00  0.00     0.008 A 
ATOM      6  C   UNL     1     137.955 148.448 144.411  1.00  0.00     0.051 A 
ENDROOT
BRANCH   1   7
ATOM      7  O   UNL     1     135.726 147.791 143.603  1.00  0.00    -0.493 OA
ATOM      8  C   UNL     1     134.628 148.137 144.441  1.00  0.00     0.278 C 
ENDBRANCH   1   7
BRANCH   2   9
ATOM      9  O   UNL     1     136.386 145.146 143.837  1.00  0.00    -0.493 OA
ATOM     10  C   UNL     1     135.705 144.305 144.764  1.00  0.00     0.278 C 
ENDBRANCH   2   9
BRANCH   4  11
ATOM     11  C   UNL     1     140.940 146.343 145.475  1.00  0.00     0.062 C 
BRANCH  11  12
ATOM     12  C   UNL     1     141.948 147.391 145.091  1.00  0.00    -0.030 C 
ATOM     13  C   UNL     1     143.255 147.119 145.029  1.00  0.00     0.004 C 
ENDBRANCH  11  12
ENDBRANCH   4  11
TORSDOF 4
ENDMDL
MODEL 2
REMARK VINA RESULT:    -3.266      7.006      9.994
REMARK INTER + INTRA:          -4.334
REMARK INTER:                  -4.024
REMARK INTRA:                  -0.310
REMARK UNBOUND:                -0.304
REMARK SMILES C=CCc1ccc(OC)c(OC)c1
REMARK SMILES IDX 7 1 10 2 13 3 4 4 5 5 6 6 8 7 9 8 11 9 12 10 3 11 2 12 1 13
REMARK H PARENT
REMARK Flexibility Score: inf
ROOT
ATOM      1  C   UNL     1     134.157 137.024 144.113  1.00  0.00     0.160 A 
ATOM      2  C   UNL     1     135.511 137.383 144.206  1.00  0.00     0.160 A 
ATOM      3  C   UNL     1     135.861 138.672 144.655  1.00  0.00     0.054 A 
ATOM      4  C   UNL     1     134.868 139.595 145.016  1.00  0.00    -0.040 A 
ATOM      5  C   UNL     1     133.519 139.232 144.911  1.00  0.00     0.008 A 
ATOM      6  C   UNL     1     133.164 137.957 144.468  1.00  0.00     0.051 A 
ENDROOT
BRANCH   1   7
ATOM      7  O   UNL     1     133.838 135.732 143.664  1.00  0.00    -0.493 OA
ATOM      8  C   UNL     1     133.472 134.650 144.514  1.00  0.00     0.278 C 
ENDBRANCH   1   7
BRANCH   2   9
ATOM      9  O   UNL     1     136.478 136.433 143.840  1.00  0.00    -0.493 OA
ATOM     10  C   UNL     1     137.291 135.713 144.760  1.00  0.00     0.278 C 
ENDBRANCH   2   9
BRANCH   4  11
ATOM     11  C   UNL     1     135.244 140.982 145.465  1.00  0.00     0.062 C 
BRANCH  11  12
ATOM     12  C   UNL     1     134.188 141.975 145.070  1.00  0.00    -0.030 C 
ATOM     13  C   UNL     1     134.446 143.285 144.996  1.00  0.00     0.004 C 
ENDBRANCH  11  12
ENDBRANCH   4  11
TORSDOF 4
ENDMDL
MODEL 3
REMARK VINA RESULT:    -3.247     12.068     14.165
REMARK INTER + INTRA:          -4.310
REMARK INTER:                  -4.002
REMARK INTRA:                  -0.308
REMARK UNBOUND:                -0.304
REMARK SMILES C=CCc1ccc(OC)c(OC)c1
REMARK SMILES IDX 7 1 10 2 13 3 4 4 5 5 6 6 8 7 9 8 11 9 12 10 3 11 2 12 1 13
REMARK H PARENT
REMARK Flexibility Score: inf
ROOT
ATOM      1  C   UNL     1     144.583 134.143 144.101  1.00  0.00     0.160 A 
ATOM      2  C   UNL     1     144.233 135.498 144.208  1.00  0.00     0.160 A 
ATOM      3  C   UNL     1     142.946 135.852 144.661  1.00  0.00     0.054 A 
ATOM      4  C   UNL     1     142.016 134.862 145.010  1.00  0.00    -0.040 A 
ATOM      5  C   UNL     1     142.370 133.512 144.890  1.00  0.00     0.008 A 
ATOM      6  C   UNL     1     143.643 133.153 144.444  1.00  0.00     0.051 A 
ENDROOT
BRANCH   1   7
ATOM      7  O   UNL     1     145.873 133.821 143.649  1.00  0.00    -0.493 OA
ATOM      8  C   UNL     1     146.953 133.444 144.496  1.00  0.00     0.278 C 
ENDBRANCH   1   7
BRANCH   2   9
ATOM      9  O   UNL     1     145.189 136.463 143.853  1.00  0.00    -0.493 OA
ATOM     10  C   UNL     1     145.919 137.257 144.783  1.00  0.00     0.278 C 
ENDBRANCH   2   9
BRANCH   4  11
ATOM     11  C   UNL     1     140.631 135.243 145.463  1.00  0.00     0.062 C 
BRANCH  11  12
ATOM     12  C   UNL     1     139.633 134.191 145.068  1.00  0.00    -0.030 C 
ATOM     13  C   UNL     1     138.316 134.410 145.136  1.00  0.00     0.004 C 
ENDBRANCH  11  12
ENDBRANCH   4  11
TORSDOF 4
ENDMDL
MODEL 4
REMARK VINA RESULT:    -3.222      7.022     10.022
REMARK INTER + INTRA:          -4.279
REMARK INTER:                  -3.974
REMARK INTRA:                  -0.305
REMARK UNBOUND:                -0.304
REMARK SMILES C=CCc1ccc(OC)c(OC)c1
REMARK SMILES IDX 7 1 10 2 13 3 4 4 5 5 6 6 8 7 9 8 11 9 12 10 3 11 2 12 1 13
REMARK H PARENT
REMARK Flexibility Score: inf
ROOT
ATOM      1  C   UNL     1     147.455 144.603 144.104  1.00  0.00     0.160 A 
ATOM      2  C   UNL     1     146.104 144.243 144.220  1.00  0.00     0.160 A 
ATOM      3  C   UNL     1     145.762 142.957 144.685  1.00  0.00     0.054 A 
ATOM      4  C   UNL     1     146.762 142.039 145.039  1.00  0.00    -0.040 A 
ATOM      5  C   UNL     1     148.108 142.402 144.910  1.00  0.00     0.008 A 
ATOM      6  C   UNL     1     148.454 143.674 144.451  1.00  0.00     0.051 A 
ENDROOT
BRANCH   1   7
ATOM      7  O   UNL     1     147.765 145.892 143.639  1.00  0.00    -0.493 OA
ATOM      8  C   UNL     1     148.168 146.974 144.471  1.00  0.00     0.278 C 
ENDBRANCH   1   7
BRANCH   2   9
ATOM      9  O   UNL     1     145.130 145.188 143.859  1.00  0.00    -0.493 OA
ATOM     10  C   UNL     1     144.289 145.872 144.783  1.00  0.00     0.278 C 
ENDBRANCH   2   9
BRANCH   4  11
ATOM     11  C   UNL     1     146.394 140.655 145.506  1.00  0.00     0.062 C 
BRANCH  11  12
ATOM     12  C   UNL     1     147.438 139.657 145.089  1.00  0.00    -0.030 C 
ATOM     13  C   UNL     1     147.335 138.361 145.398  1.00  0.00     0.004 C 
ENDBRANCH  11  12
ENDBRANCH   4  11
TORSDOF 4
ENDMDL
MODEL 5
REMARK VINA RESULT:    -3.075      1.590      2.969
REMARK INTER + INTRA:          -4.098
REMARK INTER:                  -3.774
REMARK INTRA:                  -0.324
REMARK UNBOUND:                -0.304
REMARK SMILES C=CCc1ccc(OC)c(OC)c1
REMARK SMILES IDX 7 1 10 2 13 3 4 4 5 5 6 6 8 7 9 8 11 9 12 10 3 11 2 12 1 13
REMARK H PARENT
REMARK Flexibility Score: inf
ROOT
ATOM      1  C   UNL     1     138.591 145.815 144.469  1.00  0.00     0.160 A 
ATOM      2  C   UNL     1     139.063 147.134 144.393  1.00  0.00     0.160 A 
ATOM      3  C   UNL     1     140.246 147.491 145.071  1.00  0.00     0.054 A 
ATOM      4  C   UNL     1     140.957 146.538 145.814  1.00  0.00    -0.040 A 
ATOM      5  C   UNL     1     140.474 145.226 145.893  1.00  0.00     0.008 A 
ATOM      6  C   UNL     1     139.304 144.864 145.223  1.00  0.00     0.051 A 
ENDROOT
BRANCH   1   7
ATOM      7  O   UNL     1     137.411 145.488 143.781  1.00  0.00    -0.493 OA
ATOM      8  C   UNL     1     136.213 145.037 144.404  1.00  0.00     0.278 C 
ENDBRANCH   1   7
BRANCH   2   9
ATOM      9  O   UNL     1     138.328 148.062 143.639  1.00  0.00    -0.493 OA
ATOM     10  C   UNL     1     137.973 149.367 144.087  1.00  0.00     0.278 C 
ENDBRANCH   2   9
BRANCH   4  11
ATOM     11  C   UNL     1     142.203 146.930 146.563  1.00  0.00     0.062 C 
BRANCH  11  12
ATOM     12  C   UNL     1     143.339 147.186 145.613  1.00  0.00    -0.030 C 
ATOM     13  C   UNL     1     143.967 146.188 144.983  1.00  0.00     0.004 C 
ENDBRANCH  11  12
ENDBRANCH   4  11
TORSDOF 4
ENDMDL
MODEL 6
REMARK VINA RESULT:    -3.044      6.511      9.374
REMARK INTER + INTRA:          -4.060
REMARK INTER:                  -3.788
REMARK INTRA:                  -0.272
REMARK UNBOUND:                -0.304
REMARK SMILES C=CCc1ccc(OC)c(OC)c1
REMARK SMILES IDX 7 1 10 2 13 3 4 4 5 5 6 6 8 7 9 8 11 9 12 10 3 11 2 12 1 13
REMARK H PARENT
REMARK Flexibility Score: inf
ROOT
ATOM      1  C   UNL     1     145.193 144.668 144.440  1.00  0.00     0.160 A 
ATOM      2  C   UNL     1     146.579 144.785 144.254  1.00  0.00     0.160 A 
ATOM      3  C   UNL     1     147.406 143.661 144.449  1.00  0.00     0.054 A 
ATOM      4  C   UNL     1     146.855 142.426 144.821  1.00  0.00    -0.040 A 
ATOM      5  C   UNL     1     145.472 142.320 145.014  1.00  0.00     0.008 A 
ATOM      6  C   UNL     1     144.645 143.428 144.822  1.00  0.00     0.051 A 
ENDROOT
BRANCH   1   7
ATOM      7  O   UNL     1     144.393 145.804 144.236  1.00  0.00    -0.493 OA
ATOM      8  C   UNL     1     143.588 146.414 145.239  1.00  0.00     0.278 C 
ENDBRANCH   1   7
BRANCH   2   9
ATOM      9  O   UNL     1     147.096 146.035 143.880  1.00  0.00    -0.493 OA
ATOM     10  C   UNL     1     148.455 146.273 143.524  1.00  0.00     0.278 C 
ENDBRANCH   2   9
BRANCH   4  11
ATOM     11  C   UNL     1     147.745 141.235 145.060  1.00  0.00     0.062 C 
BRANCH  11  12
ATOM     12  C   UNL     1     146.929 140.019 145.398  1.00  0.00    -0.030 C 
ATOM     13  C   UNL     1     147.346 138.786 145.094  1.00  0.00     0.004 C 
ENDBRANCH  11  12
ENDBRANCH   4  11
TORSDOF 4
ENDMDL
MODEL 7
REMARK VINA RESULT:    -3.005      6.701      9.291
REMARK INTER + INTRA:          -4.011
REMARK INTER:                  -3.713
REMARK INTRA:                  -0.297
REMARK UNBOUND:                -0.304
REMARK SMILES C=CCc1ccc(OC)c(OC)c1
REMARK SMILES IDX 7 1 10 2 13 3 4 4 5 5 6 6 8 7 9 8 11 9 12 10 3 11 2 12 1 13
REMARK H PARENT
REMARK Flexibility Score: inf
ROOT
ATOM      1  C   UNL     1     145.393 142.748 144.780  1.00  0.00     0.160 A 
ATOM      2  C   UNL     1     145.771 144.040 144.383  1.00  0.00     0.160 A 
ATOM      3  C   UNL     1     147.137 144.356 144.248  1.00  0.00     0.054 A 
ATOM      4  C   UNL     1     148.121 143.389 144.501  1.00  0.00    -0.040 A 
ATOM      5  C   UNL     1     147.736 142.105 144.907  1.00  0.00     0.008 A 
ATOM      6  C   UNL     1     146.385 141.783 145.042  1.00  0.00     0.051 A 
ENDROOT
BRANCH   1   7
ATOM      7  O   UNL     1     144.024 142.461 144.904  1.00  0.00    -0.493 OA
ATOM      8  C   UNL     1     143.325 142.384 146.142  1.00  0.00     0.278 C 
ENDBRANCH   1   7
BRANCH   2   9
ATOM      9  O   UNL     1     144.760 144.982 144.136  1.00  0.00    -0.493 OA
ATOM     10  C   UNL     1     144.356 145.993 145.055  1.00  0.00     0.278 C 
ENDBRANCH   2   9
BRANCH   4  11
ATOM     11  C   UNL     1     149.581 143.739 144.387  1.00  0.00     0.062 C 
BRANCH  11  12
ATOM     12  C   UNL     1     149.914 144.923 145.250  1.00  0.00    -0.030 C 
ATOM     13  C   UNL     1     150.866 145.798 144.907  1.00  0.00     0.004 C 
ENDBRANCH  11  12
ENDBRANCH   4  11
TORSDOF 4
ENDMDL
MODEL 8
REMARK VINA RESULT:    -2.994     11.649     13.542
REMARK INTER + INTRA:          -3.998
REMARK INTER:                  -3.679
REMARK INTRA:                  -0.319
REMARK UNBOUND:                -0.304
REMARK SMILES C=CCc1ccc(OC)c(OC)c1
REMARK SMILES IDX 7 1 10 2 13 3 4 4 5 5 6 6 8 7 9 8 11 9 12 10 3 11 2 12 1 13
REMARK H PARENT
REMARK Flexibility Score: inf
ROOT
ATOM      1  C   UNL     1     144.554 136.373 144.492  1.00  0.00     0.160 A 
ATOM      2  C   UNL     1     144.627 134.996 144.231  1.00  0.00     0.160 A 
ATOM      3  C   UNL     1     143.483 134.192 144.404  1.00  0.00     0.054 A 
ATOM      4  C   UNL     1     142.272 134.757 144.828  1.00  0.00    -0.040 A 
ATOM      5  C   UNL     1     142.210 136.131 145.096  1.00  0.00     0.008 A 
ATOM      6  C   UNL     1     143.338 136.935 144.926  1.00  0.00     0.051 A 
ENDROOT
BRANCH   1   7
ATOM      7  O   UNL     1     145.709 137.150 144.309  1.00  0.00    -0.493 OA
ATOM      8  C   UNL     1     146.509 137.667 145.366  1.00  0.00     0.278 C 
ENDBRANCH   1   7
BRANCH   2   9
ATOM      9  O   UNL     1     145.855 134.464 143.806  1.00  0.00    -0.493 OA
ATOM     10  C   UNL     1     146.742 133.720 144.634  1.00  0.00     0.278 C 
ENDBRANCH   2   9
BRANCH   4  11
ATOM     11  C   UNL     1     141.060 133.890 145.043  1.00  0.00     0.062 C 
BRANCH  11  12
ATOM     12  C   UNL     1     139.868 134.724 145.422  1.00  0.00    -0.030 C 
ATOM     13  C   UNL     1     138.632 134.404 145.027  1.00  0.00     0.004 C 
ENDBRANCH  11  12
ENDBRANCH   4  11
TORSDOF 4
ENDMDL
MODEL 9
REMARK VINA RESULT:    -2.916     13.906     15.678
REMARK INTER + INTRA:          -3.901
REMARK INTER:                  -3.600
REMARK INTRA:                  -0.301
REMARK UNBOUND:                -0.304
REMARK SMILES C=CCc1ccc(OC)c(OC)c1
REMARK SMILES IDX 7 1 10 2 13 3 4 4 5 5 6 6 8 7 9 8 11 9 12 10 3 11 2 12 1 13
REMARK H PARENT
REMARK Flexibility Score: inf
ROOT
ATOM      1  C   UNL     1     144.370 131.978 145.088  1.00  0.00     0.160 A 
ATOM      2  C   UNL     1     144.134 132.531 146.356  1.00  0.00     0.160 A 
ATOM      3  C   UNL     1     143.172 133.549 146.505  1.00  0.00     0.054 A 
ATOM      4  C   UNL     1     142.443 134.009 145.398  1.00  0.00    -0.040 A 
ATOM      5  C   UNL     1     142.692 133.460 144.134  1.00  0.00     0.008 A 
ATOM      6  C   UNL     1     143.643 132.450 143.978  1.00  0.00     0.051 A 
ENDROOT
BRANCH   1   7
ATOM      7  O   UNL     1     145.334 130.964 144.969  1.00  0.00    -0.493 OA
ATOM      8  C   UNL     1     146.645 131.153 144.448  1.00  0.00     0.278 C 
ENDBRANCH   1   7
BRANCH   2   9
ATOM      9  O   UNL     1     144.879 132.045 147.442  1.00  0.00    -0.493 OA
ATOM     10  C   UNL     1     144.371 131.165 148.440  1.00  0.00     0.278 C 
ENDBRANCH   2   9
BRANCH   4  11
ATOM     11  C   UNL     1     141.438 135.119 145.555  1.00  0.00     0.062 C 
BRANCH  11  12
ATOM     12  C   UNL     1     140.090 134.569 145.927  1.00  0.00    -0.030 C 
ATOM     13  C   UNL     1     139.218 134.159 145.000  1.00  0.00     0.004 C 
ENDBRANCH  11  12
ENDBRANCH   4  11
TORSDOF 4
ENDMDL
