MODEL 1
REMARK VINA RESULT:    -3.709      0.000      0.000
REMARK INTER + INTRA:          -7.363
REMARK INTER:                  -6.528
REMARK INTRA:                  -0.835
REMARK UNBOUND:                -0.835
REMARK SMILES CCCCCCCCCCCCCCC(=O)[O-]
REMARK SMILES IDX 9 1 10 2 11 3 12 4 13 5 14 6 15 7 16 8 17 9 8 10 7 11 6 12
REMARK SMILES IDX 5 13 4 14 3 15 2 16 1 17
REMARK H PARENT
REMARK Flexibility Score: inf
ROOT
ATOM      1  C   UNL     1      16.855   5.466  13.740  1.00  0.00     0.000 C 
ENDROOT
BRANCH   1   2
ATOM      2  C   UNL     1      16.204   4.118  14.096  1.00  0.00     0.000 C 
BRANCH   2   3
ATOM      3  C   UNL     1      15.432   4.096  15.430  1.00  0.00     0.000 C 
BRANCH   3   4
ATOM      4  C   UNL     1      15.236   2.700  16.050  1.00  0.00     0.000 C 
BRANCH   4   5
ATOM      5  C   UNL     1      15.815   1.574  15.178  1.00  0.00     0.006 C 
BRANCH   5   6
ATOM      6  C   UNL     1      15.895   0.239  15.933  1.00  0.00     0.053 C 
BRANCH   6   7
ATOM      7  C   UNL     1      16.516  -0.838  15.097  1.00  0.00     0.041 C 
ATOM      8  O   UNL     1      17.631  -1.325  15.419  1.00  0.00    -0.550 OA
ATOM      9  O   UNL     1      15.849  -1.324  13.980  1.00  0.00    -0.550 OA
ENDBRANCH   6   7
ENDBRANCH   5   6
ENDBRANCH   4   5
ENDBRANCH   3   4
ENDBRANCH   2   3
ENDBRANCH   1   2
BRANCH   1  10
ATOM     10  C   UNL     1      15.977   6.670  14.114  1.00  0.00     0.000 C 
BRANCH  10  11
ATOM     11  C   UNL     1      14.959   6.972  13.007  1.00  0.00    -0.000 C 
BRANCH  11  12
ATOM     12  C   UNL     1      15.082   8.423  12.525  1.00  0.00    -0.000 C 
BRANCH  12  13
ATOM     13  C   UNL     1      16.513   8.974  12.638  1.00  0.00    -0.000 C 
BRANCH  13  14
ATOM     14  C   UNL     1      17.185   9.234  11.273  1.00  0.00    -0.000 C 
BRANCH  14  15
ATOM     15  C   UNL     1      17.840   7.969  10.698  1.00  0.00    -0.000 C 
BRANCH  15  16
ATOM     16  C   UNL     1      18.746   8.309   9.509  1.00  0.00    -0.003 C 
ATOM     17  C   UNL     1      18.070   9.302   8.568  1.00  0.00     0.004 C 
ENDBRANCH  15  16
ENDBRANCH  14  15
ENDBRANCH  13  14
ENDBRANCH  12  13
ENDBRANCH  11  12
ENDBRANCH  10  11
ENDBRANCH   1  10
TORSDOF 13
ENDMDL
MODEL 2
REMARK VINA RESULT:    -3.685      6.913     10.985
REMARK INTER + INTRA:          -7.320
REMARK INTER:                  -6.445
REMARK INTRA:                  -0.875
REMARK UNBOUND:                -0.835
REMARK SMILES CCCCCCCCCCCCCCC(=O)[O-]
REMARK SMILES IDX 9 1 10 2 11 3 12 4 13 5 14 6 15 7 16 8 17 9 8 10 7 11 6 12
REMARK SMILES IDX 5 13 4 14 3 15 2 16 1 17
REMARK H PARENT
REMARK Flexibility Score: inf
ROOT
ATOM      1  C   UNL     1      16.051  -5.152  12.952  1.00  0.00     0.000 C 
ENDROOT
BRANCH   1   2
ATOM      2  C   UNL     1      15.646  -6.327  12.045  1.00  0.00     0.000 C 
BRANCH   2   3
ATOM      3  C   UNL     1      15.128  -5.928  10.649  1.00  0.00     0.000 C 
BRANCH   3   4
ATOM      4  C   UNL     1      15.253  -7.018   9.568  1.00  0.00     0.000 C 
BRANCH   4   5
ATOM      5  C   UNL     1      16.272  -6.659   8.474  1.00  0.00     0.006 C 
BRANCH   5   6
ATOM      6  C   UNL     1      16.938  -5.300   8.727  1.00  0.00     0.053 C 
BRANCH   6   7
ATOM      7  C   UNL     1      18.075  -5.052   7.783  1.00  0.00     0.041 C 
ATOM      8  O   UNL     1      18.221  -3.920   7.251  1.00  0.00    -0.550 OA
ATOM      9  O   UNL     1      18.990  -6.061   7.515  1.00  0.00    -0.550 OA
ENDBRANCH   6   7
ENDBRANCH   5   6
ENDBRANCH   4   5
ENDBRANCH   3   4
ENDBRANCH   2   3
ENDBRANCH   1   2
BRANCH   1  10
ATOM     10  C   UNL     1      16.759  -5.606  14.237  1.00  0.00     0.000 C 
BRANCH  10  11
ATOM     11  C   UNL     1      15.860  -5.401  15.462  1.00  0.00    -0.000 C 
BRANCH  11  12
ATOM     12  C   UNL     1      16.089  -4.021  16.091  1.00  0.00    -0.000 C 
BRANCH  12  13
ATOM     13  C   UNL     1      14.780  -3.284  16.415  1.00  0.00    -0.000 C 
BRANCH  13  14
ATOM     14  C   UNL     1      14.743  -1.830  15.897  1.00  0.00    -0.000 C 
BRANCH  14  15
ATOM     15  C   UNL     1      15.420  -1.685  14.526  1.00  0.00    -0.000 C 
BRANCH  15  16
ATOM     16  C   UNL     1      16.560  -0.663  14.579  1.00  0.00    -0.003 C 
ATOM     17  C   UNL     1      16.110   0.632  15.250  1.00  0.00     0.004 C 
ENDBRANCH  15  16
ENDBRANCH  14  15
ENDBRANCH  13  14
ENDBRANCH  12  13
ENDBRANCH  11  12
ENDBRANCH  10  11
ENDBRANCH   1  10
TORSDOF 13
ENDMDL
MODEL 3
REMARK VINA RESULT:    -3.665     11.687     13.945
REMARK INTER + INTRA:          -7.286
REMARK INTER:                  -4.806
REMARK INTRA:                  -2.479
REMARK UNBOUND:                -0.835
REMARK SMILES CCCCCCCCCCCCCCC(=O)[O-]
REMARK SMILES IDX 9 1 10 2 11 3 12 4 13 5 14 6 15 7 16 8 17 9 8 10 7 11 6 12
REMARK SMILES IDX 5 13 4 14 3 15 2 16 1 17
REMARK H PARENT
REMARK Flexibility Score: inf
ROOT
ATOM      1  C   UNL     1      27.080  -1.407   6.200  1.00  0.00     0.000 C 
ENDROOT
BRANCH   1   2
ATOM      2  C   UNL     1      25.711  -1.366   6.900  1.00  0.00     0.000 C 
BRANCH   2   3
ATOM      3  C   UNL     1      24.850  -0.127   6.583  1.00  0.00     0.000 C 
BRANCH   3   4
ATOM      4  C   UNL     1      25.127   0.530   5.218  1.00  0.00     0.000 C 
BRANCH   4   5
ATOM      5  C   UNL     1      25.577   1.995   5.343  1.00  0.00     0.006 C 
BRANCH   5   6
ATOM      6  C   UNL     1      24.720   2.782   6.344  1.00  0.00     0.053 C 
BRANCH   6   7
ATOM      7  C   UNL     1      23.324   2.988   5.840  1.00  0.00     0.041 C 
ATOM      8  O   UNL     1      23.113   3.725   4.841  1.00  0.00    -0.550 OA
ATOM      9  O   UNL     1      22.259   2.344   6.456  1.00  0.00    -0.550 OA
ENDBRANCH   6   7
ENDBRANCH   5   6
ENDBRANCH   4   5
ENDBRANCH   3   4
ENDBRANCH   2   3
ENDBRANCH   1   2
BRANCH   1  10
ATOM     10  C   UNL     1      28.242  -1.654   7.173  1.00  0.00     0.000 C 
BRANCH  10  11
ATOM     11  C   UNL     1      29.358  -0.623   6.970  1.00  0.00    -0.000 C 
BRANCH  11  12
ATOM     12  C   UNL     1      28.792   0.709   6.458  1.00  0.00    -0.000 C 
BRANCH  12  13
ATOM     13  C   UNL     1      29.109   1.892   7.387  1.00  0.00    -0.000 C 
BRANCH  13  14
ATOM     14  C   UNL     1      28.641   1.679   8.842  1.00  0.00    -0.000 C 
BRANCH  14  15
ATOM     15  C   UNL     1      27.110   1.612   8.956  1.00  0.00    -0.000 C 
BRANCH  15  16
ATOM     16  C   UNL     1      26.677   0.493   9.910  1.00  0.00    -0.003 C 
ATOM     17  C   UNL     1      27.876  -0.100  10.644  1.00  0.00     0.004 C 
ENDBRANCH  15  16
ENDBRANCH  14  15
ENDBRANCH  13  14
ENDBRANCH  12  13
ENDBRANCH  11  12
ENDBRANCH  10  11
ENDBRANCH   1  10
TORSDOF 13
ENDMDL
MODEL 4
REMARK VINA RESULT:    -3.606      8.953     13.188
REMARK INTER + INTRA:          -7.181
REMARK INTER:                  -6.268
REMARK INTRA:                  -0.914
REMARK UNBOUND:                -0.835
REMARK SMILES CCCCCCCCCCCCCCC(=O)[O-]
REMARK SMILES IDX 9 1 10 2 11 3 12 4 13 5 14 6 15 7 16 8 17 9 8 10 7 11 6 12
REMARK SMILES IDX 5 13 4 14 3 15 2 16 1 17
REMARK H PARENT
REMARK Flexibility Score: inf
ROOT
ATOM      1  C   UNL     1      22.719  11.331   5.840  1.00  0.00     0.000 C 
ENDROOT
BRANCH   1   2
ATOM      2  C   UNL     1      24.172  11.436   5.344  1.00  0.00     0.000 C 
BRANCH   2   3
ATOM      3  C   UNL     1      24.940  10.101   5.282  1.00  0.00     0.000 C 
BRANCH   3   4
ATOM      4  C   UNL     1      25.559   9.639   6.614  1.00  0.00     0.000 C 
BRANCH   4   5
ATOM      5  C   UNL     1      27.095   9.716   6.616  1.00  0.00     0.006 C 
BRANCH   5   6
ATOM      6  C   UNL     1      27.637  10.491   5.408  1.00  0.00     0.053 C 
BRANCH   6   7
ATOM      7  C   UNL     1      28.146  11.845   5.797  1.00  0.00     0.041 C 
ATOM      8  O   UNL     1      29.045  12.404   5.115  1.00  0.00    -0.550 OA
ATOM      9  O   UNL     1      27.608  12.503   6.895  1.00  0.00    -0.550 OA
ENDBRANCH   6   7
ENDBRANCH   5   6
ENDBRANCH   4   5
ENDBRANCH   3   4
ENDBRANCH   2   3
ENDBRANCH   1   2
BRANCH   1  10
ATOM     10  C   UNL     1      22.293  12.531   6.699  1.00  0.00     0.000 C 
BRANCH  10  11
ATOM     11  C   UNL     1      21.550  12.070   7.958  1.00  0.00    -0.000 C 
BRANCH  11  12
ATOM     12  C   UNL     1      21.558  10.539   8.074  1.00  0.00    -0.000 C 
BRANCH  12  13
ATOM     13  C   UNL     1      20.174   9.954   8.398  1.00  0.00    -0.000 C 
BRANCH  13  14
ATOM     14  C   UNL     1      19.166  11.002   8.916  1.00  0.00    -0.000 C 
BRANCH  14  15
ATOM     15  C   UNL     1      17.967  10.354   9.625  1.00  0.00    -0.000 C 
BRANCH  15  16
ATOM     16  C   UNL     1      18.253   8.887   9.962  1.00  0.00    -0.003 C 
ATOM     17  C   UNL     1      17.383   8.405  11.118  1.00  0.00     0.004 C 
ENDBRANCH  15  16
ENDBRANCH  14  15
ENDBRANCH  13  14
ENDBRANCH  12  13
ENDBRANCH  11  12
ENDBRANCH  10  11
ENDBRANCH   1  10
TORSDOF 13
ENDMDL
MODEL 5
REMARK VINA RESULT:    -3.519      7.404     11.633
REMARK INTER + INTRA:          -7.028
REMARK INTER:                  -6.208
REMARK INTRA:                  -0.821
REMARK UNBOUND:                -0.835
REMARK SMILES CCCCCCCCCCCCCCC(=O)[O-]
REMARK SMILES IDX 9 1 10 2 11 3 12 4 13 5 14 6 15 7 16 8 17 9 8 10 7 11 6 12
REMARK SMILES IDX 5 13 4 14 3 15 2 16 1 17
REMARK H PARENT
REMARK Flexibility Score: inf
ROOT
ATOM      1  C   UNL     1      21.283  11.835   8.128  1.00  0.00     0.000 C 
ENDROOT
BRANCH   1   2
ATOM      2  C   UNL     1      22.030  10.821   7.243  1.00  0.00     0.000 C 
BRANCH   2   3
ATOM      3  C   UNL     1      23.055  11.435   6.268  1.00  0.00     0.000 C 
BRANCH   3   4
ATOM      4  C   UNL     1      23.486  10.517   5.109  1.00  0.00     0.000 C 
BRANCH   4   5
ATOM      5  C   UNL     1      24.929  10.778   4.648  1.00  0.00     0.006 C 
BRANCH   5   6
ATOM      6  C   UNL     1      25.934  10.672   5.804  1.00  0.00     0.053 C 
BRANCH   6   7
ATOM      7  C   UNL     1      26.544   9.306   5.889  1.00  0.00     0.041 C 
ATOM      8  O   UNL     1      26.432   8.628   6.944  1.00  0.00    -0.550 OA
ATOM      9  O   UNL     1      27.210   8.771   4.794  1.00  0.00    -0.550 OA
ENDBRANCH   6   7
ENDBRANCH   5   6
ENDBRANCH   4   5
ENDBRANCH   3   4
ENDBRANCH   2   3
ENDBRANCH   1   2
BRANCH   1  10
ATOM     10  C   UNL     1      20.032  11.239   8.792  1.00  0.00     0.000 C 
BRANCH  10  11
ATOM     11  C   UNL     1      20.221   9.745   9.079  1.00  0.00    -0.000 C 
BRANCH  11  12
ATOM     12  C   UNL     1      18.964   8.948   8.709  1.00  0.00    -0.000 C 
BRANCH  12  13
ATOM     13  C   UNL     1      18.262   8.332   9.930  1.00  0.00    -0.000 C 
BRANCH  13  14
ATOM     14  C   UNL     1      17.222   9.267  10.584  1.00  0.00    -0.000 C 
BRANCH  14  15
ATOM     15  C   UNL     1      16.953   8.903  12.051  1.00  0.00    -0.000 C 
BRANCH  15  16
ATOM     16  C   UNL     1      17.284  10.076  12.980  1.00  0.00    -0.003 C 
ATOM     17  C   UNL     1      17.903  11.236  12.205  1.00  0.00     0.004 C 
ENDBRANCH  15  16
ENDBRANCH  14  15
ENDBRANCH  13  14
ENDBRANCH  12  13
ENDBRANCH  11  12
ENDBRANCH  10  11
ENDBRANCH   1  10
TORSDOF 13
ENDMDL
MODEL 6
REMARK VINA RESULT:    -3.518     10.249     13.137
REMARK INTER + INTRA:          -7.027
REMARK INTER:                  -5.859
REMARK INTRA:                  -1.167
REMARK UNBOUND:                -0.835
REMARK SMILES CCCCCCCCCCCCCCC(=O)[O-]
REMARK SMILES IDX 9 1 10 2 11 3 12 4 13 5 14 6 15 7 16 8 17 9 8 10 7 11 6 12
REMARK SMILES IDX 5 13 4 14 3 15 2 16 1 17
REMARK H PARENT
REMARK Flexibility Score: inf
ROOT
ATOM      1  C   UNL     1      24.248  -2.544   7.044  1.00  0.00     0.000 C 
ENDROOT
BRANCH   1   2
ATOM      2  C   UNL     1      23.952  -1.087   6.647  1.00  0.00     0.000 C 
BRANCH   2   3
ATOM      3  C   UNL     1      22.927  -0.915   5.509  1.00  0.00     0.000 C 
BRANCH   3   4
ATOM      4  C   UNL     1      21.641  -0.161   5.895  1.00  0.00     0.000 C 
BRANCH   4   5
ATOM      5  C   UNL     1      21.560   1.240   5.266  1.00  0.00     0.006 C 
BRANCH   5   6
ATOM      6  C   UNL     1      22.172   2.318   6.172  1.00  0.00     0.053 C 
BRANCH   6   7
ATOM      7  C   UNL     1      23.173   3.158   5.441  1.00  0.00     0.041 C 
ATOM      8  O   UNL     1      24.271   3.451   5.984  1.00  0.00    -0.550 OA
ATOM      9  O   UNL     1      22.907   3.593   4.149  1.00  0.00    -0.550 OA
ENDBRANCH   6   7
ENDBRANCH   5   6
ENDBRANCH   4   5
ENDBRANCH   3   4
ENDBRANCH   2   3
ENDBRANCH   1   2
BRANCH   1  10
ATOM     10  C   UNL     1      22.977  -3.393   7.190  1.00  0.00     0.000 C 
BRANCH  10  11
ATOM     11  C   UNL     1      22.251  -3.075   8.502  1.00  0.00    -0.000 C 
BRANCH  11  12
ATOM     12  C   UNL     1      20.787  -2.693   8.245  1.00  0.00    -0.000 C 
BRANCH  12  13
ATOM     13  C   UNL     1      20.180  -3.425   7.036  1.00  0.00    -0.000 C 
BRANCH  13  14
ATOM     14  C   UNL     1      19.349  -4.669   7.419  1.00  0.00    -0.000 C 
BRANCH  14  15
ATOM     15  C   UNL     1      17.841  -4.377   7.437  1.00  0.00    -0.000 C 
BRANCH  15  16
ATOM     16  C   UNL     1      17.119  -5.274   8.448  1.00  0.00    -0.003 C 
ATOM     17  C   UNL     1      18.114  -6.016   9.337  1.00  0.00     0.004 C 
ENDBRANCH  15  16
ENDBRANCH  14  15
ENDBRANCH  13  14
ENDBRANCH  12  13
ENDBRANCH  11  12
ENDBRANCH  10  11
ENDBRANCH   1  10
TORSDOF 13
ENDMDL
MODEL 7
REMARK VINA RESULT:    -3.490     11.170     13.048
REMARK INTER + INTRA:          -6.976
REMARK INTER:                  -5.361
REMARK INTRA:                  -1.615
REMARK UNBOUND:                -0.835
REMARK SMILES CCCCCCCCCCCCCCC(=O)[O-]
REMARK SMILES IDX 9 1 10 2 11 3 12 4 13 5 14 6 15 7 16 8 17 9 8 10 7 11 6 12
REMARK SMILES IDX 5 13 4 14 3 15 2 16 1 17
REMARK H PARENT
REMARK Flexibility Score: inf
ROOT
ATOM      1  C   UNL     1      25.370  -0.716   7.355  1.00  0.00     0.000 C 
ENDROOT
BRANCH   1   2
ATOM      2  C   UNL     1      25.925  -1.086   8.742  1.00  0.00     0.000 C 
BRANCH   2   3
ATOM      3  C   UNL     1      26.127   0.101   9.704  1.00  0.00     0.000 C 
BRANCH   3   4
ATOM      4  C   UNL     1      27.592   0.413  10.062  1.00  0.00     0.000 C 
BRANCH   4   5
ATOM      5  C   UNL     1      28.010   1.840   9.671  1.00  0.00     0.006 C 
BRANCH   5   6
ATOM      6  C   UNL     1      28.684   1.890   8.293  1.00  0.00     0.053 C 
BRANCH   6   7
ATOM      7  C   UNL     1      30.009   2.586   8.344  1.00  0.00     0.041 C 
ATOM      8  O   UNL     1      30.233   3.457   9.226  1.00  0.00    -0.550 OA
ATOM      9  O   UNL     1      31.007   2.253   7.438  1.00  0.00    -0.550 OA
ENDBRANCH   6   7
ENDBRANCH   5   6
ENDBRANCH   4   5
ENDBRANCH   3   4
ENDBRANCH   2   3
ENDBRANCH   1   2
BRANCH   1  10
ATOM     10  C   UNL     1      25.405   0.795   7.082  1.00  0.00     0.000 C 
BRANCH  10  11
ATOM     11  C   UNL     1      25.877   1.084   5.652  1.00  0.00    -0.000 C 
BRANCH  11  12
ATOM     12  C   UNL     1      25.160   2.309   5.070  1.00  0.00    -0.000 C 
BRANCH  12  13
ATOM     13  C   UNL     1      24.229   2.996   6.083  1.00  0.00    -0.000 C 
BRANCH  13  14
ATOM     14  C   UNL     1      22.777   3.151   5.581  1.00  0.00    -0.000 C 
BRANCH  14  15
ATOM     15  C   UNL     1      21.853   2.051   6.128  1.00  0.00    -0.000 C 
BRANCH  15  16
ATOM     16  C   UNL     1      21.695   0.912   5.116  1.00  0.00    -0.003 C 
ATOM     17  C   UNL     1      21.949  -0.444   5.768  1.00  0.00     0.004 C 
ENDBRANCH  15  16
ENDBRANCH  14  15
ENDBRANCH  13  14
ENDBRANCH  12  13
ENDBRANCH  11  12
ENDBRANCH  10  11
ENDBRANCH   1  10
TORSDOF 13
ENDMDL
MODEL 8
REMARK VINA RESULT:    -3.484      7.776     11.726
REMARK INTER + INTRA:          -6.967
REMARK INTER:                  -5.897
REMARK INTRA:                  -1.070
REMARK UNBOUND:                -0.835
REMARK SMILES CCCCCCCCCCCCCCC(=O)[O-]
REMARK SMILES IDX 9 1 10 2 11 3 12 4 13 5 14 6 15 7 16 8 17 9 8 10 7 11 6 12
REMARK SMILES IDX 5 13 4 14 3 15 2 16 1 17
REMARK H PARENT
REMARK Flexibility Score: inf
ROOT
ATOM      1  C   UNL     1      23.114  10.499   6.972  1.00  0.00     0.000 C 
ENDROOT
BRANCH   1   2
ATOM      2  C   UNL     1      21.638  10.935   6.950  1.00  0.00     0.000 C 
BRANCH   2   3
ATOM      3  C   UNL     1      21.207  11.848   8.115  1.00  0.00     0.000 C 
BRANCH   3   4
ATOM      4  C   UNL     1      20.175  11.236   9.080  1.00  0.00     0.000 C 
BRANCH   4   5
ATOM      5  C   UNL     1      20.217   9.699   9.101  1.00  0.00     0.006 C 
BRANCH   5   6
ATOM      6  C   UNL     1      18.890   9.078   8.644  1.00  0.00     0.053 C 
BRANCH   6   7
ATOM      7  C   UNL     1      17.864   9.087   9.736  1.00  0.00     0.041 C 
ATOM      8  O   UNL     1      17.905   8.223  10.651  1.00  0.00    -0.550 OA
ATOM      9  O   UNL     1      16.882  10.068   9.760  1.00  0.00    -0.550 OA
ENDBRANCH   6   7
ENDBRANCH   5   6
ENDBRANCH   4   5
ENDBRANCH   3   4
ENDBRANCH   2   3
ENDBRANCH   1   2
BRANCH   1  10
ATOM     10  C   UNL     1      23.863  10.862   5.681  1.00  0.00     0.000 C 
BRANCH  10  11
ATOM     11  C   UNL     1      24.887   9.780   5.319  1.00  0.00    -0.000 C 
BRANCH  11  12
ATOM     12  C   UNL     1      25.694   9.348   6.551  1.00  0.00    -0.000 C 
BRANCH  12  13
ATOM     13  C   UNL     1      27.211   9.338   6.302  1.00  0.00    -0.000 C 
BRANCH  13  14
ATOM     14  C   UNL     1      27.598   9.608   4.832  1.00  0.00    -0.000 C 
BRANCH  14  15
ATOM     15  C   UNL     1      28.581  10.780   4.695  1.00  0.00    -0.000 C 
BRANCH  15  16
ATOM     16  C   UNL     1      28.093  12.002   5.481  1.00  0.00    -0.003 C 
ATOM     17  C   UNL     1      26.993  12.741   4.725  1.00  0.00     0.004 C 
ENDBRANCH  15  16
ENDBRANCH  14  15
ENDBRANCH  13  14
ENDBRANCH  12  13
ENDBRANCH  11  12
ENDBRANCH  10  11
ENDBRANCH   1  10
TORSDOF 13
ENDMDL
MODEL 9
REMARK VINA RESULT:    -3.483      9.113     13.308
REMARK INTER + INTRA:          -6.964
REMARK INTER:                  -5.560
REMARK INTRA:                  -1.404
REMARK UNBOUND:                -0.835
REMARK SMILES CCCCCCCCCCCCCCC(=O)[O-]
REMARK SMILES IDX 9 1 10 2 11 3 12 4 13 5 14 6 15 7 16 8 17 9 8 10 7 11 6 12
REMARK SMILES IDX 5 13 4 14 3 15 2 16 1 17
REMARK H PARENT
REMARK Flexibility Score: inf
ROOT
ATOM      1  C   UNL     1      25.130   9.616   5.240  1.00  0.00     0.000 C 
ENDROOT
BRANCH   1   2
ATOM      2  C   UNL     1      23.948  10.600   5.226  1.00  0.00     0.000 C 
BRANCH   2   3
ATOM      3  C   UNL     1      23.080  10.599   6.500  1.00  0.00     0.000 C 
BRANCH   3   4
ATOM      4  C   UNL     1      22.501  11.969   6.899  1.00  0.00     0.000 C 
BRANCH   4   5
ATOM      5  C   UNL     1      21.224  11.852   7.748  1.00  0.00     0.006 C 
BRANCH   5   6
ATOM      6  C   UNL     1      21.129  10.499   8.468  1.00  0.00     0.053 C 
BRANCH   6   7
ATOM      7  C   UNL     1      19.732   9.959   8.457  1.00  0.00     0.041 C 
ATOM      8  O   UNL     1      18.860  10.473   7.707  1.00  0.00    -0.550 OA
ATOM      9  O   UNL     1      19.400   8.872   9.254  1.00  0.00    -0.550 OA
ENDBRANCH   6   7
ENDBRANCH   5   6
ENDBRANCH   4   5
ENDBRANCH   3   4
ENDBRANCH   2   3
ENDBRANCH   1   2
BRANCH   1  10
ATOM     10  C   UNL     1      25.780   9.482   6.625  1.00  0.00     0.000 C 
BRANCH  10  11
ATOM     11  C   UNL     1      27.238   9.955   6.595  1.00  0.00    -0.000 C 
BRANCH  11  12
ATOM     12  C   UNL     1      27.322  11.481   6.455  1.00  0.00    -0.000 C 
BRANCH  12  13
ATOM     13  C   UNL     1      27.927  11.928   5.113  1.00  0.00    -0.000 C 
BRANCH  13  14
ATOM     14  C   UNL     1      28.793  10.845   4.435  1.00  0.00    -0.000 C 
BRANCH  14  15
ATOM     15  C   UNL     1      28.156  10.318   3.140  1.00  0.00    -0.000 C 
BRANCH  15  16
ATOM     16  C   UNL     1      28.109   8.786   3.134  1.00  0.00    -0.003 C 
ATOM     17  C   UNL     1      29.220   8.196   3.997  1.00  0.00     0.004 C 
ENDBRANCH  15  16
ENDBRANCH  14  15
ENDBRANCH  13  14
ENDBRANCH  12  13
ENDBRANCH  11  12
ENDBRANCH  10  11
ENDBRANCH   1  10
TORSDOF 13
ENDMDL
