MODEL 1
REMARK VINA RESULT:    -5.401      0.000      0.000
REMARK INTER + INTRA:         -10.912
REMARK INTER:                  -9.507
REMARK INTRA:                  -1.406
REMARK UNBOUND:                -1.406
REMARK SMILES CCCCCCCCCCCCCCC(=O)[O-]
REMARK SMILES IDX 9 1 10 2 11 3 12 4 13 5 14 6 15 7 16 8 17 9 8 10 7 11 6 12
REMARK SMILES IDX 5 13 4 14 3 15 2 16 1 17
REMARK H PARENT
REMARK Flexibility Score: inf
ROOT
ATOM      1  C   UNL     1      41.289 -49.166 163.971  1.00  0.00     0.000 C 
ENDROOT
BRANCH   1   2
ATOM      2  C   UNL     1      41.289 -48.133 162.832  1.00  0.00     0.000 C 
BRANCH   2   3
ATOM      3  C   UNL     1      39.917 -48.010 162.150  1.00  0.00     0.000 C 
BRANCH   3   4
ATOM      4  C   UNL     1      38.949 -49.137 162.551  1.00  0.00     0.000 C 
BRANCH   4   5
ATOM      5  C   UNL     1      37.513 -48.906 162.044  1.00  0.00     0.006 C 
BRANCH   5   6
ATOM      6  C   UNL     1      37.439 -48.405 160.591  1.00  0.00     0.053 C 
BRANCH   6   7
ATOM      7  C   UNL     1      36.452 -47.291 160.418  1.00  0.00     0.041 C 
ATOM      8  O   UNL     1      36.784 -46.241 159.808  1.00  0.00    -0.550 OA
ATOM      9  O   UNL     1      35.178 -47.395 160.960  1.00  0.00    -0.550 OA
ENDBRANCH   6   7
ENDBRANCH   5   6
ENDBRANCH   4   5
ENDBRANCH   3   4
ENDBRANCH   2   3
ENDBRANCH   1   2
BRANCH   1  10
ATOM     10  C   UNL     1      41.479 -48.529 165.360  1.00  0.00     0.000 C 
BRANCH  10  11
ATOM     11  C   UNL     1      42.903 -48.027 165.665  1.00  0.00    -0.000 C 
BRANCH  11  12
ATOM     12  C   UNL     1      43.993 -49.034 165.257  1.00  0.00    -0.000 C 
BRANCH  12  13
ATOM     13  C   UNL     1      45.105 -48.387 164.414  1.00  0.00    -0.000 C 
BRANCH  13  14
ATOM     14  C   UNL     1      44.834 -46.901 164.121  1.00  0.00    -0.000 C 
BRANCH  14  15
ATOM     15  C   UNL     1      44.683 -46.613 162.618  1.00  0.00    -0.000 C 
BRANCH  15  16
ATOM     16  C   UNL     1      45.011 -47.832 161.744  1.00  0.00    -0.003 C 
ATOM     17  C   UNL     1      44.010 -47.973 160.601  1.00  0.00     0.004 C 
ENDBRANCH  15  16
ENDBRANCH  14  15
ENDBRANCH  13  14
ENDBRANCH  12  13
ENDBRANCH  11  12
ENDBRANCH  10  11
ENDBRANCH   1  10
TORSDOF 13
ENDMDL
MODEL 2
REMARK VINA RESULT:    -5.386      8.086     11.581
REMARK INTER + INTRA:         -10.885
REMARK INTER:                  -9.829
REMARK INTRA:                  -1.056
REMARK UNBOUND:                -1.406
REMARK SMILES CCCCCCCCCCCCCCC(=O)[O-]
REMARK SMILES IDX 9 1 10 2 11 3 12 4 13 5 14 6 15 7 16 8 17 9 8 10 7 11 6 12
REMARK SMILES IDX 5 13 4 14 3 15 2 16 1 17
REMARK H PARENT
REMARK Flexibility Score: inf
ROOT
ATOM      1  C   UNL     1      49.507 -46.297 164.782  1.00  0.00     0.000 C 
ENDROOT
BRANCH   1   2
ATOM      2  C   UNL     1      50.115 -47.662 165.146  1.00  0.00     0.000 C 
BRANCH   2   3
ATOM      3  C   UNL     1      51.601 -47.562 165.524  1.00  0.00     0.000 C 
BRANCH   3   4
ATOM      4  C   UNL     1      52.071 -46.109 165.716  1.00  0.00     0.000 C 
BRANCH   4   5
ATOM      5  C   UNL     1      53.567 -46.001 166.061  1.00  0.00     0.006 C 
BRANCH   5   6
ATOM      6  C   UNL     1      54.045 -44.561 166.317  1.00  0.00     0.053 C 
BRANCH   6   7
ATOM      7  C   UNL     1      54.022 -43.719 165.078  1.00  0.00     0.041 C 
ATOM      8  O   UNL     1      54.751 -44.017 164.095  1.00  0.00    -0.550 OA
ATOM      9  O   UNL     1      53.223 -42.584 165.019  1.00  0.00    -0.550 OA
ENDBRANCH   6   7
ENDBRANCH   5   6
ENDBRANCH   4   5
ENDBRANCH   3   4
ENDBRANCH   2   3
ENDBRANCH   1   2
BRANCH   1  10
ATOM     10  C   UNL     1      47.977 -46.349 164.608  1.00  0.00     0.000 C 
BRANCH  10  11
ATOM     11  C   UNL     1      47.164 -45.744 165.768  1.00  0.00    -0.000 C 
BRANCH  11  12
ATOM     12  C   UNL     1      45.677 -45.550 165.420  1.00  0.00    -0.000 C 
BRANCH  12  13
ATOM     13  C   UNL     1      45.171 -46.587 164.403  1.00  0.00    -0.000 C 
BRANCH  13  14
ATOM     14  C   UNL     1      44.534 -47.813 165.078  1.00  0.00    -0.000 C 
BRANCH  14  15
ATOM     15  C   UNL     1      45.065 -49.141 164.515  1.00  0.00    -0.000 C 
BRANCH  15  16
ATOM     16  C   UNL     1      45.492 -49.033 163.044  1.00  0.00    -0.003 C 
ATOM     17  C   UNL     1      46.935 -49.492 162.856  1.00  0.00     0.004 C 
ENDBRANCH  15  16
ENDBRANCH  14  15
ENDBRANCH  13  14
ENDBRANCH  12  13
ENDBRANCH  11  12
ENDBRANCH  10  11
ENDBRANCH   1  10
TORSDOF 13
ENDMDL
MODEL 3
REMARK VINA RESULT:    -5.357      3.031      7.184
REMARK INTER + INTRA:         -10.833
REMARK INTER:                  -9.772
REMARK INTRA:                  -1.061
REMARK UNBOUND:                -1.406
REMARK SMILES CCCCCCCCCCCCCCC(=O)[O-]
REMARK SMILES IDX 9 1 10 2 11 3 12 4 13 5 14 6 15 7 16 8 17 9 8 10 7 11 6 12
REMARK SMILES IDX 5 13 4 14 3 15 2 16 1 17
REMARK H PARENT
REMARK Flexibility Score: inf
ROOT
ATOM      1  C   UNL     1      41.499 -49.099 163.632  1.00  0.00     0.000 C 
ENDROOT
BRANCH   1   2
ATOM      2  C   UNL     1      41.712 -48.567 165.059  1.00  0.00     0.000 C 
BRANCH   2   3
ATOM      3  C   UNL     1      43.193 -48.300 165.372  1.00  0.00     0.000 C 
BRANCH   3   4
ATOM      4  C   UNL     1      44.132 -49.348 164.750  1.00  0.00     0.000 C 
BRANCH   4   5
ATOM      5  C   UNL     1      45.457 -48.746 164.246  1.00  0.00     0.006 C 
BRANCH   5   6
ATOM      6  C   UNL     1      45.636 -48.824 162.721  1.00  0.00     0.053 C 
BRANCH   6   7
ATOM      7  C   UNL     1      44.838 -47.784 161.995  1.00  0.00     0.041 C 
ATOM      8  O   UNL     1      44.350 -48.036 160.862  1.00  0.00    -0.550 OA
ATOM      9  O   UNL     1      44.663 -46.523 162.551  1.00  0.00    -0.550 OA
ENDBRANCH   6   7
ENDBRANCH   5   6
ENDBRANCH   4   5
ENDBRANCH   3   4
ENDBRANCH   2   3
ENDBRANCH   1   2
BRANCH   1  10
ATOM     10  C   UNL     1      41.230 -47.980 162.608  1.00  0.00     0.000 C 
BRANCH  10  11
ATOM     11  C   UNL     1      39.816 -47.973 161.997  1.00  0.00    -0.000 C 
BRANCH  11  12
ATOM     12  C   UNL     1      38.918 -49.092 162.553  1.00  0.00    -0.000 C 
BRANCH  12  13
ATOM     13  C   UNL     1      37.484 -49.023 162.002  1.00  0.00    -0.000 C 
BRANCH  13  14
ATOM     14  C   UNL     1      37.431 -48.479 160.563  1.00  0.00    -0.000 C 
BRANCH  14  15
ATOM     15  C   UNL     1      36.138 -47.698 160.275  1.00  0.00    -0.000 C 
BRANCH  15  16
ATOM     16  C   UNL     1      35.407 -48.204 159.022  1.00  0.00    -0.003 C 
ATOM     17  C   UNL     1      35.832 -49.627 158.676  1.00  0.00     0.004 C 
ENDBRANCH  15  16
ENDBRANCH  14  15
ENDBRANCH  13  14
ENDBRANCH  12  13
ENDBRANCH  11  12
ENDBRANCH  10  11
ENDBRANCH   1  10
TORSDOF 13
ENDMDL
MODEL 4
REMARK VINA RESULT:    -5.347      8.615     12.025
REMARK INTER + INTRA:         -10.817
REMARK INTER:                  -9.813
REMARK INTRA:                  -1.004
REMARK UNBOUND:                -1.406
REMARK SMILES CCCCCCCCCCCCCCC(=O)[O-]
REMARK SMILES IDX 9 1 10 2 11 3 12 4 13 5 14 6 15 7 16 8 17 9 8 10 7 11 6 12
REMARK SMILES IDX 5 13 4 14 3 15 2 16 1 17
REMARK H PARENT
REMARK Flexibility Score: inf
ROOT
ATOM      1  C   UNL     1      50.030 -46.132 164.768  1.00  0.00     0.000 C 
ENDROOT
BRANCH   1   2
ATOM      2  C   UNL     1      50.085 -47.623 165.143  1.00  0.00     0.000 C 
BRANCH   2   3
ATOM      3  C   UNL     1      51.474 -48.055 165.638  1.00  0.00     0.000 C 
BRANCH   3   4
ATOM      4  C   UNL     1      52.405 -46.861 165.917  1.00  0.00     0.000 C 
BRANCH   4   5
ATOM      5  C   UNL     1      53.757 -47.281 166.523  1.00  0.00     0.006 C 
BRANCH   5   6
ATOM      6  C   UNL     1      53.912 -48.801 166.706  1.00  0.00     0.053 C 
BRANCH   6   7
ATOM      7  C   UNL     1      54.311 -49.173 168.102  1.00  0.00     0.041 C 
ATOM      8  O   UNL     1      54.030 -50.313 168.558  1.00  0.00    -0.550 OA
ATOM      9  O   UNL     1      54.961 -48.251 168.913  1.00  0.00    -0.550 OA
ENDBRANCH   6   7
ENDBRANCH   5   6
ENDBRANCH   4   5
ENDBRANCH   3   4
ENDBRANCH   2   3
ENDBRANCH   1   2
BRANCH   1  10
ATOM     10  C   UNL     1      48.594 -45.614 164.575  1.00  0.00     0.000 C 
BRANCH  10  11
ATOM     11  C   UNL     1      47.479 -46.611 164.944  1.00  0.00    -0.000 C 
BRANCH  11  12
ATOM     12  C   UNL     1      46.159 -45.920 165.328  1.00  0.00    -0.000 C 
BRANCH  12  13
ATOM     13  C   UNL     1      44.958 -46.466 164.539  1.00  0.00    -0.000 C 
BRANCH  13  14
ATOM     14  C   UNL     1      45.210 -46.488 163.021  1.00  0.00    -0.000 C 
BRANCH  14  15
ATOM     15  C   UNL     1      44.863 -47.842 162.383  1.00  0.00    -0.000 C 
BRANCH  15  16
ATOM     16  C   UNL     1      45.329 -49.035 163.231  1.00  0.00    -0.003 C 
ATOM     17  C   UNL     1      46.742 -49.462 162.847  1.00  0.00     0.004 C 
ENDBRANCH  15  16
ENDBRANCH  14  15
ENDBRANCH  13  14
ENDBRANCH  12  13
ENDBRANCH  11  12
ENDBRANCH  10  11
ENDBRANCH   1  10
TORSDOF 13
ENDMDL
MODEL 5
REMARK VINA RESULT:    -5.346      8.132     11.617
REMARK INTER + INTRA:         -10.814
REMARK INTER:                  -9.657
REMARK INTRA:                  -1.158
REMARK UNBOUND:                -1.406
REMARK SMILES CCCCCCCCCCCCCCC(=O)[O-]
REMARK SMILES IDX 9 1 10 2 11 3 12 4 13 5 14 6 15 7 16 8 17 9 8 10 7 11 6 12
REMARK SMILES IDX 5 13 4 14 3 15 2 16 1 17
REMARK H PARENT
REMARK Flexibility Score: inf
ROOT
ATOM      1  C   UNL     1      49.159 -48.770 165.450  1.00  0.00     0.000 C 
ENDROOT
BRANCH   1   2
ATOM      2  C   UNL     1      50.498 -48.017 165.520  1.00  0.00     0.000 C 
BRANCH   2   3
ATOM      3  C   UNL     1      50.373 -46.551 165.075  1.00  0.00     0.000 C 
BRANCH   3   4
ATOM      4  C   UNL     1      51.689 -45.768 165.230  1.00  0.00     0.000 C 
BRANCH   4   5
ATOM      5  C   UNL     1      52.774 -46.556 165.987  1.00  0.00     0.006 C 
BRANCH   5   6
ATOM      6  C   UNL     1      54.210 -46.131 165.639  1.00  0.00     0.053 C 
BRANCH   6   7
ATOM      7  C   UNL     1      54.393 -44.644 165.669  1.00  0.00     0.041 C 
ATOM      8  O   UNL     1      54.388 -44.028 166.767  1.00  0.00    -0.550 OA
ATOM      9  O   UNL     1      54.533 -43.933 164.484  1.00  0.00    -0.550 OA
ENDBRANCH   6   7
ENDBRANCH   5   6
ENDBRANCH   4   5
ENDBRANCH   3   4
ENDBRANCH   2   3
ENDBRANCH   1   2
BRANCH   1  10
ATOM     10  C   UNL     1      48.275 -48.315 164.274  1.00  0.00     0.000 C 
BRANCH  10  11
ATOM     11  C   UNL     1      47.905 -49.417 163.264  1.00  0.00    -0.000 C 
BRANCH  11  12
ATOM     12  C   UNL     1      46.417 -49.395 162.871  1.00  0.00    -0.000 C 
BRANCH  12  13
ATOM     13  C   UNL     1      45.486 -49.366 164.094  1.00  0.00    -0.000 C 
BRANCH  13  14
ATOM     14  C   UNL     1      44.389 -48.294 163.974  1.00  0.00    -0.000 C 
BRANCH  14  15
ATOM     15  C   UNL     1      44.442 -47.263 165.113  1.00  0.00    -0.000 C 
BRANCH  15  16
ATOM     16  C   UNL     1      45.265 -46.019 164.750  1.00  0.00    -0.003 C 
ATOM     17  C   UNL     1      46.235 -45.656 165.871  1.00  0.00     0.004 C 
ENDBRANCH  15  16
ENDBRANCH  14  15
ENDBRANCH  13  14
ENDBRANCH  12  13
ENDBRANCH  11  12
ENDBRANCH  10  11
ENDBRANCH   1  10
TORSDOF 13
ENDMDL
MODEL 6
REMARK VINA RESULT:    -5.316      2.030      3.518
REMARK INTER + INTRA:         -10.762
REMARK INTER:                  -9.571
REMARK INTRA:                  -1.190
REMARK UNBOUND:                -1.406
REMARK SMILES CCCCCCCCCCCCCCC(=O)[O-]
REMARK SMILES IDX 9 1 10 2 11 3 12 4 13 5 14 6 15 7 16 8 17 9 8 10 7 11 6 12
REMARK SMILES IDX 5 13 4 14 3 15 2 16 1 17
REMARK H PARENT
REMARK Flexibility Score: inf
ROOT
ATOM      1  C   UNL     1      40.894 -46.902 161.314  1.00  0.00     0.000 C 
ENDROOT
BRANCH   1   2
ATOM      2  C   UNL     1      39.546 -47.541 161.688  1.00  0.00     0.000 C 
BRANCH   2   3
ATOM      3  C   UNL     1      39.706 -48.742 162.633  1.00  0.00     0.000 C 
BRANCH   3   4
ATOM      4  C   UNL     1      38.491 -49.686 162.608  1.00  0.00     0.000 C 
BRANCH   4   5
ATOM      5  C   UNL     1      37.262 -49.068 161.917  1.00  0.00     0.006 C 
BRANCH   5   6
ATOM      6  C   UNL     1      35.917 -49.548 162.489  1.00  0.00     0.053 C 
BRANCH   6   7
ATOM      7  C   UNL     1      35.721 -51.025 162.332  1.00  0.00     0.041 C 
ATOM      8  O   UNL     1      35.803 -51.785 163.332  1.00  0.00    -0.550 OA
ATOM      9  O   UNL     1      35.483 -51.569 161.075  1.00  0.00    -0.550 OA
ENDBRANCH   6   7
ENDBRANCH   5   6
ENDBRANCH   4   5
ENDBRANCH   3   4
ENDBRANCH   2   3
ENDBRANCH   1   2
BRANCH   1  10
ATOM     10  C   UNL     1      42.094 -47.603 161.975  1.00  0.00     0.000 C 
BRANCH  10  11
ATOM     11  C   UNL     1      43.253 -47.960 161.025  1.00  0.00    -0.000 C 
BRANCH  11  12
ATOM     12  C   UNL     1      44.630 -47.557 161.581  1.00  0.00    -0.000 C 
BRANCH  12  13
ATOM     13  C   UNL     1      44.526 -46.535 162.725  1.00  0.00    -0.000 C 
BRANCH  13  14
ATOM     14  C   UNL     1      45.498 -46.841 163.879  1.00  0.00    -0.000 C 
BRANCH  14  15
ATOM     15  C   UNL     1      44.771 -47.140 165.200  1.00  0.00    -0.000 C 
BRANCH  15  16
ATOM     16  C   UNL     1      43.939 -48.429 165.140  1.00  0.00    -0.003 C 
ATOM     17  C   UNL     1      42.508 -48.180 165.608  1.00  0.00     0.004 C 
ENDBRANCH  15  16
ENDBRANCH  14  15
ENDBRANCH  13  14
ENDBRANCH  12  13
ENDBRANCH  11  12
ENDBRANCH  10  11
ENDBRANCH   1  10
TORSDOF 13
ENDMDL
MODEL 7
REMARK VINA RESULT:    -5.302      6.840      9.211
REMARK INTER + INTRA:         -10.737
REMARK INTER:                  -9.770
REMARK INTRA:                  -0.968
REMARK UNBOUND:                -1.406
REMARK SMILES CCCCCCCCCCCCCCC(=O)[O-]
REMARK SMILES IDX 9 1 10 2 11 3 12 4 13 5 14 6 15 7 16 8 17 9 8 10 7 11 6 12
REMARK SMILES IDX 5 13 4 14 3 15 2 16 1 17
REMARK H PARENT
REMARK Flexibility Score: inf
ROOT
ATOM      1  C   UNL     1      48.360 -47.723 164.981  1.00  0.00     0.000 C 
ENDROOT
BRANCH   1   2
ATOM      2  C   UNL     1      47.859 -46.317 164.613  1.00  0.00     0.000 C 
BRANCH   2   3
ATOM      3  C   UNL     1      46.809 -45.788 165.603  1.00  0.00     0.000 C 
BRANCH   3   4
ATOM      4  C   UNL     1      45.366 -45.998 165.109  1.00  0.00     0.000 C 
BRANCH   4   5
ATOM      5  C   UNL     1      45.282 -46.292 163.600  1.00  0.00     0.006 C 
BRANCH   5   6
ATOM      6  C   UNL     1      44.398 -47.500 163.249  1.00  0.00     0.053 C 
BRANCH   6   7
ATOM      7  C   UNL     1      45.044 -48.806 163.598  1.00  0.00     0.041 C 
ATOM      8  O   UNL     1      44.687 -49.434 164.630  1.00  0.00    -0.550 OA
ATOM      9  O   UNL     1      46.065 -49.314 162.805  1.00  0.00    -0.550 OA
ENDBRANCH   6   7
ENDBRANCH   5   6
ENDBRANCH   4   5
ENDBRANCH   3   4
ENDBRANCH   2   3
ENDBRANCH   1   2
BRANCH   1  10
ATOM     10  C   UNL     1      49.892 -47.796 165.122  1.00  0.00     0.000 C 
BRANCH  10  11
ATOM     11  C   UNL     1      50.619 -46.439 165.107  1.00  0.00    -0.000 C 
BRANCH  11  12
ATOM     12  C   UNL     1      51.964 -46.471 165.854  1.00  0.00    -0.000 C 
BRANCH  12  13
ATOM     13  C   UNL     1      52.605 -47.869 165.852  1.00  0.00    -0.000 C 
BRANCH  13  14
ATOM     14  C   UNL     1      54.134 -47.816 165.692  1.00  0.00    -0.000 C 
BRANCH  14  15
ATOM     15  C   UNL     1      54.845 -48.966 166.424  1.00  0.00    -0.000 C 
BRANCH  15  16
ATOM     16  C   UNL     1      54.212 -49.284 167.786  1.00  0.00    -0.003 C 
ATOM     17  C   UNL     1      54.787 -48.387 168.880  1.00  0.00     0.004 C 
ENDBRANCH  15  16
ENDBRANCH  14  15
ENDBRANCH  13  14
ENDBRANCH  12  13
ENDBRANCH  11  12
ENDBRANCH  10  11
ENDBRANCH   1  10
TORSDOF 13
ENDMDL
MODEL 8
REMARK VINA RESULT:    -5.292      3.041      7.250
REMARK INTER + INTRA:         -10.719
REMARK INTER:                  -9.607
REMARK INTRA:                  -1.112
REMARK UNBOUND:                -1.406
REMARK SMILES CCCCCCCCCCCCCCC(=O)[O-]
REMARK SMILES IDX 9 1 10 2 11 3 12 4 13 5 14 6 15 7 16 8 17 9 8 10 7 11 6 12
REMARK SMILES IDX 5 13 4 14 3 15 2 16 1 17
REMARK H PARENT
REMARK Flexibility Score: inf
ROOT
ATOM      1  C   UNL     1      41.450 -48.590 163.676  1.00  0.00     0.000 C 
ENDROOT
BRANCH   1   2
ATOM      2  C   UNL     1      41.750 -48.428 165.175  1.00  0.00     0.000 C 
BRANCH   2   3
ATOM      3  C   UNL     1      43.247 -48.226 165.458  1.00  0.00     0.000 C 
BRANCH   3   4
ATOM      4  C   UNL     1      44.133 -49.262 164.743  1.00  0.00     0.000 C 
BRANCH   4   5
ATOM      5  C   UNL     1      45.343 -48.629 164.031  1.00  0.00     0.006 C 
BRANCH   5   6
ATOM      6  C   UNL     1      45.325 -48.799 162.503  1.00  0.00     0.053 C 
BRANCH   6   7
ATOM      7  C   UNL     1      44.572 -47.703 161.812  1.00  0.00     0.041 C 
ATOM      8  O   UNL     1      44.246 -47.823 160.602  1.00  0.00    -0.550 OA
ATOM      9  O   UNL     1      44.260 -46.533 162.493  1.00  0.00    -0.550 OA
ENDBRANCH   6   7
ENDBRANCH   5   6
ENDBRANCH   4   5
ENDBRANCH   3   4
ENDBRANCH   2   3
ENDBRANCH   1   2
BRANCH   1  10
ATOM     10  C   UNL     1      40.687 -49.888 163.353  1.00  0.00     0.000 C 
BRANCH  10  11
ATOM     11  C   UNL     1      39.231 -49.696 162.887  1.00  0.00    -0.000 C 
BRANCH  11  12
ATOM     12  C   UNL     1      39.038 -48.432 162.031  1.00  0.00    -0.000 C 
BRANCH  12  13
ATOM     13  C   UNL     1      37.662 -48.391 161.345  1.00  0.00    -0.000 C 
BRANCH  13  14
ATOM     14  C   UNL     1      36.606 -49.224 162.092  1.00  0.00    -0.000 C 
BRANCH  14  15
ATOM     15  C   UNL     1      35.671 -49.986 161.139  1.00  0.00    -0.000 C 
BRANCH  15  16
ATOM     16  C   UNL     1      35.457 -51.447 161.560  1.00  0.00    -0.003 C 
ATOM     17  C   UNL     1      36.048 -51.712 162.941  1.00  0.00     0.004 C 
ENDBRANCH  15  16
ENDBRANCH  14  15
ENDBRANCH  13  14
ENDBRANCH  12  13
ENDBRANCH  11  12
ENDBRANCH  10  11
ENDBRANCH   1  10
TORSDOF 13
ENDMDL
MODEL 9
REMARK VINA RESULT:    -5.240      7.028      9.440
REMARK INTER + INTRA:         -10.628
REMARK INTER:                  -9.637
REMARK INTRA:                  -0.991
REMARK UNBOUND:                -1.406
REMARK SMILES CCCCCCCCCCCCCCC(=O)[O-]
REMARK SMILES IDX 9 1 10 2 11 3 12 4 13 5 14 6 15 7 16 8 17 9 8 10 7 11 6 12
REMARK SMILES IDX 5 13 4 14 3 15 2 16 1 17
REMARK H PARENT
REMARK Flexibility Score: inf
ROOT
ATOM      1  C   UNL     1      49.676 -47.934 165.142  1.00  0.00     0.000 C 
ENDROOT
BRANCH   1   2
ATOM      2  C   UNL     1      48.213 -47.885 164.669  1.00  0.00     0.000 C 
BRANCH   2   3
ATOM      3  C   UNL     1      47.711 -46.449 164.455  1.00  0.00     0.000 C 
BRANCH   3   4
ATOM      4  C   UNL     1      46.551 -46.077 165.396  1.00  0.00     0.000 C 
BRANCH   4   5
ATOM      5  C   UNL     1      45.166 -46.289 164.758  1.00  0.00     0.006 C 
BRANCH   5   6
ATOM      6  C   UNL     1      45.200 -46.420 163.225  1.00  0.00     0.053 C 
BRANCH   6   7
ATOM      7  C   UNL     1      44.658 -47.733 162.749  1.00  0.00     0.041 C 
ATOM      8  O   UNL     1      43.687 -47.764 161.948  1.00  0.00    -0.550 OA
ATOM      9  O   UNL     1      45.200 -48.924 163.216  1.00  0.00    -0.550 OA
ENDBRANCH   6   7
ENDBRANCH   5   6
ENDBRANCH   4   5
ENDBRANCH   3   4
ENDBRANCH   2   3
ENDBRANCH   1   2
BRANCH   1  10
ATOM     10  C   UNL     1      50.356 -46.553 165.132  1.00  0.00     0.000 C 
BRANCH  10  11
ATOM     11  C   UNL     1      51.805 -46.529 165.654  1.00  0.00    -0.000 C 
BRANCH  11  12
ATOM     12  C   UNL     1      52.394 -47.937 165.851  1.00  0.00    -0.000 C 
BRANCH  12  13
ATOM     13  C   UNL     1      53.916 -47.913 166.066  1.00  0.00    -0.000 C 
BRANCH  13  14
ATOM     14  C   UNL     1      54.307 -48.147 167.536  1.00  0.00    -0.000 C 
BRANCH  14  15
ATOM     15  C   UNL     1      55.070 -46.958 168.141  1.00  0.00    -0.000 C 
BRANCH  15  16
ATOM     16  C   UNL     1      54.159 -45.757 168.437  1.00  0.00    -0.003 C 
ATOM     17  C   UNL     1      54.657 -44.503 167.725  1.00  0.00     0.004 C 
ENDBRANCH  15  16
ENDBRANCH  14  15
ENDBRANCH  13  14
ENDBRANCH  12  13
ENDBRANCH  11  12
ENDBRANCH  10  11
ENDBRANCH   1  10
TORSDOF 13
ENDMDL
