MODEL 1
REMARK VINA RESULT:    78.441      0.000      0.000
REMARK INTER + INTRA:         116.604
REMARK INTER:                 115.127
REMARK INTRA:                   1.477
REMARK UNBOUND:                 1.477
REMARK SMILES Cc1cc2c(C(C)C)c(O)c(O)c(C=O)c2c(O)c1-c1c(C)cc2c(C(C)C)c(O)c(O)c(C=O)c2c1O
REMARK SMILES IDX 1 1 2 2 3 3 4 4 16 5 13 6 11 7 9 8 5 9 17 10 19 11 20 12
REMARK SMILES IDX 37 13 21 14 36 15 23 16 22 17 24 18 33 19 25 20 31 21 29 22
REMARK SMILES IDX 38 23 34 25 35 26 26 27 27 28 28 29 32 30 30 32 18 34 6 36
REMARK SMILES IDX 7 37 8 38 14 39 15 40 10 41 12 43
REMARK H PARENT 38 24 32 31 30 33 18 35 10 42 12 44
REMARK Flexibility Score: inf
ROOT
ATOM      1  C   UNL     1     -17.699 -15.092  17.674  1.00  0.00     0.045 C 
ATOM      2  C   UNL     1     -18.447 -14.436  16.538  1.00  0.00    -0.039 A 
ATOM      3  C   UNL     1     -19.815 -14.196  16.670  1.00  0.00     0.013 A 
ATOM      4  C   UNL     1     -20.573 -13.608  15.633  1.00  0.00    -0.006 A 
ATOM      5  C   UNL     1     -19.898 -13.169  14.453  1.00  0.00     0.039 A 
ATOM      6  C   UNL     1     -20.656 -12.541  13.421  1.00  0.00     0.072 A 
ATOM      7  C   UNL     1     -22.004 -12.209  13.641  1.00  0.00     0.169 A 
ATOM      8  C   UNL     1     -22.637 -12.569  14.843  1.00  0.00     0.162 A 
ATOM      9  C   UNL     1     -21.981 -13.410  15.770  1.00  0.00     0.008 A 
ATOM     10  C   UNL     1     -18.483 -13.329  14.365  1.00  0.00     0.132 A 
ATOM     11  C   UNL     1     -17.774 -14.001  15.385  1.00  0.00     0.031 A 
ENDROOT
BRANCH  11  12
ATOM     12  C   UNL     1     -16.309 -14.217  15.262  1.00  0.00     0.031 A 
ATOM     13  C   UNL     1     -15.417 -13.133  15.406  1.00  0.00     0.132 A 
ATOM     14  C   UNL     1     -15.817 -15.499  14.969  1.00  0.00    -0.039 A 
ATOM     15  C   UNL     1     -14.006 -13.344  15.347  1.00  0.00     0.039 A 
ATOM     16  C   UNL     1     -14.442 -15.693  14.828  1.00  0.00     0.013 A 
ATOM     17  C   UNL     1     -16.755 -16.658  14.741  1.00  0.00     0.045 C 
ATOM     18  C   UNL     1     -13.513 -14.654  15.056  1.00  0.00    -0.006 A 
ATOM     19  C   UNL     1     -13.071 -12.280  15.515  1.00  0.00     0.072 A 
ATOM     20  C   UNL     1     -12.106 -14.886  14.959  1.00  0.00     0.008 A 
ATOM     21  C   UNL     1     -11.711 -12.489  15.220  1.00  0.00     0.169 A 
ATOM     22  C   UNL     1     -11.242 -13.771  14.912  1.00  0.00     0.162 A 
BRANCH  13  23
ATOM     23  O   UNL     1     -15.932 -11.841  15.561  1.00  0.00    -0.507 OA
ATOM     24  H   UNL     1     -16.690 -11.606  16.189  1.00  0.00     0.293 HD
ENDBRANCH  13  23
BRANCH  19  25
ATOM     25  C   UNL     1     -13.468 -10.954  16.034  1.00  0.00     0.264 C 
ATOM     26  O   UNL     1     -13.336  -9.925  15.320  1.00  0.00    -0.298 OA
ENDBRANCH  19  25
BRANCH  20  27
ATOM     27  C   UNL     1     -11.522 -16.307  14.873  1.00  0.00     0.017 C 
ATOM     28  C   UNL     1      -9.993 -16.266  14.790  1.00  0.00     0.012 C 
ATOM     29  C   UNL     1     -11.996 -17.243  16.002  1.00  0.00     0.012 C 
ENDBRANCH  20  27
BRANCH  21  30
ATOM     30  O   UNL     1     -10.782 -11.441  15.258  1.00  0.00    -0.504 OA
ATOM     31  H   UNL     1     -10.732 -10.755  15.999  1.00  0.00     0.293 HD
ENDBRANCH  21  30
BRANCH  22  32
ATOM     32  O   UNL     1      -9.901 -13.942  14.560  1.00  0.00    -0.504 OA
ATOM     33  H   UNL     1      -9.173 -14.132  15.237  1.00  0.00     0.293 HD
ENDBRANCH  22  32
ENDBRANCH  11  12
BRANCH  10  34
ATOM     34  O   UNL     1     -17.774 -12.780  13.291  1.00  0.00    -0.507 OA
ATOM     35  H   UNL     1     -17.806 -11.801  13.033  1.00  0.00     0.293 HD
ENDBRANCH  10  34
BRANCH   9  36
ATOM     36  C   UNL     1     -22.782 -14.049  16.918  1.00  0.00     0.017 C 
ATOM     37  C   UNL     1     -24.125 -13.336  17.116  1.00  0.00     0.012 C 
ATOM     38  C   UNL     1     -22.975 -15.570  16.771  1.00  0.00     0.012 C 
ENDBRANCH   9  36
BRANCH   6  39
ATOM     39  C   UNL     1     -20.095 -12.295  12.070  1.00  0.00     0.264 C 
ATOM     40  O   UNL     1     -20.510 -11.342  11.356  1.00  0.00    -0.298 OA
ENDBRANCH   6  39
BRANCH   8  41
ATOM     41  O   UNL     1     -23.917 -12.094  15.144  1.00  0.00    -0.504 OA
ATOM     42  H   UNL     1     -24.523 -12.502  15.842  1.00  0.00     0.293 HD
ENDBRANCH   8  41
BRANCH   7  43
ATOM     43  O   UNL     1     -22.714 -11.562  12.622  1.00  0.00    -0.504 OA
ATOM     44  H   UNL     1     -22.535 -10.614  12.321  1.00  0.00     0.293 HD
ENDBRANCH   7  43
TORSDOF 11
ENDMDL
MODEL 2
REMARK VINA RESULT:    78.827      0.083      8.948
REMARK INTER + INTRA:         117.170
REMARK INTER:                 115.837
REMARK INTRA:                   1.333
REMARK UNBOUND:                 1.477
REMARK SMILES Cc1cc2c(C(C)C)c(O)c(O)c(C=O)c2c(O)c1-c1c(C)cc2c(C(C)C)c(O)c(O)c(C=O)c2c1O
REMARK SMILES IDX 1 1 2 2 3 3 4 4 16 5 13 6 11 7 9 8 5 9 17 10 19 11 20 12
REMARK SMILES IDX 37 13 21 14 36 15 23 16 22 17 24 18 33 19 25 20 31 21 29 22
REMARK SMILES IDX 38 23 34 25 35 26 26 27 27 28 28 29 32 30 30 32 18 34 6 36
REMARK SMILES IDX 7 37 8 38 14 39 15 40 10 41 12 43
REMARK H PARENT 38 24 32 31 30 33 18 35 10 42 12 44
REMARK Flexibility Score: inf
ROOT
ATOM      1  C   UNL     1     -16.775 -16.704  14.855  1.00  0.00     0.045 C 
ATOM      2  C   UNL     1     -15.824 -15.548  15.051  1.00  0.00    -0.039 A 
ATOM      3  C   UNL     1     -14.454 -15.758  14.898  1.00  0.00     0.013 A 
ATOM      4  C   UNL     1     -13.513 -14.722  15.092  1.00  0.00    -0.006 A 
ATOM      5  C   UNL     1     -13.990 -13.404  15.367  1.00  0.00     0.039 A 
ATOM      6  C   UNL     1     -13.043 -12.350  15.527  1.00  0.00     0.072 A 
ATOM      7  C   UNL     1     -11.685 -12.576  15.245  1.00  0.00     0.169 A 
ATOM      8  C   UNL     1     -11.237 -13.860  14.889  1.00  0.00     0.162 A 
ATOM      9  C   UNL     1     -12.111 -14.967  14.972  1.00  0.00     0.008 A 
ATOM     10  C   UNL     1     -15.397 -13.176  15.427  1.00  0.00     0.132 A 
ATOM     11  C   UNL     1     -16.302 -14.255  15.315  1.00  0.00     0.031 A 
ENDROOT
BRANCH  11  12
ATOM     12  C   UNL     1     -17.765 -14.020  15.436  1.00  0.00     0.031 A 
ATOM     13  C   UNL     1     -18.470 -13.377  14.397  1.00  0.00     0.132 A 
ATOM     14  C   UNL     1     -18.437 -14.413  16.605  1.00  0.00    -0.039 A 
ATOM     15  C   UNL     1     -19.885 -13.202  14.482  1.00  0.00     0.039 A 
ATOM     16  C   UNL     1     -19.806 -14.168  16.726  1.00  0.00     0.013 A 
ATOM     17  C   UNL     1     -17.692 -15.038  17.758  1.00  0.00     0.045 C 
ATOM     18  C   UNL     1     -20.563 -13.612  15.671  1.00  0.00    -0.006 A 
ATOM     19  C   UNL     1     -20.636 -12.582  13.441  1.00  0.00     0.072 A 
ATOM     20  C   UNL     1     -21.974 -13.418  15.795  1.00  0.00     0.008 A 
ATOM     21  C   UNL     1     -21.979 -12.223  13.665  1.00  0.00     0.169 A 
ATOM     22  C   UNL     1     -22.627 -12.608  14.843  1.00  0.00     0.162 A 
BRANCH  13  23
ATOM     23  O   UNL     1     -17.760 -12.871  13.302  1.00  0.00    -0.507 OA
ATOM     24  H   UNL     1     -17.990 -12.006  12.830  1.00  0.00     0.293 HD
ENDBRANCH  13  23
BRANCH  19  25
ATOM     25  C   UNL     1     -20.071 -12.332  12.098  1.00  0.00     0.264 C 
ATOM     26  O   UNL     1     -20.455 -11.342  11.420  1.00  0.00    -0.298 OA
ENDBRANCH  19  25
BRANCH  20  27
ATOM     27  C   UNL     1     -22.780 -14.041  16.949  1.00  0.00     0.017 C 
ATOM     28  C   UNL     1     -24.125 -13.329  17.124  1.00  0.00     0.012 C 
ATOM     29  C   UNL     1     -22.966 -15.566  16.826  1.00  0.00     0.012 C 
ENDBRANCH  20  27
BRANCH  21  30
ATOM     30  O   UNL     1     -22.716 -11.507  12.713  1.00  0.00    -0.504 OA
ATOM     31  H   UNL     1     -23.691 -11.259  12.819  1.00  0.00     0.293 HD
ENDBRANCH  21  30
BRANCH  22  32
ATOM     32  O   UNL     1     -23.940 -12.185  15.071  1.00  0.00    -0.504 OA
ATOM     33  H   UNL     1     -24.643 -12.774  15.499  1.00  0.00     0.293 HD
ENDBRANCH  22  32
ENDBRANCH  11  12
BRANCH  10  34
ATOM     34  O   UNL     1     -15.899 -11.876  15.550  1.00  0.00    -0.507 OA
ATOM     35  H   UNL     1     -15.828 -11.172  14.826  1.00  0.00     0.293 HD
ENDBRANCH  10  34
BRANCH   9  36
ATOM     36  C   UNL     1     -11.541 -16.395  14.887  1.00  0.00     0.017 C 
ATOM     37  C   UNL     1     -10.009 -16.373  14.839  1.00  0.00     0.012 C 
ATOM     38  C   UNL     1     -12.051 -17.335  15.995  1.00  0.00     0.012 C 
ENDBRANCH   9  36
BRANCH   6  39
ATOM     39  C   UNL     1     -13.426 -11.023  16.068  1.00  0.00     0.264 C 
ATOM     40  O   UNL     1     -13.342  -9.982  15.360  1.00  0.00    -0.298 OA
ENDBRANCH   6  39
BRANCH   8  41
ATOM     41  O   UNL     1      -9.929 -14.059  14.439  1.00  0.00    -0.504 OA
ATOM     42  H   UNL     1      -9.105 -13.873  14.993  1.00  0.00     0.293 HD
ENDBRANCH   8  41
BRANCH   7  43
ATOM     43  O   UNL     1     -10.783 -11.513  15.378  1.00  0.00    -0.504 OA
ATOM     44  H   UNL     1      -9.854 -11.505  14.981  1.00  0.00     0.293 HD
ENDBRANCH   7  43
TORSDOF 11
ENDMDL
MODEL 3
REMARK VINA RESULT:    80.404      1.433      9.044
REMARK INTER + INTRA:         119.485
REMARK INTER:                 118.235
REMARK INTRA:                   1.250
REMARK UNBOUND:                 1.477
REMARK SMILES Cc1cc2c(C(C)C)c(O)c(O)c(C=O)c2c(O)c1-c1c(C)cc2c(C(C)C)c(O)c(O)c(C=O)c2c1O
REMARK SMILES IDX 1 1 2 2 3 3 4 4 16 5 13 6 11 7 9 8 5 9 17 10 19 11 20 12
REMARK SMILES IDX 37 13 21 14 36 15 23 16 22 17 24 18 33 19 25 20 31 21 29 22
REMARK SMILES IDX 38 23 34 25 35 26 26 27 27 28 28 29 32 30 30 32 18 34 6 36
REMARK SMILES IDX 7 37 8 38 14 39 15 40 10 41 12 43
REMARK H PARENT 38 24 32 31 30 33 18 35 10 42 12 44
REMARK Flexibility Score: inf
ROOT
ATOM      1  C   UNL     1     -17.058 -16.519  14.139  1.00  0.00     0.045 C 
ATOM      2  C   UNL     1     -16.029 -15.489  14.539  1.00  0.00    -0.039 A 
ATOM      3  C   UNL     1     -14.699 -15.879  14.694  1.00  0.00     0.013 A 
ATOM      4  C   UNL     1     -13.694 -14.967  15.090  1.00  0.00    -0.006 A 
ATOM      5  C   UNL     1     -14.041 -13.591  15.250  1.00  0.00     0.039 A 
ATOM      6  C   UNL     1     -13.022 -12.662  15.613  1.00  0.00     0.072 A 
ATOM      7  C   UNL     1     -11.677 -13.071  15.640  1.00  0.00     0.169 A 
ATOM      8  C   UNL     1     -11.336 -14.412  15.395  1.00  0.00     0.162 A 
ATOM      9  C   UNL     1     -12.345 -15.394  15.285  1.00  0.00     0.008 A 
ATOM     10  C   UNL     1     -15.385 -13.182  14.995  1.00  0.00     0.132 A 
ATOM     11  C   UNL     1     -16.377 -14.138  14.688  1.00  0.00     0.031 A 
ENDROOT
BRANCH  11  12
ATOM     12  C   UNL     1     -17.787 -13.713  14.480  1.00  0.00     0.031 A 
ATOM     13  C   UNL     1     -18.713 -13.779  15.543  1.00  0.00     0.132 A 
ATOM     14  C   UNL     1     -18.201 -13.277  13.212  1.00  0.00    -0.039 A 
ATOM     15  C   UNL     1     -20.052 -13.318  15.365  1.00  0.00     0.039 A 
ATOM     16  C   UNL     1     -19.532 -12.904  13.013  1.00  0.00     0.013 A 
ATOM     17  C   UNL     1     -17.247 -13.265  12.043  1.00  0.00     0.045 C 
ATOM     18  C   UNL     1     -20.464 -12.868  14.073  1.00  0.00    -0.006 A 
ATOM     19  C   UNL     1     -21.010 -13.342  16.423  1.00  0.00     0.072 A 
ATOM     20  C   UNL     1     -21.809 -12.431  13.861  1.00  0.00     0.008 A 
ATOM     21  C   UNL     1     -22.368 -13.099  16.143  1.00  0.00     0.169 A 
ATOM     22  C   UNL     1     -22.764 -12.682  14.867  1.00  0.00     0.162 A 
BRANCH  13  23
ATOM     23  O   UNL     1     -18.315 -14.345  16.760  1.00  0.00    -0.507 OA
ATOM     24  H   UNL     1     -17.604 -15.059  16.845  1.00  0.00     0.293 HD
ENDBRANCH  13  23
BRANCH  19  25
ATOM     25  C   UNL     1     -20.627 -13.574  17.831  1.00  0.00     0.264 C 
ATOM     26  O   UNL     1     -21.080 -12.835  18.744  1.00  0.00    -0.298 OA
ENDBRANCH  19  25
BRANCH  20  27
ATOM     27  C   UNL     1     -22.238 -11.731  12.559  1.00  0.00     0.017 C 
ATOM     28  C   UNL     1     -23.408 -10.774  12.812  1.00  0.00     0.012 C 
ATOM     29  C   UNL     1     -21.084 -11.022  11.824  1.00  0.00     0.012 C 
ENDBRANCH  20  27
BRANCH  21  30
ATOM     30  O   UNL     1     -23.355 -13.229  17.128  1.00  0.00    -0.504 OA
ATOM     31  H   UNL     1     -23.200 -13.054  18.112  1.00  0.00     0.293 HD
ENDBRANCH  21  30
BRANCH  22  32
ATOM     32  O   UNL     1     -24.125 -12.509  14.597  1.00  0.00    -0.504 OA
ATOM     33  H   UNL     1     -24.850 -13.054  15.046  1.00  0.00     0.293 HD
ENDBRANCH  22  32
ENDBRANCH  11  12
BRANCH  10  34
ATOM     34  O   UNL     1     -15.724 -11.824  15.000  1.00  0.00    -0.507 OA
ATOM     35  H   UNL     1     -15.165 -11.103  15.439  1.00  0.00     0.293 HD
ENDBRANCH  10  34
BRANCH   9  36
ATOM     36  C   UNL     1     -11.965 -16.885  15.332  1.00  0.00     0.017 C 
ATOM     37  C   UNL     1     -10.453 -17.062  15.513  1.00  0.00     0.012 C 
ATOM     38  C   UNL     1     -12.751 -17.695  16.381  1.00  0.00     0.012 C 
ENDBRANCH   9  36
BRANCH   6  39
ATOM     39  C   UNL     1     -13.335 -11.280  16.052  1.00  0.00     0.264 C 
ATOM     40  O   UNL     1     -12.916 -10.281  15.406  1.00  0.00    -0.298 OA
ENDBRANCH   6  39
BRANCH   8  41
ATOM     41  O   UNL     1      -9.999 -14.791  15.247  1.00  0.00    -0.504 OA
ATOM     42  H   UNL     1      -9.676 -15.483  14.586  1.00  0.00     0.293 HD
ENDBRANCH   8  41
BRANCH   7  43
ATOM     43  O   UNL     1     -10.694 -12.128  15.967  1.00  0.00    -0.504 OA
ATOM     44  H   UNL     1      -9.717 -12.351  16.098  1.00  0.00     0.293 HD
ENDBRANCH   7  43
TORSDOF 11
ENDMDL
MODEL 4
REMARK VINA RESULT:    81.150      1.420      2.919
REMARK INTER + INTRA:         120.579
REMARK INTER:                 117.178
REMARK INTRA:                   3.401
REMARK UNBOUND:                 1.477
REMARK SMILES Cc1cc2c(C(C)C)c(O)c(O)c(C=O)c2c(O)c1-c1c(C)cc2c(C(C)C)c(O)c(O)c(C=O)c2c1O
REMARK SMILES IDX 1 1 2 2 3 3 4 4 16 5 13 6 11 7 9 8 5 9 17 10 19 11 20 12
REMARK SMILES IDX 37 13 21 14 36 15 23 16 22 17 24 18 33 19 25 20 31 21 29 22
REMARK SMILES IDX 38 23 34 25 35 26 26 27 27 28 28 29 32 30 30 32 18 34 6 36
REMARK SMILES IDX 7 37 8 38 14 39 15 40 10 41 12 43
REMARK H PARENT 38 24 32 31 30 33 18 35 10 42 12 44
REMARK Flexibility Score: inf
ROOT
ATOM      1  C   UNL     1     -17.261 -13.056  12.103  1.00  0.00     0.045 C 
ATOM      2  C   UNL     1     -18.197 -13.163  13.282  1.00  0.00    -0.039 A 
ATOM      3  C   UNL     1     -19.542 -12.831  13.118  1.00  0.00     0.013 A 
ATOM      4  C   UNL     1     -20.462 -12.888  14.189  1.00  0.00    -0.006 A 
ATOM      5  C   UNL     1     -20.015 -13.383  15.452  1.00  0.00     0.039 A 
ATOM      6  C   UNL     1     -20.950 -13.477  16.524  1.00  0.00     0.072 A 
ATOM      7  C   UNL     1     -22.317 -13.249  16.286  1.00  0.00     0.169 A 
ATOM      8  C   UNL     1     -22.759 -12.846  15.015  1.00  0.00     0.162 A 
ATOM      9  C   UNL     1     -21.826 -12.503  14.011  1.00  0.00     0.008 A 
ATOM     10  C   UNL     1     -18.660 -13.813  15.586  1.00  0.00     0.132 A 
ATOM     11  C   UNL     1     -17.751 -13.657  14.518  1.00  0.00     0.031 A 
ENDROOT
BRANCH  11  12
ATOM     12  C   UNL     1     -16.327 -14.053  14.682  1.00  0.00     0.031 A 
ATOM     13  C   UNL     1     -15.357 -13.088  15.026  1.00  0.00     0.132 A 
ATOM     14  C   UNL     1     -15.947 -15.386  14.460  1.00  0.00    -0.039 A 
ATOM     15  C   UNL     1     -13.999 -13.473  15.243  1.00  0.00     0.039 A 
ATOM     16  C   UNL     1     -14.606 -15.749  14.589  1.00  0.00     0.013 A 
ATOM     17  C   UNL     1     -16.954 -16.420  14.022  1.00  0.00     0.045 C 
ATOM     18  C   UNL     1     -13.622 -14.833  15.023  1.00  0.00    -0.006 A 
ATOM     19  C   UNL     1     -12.995 -12.532  15.619  1.00  0.00     0.072 A 
ATOM     20  C   UNL     1     -12.262 -15.238  15.201  1.00  0.00     0.008 A 
ATOM     21  C   UNL     1     -11.639 -12.909  15.594  1.00  0.00     0.169 A 
ATOM     22  C   UNL     1     -11.277 -14.239  15.354  1.00  0.00     0.162 A 
BRANCH  13  23
ATOM     23  O   UNL     1     -15.732 -11.742  15.108  1.00  0.00    -0.507 OA
ATOM     24  H   UNL     1     -16.528 -11.408  15.637  1.00  0.00     0.293 HD
ENDBRANCH  13  23
BRANCH  19  25
ATOM     25  C   UNL     1     -13.323 -11.168  16.082  1.00  0.00     0.264 C 
ATOM     26  O   UNL     1     -13.201 -10.185  15.304  1.00  0.00    -0.298 OA
ENDBRANCH  19  25
BRANCH  20  27
ATOM     27  C   UNL     1     -11.850 -16.721  15.197  1.00  0.00     0.017 C 
ATOM     28  C   UNL     1     -10.325 -16.865  15.218  1.00  0.00     0.012 C 
ATOM     29  C   UNL     1     -12.505 -17.551  16.318  1.00  0.00     0.012 C 
ENDBRANCH  20  27
BRANCH  21  30
ATOM     30  O   UNL     1     -10.616 -11.984  15.841  1.00  0.00    -0.504 OA
ATOM     31  H   UNL     1     -10.750 -11.107  16.325  1.00  0.00     0.293 HD
ENDBRANCH  21  30
BRANCH  22  32
ATOM     32  O   UNL     1      -9.924 -14.575  15.270  1.00  0.00    -0.504 OA
ATOM     33  H   UNL     1      -9.289 -14.510  16.057  1.00  0.00     0.293 HD
ENDBRANCH  22  32
ENDBRANCH  11  12
BRANCH  10  34
ATOM     34  O   UNL     1     -18.229 -14.437  16.762  1.00  0.00    -0.507 OA
ATOM     35  H   UNL     1     -18.353 -15.423  16.958  1.00  0.00     0.293 HD
ENDBRANCH  10  34
BRANCH   9  36
ATOM     36  C   UNL     1     -22.304 -11.771  12.745  1.00  0.00     0.017 C 
ATOM     37  C   UNL     1     -23.433 -10.786  13.072  1.00  0.00     0.012 C 
ATOM     38  C   UNL     1     -21.172 -11.081  11.960  1.00  0.00     0.012 C 
ENDBRANCH   9  36
BRANCH   6  39
ATOM     39  C   UNL     1     -20.523 -13.726  17.923  1.00  0.00     0.264 C 
ATOM     40  O   UNL     1     -19.339 -14.068  18.191  1.00  0.00    -0.298 OA
ENDBRANCH   6  39
BRANCH   8  41
ATOM     41  O   UNL     1     -24.125 -12.787  14.722  1.00  0.00    -0.504 OA
ATOM     42  H   UNL     1     -24.534 -13.117  13.859  1.00  0.00     0.293 HD
ENDBRANCH   8  41
BRANCH   7  43
ATOM     43  O   UNL     1     -23.217 -13.381  17.352  1.00  0.00    -0.504 OA
ATOM     44  H   UNL     1     -23.326 -12.699  18.089  1.00  0.00     0.293 HD
ENDBRANCH   7  43
TORSDOF 11
ENDMDL
