MODEL 1
REMARK VINA RESULT:    -4.558      0.000      0.000
REMARK INTER + INTRA:          -7.559
REMARK INTER:                  -6.556
REMARK INTRA:                  -1.003
REMARK UNBOUND:                -1.003
REMARK SMILES O=C(CO)[C@@H](O)[C@H](O)[C@H](O)CO
REMARK SMILES IDX 7 1 9 2 11 3 12 4 10 6 5 8 2 9 1 10 3 11 4 12 6 14 8 16
REMARK H PARENT 12 5 10 7 4 13 6 15 8 17
REMARK Flexibility Score: inf
ROOT
ATOM      1  C   UNL     1     -13.479  55.616  20.259  1.00  0.00     0.181 C 
ENDROOT
BRANCH   1   2
ATOM      2  C   UNL     1     -15.000  55.295  20.231  1.00  0.00     0.171 C 
BRANCH   2   3
ATOM      3  C   UNL     1     -15.880  56.434  20.775  1.00  0.00     0.190 C 
BRANCH   3   4
ATOM      4  O   UNL     1     -15.973  56.363  22.170  1.00  0.00    -0.394 OA
ATOM      5  H   UNL     1     -15.087  56.637  22.521  1.00  0.00     0.210 HD
ENDBRANCH   3   4
ENDBRANCH   2   3
BRANCH   2   6
ATOM      6  O   UNL     1     -15.388  55.036  18.905  1.00  0.00    -0.388 OA
ATOM      7  H   UNL     1     -16.370  55.170  18.858  1.00  0.00     0.211 HD
ENDBRANCH   2   6
ENDBRANCH   1   2
BRANCH   1   8
ATOM      8  C   UNL     1     -12.563  54.381  20.054  1.00  0.00     0.214 C 
BRANCH   8   9
ATOM      9  C   UNL     1     -11.687  54.101  21.256  1.00  0.00     0.189 C 
ATOM     10  O   UNL     1     -10.656  54.740  21.405  1.00  0.00    -0.294 OA
BRANCH   9  11
ATOM     11  C   UNL     1     -12.035  53.033  22.262  1.00  0.00     0.234 C 
BRANCH  11  12
ATOM     12  O   UNL     1     -11.758  51.760  21.745  1.00  0.00    -0.388 OA
ATOM     13  H   UNL     1     -12.471  51.157  22.081  1.00  0.00     0.211 HD
ENDBRANCH  11  12
ENDBRANCH   9  11
ENDBRANCH   8   9
BRANCH   8  14
ATOM     14  O   UNL     1     -13.349  53.242  19.803  1.00  0.00    -0.382 OA
ATOM     15  H   UNL     1     -14.279  53.555  19.651  1.00  0.00     0.211 HD
ENDBRANCH   8  14
ENDBRANCH   1   8
BRANCH   1  16
ATOM     16  O   UNL     1     -13.164  56.244  21.477  1.00  0.00    -0.387 OA
ATOM     17  H   UNL     1     -13.991  56.255  22.026  1.00  0.00     0.211 HD
ENDBRANCH   1  16
TORSDOF 10
ENDMDL
MODEL 2
REMARK VINA RESULT:    -4.532      1.790      2.980
REMARK INTER + INTRA:          -7.521
REMARK INTER:                  -6.762
REMARK INTRA:                  -0.760
REMARK UNBOUND:                -1.003
REMARK SMILES O=C(CO)[C@@H](O)[C@H](O)[C@H](O)CO
REMARK SMILES IDX 7 1 9 2 11 3 12 4 10 6 5 8 2 9 1 10 3 11 4 12 6 14 8 16
REMARK H PARENT 12 5 10 7 4 13 6 15 8 17
REMARK Flexibility Score: inf
ROOT
ATOM      1  C   UNL     1     -15.056  55.828  19.975  1.00  0.00     0.181 C 
ENDROOT
BRANCH   1   2
ATOM      2  C   UNL     1     -16.352  56.011  20.815  1.00  0.00     0.171 C 
BRANCH   2   3
ATOM      3  C   UNL     1     -17.237  54.754  20.864  1.00  0.00     0.190 C 
BRANCH   3   4
ATOM      4  O   UNL     1     -17.223  54.190  22.146  1.00  0.00    -0.394 OA
ATOM      5  H   UNL     1     -16.758  53.318  22.059  1.00  0.00     0.210 HD
ENDBRANCH   3   4
ENDBRANCH   2   3
BRANCH   2   6
ATOM      6  O   UNL     1     -15.997  56.349  22.133  1.00  0.00    -0.388 OA
ATOM      7  H   UNL     1     -15.202  55.803  22.368  1.00  0.00     0.211 HD
ENDBRANCH   2   6
ENDBRANCH   1   2
BRANCH   1   8
ATOM      8  C   UNL     1     -13.863  55.230  20.765  1.00  0.00     0.214 C 
BRANCH   8   9
ATOM      9  C   UNL     1     -12.818  54.612  19.860  1.00  0.00     0.189 C 
ATOM     10  O   UNL     1     -13.081  53.578  19.265  1.00  0.00    -0.294 OA
BRANCH   9  11
ATOM     11  C   UNL     1     -11.448  55.220  19.696  1.00  0.00     0.234 C 
BRANCH  11  12
ATOM     12  O   UNL     1     -11.546  56.598  19.461  1.00  0.00    -0.388 OA
ATOM     13  H   UNL     1     -10.625  56.921  19.282  1.00  0.00     0.211 HD
ENDBRANCH  11  12
ENDBRANCH   9  11
ENDBRANCH   8   9
BRANCH   8  14
ATOM     14  O   UNL     1     -13.247  56.236  21.530  1.00  0.00    -0.382 OA
ATOM     15  H   UNL     1     -13.368  57.092  21.042  1.00  0.00     0.211 HD
ENDBRANCH   8  14
ENDBRANCH   1   8
BRANCH   1  16
ATOM     16  O   UNL     1     -14.687  57.068  19.423  1.00  0.00    -0.387 OA
ATOM     17  H   UNL     1     -15.484  57.659  19.465  1.00  0.00     0.211 HD
ENDBRANCH   1  16
TORSDOF 10
ENDMDL
MODEL 3
REMARK VINA RESULT:    -4.529      1.550      3.017
REMARK INTER + INTRA:          -7.517
REMARK INTER:                  -6.248
REMARK INTRA:                  -1.270
REMARK UNBOUND:                -1.003
REMARK SMILES O=C(CO)[C@@H](O)[C@H](O)[C@H](O)CO
REMARK SMILES IDX 7 1 9 2 11 3 12 4 10 6 5 8 2 9 1 10 3 11 4 12 6 14 8 16
REMARK H PARENT 12 5 10 7 4 13 6 15 8 17
REMARK Flexibility Score: inf
ROOT
ATOM      1  C   UNL     1     -14.405  54.359  20.504  1.00  0.00     0.181 C 
ENDROOT
BRANCH   1   2
ATOM      2  C   UNL     1     -14.521  55.905  20.622  1.00  0.00     0.171 C 
BRANCH   2   3
ATOM      3  C   UNL     1     -15.903  56.384  21.101  1.00  0.00     0.190 C 
BRANCH   3   4
ATOM      4  O   UNL     1     -16.514  55.409  21.899  1.00  0.00    -0.394 OA
ATOM      5  H   UNL     1     -16.221  55.588  22.829  1.00  0.00     0.210 HD
ENDBRANCH   3   4
ENDBRANCH   2   3
BRANCH   2   6
ATOM      6  O   UNL     1     -13.556  56.367  21.534  1.00  0.00    -0.388 OA
ATOM      7  H   UNL     1     -13.378  57.318  21.310  1.00  0.00     0.211 HD
ENDBRANCH   2   6
ENDBRANCH   1   2
BRANCH   1   8
ATOM      8  C   UNL     1     -13.040  53.862  19.960  1.00  0.00     0.214 C 
BRANCH   8   9
ATOM      9  C   UNL     1     -12.615  54.593  18.704  1.00  0.00     0.189 C 
ATOM     10  O   UNL     1     -13.307  54.508  17.701  1.00  0.00    -0.294 OA
BRANCH   9  11
ATOM     11  C   UNL     1     -11.341  55.399  18.645  1.00  0.00     0.234 C 
BRANCH  11  12
ATOM     12  O   UNL     1     -11.381  56.450  19.571  1.00  0.00    -0.388 OA
ATOM     13  H   UNL     1     -11.846  57.204  19.123  1.00  0.00     0.211 HD
ENDBRANCH  11  12
ENDBRANCH   9  11
ENDBRANCH   8   9
BRANCH   8  14
ATOM     14  O   UNL     1     -12.045  54.043  20.936  1.00  0.00    -0.382 OA
ATOM     15  H   UNL     1     -11.259  54.447  20.484  1.00  0.00     0.211 HD
ENDBRANCH   8  14
ENDBRANCH   1   8
BRANCH   1  16
ATOM     16  O   UNL     1     -15.445  53.881  19.687  1.00  0.00    -0.387 OA
ATOM     17  H   UNL     1     -16.148  54.581  19.664  1.00  0.00     0.211 HD
ENDBRANCH   1  16
TORSDOF 10
ENDMDL
MODEL 4
REMARK VINA RESULT:    -4.463      2.418      4.158
REMARK INTER + INTRA:          -7.423
REMARK INTER:                  -6.688
REMARK INTRA:                  -0.735
REMARK UNBOUND:                -1.003
REMARK SMILES O=C(CO)[C@@H](O)[C@H](O)[C@H](O)CO
REMARK SMILES IDX 7 1 9 2 11 3 12 4 10 6 5 8 2 9 1 10 3 11 4 12 6 14 8 16
REMARK H PARENT 12 5 10 7 4 13 6 15 8 17
REMARK Flexibility Score: inf
ROOT
ATOM      1  C   UNL     1     -14.119  55.696  20.409  1.00  0.00     0.181 C 
ENDROOT
BRANCH   1   2
ATOM      2  C   UNL     1     -13.643  56.273  19.046  1.00  0.00     0.171 C 
BRANCH   2   3
ATOM      3  C   UNL     1     -12.183  55.924  18.706  1.00  0.00     0.190 C 
BRANCH   3   4
ATOM      4  O   UNL     1     -11.303  56.576  19.579  1.00  0.00    -0.394 OA
ATOM      5  H   UNL     1     -11.714  57.456  19.780  1.00  0.00     0.210 HD
ENDBRANCH   3   4
ENDBRANCH   2   3
BRANCH   2   6
ATOM      6  O   UNL     1     -14.465  55.767  18.025  1.00  0.00    -0.388 OA
ATOM      7  H   UNL     1     -15.285  56.327  18.009  1.00  0.00     0.211 HD
ENDBRANCH   2   6
ENDBRANCH   1   2
BRANCH   1   8
ATOM      8  C   UNL     1     -15.653  55.766  20.631  1.00  0.00     0.214 C 
BRANCH   8   9
ATOM      9  C   UNL     1     -16.327  54.423  20.453  1.00  0.00     0.189 C 
ATOM     10  O   UNL     1     -15.843  53.609  19.681  1.00  0.00    -0.294 OA
BRANCH   9  11
ATOM     11  C   UNL     1     -17.601  54.070  21.181  1.00  0.00     0.234 C 
BRANCH  11  12
ATOM     12  O   UNL     1     -17.324  53.684  22.499  1.00  0.00    -0.388 OA
ATOM     13  H   UNL     1     -18.074  54.021  23.056  1.00  0.00     0.211 HD
ENDBRANCH  11  12
ENDBRANCH   9  11
ENDBRANCH   8   9
BRANCH   8  14
ATOM     14  O   UNL     1     -15.924  56.231  21.929  1.00  0.00    -0.382 OA
ATOM     15  H   UNL     1     -16.647  56.908  21.854  1.00  0.00     0.211 HD
ENDBRANCH   8  14
ENDBRANCH   1   8
BRANCH   1  16
ATOM     16  O   UNL     1     -13.457  56.371  21.451  1.00  0.00    -0.387 OA
ATOM     17  H   UNL     1     -12.557  55.963  21.543  1.00  0.00     0.211 HD
ENDBRANCH   1  16
TORSDOF 10
ENDMDL
MODEL 5
REMARK VINA RESULT:    -4.461      1.688      4.422
REMARK INTER + INTRA:          -7.420
REMARK INTER:                  -5.947
REMARK INTRA:                  -1.473
REMARK UNBOUND:                -1.003
REMARK SMILES O=C(CO)[C@@H](O)[C@H](O)[C@H](O)CO
REMARK SMILES IDX 7 1 9 2 11 3 12 4 10 6 5 8 2 9 1 10 3 11 4 12 6 14 8 16
REMARK H PARENT 12 5 10 7 4 13 6 15 8 17
REMARK Flexibility Score: inf
ROOT
ATOM      1  C   UNL     1     -14.204  56.233  19.577  1.00  0.00     0.181 C 
ENDROOT
BRANCH   1   2
ATOM      2  C   UNL     1     -12.874  55.971  20.340  1.00  0.00     0.171 C 
BRANCH   2   3
ATOM      3  C   UNL     1     -12.586  54.479  20.580  1.00  0.00     0.190 C 
BRANCH   3   4
ATOM      4  O   UNL     1     -13.499  53.941  21.496  1.00  0.00    -0.394 OA
ATOM      5  H   UNL     1     -14.162  54.656  21.677  1.00  0.00     0.210 HD
ENDBRANCH   3   4
ENDBRANCH   2   3
BRANCH   2   6
ATOM      6  O   UNL     1     -11.809  56.511  19.598  1.00  0.00    -0.388 OA
ATOM      7  H   UNL     1     -10.983  56.364  20.129  1.00  0.00     0.211 HD
ENDBRANCH   2   6
ENDBRANCH   1   2
BRANCH   1   8
ATOM      8  C   UNL     1     -15.358  56.758  20.470  1.00  0.00     0.214 C 
BRANCH   8   9
ATOM      9  C   UNL     1     -16.695  56.142  20.113  1.00  0.00     0.189 C 
ATOM     10  O   UNL     1     -17.271  56.513  19.101  1.00  0.00    -0.294 OA
BRANCH   9  11
ATOM     11  C   UNL     1     -17.352  55.105  20.989  1.00  0.00     0.234 C 
BRANCH  11  12
ATOM     12  O   UNL     1     -16.460  54.060  21.268  1.00  0.00    -0.388 OA
ATOM     13  H   UNL     1     -16.819  53.253  20.816  1.00  0.00     0.211 HD
ENDBRANCH  11  12
ENDBRANCH   9  11
ENDBRANCH   8   9
BRANCH   8  14
ATOM     14  O   UNL     1     -15.084  56.471  21.819  1.00  0.00    -0.382 OA
ATOM     15  H   UNL     1     -15.071  57.336  22.307  1.00  0.00     0.211 HD
ENDBRANCH   8  14
ENDBRANCH   1   8
BRANCH   1  16
ATOM     16  O   UNL     1     -14.603  55.050  18.930  1.00  0.00    -0.387 OA
ATOM     17  H   UNL     1     -13.836  54.739  18.383  1.00  0.00     0.211 HD
ENDBRANCH   1  16
TORSDOF 10
ENDMDL
MODEL 6
REMARK VINA RESULT:    -4.360      1.202      4.355
REMARK INTER + INTRA:          -7.274
REMARK INTER:                  -6.023
REMARK INTRA:                  -1.251
REMARK UNBOUND:                -1.003
REMARK SMILES O=C(CO)[C@@H](O)[C@H](O)[C@H](O)CO
REMARK SMILES IDX 7 1 9 2 11 3 12 4 10 6 5 8 2 9 1 10 3 11 4 12 6 14 8 16
REMARK H PARENT 12 5 10 7 4 13 6 15 8 17
REMARK Flexibility Score: inf
ROOT
ATOM      1  C   UNL     1     -13.439  54.834  19.636  1.00  0.00     0.181 C 
ENDROOT
BRANCH   1   2
ATOM      2  C   UNL     1     -13.081  54.960  21.144  1.00  0.00     0.171 C 
BRANCH   2   3
ATOM      3  C   UNL     1     -11.714  54.353  21.505  1.00  0.00     0.190 C 
BRANCH   3   4
ATOM      4  O   UNL     1     -11.861  53.030  21.940  1.00  0.00    -0.394 OA
ATOM      5  H   UNL     1     -12.813  52.927  22.196  1.00  0.00     0.210 HD
ENDBRANCH   3   4
ENDBRANCH   2   3
BRANCH   2   6
ATOM      6  O   UNL     1     -13.065  56.320  21.497  1.00  0.00    -0.388 OA
ATOM      7  H   UNL     1     -13.275  56.371  22.466  1.00  0.00     0.211 HD
ENDBRANCH   2   6
ENDBRANCH   1   2
BRANCH   1   8
ATOM      8  C   UNL     1     -14.837  55.393  19.264  1.00  0.00     0.214 C 
BRANCH   8   9
ATOM      9  C   UNL     1     -15.936  54.850  20.153  1.00  0.00     0.189 C 
ATOM     10  O   UNL     1     -16.156  53.649  20.163  1.00  0.00    -0.294 OA
BRANCH   9  11
ATOM     11  C   UNL     1     -16.790  55.756  21.004  1.00  0.00     0.234 C 
BRANCH  11  12
ATOM     12  O   UNL     1     -16.032  56.316  22.041  1.00  0.00    -0.388 OA
ATOM     13  H   UNL     1     -15.292  55.680  22.226  1.00  0.00     0.211 HD
ENDBRANCH  11  12
ENDBRANCH   9  11
ENDBRANCH   8   9
BRANCH   8  14
ATOM     14  O   UNL     1     -14.832  56.795  19.371  1.00  0.00    -0.382 OA
ATOM     15  H   UNL     1     -14.189  57.033  20.089  1.00  0.00     0.211 HD
ENDBRANCH   8  14
ENDBRANCH   1   8
BRANCH   1  16
ATOM     16  O   UNL     1     -13.351  53.483  19.254  1.00  0.00    -0.387 OA
ATOM     17  H   UNL     1     -13.043  53.462  18.310  1.00  0.00     0.211 HD
ENDBRANCH   1  16
TORSDOF 10
ENDMDL
MODEL 7
REMARK VINA RESULT:    -4.345      1.985      2.916
REMARK INTER + INTRA:          -7.253
REMARK INTER:                  -5.766
REMARK INTRA:                  -1.488
REMARK UNBOUND:                -1.003
REMARK SMILES O=C(CO)[C@@H](O)[C@H](O)[C@H](O)CO
REMARK SMILES IDX 7 1 9 2 11 3 12 4 10 6 5 8 2 9 1 10 3 11 4 12 6 14 8 16
REMARK H PARENT 12 5 10 7 4 13 6 15 8 17
REMARK Flexibility Score: inf
ROOT
ATOM      1  C   UNL     1     -14.021  55.596  20.769  1.00  0.00     0.181 C 
ENDROOT
BRANCH   1   2
ATOM      2  C   UNL     1     -15.571  55.690  20.837  1.00  0.00     0.171 C 
BRANCH   2   3
ATOM      3  C   UNL     1     -16.275  54.323  20.769  1.00  0.00     0.190 C 
BRANCH   3   4
ATOM      4  O   UNL     1     -16.082  53.731  19.515  1.00  0.00    -0.394 OA
ATOM      5  H   UNL     1     -16.750  54.143  18.909  1.00  0.00     0.210 HD
ENDBRANCH   3   4
ENDBRANCH   2   3
BRANCH   2   6
ATOM      6  O   UNL     1     -15.939  56.314  22.042  1.00  0.00    -0.388 OA
ATOM      7  H   UNL     1     -16.777  56.815  21.864  1.00  0.00     0.211 HD
ENDBRANCH   2   6
ENDBRANCH   1   2
BRANCH   1   8
ATOM      8  C   UNL     1     -13.418  55.977  19.392  1.00  0.00     0.214 C 
BRANCH   8   9
ATOM      9  C   UNL     1     -12.413  54.959  18.895  1.00  0.00     0.189 C 
ATOM     10  O   UNL     1     -11.301  54.923  19.399  1.00  0.00    -0.294 OA
BRANCH   9  11
ATOM     11  C   UNL     1     -12.737  54.005  17.773  1.00  0.00     0.234 C 
BRANCH  11  12
ATOM     12  O   UNL     1     -13.712  53.082  18.176  1.00  0.00    -0.388 OA
ATOM     13  H   UNL     1     -13.252  52.422  18.758  1.00  0.00     0.211 HD
ENDBRANCH  11  12
ENDBRANCH   9  11
ENDBRANCH   8   9
BRANCH   8  14
ATOM     14  O   UNL     1     -14.445  56.089  18.438  1.00  0.00    -0.382 OA
ATOM     15  H   UNL     1     -14.481  55.229  17.943  1.00  0.00     0.211 HD
ENDBRANCH   8  14
ENDBRANCH   1   8
BRANCH   1  16
ATOM     16  O   UNL     1     -13.624  54.292  21.117  1.00  0.00    -0.387 OA
ATOM     17  H   UNL     1     -12.744  54.126  20.687  1.00  0.00     0.211 HD
ENDBRANCH   1  16
TORSDOF 10
ENDMDL
MODEL 8
REMARK VINA RESULT:    -4.334      1.867      4.584
REMARK INTER + INTRA:          -7.237
REMARK INTER:                  -6.527
REMARK INTRA:                  -0.710
REMARK UNBOUND:                -1.003
REMARK SMILES O=C(CO)[C@@H](O)[C@H](O)[C@H](O)CO
REMARK SMILES IDX 7 1 9 2 11 3 12 4 10 6 5 8 2 9 1 10 3 11 4 12 6 14 8 16
REMARK H PARENT 12 5 10 7 4 13 6 15 8 17
REMARK Flexibility Score: inf
ROOT
ATOM      1  C   UNL     1     -12.694  54.608  19.950  1.00  0.00     0.181 C 
ENDROOT
BRANCH   1   2
ATOM      2  C   UNL     1     -11.443  55.178  19.223  1.00  0.00     0.171 C 
BRANCH   2   3
ATOM      3  C   UNL     1     -11.609  55.277  17.697  1.00  0.00     0.190 C 
BRANCH   3   4
ATOM      4  O   UNL     1     -10.456  54.822  17.045  1.00  0.00    -0.394 OA
ATOM      5  H   UNL     1     -10.460  55.245  16.148  1.00  0.00     0.210 HD
ENDBRANCH   3   4
ENDBRANCH   2   3
BRANCH   2   6
ATOM      6  O   UNL     1     -11.173  56.465  19.721  1.00  0.00    -0.388 OA
ATOM      7  H   UNL     1     -10.382  56.386  20.315  1.00  0.00     0.211 HD
ENDBRANCH   2   6
ENDBRANCH   1   2
BRANCH   1   8
ATOM      8  C   UNL     1     -13.770  55.671  20.294  1.00  0.00     0.214 C 
BRANCH   8   9
ATOM      9  C   UNL     1     -15.145  55.065  20.482  1.00  0.00     0.189 C 
ATOM     10  O   UNL     1     -15.311  53.877  20.251  1.00  0.00    -0.294 OA
BRANCH   9  11
ATOM     11  C   UNL     1     -16.327  55.895  20.917  1.00  0.00     0.234 C 
BRANCH  11  12
ATOM     12  O   UNL     1     -16.134  56.382  22.217  1.00  0.00    -0.388 OA
ATOM     13  H   UNL     1     -15.468  55.785  22.647  1.00  0.00     0.211 HD
ENDBRANCH  11  12
ENDBRANCH   9  11
ENDBRANCH   8   9
BRANCH   8  14
ATOM     14  O   UNL     1     -13.415  56.340  21.478  1.00  0.00    -0.382 OA
ATOM     15  H   UNL     1     -12.643  56.926  21.265  1.00  0.00     0.211 HD
ENDBRANCH   8  14
ENDBRANCH   1   8
BRANCH   1  16
ATOM     16  O   UNL     1     -12.284  53.949  21.123  1.00  0.00    -0.387 OA
ATOM     17  H   UNL     1     -12.745  54.388  21.885  1.00  0.00     0.211 HD
ENDBRANCH   1  16
TORSDOF 10
ENDMDL
MODEL 9
REMARK VINA RESULT:    -4.266      1.821      3.533
REMARK INTER + INTRA:          -7.139
REMARK INTER:                  -5.954
REMARK INTRA:                  -1.185
REMARK UNBOUND:                -1.003
REMARK SMILES O=C(CO)[C@@H](O)[C@H](O)[C@H](O)CO
REMARK SMILES IDX 7 1 9 2 11 3 12 4 10 6 5 8 2 9 1 10 3 11 4 12 6 14 8 16
REMARK H PARENT 12 5 10 7 4 13 6 15 8 17
REMARK Flexibility Score: inf
ROOT
ATOM      1  C   UNL     1     -13.850  55.784  19.153  1.00  0.00     0.181 C 
ENDROOT
BRANCH   1   2
ATOM      2  C   UNL     1     -12.448  55.969  18.506  1.00  0.00     0.171 C 
BRANCH   2   3
ATOM      3  C   UNL     1     -12.492  56.640  17.122  1.00  0.00     0.190 C 
BRANCH   3   4
ATOM      4  O   UNL     1     -13.210  55.851  16.214  1.00  0.00    -0.394 OA
ATOM      5  H   UNL     1     -12.640  55.771  15.407  1.00  0.00     0.210 HD
ENDBRANCH   3   4
ENDBRANCH   2   3
BRANCH   2   6
ATOM      6  O   UNL     1     -11.656  56.762  19.354  1.00  0.00    -0.388 OA
ATOM      7  H   UNL     1     -10.719  56.682  19.035  1.00  0.00     0.211 HD
ENDBRANCH   2   6
ENDBRANCH   1   2
BRANCH   1   8
ATOM      8  C   UNL     1     -13.816  55.250  20.609  1.00  0.00     0.214 C 
BRANCH   8   9
ATOM      9  C   UNL     1     -12.950  54.016  20.755  1.00  0.00     0.189 C 
ATOM     10  O   UNL     1     -13.189  53.035  20.067  1.00  0.00    -0.294 OA
BRANCH   9  11
ATOM     11  C   UNL     1     -11.818  53.952  21.749  1.00  0.00     0.234 C 
BRANCH  11  12
ATOM     12  O   UNL     1     -10.852  54.925  21.459  1.00  0.00    -0.388 OA
ATOM     13  H   UNL     1     -10.032  54.666  21.954  1.00  0.00     0.211 HD
ENDBRANCH  11  12
ENDBRANCH   9  11
ENDBRANCH   8   9
BRANCH   8  14
ATOM     14  O   UNL     1     -13.318  56.245  21.468  1.00  0.00    -0.382 OA
ATOM     15  H   UNL     1     -12.328  56.167  21.467  1.00  0.00     0.211 HD
ENDBRANCH   8  14
ENDBRANCH   1   8
BRANCH   1  16
ATOM     16  O   UNL     1     -14.617  54.922  18.348  1.00  0.00    -0.387 OA
ATOM     17  H   UNL     1     -14.909  54.165  18.921  1.00  0.00     0.211 HD
ENDBRANCH   1  16
TORSDOF 10
ENDMDL
