MODEL 1
REMARK VINA RESULT:    -6.916      0.000      0.000
REMARK INTER + INTRA:          -8.400
REMARK INTER:                  -8.129
REMARK INTRA:                  -0.271
REMARK UNBOUND:                -0.271
REMARK SMILES O=c1cc(-c2ccc(O)c(O)c2)oc2cc(O)cc(O)c12
REMARK SMILES IDX 4 1 3 2 2 3 1 4 21 5 19 6 18 7 16 8 15 9 14 10 13 11 5 12
REMARK SMILES IDX 6 13 7 14 8 15 12 16 10 17 9 18 11 20 20 22 17 24
REMARK H PARENT 9 19 11 21 20 23 17 25
REMARK Flexibility Score: inf
ROOT
ATOM      1  C   UNL     1       8.072  16.136 -18.490  1.00  0.00     0.138 A 
ATOM      2  C   UNL     1       8.108  15.855 -19.863  1.00  0.00     0.100 A 
ATOM      3  C   UNL     1       8.425  14.567 -20.297  1.00  0.00     0.197 A 
ATOM      4  O   UNL     1       8.387  14.331 -21.531  1.00  0.00    -0.289 OA
ATOM      5  C   UNL     1       8.738  13.564 -19.349  1.00  0.00     0.107 A 
ATOM      6  C   UNL     1       9.115  12.227 -19.676  1.00  0.00     0.134 A 
ATOM      7  C   UNL     1       9.289  11.288 -18.651  1.00  0.00     0.093 A 
ATOM      8  C   UNL     1       9.159  11.652 -17.312  1.00  0.00     0.123 A 
ATOM      9  C   UNL     1       8.844  12.970 -16.978  1.00  0.00     0.094 A 
ATOM     10  C   UNL     1       8.630  13.921 -17.978  1.00  0.00     0.146 A 
ATOM     11  O   UNL     1       8.317  15.161 -17.620  1.00  0.00    -0.456 OA
ENDROOT
BRANCH   1  12
ATOM     12  C   UNL     1       7.743  17.489 -17.974  1.00  0.00     0.021 A 
ATOM     13  C   UNL     1       6.682  17.644 -17.065  1.00  0.00     0.016 A 
ATOM     14  C   UNL     1       6.356  18.904 -16.560  1.00  0.00     0.051 A 
ATOM     15  C   UNL     1       7.089  20.030 -16.944  1.00  0.00     0.157 A 
ATOM     16  C   UNL     1       8.487  18.625 -18.347  1.00  0.00     0.062 A 
ATOM     17  C   UNL     1       8.162  19.892 -17.839  1.00  0.00     0.158 A 
BRANCH  15  18
ATOM     18  O   UNL     1       6.740  21.276 -16.423  1.00  0.00    -0.504 OA
ATOM     19  H   UNL     1       5.781  21.516 -16.200  1.00  0.00     0.293 HD
ENDBRANCH  15  18
BRANCH  17  20
ATOM     20  O   UNL     1       8.904  21.010 -18.217  1.00  0.00    -0.504 OA
ATOM     21  H   UNL     1       8.505  21.744 -18.789  1.00  0.00     0.293 HD
ENDBRANCH  17  20
ENDBRANCH   1  12
BRANCH   6  22
ATOM     22  O   UNL     1       9.354  11.779 -20.979  1.00  0.00    -0.507 OA
ATOM     23  H   UNL     1       8.638  11.583 -21.662  1.00  0.00     0.293 HD
ENDBRANCH   6  22
BRANCH   8  24
ATOM     24  O   UNL     1       9.355  10.696 -16.318  1.00  0.00    -0.508 OA
ATOM     25  H   UNL     1       8.678   9.960 -16.150  1.00  0.00     0.293 HD
ENDBRANCH   8  24
TORSDOF 5
ENDMDL
MODEL 2
REMARK VINA RESULT:    -6.767      2.662      4.479
REMARK INTER + INTRA:          -8.225
REMARK INTER:                  -7.909
REMARK INTRA:                  -0.316
REMARK UNBOUND:                -0.271
REMARK SMILES O=c1cc(-c2ccc(O)c(O)c2)oc2cc(O)cc(O)c12
REMARK SMILES IDX 4 1 3 2 2 3 1 4 21 5 19 6 18 7 16 8 15 9 14 10 13 11 5 12
REMARK SMILES IDX 6 13 7 14 8 15 12 16 10 17 9 18 11 20 20 22 17 24
REMARK H PARENT 9 19 11 21 20 23 17 25
REMARK Flexibility Score: inf
ROOT
ATOM      1  C   UNL     1       8.664  13.336 -18.598  1.00  0.00     0.138 A 
ATOM      2  C   UNL     1       9.039  12.034 -18.956  1.00  0.00     0.100 A 
ATOM      3  C   UNL     1       9.199  11.063 -17.966  1.00  0.00     0.197 A 
ATOM      4  O   UNL     1       9.474   9.890 -18.324  1.00  0.00    -0.289 OA
ATOM      5  C   UNL     1       9.013  11.409 -16.607  1.00  0.00     0.107 A 
ATOM      6  C   UNL     1       9.189  10.514 -15.509  1.00  0.00     0.134 A 
ATOM      7  C   UNL     1       8.863  10.937 -14.214  1.00  0.00     0.093 A 
ATOM      8  C   UNL     1       8.427  12.238 -13.970  1.00  0.00     0.123 A 
ATOM      9  C   UNL     1       8.303  13.139 -15.028  1.00  0.00     0.094 A 
ATOM     10  C   UNL     1       8.587  12.737 -16.336  1.00  0.00     0.146 A 
ATOM     11  O   UNL     1       8.443  13.620 -17.318  1.00  0.00    -0.456 OA
ENDROOT
BRANCH   1  12
ATOM     12  C   UNL     1       8.481  14.407 -19.609  1.00  0.00     0.021 A 
ATOM     13  C   UNL     1       8.464  14.074 -20.975  1.00  0.00     0.016 A 
ATOM     14  C   UNL     1       8.287  15.063 -21.945  1.00  0.00     0.051 A 
ATOM     15  C   UNL     1       8.114  16.398 -21.571  1.00  0.00     0.157 A 
ATOM     16  C   UNL     1       8.294  15.753 -19.237  1.00  0.00     0.062 A 
ATOM     17  C   UNL     1       8.115  16.746 -20.211  1.00  0.00     0.158 A 
BRANCH  15  18
ATOM     18  O   UNL     1       7.941  17.363 -22.563  1.00  0.00    -0.504 OA
ATOM     19  H   UNL     1       7.252  17.260 -23.300  1.00  0.00     0.293 HD
ENDBRANCH  15  18
BRANCH  17  20
ATOM     20  O   UNL     1       7.932  18.075 -19.831  1.00  0.00    -0.504 OA
ATOM     21  H   UNL     1       7.429  18.730 -20.417  1.00  0.00     0.293 HD
ENDBRANCH  17  20
ENDBRANCH   1  12
BRANCH   6  22
ATOM     22  O   UNL     1       9.700   9.218 -15.632  1.00  0.00    -0.507 OA
ATOM     23  H   UNL     1       9.637   8.504 -14.923  1.00  0.00     0.293 HD
ENDBRANCH   6  22
BRANCH   8  24
ATOM     24  O   UNL     1       8.127  12.629 -12.667  1.00  0.00    -0.508 OA
ATOM     25  H   UNL     1       7.209  12.478 -12.266  1.00  0.00     0.293 HD
ENDBRANCH   8  24
TORSDOF 5
ENDMDL
MODEL 3
REMARK VINA RESULT:    -6.656      5.199     10.491
REMARK INTER + INTRA:          -8.094
REMARK INTER:                  -7.815
REMARK INTRA:                  -0.279
REMARK UNBOUND:                -0.271
REMARK SMILES O=c1cc(-c2ccc(O)c(O)c2)oc2cc(O)cc(O)c12
REMARK SMILES IDX 4 1 3 2 2 3 1 4 21 5 19 6 18 7 16 8 15 9 14 10 13 11 5 12
REMARK SMILES IDX 6 13 7 14 8 15 12 16 10 17 9 18 11 20 20 22 17 24
REMARK H PARENT 9 19 11 21 20 23 17 25
REMARK Flexibility Score: inf
ROOT
ATOM      1  C   UNL     1       7.370   8.322 -15.059  1.00  0.00     0.138 A 
ATOM      2  C   UNL     1       6.979   8.618 -13.746  1.00  0.00     0.100 A 
ATOM      3  C   UNL     1       7.247   9.880 -13.214  1.00  0.00     0.197 A 
ATOM      4  O   UNL     1       6.828  10.137 -12.056  1.00  0.00    -0.289 OA
ATOM      5  C   UNL     1       7.938  10.839 -13.992  1.00  0.00     0.107 A 
ATOM      6  C   UNL     1       8.301  12.143 -13.539  1.00  0.00     0.134 A 
ATOM      7  C   UNL     1       8.880  13.049 -14.437  1.00  0.00     0.093 A 
ATOM      8  C   UNL     1       9.164  12.679 -15.751  1.00  0.00     0.123 A 
ATOM      9  C   UNL     1       8.863  11.388 -16.189  1.00  0.00     0.094 A 
ATOM     10  C   UNL     1       8.253  10.473 -15.328  1.00  0.00     0.146 A 
ATOM     11  O   UNL     1       7.969   9.260 -15.787  1.00  0.00    -0.456 OA
ENDROOT
BRANCH   1  12
ATOM     12  C   UNL     1       7.112   6.996 -15.675  1.00  0.00     0.021 A 
ATOM     13  C   UNL     1       6.649   6.926 -17.000  1.00  0.00     0.016 A 
ATOM     14  C   UNL     1       6.405   5.691 -17.604  1.00  0.00     0.051 A 
ATOM     15  C   UNL     1       6.629   4.504 -16.901  1.00  0.00     0.157 A 
ATOM     16  C   UNL     1       7.349   5.796 -14.976  1.00  0.00     0.062 A 
ATOM     17  C   UNL     1       7.106   4.555 -15.582  1.00  0.00     0.158 A 
BRANCH  15  18
ATOM     18  O   UNL     1       6.375   3.286 -17.531  1.00  0.00    -0.504 OA
ATOM     19  H   UNL     1       6.036   2.477 -17.023  1.00  0.00     0.293 HD
ENDBRANCH  15  18
BRANCH  17  20
ATOM     20  O   UNL     1       7.343   3.374 -14.879  1.00  0.00    -0.504 OA
ATOM     21  H   UNL     1       8.156   3.263 -14.287  1.00  0.00     0.293 HD
ENDBRANCH  17  20
ENDBRANCH   1  12
BRANCH   6  22
ATOM     22  O   UNL     1       8.138  12.587 -12.223  1.00  0.00    -0.507 OA
ATOM     23  H   UNL     1       8.810  13.140 -11.714  1.00  0.00     0.293 HD
ENDBRANCH   6  22
BRANCH   8  24
ATOM     24  O   UNL     1       9.755  13.601 -16.612  1.00  0.00    -0.508 OA
ATOM     25  H   UNL     1       9.544  13.612 -17.602  1.00  0.00     0.293 HD
ENDBRANCH   8  24
TORSDOF 5
ENDMDL
MODEL 4
REMARK VINA RESULT:    -6.579      2.937      7.489
REMARK INTER + INTRA:          -8.003
REMARK INTER:                  -7.740
REMARK INTRA:                  -0.264
REMARK UNBOUND:                -0.271
REMARK SMILES O=c1cc(-c2ccc(O)c(O)c2)oc2cc(O)cc(O)c12
REMARK SMILES IDX 4 1 3 2 2 3 1 4 21 5 19 6 18 7 16 8 15 9 14 10 13 11 5 12
REMARK SMILES IDX 6 13 7 14 8 15 12 16 10 17 9 18 11 20 20 22 17 24
REMARK H PARENT 9 19 11 21 20 23 17 25
REMARK Flexibility Score: inf
ROOT
ATOM      1  C   UNL     1       9.142  12.410 -17.541  1.00  0.00     0.138 A 
ATOM      2  C   UNL     1       9.591  13.525 -16.819  1.00  0.00     0.100 A 
ATOM      3  C   UNL     1       9.619  14.779 -17.431  1.00  0.00     0.197 A 
ATOM      4  O   UNL     1       9.967  15.769 -16.739  1.00  0.00    -0.289 OA
ATOM      5  C   UNL     1       9.225  14.909 -18.784  1.00  0.00     0.107 A 
ATOM      6  C   UNL     1       9.251  16.129 -19.524  1.00  0.00     0.134 A 
ATOM      7  C   UNL     1       8.727  16.161 -20.823  1.00  0.00     0.093 A 
ATOM      8  C   UNL     1       8.234  15.006 -21.428  1.00  0.00     0.123 A 
ATOM      9  C   UNL     1       8.254  13.795 -20.734  1.00  0.00     0.094 A 
ATOM     10  C   UNL     1       8.738  13.739 -19.426  1.00  0.00     0.146 A 
ATOM     11  O   UNL     1       8.726  12.570 -18.793  1.00  0.00    -0.456 OA
ENDROOT
BRANCH   1  12
ATOM     12  C   UNL     1       9.093  11.054 -16.940  1.00  0.00     0.021 A 
ATOM     13  C   UNL     1       7.853  10.501 -16.577  1.00  0.00     0.016 A 
ATOM     14  C   UNL     1       7.779   9.225 -16.016  1.00  0.00     0.051 A 
ATOM     15  C   UNL     1       8.940   8.473 -15.816  1.00  0.00     0.157 A 
ATOM     16  C   UNL     1      10.259  10.286 -16.748  1.00  0.00     0.062 A 
ATOM     17  C   UNL     1      10.186   9.003 -16.186  1.00  0.00     0.158 A 
BRANCH  15  18
ATOM     18  O   UNL     1       8.835   7.201 -15.252  1.00  0.00    -0.504 OA
ATOM     19  H   UNL     1       8.033   6.923 -14.698  1.00  0.00     0.293 HD
ENDBRANCH  15  18
BRANCH  17  20
ATOM     20  O   UNL     1      11.347   8.253 -15.999  1.00  0.00    -0.504 OA
ATOM     21  H   UNL     1      11.959   8.021 -16.772  1.00  0.00     0.293 HD
ENDBRANCH  17  20
ENDBRANCH   1  12
BRANCH   6  22
ATOM     22  O   UNL     1       9.799  17.323 -19.043  1.00  0.00    -0.507 OA
ATOM     23  H   UNL     1       9.264  18.127 -18.754  1.00  0.00     0.293 HD
ENDBRANCH   6  22
BRANCH   8  24
ATOM     24  O   UNL     1       7.735  15.071 -22.727  1.00  0.00    -0.508 OA
ATOM     25  H   UNL     1       7.763  14.270 -23.347  1.00  0.00     0.293 HD
ENDBRANCH   8  24
TORSDOF 5
ENDMDL
MODEL 5
REMARK VINA RESULT:    -6.535      2.473      7.198
REMARK INTER + INTRA:          -7.952
REMARK INTER:                  -7.678
REMARK INTRA:                  -0.274
REMARK UNBOUND:                -0.271
REMARK SMILES O=c1cc(-c2ccc(O)c(O)c2)oc2cc(O)cc(O)c12
REMARK SMILES IDX 4 1 3 2 2 3 1 4 21 5 19 6 18 7 16 8 15 9 14 10 13 11 5 12
REMARK SMILES IDX 6 13 7 14 8 15 12 16 10 17 9 18 11 20 20 22 17 24
REMARK H PARENT 9 19 11 21 20 23 17 25
REMARK Flexibility Score: inf
ROOT
ATOM      1  C   UNL     1       9.113  11.946 -17.813  1.00  0.00     0.138 A 
ATOM      2  C   UNL     1       8.706  11.630 -19.117  1.00  0.00     0.100 A 
ATOM      3  C   UNL     1       8.524  12.651 -20.050  1.00  0.00     0.197 A 
ATOM      4  O   UNL     1       8.220  12.331 -21.228  1.00  0.00    -0.289 OA
ATOM      5  C   UNL     1       8.722  13.999 -19.665  1.00  0.00     0.107 A 
ATOM      6  C   UNL     1       8.527  15.124 -20.521  1.00  0.00     0.134 A 
ATOM      7  C   UNL     1       8.866  16.405 -20.064  1.00  0.00     0.093 A 
ATOM      8  C   UNL     1       9.335  16.606 -18.767  1.00  0.00     0.123 A 
ATOM      9  C   UNL     1       9.478  15.519 -17.904  1.00  0.00     0.094 A 
ATOM     10  C   UNL     1       9.181  14.226 -18.340  1.00  0.00     0.146 A 
ATOM     11  O   UNL     1       9.344  13.215 -17.494  1.00  0.00    -0.456 OA
ENDROOT
BRANCH   1  12
ATOM     12  C   UNL     1       9.319  10.900 -16.780  1.00  0.00     0.021 A 
ATOM     13  C   UNL     1      10.325   9.935 -16.962  1.00  0.00     0.016 A 
ATOM     14  C   UNL     1      10.542   8.945 -16.002  1.00  0.00     0.051 A 
ATOM     15  C   UNL     1       9.769   8.906 -14.839  1.00  0.00     0.157 A 
ATOM     16  C   UNL     1       8.550  10.863 -15.599  1.00  0.00     0.062 A 
ATOM     17  C   UNL     1       8.769   9.870 -14.633  1.00  0.00     0.158 A 
BRANCH  15  18
ATOM     18  O   UNL     1      10.010   7.904 -13.899  1.00  0.00    -0.504 OA
ATOM     19  H   UNL     1       9.920   8.067 -12.903  1.00  0.00     0.293 HD
ENDBRANCH  15  18
BRANCH  17  20
ATOM     20  O   UNL     1       8.002   9.843 -13.470  1.00  0.00    -0.504 OA
ATOM     21  H   UNL     1       7.013   9.624 -13.491  1.00  0.00     0.293 HD
ENDBRANCH  17  20
ENDBRANCH   1  12
BRANCH   6  22
ATOM     22  O   UNL     1       7.985  15.044 -21.807  1.00  0.00    -0.507 OA
ATOM     23  H   UNL     1       7.541  15.807 -22.294  1.00  0.00     0.293 HD
ENDBRANCH   6  22
BRANCH   8  24
ATOM     24  O   UNL     1       9.647  17.895 -18.342  1.00  0.00    -0.508 OA
ATOM     25  H   UNL     1       8.930  18.541 -18.034  1.00  0.00     0.293 HD
ENDBRANCH   8  24
TORSDOF 5
ENDMDL
MODEL 6
REMARK VINA RESULT:    -6.512      2.358      6.350
REMARK INTER + INTRA:          -7.924
REMARK INTER:                  -7.619
REMARK INTRA:                  -0.305
REMARK UNBOUND:                -0.271
REMARK SMILES O=c1cc(-c2ccc(O)c(O)c2)oc2cc(O)cc(O)c12
REMARK SMILES IDX 4 1 3 2 2 3 1 4 21 5 19 6 18 7 16 8 15 9 14 10 13 11 5 12
REMARK SMILES IDX 6 13 7 14 8 15 12 16 10 17 9 18 11 20 20 22 17 24
REMARK H PARENT 9 19 11 21 20 23 17 25
REMARK Flexibility Score: inf
ROOT
ATOM      1  C   UNL     1       8.058  13.098 -17.178  1.00  0.00     0.138 A 
ATOM      2  C   UNL     1       8.451  12.473 -18.369  1.00  0.00     0.100 A 
ATOM      3  C   UNL     1       8.585  13.228 -19.535  1.00  0.00     0.197 A 
ATOM      4  O   UNL     1       9.000  12.650 -20.572  1.00  0.00    -0.289 OA
ATOM      5  C   UNL     1       8.292  14.612 -19.513  1.00  0.00     0.107 A 
ATOM      6  C   UNL     1       8.354  15.474 -20.649  1.00  0.00     0.134 A 
ATOM      7  C   UNL     1       8.156  16.850 -20.483  1.00  0.00     0.093 A 
ATOM      8  C   UNL     1       7.838  17.387 -19.237  1.00  0.00     0.123 A 
ATOM      9  C   UNL     1       7.722  16.547 -18.128  1.00  0.00     0.094 A 
ATOM     10  C   UNL     1       7.948  15.174 -18.255  1.00  0.00     0.146 A 
ATOM     11  O   UNL     1       7.842  14.410 -17.173  1.00  0.00    -0.456 OA
ENDROOT
BRANCH   1  12
ATOM     12  C   UNL     1       7.898  12.343 -15.910  1.00  0.00     0.021 A 
ATOM     13  C   UNL     1       7.520  10.990 -15.953  1.00  0.00     0.016 A 
ATOM     14  C   UNL     1       7.369  10.256 -14.774  1.00  0.00     0.051 A 
ATOM     15  C   UNL     1       7.603  10.856 -13.534  1.00  0.00     0.157 A 
ATOM     16  C   UNL     1       8.145  12.939 -14.658  1.00  0.00     0.062 A 
ATOM     17  C   UNL     1       7.995  12.202 -13.473  1.00  0.00     0.158 A 
BRANCH  15  18
ATOM     18  O   UNL     1       7.443  10.097 -12.374  1.00  0.00    -0.504 OA
ATOM     19  H   UNL     1       6.537   9.959 -11.942  1.00  0.00     0.293 HD
ENDBRANCH  15  18
BRANCH  17  20
ATOM     20  O   UNL     1       8.241  12.802 -12.239  1.00  0.00    -0.504 OA
ATOM     21  H   UNL     1       7.891  12.404 -11.376  1.00  0.00     0.293 HD
ENDBRANCH  17  20
ENDBRANCH   1  12
BRANCH   6  22
ATOM     22  O   UNL     1       8.581  15.029 -21.955  1.00  0.00    -0.507 OA
ATOM     23  H   UNL     1       9.314  14.393 -22.229  1.00  0.00     0.293 HD
ENDBRANCH   6  22
BRANCH   8  24
ATOM     24  O   UNL     1       7.632  18.759 -19.112  1.00  0.00    -0.508 OA
ATOM     25  H   UNL     1       6.720  19.140 -18.889  1.00  0.00     0.293 HD
ENDBRANCH   8  24
TORSDOF 5
ENDMDL
MODEL 7
REMARK VINA RESULT:    -6.434      3.217      7.788
REMARK INTER + INTRA:          -7.832
REMARK INTER:                  -7.563
REMARK INTRA:                  -0.269
REMARK UNBOUND:                -0.271
REMARK SMILES O=c1cc(-c2ccc(O)c(O)c2)oc2cc(O)cc(O)c12
REMARK SMILES IDX 4 1 3 2 2 3 1 4 21 5 19 6 18 7 16 8 15 9 14 10 13 11 5 12
REMARK SMILES IDX 6 13 7 14 8 15 12 16 10 17 9 18 11 20 20 22 17 24
REMARK H PARENT 9 19 11 21 20 23 17 25
REMARK Flexibility Score: inf
ROOT
ATOM      1  C   UNL     1       9.335  11.852 -16.632  1.00  0.00     0.138 A 
ATOM      2  C   UNL     1      10.063  12.889 -16.032  1.00  0.00     0.100 A 
ATOM      3  C   UNL     1      10.191  14.113 -16.688  1.00  0.00     0.197 A 
ATOM      4  O   UNL     1      10.797  15.043 -16.097  1.00  0.00    -0.289 OA
ATOM      5  C   UNL     1       9.612  14.289 -17.968  1.00  0.00     0.107 A 
ATOM      6  C   UNL     1       9.712  15.479 -18.749  1.00  0.00     0.134 A 
ATOM      7  C   UNL     1       8.999  15.579 -19.950  1.00  0.00     0.093 A 
ATOM      8  C   UNL     1       8.240  14.511 -20.428  1.00  0.00     0.123 A 
ATOM      9  C   UNL     1       8.178  13.322 -19.699  1.00  0.00     0.094 A 
ATOM     10  C   UNL     1       8.851  13.205 -18.480  1.00  0.00     0.146 A 
ATOM     11  O   UNL     1       8.755  12.062 -17.809  1.00  0.00    -0.456 OA
ENDROOT
BRANCH   1  12
ATOM     12  C   UNL     1       9.169  10.530 -15.979  1.00  0.00     0.021 A 
ATOM     13  C   UNL     1      10.249   9.632 -15.948  1.00  0.00     0.016 A 
ATOM     14  C   UNL     1      10.120   8.384 -15.334  1.00  0.00     0.051 A 
ATOM     15  C   UNL     1       8.915   8.014 -14.732  1.00  0.00     0.157 A 
ATOM     16  C   UNL     1       7.960  10.157 -15.358  1.00  0.00     0.062 A 
ATOM     17  C   UNL     1       7.829   8.905 -14.740  1.00  0.00     0.158 A 
BRANCH  15  18
ATOM     18  O   UNL     1       8.816   6.761 -14.128  1.00  0.00    -0.504 OA
ATOM     19  H   UNL     1       8.640   6.654 -13.135  1.00  0.00     0.293 HD
ENDBRANCH  15  18
BRANCH  17  20
ATOM     20  O   UNL     1       6.628   8.546 -14.130  1.00  0.00    -0.504 OA
ATOM     21  H   UNL     1       6.532   7.679 -13.615  1.00  0.00     0.293 HD
ENDBRANCH  17  20
ENDBRANCH   1  12
BRANCH   6  22
ATOM     22  O   UNL     1      10.511  16.574 -18.405  1.00  0.00    -0.507 OA
ATOM     23  H   UNL     1      11.347  16.524 -17.843  1.00  0.00     0.293 HD
ENDBRANCH   6  22
BRANCH   8  24
ATOM     24  O   UNL     1       7.557  14.640 -21.635  1.00  0.00    -0.508 OA
ATOM     25  H   UNL     1       6.695  14.138 -21.812  1.00  0.00     0.293 HD
ENDBRANCH   8  24
TORSDOF 5
ENDMDL
MODEL 8
REMARK VINA RESULT:    -6.351      3.915      7.072
REMARK INTER + INTRA:          -7.735
REMARK INTER:                  -7.442
REMARK INTRA:                  -0.294
REMARK UNBOUND:                -0.271
REMARK SMILES O=c1cc(-c2ccc(O)c(O)c2)oc2cc(O)cc(O)c12
REMARK SMILES IDX 4 1 3 2 2 3 1 4 21 5 19 6 18 7 16 8 15 9 14 10 13 11 5 12
REMARK SMILES IDX 6 13 7 14 8 15 12 16 10 17 9 18 11 20 20 22 17 24
REMARK H PARENT 9 19 11 21 20 23 17 25
REMARK Flexibility Score: inf
ROOT
ATOM      1  C   UNL     1       7.746  11.311 -16.290  1.00  0.00     0.138 A 
ATOM      2  C   UNL     1       7.966  11.917 -15.045  1.00  0.00     0.100 A 
ATOM      3  C   UNL     1       7.746  11.191 -13.874  1.00  0.00     0.197 A 
ATOM      4  O   UNL     1       8.012  11.742 -12.775  1.00  0.00    -0.289 OA
ATOM      5  C   UNL     1       7.274   9.859 -13.951  1.00  0.00     0.107 A 
ATOM      6  C   UNL     1       6.977   9.036 -12.824  1.00  0.00     0.134 A 
ATOM      7  C   UNL     1       6.627   7.694 -13.022  1.00  0.00     0.093 A 
ATOM      8  C   UNL     1       6.505   7.163 -14.305  1.00  0.00     0.123 A 
ATOM      9  C   UNL     1       6.741   7.973 -15.417  1.00  0.00     0.094 A 
ATOM     10  C   UNL     1       7.125   9.306 -15.251  1.00  0.00     0.146 A 
ATOM     11  O   UNL     1       7.355  10.041 -16.334  1.00  0.00    -0.456 OA
ENDROOT
BRANCH   1  12
ATOM     12  C   UNL     1       7.962  12.037 -17.566  1.00  0.00     0.021 A 
ATOM     13  C   UNL     1       7.509  13.361 -17.694  1.00  0.00     0.016 A 
ATOM     14  C   UNL     1       7.706  14.068 -18.883  1.00  0.00     0.051 A 
ATOM     15  C   UNL     1       8.366  13.471 -19.960  1.00  0.00     0.157 A 
ATOM     16  C   UNL     1       8.638  11.444 -18.651  1.00  0.00     0.062 A 
ATOM     17  C   UNL     1       8.838  12.154 -19.844  1.00  0.00     0.158 A 
BRANCH  15  18
ATOM     18  O   UNL     1       8.546  14.202 -21.134  1.00  0.00    -0.504 OA
ATOM     19  H   UNL     1       7.772  14.441 -21.743  1.00  0.00     0.293 HD
ENDBRANCH  15  18
BRANCH  17  20
ATOM     20  O   UNL     1       9.507  11.556 -20.911  1.00  0.00    -0.504 OA
ATOM     21  H   UNL     1      10.510  11.643 -21.024  1.00  0.00     0.293 HD
ENDBRANCH  17  20
ENDBRANCH   1  12
BRANCH   6  22
ATOM     22  O   UNL     1       6.985   9.490 -11.501  1.00  0.00    -0.507 OA
ATOM     23  H   UNL     1       6.888   8.900 -10.689  1.00  0.00     0.293 HD
ENDBRANCH   6  22
BRANCH   8  24
ATOM     24  O   UNL     1       6.140   5.829 -14.465  1.00  0.00    -0.508 OA
ATOM     25  H   UNL     1       5.292   5.458 -14.052  1.00  0.00     0.293 HD
ENDBRANCH   8  24
TORSDOF 5
ENDMDL
