MODEL 1
REMARK VINA RESULT:    -7.268      0.000      0.000
REMARK INTER + INTRA:          -8.819
REMARK INTER:                  -8.543
REMARK INTRA:                  -0.277
REMARK UNBOUND:                -0.277
REMARK SMILES O=c1cc(-c2ccc(O)c(O)c2)oc2cc(O)cc(O)c12
REMARK SMILES IDX 4 1 3 2 2 3 1 4 21 5 19 6 18 7 16 8 15 9 14 10 13 11 5 12
REMARK SMILES IDX 6 13 7 14 8 15 12 16 10 17 9 18 11 20 20 22 17 24
REMARK H PARENT 9 19 11 21 20 23 17 25
REMARK Flexibility Score: inf
ROOT
ATOM      1  C   UNL     1      -6.081 -33.649 -49.644  1.00  0.00     0.138 A 
ATOM      2  C   UNL     1      -7.165 -34.368 -50.166  1.00  0.00     0.100 A 
ATOM      3  C   UNL     1      -8.432 -33.785 -50.187  1.00  0.00     0.197 A 
ATOM      4  O   UNL     1      -9.397 -34.476 -50.605  1.00  0.00    -0.289 OA
ATOM      5  C   UNL     1      -8.608 -32.464 -49.710  1.00  0.00     0.107 A 
ATOM      6  C   UNL     1      -9.846 -31.755 -49.720  1.00  0.00     0.134 A 
ATOM      7  C   UNL     1      -9.924 -30.494 -49.113  1.00  0.00     0.093 A 
ATOM      8  C   UNL     1      -8.794 -29.894 -48.552  1.00  0.00     0.123 A 
ATOM      9  C   UNL     1      -7.569 -30.556 -48.586  1.00  0.00     0.094 A 
ATOM     10  C   UNL     1      -7.467 -31.828 -49.152  1.00  0.00     0.146 A 
ATOM     11  O   UNL     1      -6.282 -32.432 -49.150  1.00  0.00    -0.456 OA
ENDROOT
BRANCH   1  12
ATOM     12  C   UNL     1      -4.710 -34.220 -49.598  1.00  0.00     0.021 A 
ATOM     13  C   UNL     1      -4.006 -34.547 -50.773  1.00  0.00     0.016 A 
ATOM     14  C   UNL     1      -2.714 -35.072 -50.700  1.00  0.00     0.051 A 
ATOM     15  C   UNL     1      -2.099 -35.275 -49.458  1.00  0.00     0.157 A 
ATOM     16  C   UNL     1      -4.082 -34.414 -48.355  1.00  0.00     0.062 A 
ATOM     17  C   UNL     1      -2.788 -34.942 -48.281  1.00  0.00     0.158 A 
BRANCH  15  18
ATOM     18  O   UNL     1      -0.811 -35.801 -49.391  1.00  0.00    -0.504 OA
ATOM     19  H   UNL     1      -0.471 -36.269 -48.559  1.00  0.00     0.293 HD
ENDBRANCH  15  18
BRANCH  17  20
ATOM     20  O   UNL     1      -2.203 -35.127 -47.027  1.00  0.00    -0.504 OA
ATOM     21  H   UNL     1      -2.059 -34.359 -46.383  1.00  0.00     0.293 HD
ENDBRANCH  17  20
ENDBRANCH   1  12
BRANCH   6  22
ATOM     22  O   UNL     1     -11.013 -32.228 -50.327  1.00  0.00    -0.507 OA
ATOM     23  H   UNL     1     -11.902 -31.753 -50.314  1.00  0.00     0.293 HD
ENDBRANCH   6  22
BRANCH   8  24
ATOM     24  O   UNL     1      -8.877 -28.632 -47.965  1.00  0.00    -0.508 OA
ATOM     25  H   UNL     1      -8.461 -27.817 -48.400  1.00  0.00     0.293 HD
ENDBRANCH   8  24
TORSDOF 5
ENDMDL
MODEL 2
REMARK VINA RESULT:    -7.220      2.078      7.266
REMARK INTER + INTRA:          -8.763
REMARK INTER:                  -8.486
REMARK INTRA:                  -0.277
REMARK UNBOUND:                -0.277
REMARK SMILES O=c1cc(-c2ccc(O)c(O)c2)oc2cc(O)cc(O)c12
REMARK SMILES IDX 4 1 3 2 2 3 1 4 21 5 19 6 18 7 16 8 15 9 14 10 13 11 5 12
REMARK SMILES IDX 6 13 7 14 8 15 12 16 10 17 9 18 11 20 20 22 17 24
REMARK H PARENT 9 19 11 21 20 23 17 25
REMARK Flexibility Score: inf
ROOT
ATOM      1  C   UNL     1      -5.474 -32.988 -49.559  1.00  0.00     0.138 A 
ATOM      2  C   UNL     1      -4.380 -32.137 -49.766  1.00  0.00     0.100 A 
ATOM      3  C   UNL     1      -3.116 -32.683 -49.995  1.00  0.00     0.197 A 
ATOM      4  O   UNL     1      -2.142 -31.896 -50.115  1.00  0.00    -0.289 OA
ATOM      5  C   UNL     1      -2.955 -34.088 -50.047  1.00  0.00     0.107 A 
ATOM      6  C   UNL     1      -1.722 -34.756 -50.313  1.00  0.00     0.134 A 
ATOM      7  C   UNL     1      -1.660 -36.152 -50.224  1.00  0.00     0.093 A 
ATOM      8  C   UNL     1      -2.800 -36.907 -49.938  1.00  0.00     0.123 A 
ATOM      9  C   UNL     1      -4.020 -36.268 -49.730  1.00  0.00     0.094 A 
ATOM     10  C   UNL     1      -4.107 -34.875 -49.777  1.00  0.00     0.146 A 
ATOM     11  O   UNL     1      -5.287 -34.303 -49.558  1.00  0.00    -0.456 OA
ENDROOT
BRANCH   1  12
ATOM     12  C   UNL     1      -6.841 -32.461 -49.313  1.00  0.00     0.021 A 
ATOM     13  C   UNL     1      -7.521 -31.689 -50.275  1.00  0.00     0.016 A 
ATOM     14  C   UNL     1      -8.810 -31.216 -50.020  1.00  0.00     0.051 A 
ATOM     15  C   UNL     1      -9.446 -31.509 -48.808  1.00  0.00     0.157 A 
ATOM     16  C   UNL     1      -7.492 -32.763 -48.103  1.00  0.00     0.062 A 
ATOM     17  C   UNL     1      -8.783 -32.288 -47.846  1.00  0.00     0.158 A 
BRANCH  15  18
ATOM     18  O   UNL     1     -10.732 -31.033 -48.558  1.00  0.00    -0.504 OA
ATOM     19  H   UNL     1     -11.059 -30.158 -48.949  1.00  0.00     0.293 HD
ENDBRANCH  15  18
BRANCH  17  20
ATOM     20  O   UNL     1      -9.390 -32.601 -46.629  1.00  0.00    -0.504 OA
ATOM     21  H   UNL     1     -10.301 -32.240 -46.374  1.00  0.00     0.293 HD
ENDBRANCH  17  20
ENDBRANCH   1  12
BRANCH   6  22
ATOM     22  O   UNL     1      -0.546 -34.102 -50.690  1.00  0.00    -0.507 OA
ATOM     23  H   UNL     1       0.116 -34.450 -51.365  1.00  0.00     0.293 HD
ENDBRANCH   6  22
BRANCH   8  24
ATOM     24  O   UNL     1      -2.732 -38.298 -49.867  1.00  0.00    -0.508 OA
ATOM     25  H   UNL     1      -2.544 -38.775 -48.993  1.00  0.00     0.293 HD
ENDBRANCH   8  24
TORSDOF 5
ENDMDL
MODEL 3
REMARK VINA RESULT:    -7.128      1.728      7.324
REMARK INTER + INTRA:          -8.655
REMARK INTER:                  -8.364
REMARK INTRA:                  -0.291
REMARK UNBOUND:                -0.277
REMARK SMILES O=c1cc(-c2ccc(O)c(O)c2)oc2cc(O)cc(O)c12
REMARK SMILES IDX 4 1 3 2 2 3 1 4 21 5 19 6 18 7 16 8 15 9 14 10 13 11 5 12
REMARK SMILES IDX 6 13 7 14 8 15 12 16 10 17 9 18 11 20 20 22 17 24
REMARK H PARENT 9 19 11 21 20 23 17 25
REMARK Flexibility Score: inf
ROOT
ATOM      1  C   UNL     1      -5.953 -32.341 -49.480  1.00  0.00     0.138 A 
ATOM      2  C   UNL     1      -4.845 -31.541 -49.789  1.00  0.00     0.100 A 
ATOM      3  C   UNL     1      -3.597 -32.136 -49.979  1.00  0.00     0.197 A 
ATOM      4  O   UNL     1      -2.608 -31.387 -50.194  1.00  0.00    -0.289 OA
ATOM      5  C   UNL     1      -3.466 -33.542 -49.889  1.00  0.00     0.107 A 
ATOM      6  C   UNL     1      -2.252 -34.261 -50.103  1.00  0.00     0.134 A 
ATOM      7  C   UNL     1      -2.218 -35.642 -49.872  1.00  0.00     0.093 A 
ATOM      8  C   UNL     1      -3.368 -36.338 -49.493  1.00  0.00     0.123 A 
ATOM      9  C   UNL     1      -4.571 -35.653 -49.334  1.00  0.00     0.094 A 
ATOM     10  C   UNL     1      -4.629 -34.271 -49.523  1.00  0.00     0.146 A 
ATOM     11  O   UNL     1      -5.793 -33.653 -49.346  1.00  0.00    -0.456 OA
ENDROOT
BRANCH   1  12
ATOM     12  C   UNL     1      -7.304 -31.761 -49.269  1.00  0.00     0.021 A 
ATOM     13  C   UNL     1      -7.501 -30.615 -48.474  1.00  0.00     0.016 A 
ATOM     14  C   UNL     1      -8.781 -30.085 -48.301  1.00  0.00     0.051 A 
ATOM     15  C   UNL     1      -9.885 -30.681 -48.922  1.00  0.00     0.157 A 
ATOM     16  C   UNL     1      -8.416 -32.347 -49.900  1.00  0.00     0.062 A 
ATOM     17  C   UNL     1      -9.700 -31.817 -49.727  1.00  0.00     0.158 A 
BRANCH  15  18
ATOM     18  O   UNL     1     -11.161 -30.149 -48.745  1.00  0.00    -0.504 OA
ATOM     19  H   UNL     1     -11.721 -29.840 -49.531  1.00  0.00     0.293 HD
ENDBRANCH  15  18
BRANCH  17  20
ATOM     20  O   UNL     1     -10.778 -32.433 -50.363  1.00  0.00    -0.504 OA
ATOM     21  H   UNL     1     -11.179 -33.299 -50.025  1.00  0.00     0.293 HD
ENDBRANCH  17  20
ENDBRANCH   1  12
BRANCH   6  22
ATOM     22  O   UNL     1      -1.068 -33.675 -50.562  1.00  0.00    -0.507 OA
ATOM     23  H   UNL     1      -0.141 -33.975 -50.307  1.00  0.00     0.293 HD
ENDBRANCH   6  22
BRANCH   8  24
ATOM     24  O   UNL     1      -3.328 -37.715 -49.280  1.00  0.00    -0.508 OA
ATOM     25  H   UNL     1      -2.500 -38.259 -49.490  1.00  0.00     0.293 HD
ENDBRANCH   8  24
TORSDOF 5
ENDMDL
MODEL 4
REMARK VINA RESULT:    -6.744      1.640      6.932
REMARK INTER + INTRA:          -8.203
REMARK INTER:                  -7.919
REMARK INTRA:                  -0.285
REMARK UNBOUND:                -0.277
REMARK SMILES O=c1cc(-c2ccc(O)c(O)c2)oc2cc(O)cc(O)c12
REMARK SMILES IDX 4 1 3 2 2 3 1 4 21 5 19 6 18 7 16 8 15 9 14 10 13 11 5 12
REMARK SMILES IDX 6 13 7 14 8 15 12 16 10 17 9 18 11 20 20 22 17 24
REMARK H PARENT 9 19 11 21 20 23 17 25
REMARK Flexibility Score: inf
ROOT
ATOM      1  C   UNL     1      -6.397 -33.576 -49.772  1.00  0.00     0.138 A 
ATOM      2  C   UNL     1      -6.772 -34.888 -50.093  1.00  0.00     0.100 A 
ATOM      3  C   UNL     1      -5.794 -35.816 -50.451  1.00  0.00     0.197 A 
ATOM      4  O   UNL     1      -6.166 -36.969 -50.793  1.00  0.00    -0.289 OA
ATOM      5  C   UNL     1      -4.431 -35.436 -50.458  1.00  0.00     0.107 A 
ATOM      6  C   UNL     1      -3.345 -36.309 -50.766  1.00  0.00     0.134 A 
ATOM      7  C   UNL     1      -2.046 -35.791 -50.854  1.00  0.00     0.093 A 
ATOM      8  C   UNL     1      -1.788 -34.445 -50.585  1.00  0.00     0.123 A 
ATOM      9  C   UNL     1      -2.834 -33.597 -50.230  1.00  0.00     0.094 A 
ATOM     10  C   UNL     1      -4.144 -34.075 -50.168  1.00  0.00     0.146 A 
ATOM     11  O   UNL     1      -5.116 -33.229 -49.840  1.00  0.00    -0.456 OA
ENDROOT
BRANCH   1  12
ATOM     12  C   UNL     1      -7.396 -32.547 -49.384  1.00  0.00     0.021 A 
ATOM     13  C   UNL     1      -7.069 -31.493 -48.509  1.00  0.00     0.016 A 
ATOM     14  C   UNL     1      -8.025 -30.533 -48.170  1.00  0.00     0.051 A 
ATOM     15  C   UNL     1      -9.319 -30.603 -48.701  1.00  0.00     0.157 A 
ATOM     16  C   UNL     1      -8.693 -32.603 -49.925  1.00  0.00     0.062 A 
ATOM     17  C   UNL     1      -9.652 -31.642 -49.584  1.00  0.00     0.158 A 
BRANCH  15  18
ATOM     18  O   UNL     1     -10.270 -29.644 -48.358  1.00  0.00    -0.504 OA
ATOM     19  H   UNL     1     -10.243 -28.707 -48.744  1.00  0.00     0.293 HD
ENDBRANCH  15  18
BRANCH  17  20
ATOM     20  O   UNL     1     -10.931 -31.738 -50.135  1.00  0.00    -0.504 OA
ATOM     21  H   UNL     1     -11.755 -31.424 -49.637  1.00  0.00     0.293 HD
ENDBRANCH  17  20
ENDBRANCH   1  12
BRANCH   6  22
ATOM     22  O   UNL     1      -3.483 -37.685 -50.969  1.00  0.00    -0.507 OA
ATOM     23  H   UNL     1      -3.330 -38.156 -51.847  1.00  0.00     0.293 HD
ENDBRANCH   6  22
BRANCH   8  24
ATOM     24  O   UNL     1      -0.490 -33.942 -50.660  1.00  0.00    -0.508 OA
ATOM     25  H   UNL     1      -0.075 -33.678 -51.545  1.00  0.00     0.293 HD
ENDBRANCH   8  24
TORSDOF 5
ENDMDL
MODEL 5
REMARK VINA RESULT:    -6.716      1.470      3.015
REMARK INTER + INTRA:          -8.171
REMARK INTER:                  -7.886
REMARK INTRA:                  -0.285
REMARK UNBOUND:                -0.277
REMARK SMILES O=c1cc(-c2ccc(O)c(O)c2)oc2cc(O)cc(O)c12
REMARK SMILES IDX 4 1 3 2 2 3 1 4 21 5 19 6 18 7 16 8 15 9 14 10 13 11 5 12
REMARK SMILES IDX 6 13 7 14 8 15 12 16 10 17 9 18 11 20 20 22 17 24
REMARK H PARENT 9 19 11 21 20 23 17 25
REMARK Flexibility Score: inf
ROOT
ATOM      1  C   UNL     1      -5.075 -32.792 -49.703  1.00  0.00     0.138 A 
ATOM      2  C   UNL     1      -4.742 -31.441 -49.534  1.00  0.00     0.100 A 
ATOM      3  C   UNL     1      -5.752 -30.479 -49.519  1.00  0.00     0.197 A 
ATOM      4  O   UNL     1      -5.419 -29.269 -49.428  1.00  0.00    -0.289 OA
ATOM      5  C   UNL     1      -7.105 -30.876 -49.642  1.00  0.00     0.107 A 
ATOM      6  C   UNL     1      -8.220 -29.987 -49.599  1.00  0.00     0.134 A 
ATOM      7  C   UNL     1      -9.507 -30.482 -49.848  1.00  0.00     0.093 A 
ATOM      8  C   UNL     1      -9.724 -31.842 -50.080  1.00  0.00     0.123 A 
ATOM      9  C   UNL     1      -8.647 -32.726 -50.070  1.00  0.00     0.094 A 
ATOM     10  C   UNL     1      -7.349 -32.259 -49.859  1.00  0.00     0.146 A 
ATOM     11  O   UNL     1      -6.348 -33.134 -49.872  1.00  0.00    -0.456 OA
ENDROOT
BRANCH   1  12
ATOM     12  C   UNL     1      -4.040 -33.858 -49.727  1.00  0.00     0.021 A 
ATOM     13  C   UNL     1      -4.319 -35.169 -49.292  1.00  0.00     0.016 A 
ATOM     14  C   UNL     1      -3.330 -36.154 -49.336  1.00  0.00     0.051 A 
ATOM     15  C   UNL     1      -2.050 -35.853 -49.819  1.00  0.00     0.157 A 
ATOM     16  C   UNL     1      -2.757 -33.567 -50.223  1.00  0.00     0.062 A 
ATOM     17  C   UNL     1      -1.765 -34.553 -50.266  1.00  0.00     0.158 A 
BRANCH  15  18
ATOM     18  O   UNL     1      -1.067 -36.839 -49.859  1.00  0.00    -0.504 OA
ATOM     19  H   UNL     1      -0.899 -37.389 -50.693  1.00  0.00     0.293 HD
ENDBRANCH  15  18
BRANCH  17  20
ATOM     20  O   UNL     1      -0.502 -34.221 -50.757  1.00  0.00    -0.504 OA
ATOM     21  H   UNL     1       0.196 -33.766 -50.182  1.00  0.00     0.293 HD
ENDBRANCH  17  20
ENDBRANCH   1  12
BRANCH   6  22
ATOM     22  O   UNL     1      -8.123 -28.627 -49.294  1.00  0.00    -0.507 OA
ATOM     23  H   UNL     1      -7.893 -27.903 -49.956  1.00  0.00     0.293 HD
ENDBRANCH   6  22
BRANCH   8  24
ATOM     24  O   UNL     1     -11.009 -32.327 -50.312  1.00  0.00    -0.508 OA
ATOM     25  H   UNL     1     -11.186 -33.316 -50.447  1.00  0.00     0.293 HD
ENDBRANCH   8  24
TORSDOF 5
ENDMDL
MODEL 6
REMARK VINA RESULT:    -6.451      3.076      3.955
REMARK INTER + INTRA:          -7.859
REMARK INTER:                  -7.594
REMARK INTRA:                  -0.264
REMARK UNBOUND:                -0.277
REMARK SMILES O=c1cc(-c2ccc(O)c(O)c2)oc2cc(O)cc(O)c12
REMARK SMILES IDX 4 1 3 2 2 3 1 4 21 5 19 6 18 7 16 8 15 9 14 10 13 11 5 12
REMARK SMILES IDX 6 13 7 14 8 15 12 16 10 17 9 18 11 20 20 22 17 24
REMARK H PARENT 9 19 11 21 20 23 17 25
REMARK Flexibility Score: inf
ROOT
ATOM      1  C   UNL     1      -5.474 -35.325 -49.693  1.00  0.00     0.138 A 
ATOM      2  C   UNL     1      -4.448 -34.421 -49.999  1.00  0.00     0.100 A 
ATOM      3  C   UNL     1      -4.642 -33.057 -49.777  1.00  0.00     0.197 A 
ATOM      4  O   UNL     1      -3.728 -32.263 -50.119  1.00  0.00    -0.289 OA
ATOM      5  C   UNL     1      -5.859 -32.601 -49.216  1.00  0.00     0.107 A 
ATOM      6  C   UNL     1      -6.152 -31.239 -48.908  1.00  0.00     0.134 A 
ATOM      7  C   UNL     1      -7.435 -30.892 -48.464  1.00  0.00     0.093 A 
ATOM      8  C   UNL     1      -8.415 -31.867 -48.260  1.00  0.00     0.123 A 
ATOM      9  C   UNL     1      -8.121 -33.206 -48.506  1.00  0.00     0.094 A 
ATOM     10  C   UNL     1      -6.863 -33.579 -48.983  1.00  0.00     0.146 A 
ATOM     11  O   UNL     1      -6.628 -34.866 -49.220  1.00  0.00    -0.456 OA
ENDROOT
BRANCH   1  12
ATOM     12  C   UNL     1      -5.322 -36.787 -49.909  1.00  0.00     0.021 A 
ATOM     13  C   UNL     1      -6.046 -37.466 -50.908  1.00  0.00     0.016 A 
ATOM     14  C   UNL     1      -5.874 -38.839 -51.096  1.00  0.00     0.051 A 
ATOM     15  C   UNL     1      -4.975 -39.557 -50.298  1.00  0.00     0.157 A 
ATOM     16  C   UNL     1      -4.411 -37.512 -49.120  1.00  0.00     0.062 A 
ATOM     17  C   UNL     1      -4.239 -38.888 -49.307  1.00  0.00     0.158 A 
BRANCH  15  18
ATOM     18  O   UNL     1      -4.808 -40.928 -50.488  1.00  0.00    -0.504 OA
ATOM     19  H   UNL     1      -4.968 -41.591 -49.739  1.00  0.00     0.293 HD
ENDBRANCH  15  18
BRANCH  17  20
ATOM     20  O   UNL     1      -3.332 -39.573 -48.497  1.00  0.00    -0.504 OA
ATOM     21  H   UNL     1      -3.404 -39.571 -47.487  1.00  0.00     0.293 HD
ENDBRANCH  17  20
ENDBRANCH   1  12
BRANCH   6  22
ATOM     22  O   UNL     1      -5.221 -30.200 -48.997  1.00  0.00    -0.507 OA
ATOM     23  H   UNL     1      -4.632 -29.889 -48.241  1.00  0.00     0.293 HD
ENDBRANCH   6  22
BRANCH   8  24
ATOM     24  O   UNL     1      -9.683 -31.514 -47.803  1.00  0.00    -0.508 OA
ATOM     25  H   UNL     1     -10.124 -30.647 -48.083  1.00  0.00     0.293 HD
ENDBRANCH   8  24
TORSDOF 5
ENDMDL
MODEL 7
REMARK VINA RESULT:    -6.413      1.881      2.378
REMARK INTER + INTRA:          -7.814
REMARK INTER:                  -7.499
REMARK INTRA:                  -0.315
REMARK UNBOUND:                -0.277
REMARK SMILES O=c1cc(-c2ccc(O)c(O)c2)oc2cc(O)cc(O)c12
REMARK SMILES IDX 4 1 3 2 2 3 1 4 21 5 19 6 18 7 16 8 15 9 14 10 13 11 5 12
REMARK SMILES IDX 6 13 7 14 8 15 12 16 10 17 9 18 11 20 20 22 17 24
REMARK H PARENT 9 19 11 21 20 23 17 25
REMARK Flexibility Score: inf
ROOT
ATOM      1  C   UNL     1      -5.655 -32.776 -49.079  1.00  0.00     0.138 A 
ATOM      2  C   UNL     1      -6.715 -33.034 -48.199  1.00  0.00     0.100 A 
ATOM      3  C   UNL     1      -7.769 -32.125 -48.104  1.00  0.00     0.197 A 
ATOM      4  O   UNL     1      -8.676 -32.352 -47.261  1.00  0.00    -0.289 OA
ATOM      5  C   UNL     1      -7.776 -30.967 -48.917  1.00  0.00     0.107 A 
ATOM      6  C   UNL     1      -8.817 -29.992 -48.935  1.00  0.00     0.134 A 
ATOM      7  C   UNL     1      -8.660 -28.827 -49.697  1.00  0.00     0.093 A 
ATOM      8  C   UNL     1      -7.524 -28.631 -50.488  1.00  0.00     0.123 A 
ATOM      9  C   UNL     1      -6.527 -29.603 -50.519  1.00  0.00     0.094 A 
ATOM     10  C   UNL     1      -6.639 -30.758 -49.744  1.00  0.00     0.146 A 
ATOM     11  O   UNL     1      -5.657 -31.654 -49.791  1.00  0.00    -0.456 OA
ENDROOT
BRANCH   1  12
ATOM     12  C   UNL     1      -4.508 -33.709 -49.220  1.00  0.00     0.021 A 
ATOM     13  C   UNL     1      -4.579 -35.042 -48.769  1.00  0.00     0.016 A 
ATOM     14  C   UNL     1      -3.489 -35.901 -48.925  1.00  0.00     0.051 A 
ATOM     15  C   UNL     1      -2.313 -35.450 -49.538  1.00  0.00     0.157 A 
ATOM     16  C   UNL     1      -3.329 -33.268 -49.847  1.00  0.00     0.062 A 
ATOM     17  C   UNL     1      -2.236 -34.127 -50.003  1.00  0.00     0.158 A 
BRANCH  15  18
ATOM     18  O   UNL     1      -1.228 -36.310 -49.690  1.00  0.00    -0.504 OA
ATOM     19  H   UNL     1      -0.674 -36.323 -50.538  1.00  0.00     0.293 HD
ENDBRANCH  15  18
BRANCH  17  20
ATOM     20  O   UNL     1      -1.081 -33.648 -50.622  1.00  0.00    -0.504 OA
ATOM     21  H   UNL     1      -0.161 -34.006 -50.396  1.00  0.00     0.293 HD
ENDBRANCH  17  20
ENDBRANCH   1  12
BRANCH   6  22
ATOM     22  O   UNL     1     -10.027 -30.129 -48.248  1.00  0.00    -0.507 OA
ATOM     23  H   UNL     1     -10.844 -30.596 -48.607  1.00  0.00     0.293 HD
ENDBRANCH   6  22
BRANCH   8  24
ATOM     24  O   UNL     1      -7.383 -27.476 -51.254  1.00  0.00    -0.508 OA
ATOM     25  H   UNL     1      -6.674 -26.784 -51.044  1.00  0.00     0.293 HD
ENDBRANCH   8  24
TORSDOF 5
ENDMDL
MODEL 8
REMARK VINA RESULT:    -6.375      2.000      7.351
REMARK INTER + INTRA:          -7.770
REMARK INTER:                  -7.455
REMARK INTRA:                  -0.315
REMARK UNBOUND:                -0.277
REMARK SMILES O=c1cc(-c2ccc(O)c(O)c2)oc2cc(O)cc(O)c12
REMARK SMILES IDX 4 1 3 2 2 3 1 4 21 5 19 6 18 7 16 8 15 9 14 10 13 11 5 12
REMARK SMILES IDX 6 13 7 14 8 15 12 16 10 17 9 18 11 20 20 22 17 24
REMARK H PARENT 9 19 11 21 20 23 17 25
REMARK Flexibility Score: inf
ROOT
ATOM      1  C   UNL     1      -5.982 -33.926 -49.329  1.00  0.00     0.138 A 
ATOM      2  C   UNL     1      -4.913 -34.046 -48.430  1.00  0.00     0.100 A 
ATOM      3  C   UNL     1      -3.877 -34.938 -48.707  1.00  0.00     0.197 A 
ATOM      4  O   UNL     1      -2.962 -35.070 -47.852  1.00  0.00    -0.289 OA
ATOM      5  C   UNL     1      -3.897 -35.692 -49.905  1.00  0.00     0.107 A 
ATOM      6  C   UNL     1      -2.876 -36.601 -50.310  1.00  0.00     0.134 A 
ATOM      7  C   UNL     1      -3.061 -37.379 -51.461  1.00  0.00     0.093 A 
ATOM      8  C   UNL     1      -4.203 -37.234 -52.252  1.00  0.00     0.123 A 
ATOM      9  C   UNL     1      -5.181 -36.309 -51.894  1.00  0.00     0.094 A 
ATOM     10  C   UNL     1      -5.042 -35.545 -50.733  1.00  0.00     0.146 A 
ATOM     11  O   UNL     1      -6.006 -34.685 -50.419  1.00  0.00    -0.456 OA
ENDROOT
BRANCH   1  12
ATOM     12  C   UNL     1      -7.110 -32.991 -49.085  1.00  0.00     0.021 A 
ATOM     13  C   UNL     1      -7.009 -31.936 -48.157  1.00  0.00     0.016 A 
ATOM     14  C   UNL     1      -8.083 -31.066 -47.955  1.00  0.00     0.051 A 
ATOM     15  C   UNL     1      -9.271 -31.226 -48.679  1.00  0.00     0.157 A 
ATOM     16  C   UNL     1      -8.302 -33.138 -49.817  1.00  0.00     0.062 A 
ATOM     17  C   UNL     1      -9.379 -32.267 -49.615  1.00  0.00     0.158 A 
BRANCH  15  18
ATOM     18  O   UNL     1     -10.340 -30.356 -48.473  1.00  0.00    -0.504 OA
ATOM     19  H   UNL     1     -10.305 -29.630 -47.767  1.00  0.00     0.293 HD
ENDBRANCH  15  18
BRANCH  17  20
ATOM     20  O   UNL     1     -10.547 -32.452 -50.355  1.00  0.00    -0.504 OA
ATOM     21  H   UNL     1     -10.842 -31.795 -51.067  1.00  0.00     0.293 HD
ENDBRANCH  17  20
ENDBRANCH   1  12
BRANCH   6  22
ATOM     22  O   UNL     1      -1.660 -36.761 -49.638  1.00  0.00    -0.507 OA
ATOM     23  H   UNL     1      -1.514 -37.373 -48.851  1.00  0.00     0.293 HD
ENDBRANCH   6  22
BRANCH   8  24
ATOM     24  O   UNL     1      -4.371 -38.000 -53.404  1.00  0.00    -0.508 OA
ATOM     25  H   UNL     1      -4.963 -38.822 -53.412  1.00  0.00     0.293 HD
ENDBRANCH   8  24
TORSDOF 5
ENDMDL
MODEL 9
REMARK VINA RESULT:    -6.365      4.508      5.546
REMARK INTER + INTRA:          -7.758
REMARK INTER:                  -7.496
REMARK INTRA:                  -0.262
REMARK UNBOUND:                -0.277
REMARK SMILES O=c1cc(-c2ccc(O)c(O)c2)oc2cc(O)cc(O)c12
REMARK SMILES IDX 4 1 3 2 2 3 1 4 21 5 19 6 18 7 16 8 15 9 14 10 13 11 5 12
REMARK SMILES IDX 6 13 7 14 8 15 12 16 10 17 9 18 11 20 20 22 17 24
REMARK H PARENT 9 19 11 21 20 23 17 25
REMARK Flexibility Score: inf
ROOT
ATOM      1  C   UNL     1      -4.179 -30.362 -50.148  1.00  0.00     0.138 A 
ATOM      2  C   UNL     1      -3.707 -31.640 -49.819  1.00  0.00     0.100 A 
ATOM      3  C   UNL     1      -4.570 -32.560 -49.222  1.00  0.00     0.197 A 
ATOM      4  O   UNL     1      -4.102 -33.678 -48.881  1.00  0.00    -0.289 OA
ATOM      5  C   UNL     1      -5.919 -32.207 -48.982  1.00  0.00     0.107 A 
ATOM      6  C   UNL     1      -6.898 -33.078 -48.416  1.00  0.00     0.134 A 
ATOM      7  C   UNL     1      -8.174 -32.581 -48.118  1.00  0.00     0.093 A 
ATOM      8  C   UNL     1      -8.522 -31.262 -48.421  1.00  0.00     0.123 A 
ATOM      9  C   UNL     1      -7.590 -30.421 -49.023  1.00  0.00     0.094 A 
ATOM     10  C   UNL     1      -6.300 -30.876 -49.301  1.00  0.00     0.146 A 
ATOM     11  O   UNL     1      -5.435 -30.036 -49.862  1.00  0.00    -0.456 OA
ENDROOT
BRANCH   1  12
ATOM     12  C   UNL     1      -3.305 -29.344 -50.786  1.00  0.00     0.021 A 
ATOM     13  C   UNL     1      -2.727 -28.296 -50.043  1.00  0.00     0.016 A 
ATOM     14  C   UNL     1      -1.900 -27.359 -50.666  1.00  0.00     0.051 A 
ATOM     15  C   UNL     1      -1.630 -27.453 -52.037  1.00  0.00     0.157 A 
ATOM     16  C   UNL     1      -3.018 -29.439 -52.159  1.00  0.00     0.062 A 
ATOM     17  C   UNL     1      -2.191 -28.500 -52.785  1.00  0.00     0.158 A 
BRANCH  15  18
ATOM     18  O   UNL     1      -0.806 -26.514 -52.655  1.00  0.00    -0.504 OA
ATOM     19  H   UNL     1      -0.449 -25.709 -52.153  1.00  0.00     0.293 HD
ENDBRANCH  15  18
BRANCH  17  20
ATOM     20  O   UNL     1      -1.938 -28.625 -54.152  1.00  0.00    -0.504 OA
ATOM     21  H   UNL     1      -2.666 -28.508 -54.846  1.00  0.00     0.293 HD
ENDBRANCH  17  20
ENDBRANCH   1  12
BRANCH   6  22
ATOM     22  O   UNL     1      -6.680 -34.433 -48.153  1.00  0.00    -0.507 OA
ATOM     23  H   UNL     1      -5.784 -34.840 -47.931  1.00  0.00     0.293 HD
ENDBRANCH   6  22
BRANCH   8  24
ATOM     24  O   UNL     1      -9.798 -30.781 -48.135  1.00  0.00    -0.508 OA
ATOM     25  H   UNL     1     -10.051 -29.816 -48.308  1.00  0.00     0.293 HD
ENDBRANCH   8  24
TORSDOF 5
ENDMDL
