MODEL 1
REMARK VINA RESULT:    29.001      0.000      0.000
REMARK INTER + INTRA:          33.820
REMARK INTER:                  34.087
REMARK INTRA:                  -0.268
REMARK UNBOUND:                -0.268
REMARK SMILES O=c1cc(-c2ccc(O)c(O)c2)oc2cc(O)cc(O)c12
REMARK SMILES IDX 4 1 3 2 2 3 1 4 21 5 19 6 18 7 16 8 15 9 14 10 13 11 5 12
REMARK SMILES IDX 6 13 7 14 8 15 12 16 10 17 9 18 11 20 20 22 17 24
REMARK H PARENT 9 19 11 21 20 23 17 25
REMARK Flexibility Score: inf
ROOT
ATOM      1  C   UNL     1      -2.125  -0.557   2.743  1.00  0.00     0.138 A 
ATOM      2  C   UNL     1      -3.045   0.038   3.618  1.00  0.00     0.100 A 
ATOM      3  C   UNL     1      -4.412  -0.093   3.377  1.00  0.00     0.197 A 
ATOM      4  O   UNL     1      -5.212   0.404   4.210  1.00  0.00    -0.289 OA
ATOM      5  C   UNL     1      -4.860  -0.794   2.231  1.00  0.00     0.107 A 
ATOM      6  C   UNL     1      -6.230  -0.963   1.863  1.00  0.00     0.134 A 
ATOM      7  C   UNL     1      -6.554  -1.762   0.759  1.00  0.00     0.093 A 
ATOM      8  C   UNL     1      -5.560  -2.348  -0.024  1.00  0.00     0.123 A 
ATOM      9  C   UNL     1      -4.218  -2.149   0.297  1.00  0.00     0.094 A 
ATOM     10  C   UNL     1      -3.862  -1.387   1.412  1.00  0.00     0.146 A 
ATOM     11  O   UNL     1      -2.572  -1.237   1.693  1.00  0.00    -0.456 OA
ENDROOT
BRANCH   1  12
ATOM     12  C   UNL     1      -0.659  -0.446   2.951  1.00  0.00     0.021 A 
ATOM     13  C   UNL     1       0.135   0.155   1.961  1.00  0.00     0.016 A 
ATOM     14  C   UNL     1       1.515   0.266   2.129  1.00  0.00     0.051 A 
ATOM     15  C   UNL     1       2.138  -0.228   3.280  1.00  0.00     0.157 A 
ATOM     16  C   UNL     1      -0.032  -0.958   4.103  1.00  0.00     0.062 A 
ATOM     17  C   UNL     1       1.354  -0.853   4.278  1.00  0.00     0.158 A 
BRANCH  15  18
ATOM     18  O   UNL     1       3.522  -0.081   3.389  1.00  0.00    -0.504 OA
ATOM     19  H   UNL     1       4.182  -0.430   2.710  1.00  0.00     0.293 HD
ENDBRANCH  15  18
BRANCH  17  20
ATOM     20  O   UNL     1       1.906  -1.385   5.445  1.00  0.00    -0.504 OA
ATOM     21  H   UNL     1       1.783  -2.342   5.744  1.00  0.00     0.293 HD
ENDBRANCH  17  20
ENDBRANCH   1  12
BRANCH   6  22
ATOM     22  O   UNL     1      -7.300  -0.357   2.527  1.00  0.00    -0.507 OA
ATOM     23  H   UNL     1      -8.256  -0.675   2.497  1.00  0.00     0.293 HD
ENDBRANCH   6  22
BRANCH   8  24
ATOM     24  O   UNL     1      -5.921  -3.124  -1.124  1.00  0.00    -0.508 OA
ATOM     25  H   UNL     1      -5.789  -4.128  -1.130  1.00  0.00     0.293 HD
ENDBRANCH   8  24
TORSDOF 5
ENDMDL
