MODEL 1
REMARK VINA RESULT:    -3.218      0.000      0.000
REMARK INTER + INTRA:          -3.665
REMARK INTER:                  -3.594
REMARK INTRA:                  -0.071
REMARK UNBOUND:                -0.071
REMARK SMILES CCCC(=O)[O-]
REMARK SMILES IDX 3 1 4 2 5 3 6 4 2 5 1 6
REMARK H PARENT
REMARK Flexibility Score: inf
ROOT
ATOM      1  C   UNL     1      66.453   4.873  24.421  1.00  0.00     0.052 C 
ENDROOT
BRANCH   1   2
ATOM      2  C   UNL     1      66.643   3.429  24.082  1.00  0.00     0.041 C 
ATOM      3  O   UNL     1      67.578   3.074  23.319  1.00  0.00    -0.550 OA
ATOM      4  O   UNL     1      65.754   2.478  24.570  1.00  0.00    -0.550 OA
ENDBRANCH   1   2
BRANCH   1   5
ATOM      5  C   UNL     1      66.553   5.086  25.934  1.00  0.00     0.003 C 
ATOM      6  C   UNL     1      67.962   4.795  26.440  1.00  0.00     0.004 C 
ENDBRANCH   1   5
TORSDOF 2
ENDMDL
MODEL 2
REMARK VINA RESULT:    -3.148      0.675      1.542
REMARK INTER + INTRA:          -3.587
REMARK INTER:                  -3.515
REMARK INTRA:                  -0.072
REMARK UNBOUND:                -0.071
REMARK SMILES CCCC(=O)[O-]
REMARK SMILES IDX 3 1 4 2 5 3 6 4 2 5 1 6
REMARK H PARENT
REMARK Flexibility Score: inf
ROOT
ATOM      1  C   UNL     1      65.805   4.499  24.087  1.00  0.00     0.052 C 
ENDROOT
BRANCH   1   2
ATOM      2  C   UNL     1      66.167   3.059  23.912  1.00  0.00     0.041 C 
ATOM      3  O   UNL     1      65.397   2.156  24.331  1.00  0.00    -0.550 OA
ATOM      4  O   UNL     1      67.381   2.713  23.330  1.00  0.00    -0.550 OA
ENDBRANCH   1   2
BRANCH   1   5
ATOM      5  C   UNL     1      66.914   5.244  24.835  1.00  0.00     0.003 C 
ATOM      6  C   UNL     1      66.990   4.801  26.292  1.00  0.00     0.004 C 
ENDBRANCH   1   5
TORSDOF 2
ENDMDL
MODEL 3
REMARK VINA RESULT:    -3.041      5.910      6.490
REMARK INTER + INTRA:          -3.468
REMARK INTER:                  -3.411
REMARK INTRA:                  -0.056
REMARK UNBOUND:                -0.071
REMARK SMILES CCCC(=O)[O-]
REMARK SMILES IDX 3 1 4 2 5 3 6 4 2 5 1 6
REMARK H PARENT
REMARK Flexibility Score: inf
ROOT
ATOM      1  C   UNL     1      63.387   3.208  19.253  1.00  0.00     0.052 C 
ENDROOT
BRANCH   1   2
ATOM      2  C   UNL     1      63.681   1.807  19.684  1.00  0.00     0.041 C 
ATOM      3  O   UNL     1      63.325   0.834  18.969  1.00  0.00    -0.550 OA
ATOM      4  O   UNL     1      64.306   1.572  20.904  1.00  0.00    -0.550 OA
ENDBRANCH   1   2
BRANCH   1   5
ATOM      5  C   UNL     1      64.679   4.026  19.170  1.00  0.00     0.003 C 
ATOM      6  C   UNL     1      65.695   3.360  18.248  1.00  0.00     0.004 C 
ENDBRANCH   1   5
TORSDOF 2
ENDMDL
MODEL 4
REMARK VINA RESULT:    -3.028      9.614     10.144
REMARK INTER + INTRA:          -3.452
REMARK INTER:                  -3.420
REMARK INTRA:                  -0.032
REMARK UNBOUND:                -0.071
REMARK SMILES CCCC(=O)[O-]
REMARK SMILES IDX 3 1 4 2 5 3 6 4 2 5 1 6
REMARK H PARENT
REMARK Flexibility Score: inf
ROOT
ATOM      1  C   UNL     1      75.256   3.255  22.068  1.00  0.00     0.052 C 
ENDROOT
BRANCH   1   2
ATOM      2  C   UNL     1      76.721   2.963  22.135  1.00  0.00     0.041 C 
ATOM      3  O   UNL     1      77.345   3.094  23.220  1.00  0.00    -0.550 OA
ATOM      4  O   UNL     1      77.409   2.593  20.986  1.00  0.00    -0.550 OA
ENDBRANCH   1   2
BRANCH   1   5
ATOM      5  C   UNL     1      74.789   3.326  20.612  1.00  0.00     0.003 C 
ATOM      6  C   UNL     1      74.018   2.070  20.219  1.00  0.00     0.004 C 
ENDBRANCH   1   5
TORSDOF 2
ENDMDL
MODEL 5
REMARK VINA RESULT:    -2.989      5.629      6.171
REMARK INTER + INTRA:          -3.409
REMARK INTER:                  -3.339
REMARK INTRA:                  -0.070
REMARK UNBOUND:                -0.071
REMARK SMILES CCCC(=O)[O-]
REMARK SMILES IDX 3 1 4 2 5 3 6 4 2 5 1 6
REMARK H PARENT
REMARK Flexibility Score: inf
ROOT
ATOM      1  C   UNL     1      63.486   3.035  19.412  1.00  0.00     0.052 C 
ENDROOT
BRANCH   1   2
ATOM      2  C   UNL     1      63.987   1.949  20.310  1.00  0.00     0.041 C 
ATOM      3  O   UNL     1      64.442   2.228  21.450  1.00  0.00    -0.550 OA
ATOM      4  O   UNL     1      63.997   0.631  19.868  1.00  0.00    -0.550 OA
ENDBRANCH   1   2
BRANCH   1   5
ATOM      5  C   UNL     1      64.612   4.017  19.078  1.00  0.00     0.003 C 
ATOM      6  C   UNL     1      65.735   3.328  18.310  1.00  0.00     0.004 C 
ENDBRANCH   1   5
TORSDOF 2
ENDMDL
MODEL 6
REMARK VINA RESULT:    -2.950     10.557     11.248
REMARK INTER + INTRA:          -3.366
REMARK INTER:                  -3.327
REMARK INTRA:                  -0.039
REMARK UNBOUND:                -0.071
REMARK SMILES CCCC(=O)[O-]
REMARK SMILES IDX 3 1 4 2 5 3 6 4 2 5 1 6
REMARK H PARENT
REMARK Flexibility Score: inf
ROOT
ATOM      1  C   UNL     1      77.994   2.934  21.393  1.00  0.00     0.052 C 
ENDROOT
BRANCH   1   2
ATOM      2  C   UNL     1      76.601   3.000  21.935  1.00  0.00     0.041 C 
ATOM      3  O   UNL     1      75.722   2.198  21.526  1.00  0.00    -0.550 OA
ATOM      4  O   UNL     1      76.261   3.983  22.858  1.00  0.00    -0.550 OA
ENDBRANCH   1   2
BRANCH   1   5
ATOM      5  C   UNL     1      78.846   4.071  21.963  1.00  0.00     0.003 C 
ATOM      6  C   UNL     1      79.121   5.136  20.906  1.00  0.00     0.004 C 
ENDBRANCH   1   5
TORSDOF 2
ENDMDL
MODEL 7
REMARK VINA RESULT:    -2.944      5.898      6.841
REMARK INTER + INTRA:          -3.359
REMARK INTER:                  -3.288
REMARK INTRA:                  -0.071
REMARK UNBOUND:                -0.071
REMARK SMILES CCCC(=O)[O-]
REMARK SMILES IDX 3 1 4 2 5 3 6 4 2 5 1 6
REMARK H PARENT
REMARK Flexibility Score: inf
ROOT
ATOM      1  C   UNL     1      63.172   1.040  19.189  1.00  0.00     0.052 C 
ENDROOT
BRANCH   1   2
ATOM      2  C   UNL     1      64.276   1.756  19.900  1.00  0.00     0.041 C 
ATOM      3  O   UNL     1      65.074   2.486  19.258  1.00  0.00    -0.550 OA
ATOM      4  O   UNL     1      64.453   1.577  21.267  1.00  0.00    -0.550 OA
ENDBRANCH   1   2
BRANCH   1   5
ATOM      5  C   UNL     1      61.812   1.442  19.767  1.00  0.00     0.003 C 
ATOM      6  C   UNL     1      61.549   2.931  19.570  1.00  0.00     0.004 C 
ENDBRANCH   1   5
TORSDOF 2
ENDMDL
MODEL 8
REMARK VINA RESULT:    -2.842      6.207      7.000
REMARK INTER + INTRA:          -3.245
REMARK INTER:                  -3.197
REMARK INTRA:                  -0.048
REMARK UNBOUND:                -0.071
REMARK SMILES CCCC(=O)[O-]
REMARK SMILES IDX 3 1 4 2 5 3 6 4 2 5 1 6
REMARK H PARENT
REMARK Flexibility Score: inf
ROOT
ATOM      1  C   UNL     1      61.811   2.897  19.708  1.00  0.00     0.052 C 
ENDROOT
BRANCH   1   2
ATOM      2  C   UNL     1      61.843   3.316  21.143  1.00  0.00     0.041 C 
ATOM      3  O   UNL     1      62.711   4.134  21.545  1.00  0.00    -0.550 OA
ATOM      4  O   UNL     1      60.944   2.765  22.048  1.00  0.00    -0.550 OA
ENDBRANCH   1   2
BRANCH   1   5
ATOM      5  C   UNL     1      62.032   1.386  19.585  1.00  0.00     0.003 C 
ATOM      6  C   UNL     1      63.514   1.055  19.445  1.00  0.00     0.004 C 
ENDBRANCH   1   5
TORSDOF 2
ENDMDL
MODEL 9
REMARK VINA RESULT:    -2.842      6.532      7.110
REMARK INTER + INTRA:          -3.245
REMARK INTER:                  -3.207
REMARK INTRA:                  -0.038
REMARK UNBOUND:                -0.071
REMARK SMILES CCCC(=O)[O-]
REMARK SMILES IDX 3 1 4 2 5 3 6 4 2 5 1 6
REMARK H PARENT
REMARK Flexibility Score: inf
ROOT
ATOM      1  C   UNL     1      61.464   1.676  20.017  1.00  0.00     0.052 C 
ENDROOT
BRANCH   1   2
ATOM      2  C   UNL     1      62.921   1.344  19.989  1.00  0.00     0.041 C 
ATOM      3  O   UNL     1      63.668   1.685  20.943  1.00  0.00    -0.550 OA
ATOM      4  O   UNL     1      63.466   0.700  18.884  1.00  0.00    -0.550 OA
ENDBRANCH   1   2
BRANCH   1   5
ATOM      5  C   UNL     1      61.249   3.169  19.753  1.00  0.00     0.003 C 
ATOM      6  C   UNL     1      60.875   3.907  21.034  1.00  0.00     0.004 C 
ENDBRANCH   1   5
TORSDOF 2
ENDMDL
