MODEL 1
REMARK VINA RESULT:    -1.212      0.000      0.000
REMARK INTER + INTRA:          -4.967
REMARK INTER:                  -3.055
REMARK INTRA:                  -1.912
REMARK UNBOUND:                -1.912
REMARK SMILES CCCCCCCCCCCCCCCCCCCCCCCCCCCC(=O)[O-]
REMARK SMILES IDX 15 1 16 2 17 3 18 4 19 5 20 6 21 7 22 8 23 9 24 10 25 11
REMARK SMILES IDX 26 12 27 13 28 14 29 15 30 16 14 17 13 18 12 19 11 20 10 21
REMARK SMILES IDX 9 22 8 23 7 24 6 25 5 26 4 27 3 28 2 29 1 30
REMARK H PARENT
REMARK Flexibility Score: inf
ROOT
ATOM      1  C   UNL     1      -3.455   5.489  -4.730  1.00  0.00     0.000 C 
ENDROOT
BRANCH   1   2
ATOM      2  C   UNL     1      -3.759   5.191  -6.207  1.00  0.00     0.000 C 
BRANCH   2   3
ATOM      3  C   UNL     1      -4.898   6.064  -6.765  1.00  0.00     0.000 C 
BRANCH   3   4
ATOM      4  C   UNL     1      -4.649   7.566  -6.554  1.00  0.00     0.000 C 
BRANCH   4   5
ATOM      5  C   UNL     1      -3.463   8.090  -7.384  1.00  0.00     0.000 C 
BRANCH   5   6
ATOM      6  C   UNL     1      -3.866   8.465  -8.818  1.00  0.00     0.000 C 
BRANCH   6   7
ATOM      7  C   UNL     1      -4.529   9.851  -8.905  1.00  0.00     0.000 C 
BRANCH   7   8
ATOM      8  C   UNL     1      -5.745   9.872  -9.844  1.00  0.00     0.000 C 
BRANCH   8   9
ATOM      9  C   UNL     1      -6.511   8.538  -9.852  1.00  0.00     0.000 C 
BRANCH   9  10
ATOM     10  C   UNL     1      -7.722   8.551  -8.905  1.00  0.00     0.000 C 
BRANCH  10  11
ATOM     11  C   UNL     1      -9.003   8.017  -9.572  1.00  0.00     0.000 C 
BRANCH  11  12
ATOM     12  C   UNL     1      -8.865   6.563 -10.063  1.00  0.00     0.006 C 
BRANCH  12  13
ATOM     13  C   UNL     1      -9.506   5.525  -9.127  1.00  0.00     0.053 C 
BRANCH  13  14
ATOM     14  C   UNL     1      -8.508   4.874  -8.218  1.00  0.00     0.041 C 
ATOM     15  O   UNL     1      -7.379   4.533  -8.660  1.00  0.00    -0.550 OA
ATOM     16  O   UNL     1      -8.834   4.615  -6.892  1.00  0.00    -0.550 OA
ENDBRANCH  13  14
ENDBRANCH  12  13
ENDBRANCH  11  12
ENDBRANCH  10  11
ENDBRANCH   9  10
ENDBRANCH   8   9
ENDBRANCH   7   8
ENDBRANCH   6   7
ENDBRANCH   5   6
ENDBRANCH   4   5
ENDBRANCH   3   4
ENDBRANCH   2   3
ENDBRANCH   1   2
BRANCH   1  17
ATOM     17  C   UNL     1      -2.415   4.519  -4.136  1.00  0.00     0.000 C 
BRANCH  17  18
ATOM     18  C   UNL     1      -3.059   3.342  -3.381  1.00  0.00     0.000 C 
BRANCH  18  19
ATOM     19  C   UNL     1      -2.062   2.264  -2.899  1.00  0.00     0.000 C 
BRANCH  19  20
ATOM     20  C   UNL     1      -0.721   2.830  -2.389  1.00  0.00     0.000 C 
BRANCH  20  21
ATOM     21  C   UNL     1      -0.807   3.643  -1.083  1.00  0.00     0.000 C 
BRANCH  21  22
ATOM     22  C   UNL     1       0.506   3.735  -0.283  1.00  0.00    -0.000 C 
BRANCH  22  23
ATOM     23  C   UNL     1       0.594   2.696   0.844  1.00  0.00    -0.000 C 
BRANCH  23  24
ATOM     24  C   UNL     1       1.697   3.065   1.848  1.00  0.00    -0.000 C 
BRANCH  24  25
ATOM     25  C   UNL     1       1.865   2.001   2.954  1.00  0.00    -0.000 C 
BRANCH  25  26
ATOM     26  C   UNL     1       0.558   1.275   3.318  1.00  0.00    -0.000 C 
BRANCH  26  27
ATOM     27  C   UNL     1       0.093   1.567   4.753  1.00  0.00    -0.000 C 
BRANCH  27  28
ATOM     28  C   UNL     1      -0.396   3.014   4.935  1.00  0.00    -0.000 C 
BRANCH  28  29
ATOM     29  C   UNL     1       0.652   3.907   5.614  1.00  0.00    -0.003 C 
ATOM     30  C   UNL     1       0.102   4.512   6.903  1.00  0.00     0.004 C 
ENDBRANCH  28  29
ENDBRANCH  27  28
ENDBRANCH  26  27
ENDBRANCH  25  26
ENDBRANCH  24  25
ENDBRANCH  23  24
ENDBRANCH  22  23
ENDBRANCH  21  22
ENDBRANCH  20  21
ENDBRANCH  19  20
ENDBRANCH  18  19
ENDBRANCH  17  18
ENDBRANCH   1  17
TORSDOF 26
ENDMDL
MODEL 2
REMARK VINA RESULT:    -0.591      1.308      2.401
REMARK INTER + INTRA:          -3.402
REMARK INTER:                  -2.247
REMARK INTRA:                  -1.154
REMARK UNBOUND:                -1.912
REMARK SMILES CCCCCCCCCCCCCCCCCCCCCCCCCCCC(=O)[O-]
REMARK SMILES IDX 15 1 16 2 17 3 18 4 19 5 20 6 21 7 22 8 23 9 24 10 25 11
REMARK SMILES IDX 26 12 27 13 28 14 29 15 30 16 14 17 13 18 12 19 11 20 10 21
REMARK SMILES IDX 9 22 8 23 7 24 6 25 5 26 4 27 3 28 2 29 1 30
REMARK H PARENT
REMARK Flexibility Score: inf
ROOT
ATOM      1  C   UNL     1      -4.394   6.405  -5.112  1.00  0.00     0.000 C 
ENDROOT
BRANCH   1   2
ATOM      2  C   UNL     1      -4.520   6.944  -6.546  1.00  0.00     0.000 C 
BRANCH   2   3
ATOM      3  C   UNL     1      -3.274   7.730  -6.996  1.00  0.00     0.000 C 
BRANCH   3   4
ATOM      4  C   UNL     1      -3.628   8.959  -7.848  1.00  0.00     0.000 C 
BRANCH   4   5
ATOM      5  C   UNL     1      -4.207   8.577  -9.222  1.00  0.00     0.000 C 
BRANCH   5   6
ATOM      6  C   UNL     1      -5.433   9.421  -9.602  1.00  0.00     0.000 C 
BRANCH   6   7
ATOM      7  C   UNL     1      -6.349   9.711  -8.399  1.00  0.00     0.000 C 
BRANCH   7   8
ATOM      8  C   UNL     1      -7.832   9.814  -8.790  1.00  0.00     0.000 C 
BRANCH   8   9
ATOM      9  C   UNL     1      -8.564   8.464  -8.698  1.00  0.00     0.000 C 
BRANCH   9  10
ATOM     10  C   UNL     1      -8.516   7.680 -10.019  1.00  0.00     0.000 C 
BRANCH  10  11
ATOM     11  C   UNL     1      -7.291   6.752 -10.116  1.00  0.00     0.000 C 
BRANCH  11  12
ATOM     12  C   UNL     1      -7.226   5.720  -8.974  1.00  0.00     0.006 C 
BRANCH  12  13
ATOM     13  C   UNL     1      -8.114   4.484  -9.199  1.00  0.00     0.053 C 
BRANCH  13  14
ATOM     14  C   UNL     1      -9.288   4.440  -8.269  1.00  0.00     0.041 C 
ATOM     15  O   UNL     1     -10.058   3.443  -8.268  1.00  0.00    -0.550 OA
ATOM     16  O   UNL     1      -9.552   5.512  -7.424  1.00  0.00    -0.550 OA
ENDBRANCH  13  14
ENDBRANCH  12  13
ENDBRANCH  11  12
ENDBRANCH  10  11
ENDBRANCH   9  10
ENDBRANCH   8   9
ENDBRANCH   7   8
ENDBRANCH   6   7
ENDBRANCH   5   6
ENDBRANCH   4   5
ENDBRANCH   3   4
ENDBRANCH   2   3
ENDBRANCH   1   2
BRANCH   1  17
ATOM     17  C   UNL     1      -2.992   5.838  -4.818  1.00  0.00     0.000 C 
BRANCH  17  18
ATOM     18  C   UNL     1      -2.993   4.311  -4.622  1.00  0.00     0.000 C 
BRANCH  18  19
ATOM     19  C   UNL     1      -2.976   3.851  -3.147  1.00  0.00     0.000 C 
BRANCH  19  20
ATOM     20  C   UNL     1      -2.831   2.327  -2.965  1.00  0.00     0.000 C 
BRANCH  20  21
ATOM     21  C   UNL     1      -1.413   1.771  -3.197  1.00  0.00     0.000 C 
BRANCH  21  22
ATOM     22  C   UNL     1      -0.281   2.564  -2.517  1.00  0.00    -0.000 C 
BRANCH  22  23
ATOM     23  C   UNL     1      -0.796   3.580  -1.487  1.00  0.00    -0.000 C 
BRANCH  23  24
ATOM     24  C   UNL     1       0.314   3.978  -0.502  1.00  0.00    -0.000 C 
BRANCH  24  25
ATOM     25  C   UNL     1       0.492   2.944   0.630  1.00  0.00    -0.000 C 
BRANCH  25  26
ATOM     26  C   UNL     1       1.563   3.336   1.663  1.00  0.00    -0.000 C 
BRANCH  26  27
ATOM     27  C   UNL     1       1.815   2.238   2.708  1.00  0.00    -0.000 C 
BRANCH  27  28
ATOM     28  C   UNL     1       0.797   2.272   3.860  1.00  0.00    -0.000 C 
BRANCH  28  29
ATOM     29  C   UNL     1      -0.055   0.997   3.929  1.00  0.00    -0.003 C 
ATOM     30  C   UNL     1       0.537  -0.005   4.916  1.00  0.00     0.004 C 
ENDBRANCH  28  29
ENDBRANCH  27  28
ENDBRANCH  26  27
ENDBRANCH  25  26
ENDBRANCH  24  25
ENDBRANCH  23  24
ENDBRANCH  22  23
ENDBRANCH  21  22
ENDBRANCH  20  21
ENDBRANCH  19  20
ENDBRANCH  18  19
ENDBRANCH  17  18
ENDBRANCH   1  17
TORSDOF 26
ENDMDL
MODEL 3
REMARK VINA RESULT:    -0.430      4.536     11.701
REMARK INTER + INTRA:          -2.994
REMARK INTER:                  -0.837
REMARK INTRA:                  -2.158
REMARK UNBOUND:                -1.912
REMARK SMILES CCCCCCCCCCCCCCCCCCCCCCCCCCCC(=O)[O-]
REMARK SMILES IDX 15 1 16 2 17 3 18 4 19 5 20 6 21 7 22 8 23 9 24 10 25 11
REMARK SMILES IDX 26 12 27 13 28 14 29 15 30 16 14 17 13 18 12 19 11 20 10 21
REMARK SMILES IDX 9 22 8 23 7 24 6 25 5 26 4 27 3 28 2 29 1 30
REMARK H PARENT
REMARK Flexibility Score: inf
ROOT
ATOM      1  C   UNL     1      -4.090   6.223  -6.749  1.00  0.00     0.000 C 
ENDROOT
BRANCH   1   2
ATOM      2  C   UNL     1      -3.742   6.210  -5.252  1.00  0.00     0.000 C 
BRANCH   2   3
ATOM      3  C   UNL     1      -2.801   5.051  -4.872  1.00  0.00     0.000 C 
BRANCH   3   4
ATOM      4  C   UNL     1      -3.003   4.577  -3.425  1.00  0.00     0.000 C 
BRANCH   4   5
ATOM      5  C   UNL     1      -2.966   3.043  -3.296  1.00  0.00     0.000 C 
BRANCH   5   6
ATOM      6  C   UNL     1      -2.485   2.578  -1.913  1.00  0.00     0.000 C 
BRANCH   6   7
ATOM      7  C   UNL     1      -0.967   2.326  -1.866  1.00  0.00     0.000 C 
BRANCH   7   8
ATOM      8  C   UNL     1      -0.346   2.167  -3.263  1.00  0.00     0.000 C 
BRANCH   8   9
ATOM      9  C   UNL     1       0.414   0.839  -3.425  1.00  0.00     0.000 C 
BRANCH   9  10
ATOM     10  C   UNL     1      -0.459  -0.264  -4.044  1.00  0.00     0.000 C 
BRANCH  10  11
ATOM     11  C   UNL     1      -1.767  -0.494  -3.266  1.00  0.00     0.000 C 
BRANCH  11  12
ATOM     12  C   UNL     1      -2.745  -1.435  -3.995  1.00  0.00     0.006 C 
BRANCH  12  13
ATOM     13  C   UNL     1      -2.065  -2.398  -4.983  1.00  0.00     0.053 C 
BRANCH  13  14
ATOM     14  C   UNL     1      -2.018  -3.807  -4.475  1.00  0.00     0.041 C 
ATOM     15  O   UNL     1      -2.299  -4.055  -3.272  1.00  0.00    -0.550 OA
ATOM     16  O   UNL     1      -1.634  -4.843  -5.319  1.00  0.00    -0.550 OA
ENDBRANCH  13  14
ENDBRANCH  12  13
ENDBRANCH  11  12
ENDBRANCH  10  11
ENDBRANCH   9  10
ENDBRANCH   8   9
ENDBRANCH   7   8
ENDBRANCH   6   7
ENDBRANCH   5   6
ENDBRANCH   4   5
ENDBRANCH   3   4
ENDBRANCH   2   3
ENDBRANCH   1   2
BRANCH   1  17
ATOM     17  C   UNL     1      -3.196   7.185  -7.553  1.00  0.00     0.000 C 
BRANCH  17  18
ATOM     18  C   UNL     1      -3.716   8.634  -7.543  1.00  0.00     0.000 C 
BRANCH  18  19
ATOM     19  C   UNL     1      -4.488   9.049  -8.815  1.00  0.00     0.000 C 
BRANCH  19  20
ATOM     20  C   UNL     1      -5.910   9.580  -8.544  1.00  0.00     0.000 C 
BRANCH  20  21
ATOM     21  C   UNL     1      -6.702  10.002  -9.795  1.00  0.00     0.000 C 
BRANCH  21  22
ATOM     22  C   UNL     1      -8.228   9.814  -9.697  1.00  0.00    -0.000 C 
BRANCH  22  23
ATOM     23  C   UNL     1      -8.628   8.424  -9.179  1.00  0.00    -0.000 C 
BRANCH  23  24
ATOM     24  C   UNL     1      -8.125   7.320 -10.121  1.00  0.00    -0.000 C 
BRANCH  24  25
ATOM     25  C   UNL     1      -7.618   6.079  -9.355  1.00  0.00    -0.000 C 
BRANCH  25  26
ATOM     26  C   UNL     1      -7.538   6.283  -7.832  1.00  0.00    -0.000 C 
BRANCH  26  27
ATOM     27  C   UNL     1      -8.157   5.120  -7.041  1.00  0.00    -0.000 C 
BRANCH  27  28
ATOM     28  C   UNL     1      -9.323   4.450  -7.786  1.00  0.00    -0.000 C 
BRANCH  28  29
ATOM     29  C   UNL     1     -10.123   3.495  -6.890  1.00  0.00    -0.003 C 
ATOM     30  C   UNL     1      -9.496   3.392  -5.502  1.00  0.00     0.004 C 
ENDBRANCH  28  29
ENDBRANCH  27  28
ENDBRANCH  26  27
ENDBRANCH  25  26
ENDBRANCH  24  25
ENDBRANCH  23  24
ENDBRANCH  22  23
ENDBRANCH  21  22
ENDBRANCH  20  21
ENDBRANCH  19  20
ENDBRANCH  18  19
ENDBRANCH  17  18
ENDBRANCH   1  17
TORSDOF 26
ENDMDL
MODEL 4
REMARK VINA RESULT:    -0.296      3.933     12.723
REMARK INTER + INTRA:          -2.658
REMARK INTER:                  -0.989
REMARK INTRA:                  -1.669
REMARK UNBOUND:                -1.912
REMARK SMILES CCCCCCCCCCCCCCCCCCCCCCCCCCCC(=O)[O-]
REMARK SMILES IDX 15 1 16 2 17 3 18 4 19 5 20 6 21 7 22 8 23 9 24 10 25 11
REMARK SMILES IDX 26 12 27 13 28 14 29 15 30 16 14 17 13 18 12 19 11 20 10 21
REMARK SMILES IDX 9 22 8 23 7 24 6 25 5 26 4 27 3 28 2 29 1 30
REMARK H PARENT
REMARK Flexibility Score: inf
ROOT
ATOM      1  C   UNL     1      -3.867   5.207  -6.185  1.00  0.00     0.000 C 
ENDROOT
BRANCH   1   2
ATOM      2  C   UNL     1      -3.248   5.707  -4.871  1.00  0.00     0.000 C 
BRANCH   2   3
ATOM      3  C   UNL     1      -2.714   4.560  -3.993  1.00  0.00     0.000 C 
BRANCH   3   4
ATOM      4  C   UNL     1      -2.107   3.417  -4.821  1.00  0.00     0.000 C 
BRANCH   4   5
ATOM      5  C   UNL     1      -0.718   2.992  -4.311  1.00  0.00     0.000 C 
BRANCH   5   6
ATOM      6  C   UNL     1      -0.797   1.997  -3.142  1.00  0.00     0.000 C 
BRANCH   6   7
ATOM      7  C   UNL     1      -2.030   2.226  -2.250  1.00  0.00     0.000 C 
BRANCH   7   8
ATOM      8  C   UNL     1      -1.687   2.930  -0.928  1.00  0.00     0.000 C 
BRANCH   8   9
ATOM      9  C   UNL     1      -0.565   3.970  -1.085  1.00  0.00     0.000 C 
BRANCH   9  10
ATOM     10  C   UNL     1       0.721   3.562  -0.347  1.00  0.00     0.000 C 
BRANCH  10  11
ATOM     11  C   UNL     1       0.442   2.714   0.907  1.00  0.00     0.000 C 
BRANCH  11  12
ATOM     12  C   UNL     1       1.370   3.060   2.087  1.00  0.00     0.006 C 
BRANCH  12  13
ATOM     13  C   UNL     1       1.623   1.886   3.047  1.00  0.00     0.053 C 
BRANCH  13  14
ATOM     14  C   UNL     1       0.421   1.552   3.878  1.00  0.00     0.041 C 
ATOM     15  O   UNL     1       0.092   2.293   4.842  1.00  0.00    -0.550 OA
ATOM     16  O   UNL     1      -0.319   0.407   3.608  1.00  0.00    -0.550 OA
ENDBRANCH  13  14
ENDBRANCH  12  13
ENDBRANCH  11  12
ENDBRANCH  10  11
ENDBRANCH   9  10
ENDBRANCH   8   9
ENDBRANCH   7   8
ENDBRANCH   6   7
ENDBRANCH   5   6
ENDBRANCH   4   5
ENDBRANCH   3   4
ENDBRANCH   2   3
ENDBRANCH   1   2
BRANCH   1  17
ATOM     17  C   UNL     1      -5.033   6.095  -6.662  1.00  0.00     0.000 C 
BRANCH  17  18
ATOM     18  C   UNL     1      -4.636   7.576  -6.806  1.00  0.00     0.000 C 
BRANCH  18  19
ATOM     19  C   UNL     1      -3.761   7.891  -8.040  1.00  0.00     0.000 C 
BRANCH  19  20
ATOM     20  C   UNL     1      -3.913   9.332  -8.567  1.00  0.00     0.000 C 
BRANCH  20  21
ATOM     21  C   UNL     1      -4.629   9.461  -9.924  1.00  0.00     0.000 C 
BRANCH  21  22
ATOM     22  C   UNL     1      -6.019  10.123  -9.870  1.00  0.00    -0.000 C 
BRANCH  22  23
ATOM     23  C   UNL     1      -6.670  10.035  -8.482  1.00  0.00    -0.000 C 
BRANCH  23  24
ATOM     24  C   UNL     1      -8.180   9.777  -8.597  1.00  0.00    -0.000 C 
BRANCH  24  25
ATOM     25  C   UNL     1      -8.565   9.131  -9.944  1.00  0.00    -0.000 C 
BRANCH  25  26
ATOM     26  C   UNL     1      -9.376   7.831  -9.799  1.00  0.00    -0.000 C 
BRANCH  26  27
ATOM     27  C   UNL     1      -8.488   6.591  -9.613  1.00  0.00    -0.000 C 
BRANCH  27  28
ATOM     28  C   UNL     1      -8.265   6.238  -8.133  1.00  0.00    -0.000 C 
BRANCH  28  29
ATOM     29  C   UNL     1      -8.548   4.760  -7.831  1.00  0.00    -0.003 C 
ATOM     30  C   UNL     1      -9.338   4.607  -6.533  1.00  0.00     0.004 C 
ENDBRANCH  28  29
ENDBRANCH  27  28
ENDBRANCH  26  27
ENDBRANCH  25  26
ENDBRANCH  24  25
ENDBRANCH  23  24
ENDBRANCH  22  23
ENDBRANCH  21  22
ENDBRANCH  20  21
ENDBRANCH  19  20
ENDBRANCH  18  19
ENDBRANCH  17  18
ENDBRANCH   1  17
TORSDOF 26
ENDMDL
MODEL 5
REMARK VINA RESULT:    -0.265      4.150      9.998
REMARK INTER + INTRA:          -2.579
REMARK INTER:                  -1.630
REMARK INTRA:                  -0.949
REMARK UNBOUND:                -1.912
REMARK SMILES CCCCCCCCCCCCCCCCCCCCCCCCCCCC(=O)[O-]
REMARK SMILES IDX 15 1 16 2 17 3 18 4 19 5 20 6 21 7 22 8 23 9 24 10 25 11
REMARK SMILES IDX 26 12 27 13 28 14 29 15 30 16 14 17 13 18 12 19 11 20 10 21
REMARK SMILES IDX 9 22 8 23 7 24 6 25 5 26 4 27 3 28 2 29 1 30
REMARK H PARENT
REMARK Flexibility Score: inf
ROOT
ATOM      1  C   UNL     1      -5.751   8.174  -8.495  1.00  0.00     0.000 C 
ENDROOT
BRANCH   1   2
ATOM      2  C   UNL     1      -4.418   8.928  -8.361  1.00  0.00     0.000 C 
BRANCH   2   3
ATOM      3  C   UNL     1      -3.229   7.986  -8.096  1.00  0.00     0.000 C 
BRANCH   3   4
ATOM      4  C   UNL     1      -3.039   7.681  -6.601  1.00  0.00     0.000 C 
BRANCH   4   5
ATOM      5  C   UNL     1      -4.173   6.812  -6.028  1.00  0.00     0.000 C 
BRANCH   5   6
ATOM      6  C   UNL     1      -3.730   5.367  -5.753  1.00  0.00     0.000 C 
BRANCH   6   7
ATOM      7  C   UNL     1      -3.369   5.128  -4.276  1.00  0.00     0.000 C 
BRANCH   7   8
ATOM      8  C   UNL     1      -2.472   3.897  -4.073  1.00  0.00     0.000 C 
BRANCH   8   9
ATOM      9  C   UNL     1      -2.609   3.290  -2.667  1.00  0.00     0.000 C 
BRANCH   9  10
ATOM     10  C   UNL     1      -1.260   3.198  -1.934  1.00  0.00     0.000 C 
BRANCH  10  11
ATOM     11  C   UNL     1      -0.597   1.816  -2.082  1.00  0.00     0.000 C 
BRANCH  11  12
ATOM     12  C   UNL     1      -0.623   1.288  -3.529  1.00  0.00     0.006 C 
BRANCH  12  13
ATOM     13  C   UNL     1      -0.451  -0.237  -3.639  1.00  0.00     0.053 C 
BRANCH  13  14
ATOM     14  C   UNL     1      -1.749  -0.949  -3.871  1.00  0.00     0.041 C 
ATOM     15  O   UNL     1      -1.847  -1.800  -4.794  1.00  0.00    -0.550 OA
ATOM     16  O   UNL     1      -2.858  -0.653  -3.088  1.00  0.00    -0.550 OA
ENDBRANCH  13  14
ENDBRANCH  12  13
ENDBRANCH  11  12
ENDBRANCH  10  11
ENDBRANCH   9  10
ENDBRANCH   8   9
ENDBRANCH   7   8
ENDBRANCH   6   7
ENDBRANCH   5   6
ENDBRANCH   4   5
ENDBRANCH   3   4
ENDBRANCH   2   3
ENDBRANCH   1   2
BRANCH   1  17
ATOM     17  C   UNL     1      -6.931   8.952  -7.884  1.00  0.00     0.000 C 
BRANCH  17  18
ATOM     18  C   UNL     1      -8.266   8.191  -7.985  1.00  0.00     0.000 C 
BRANCH  18  19
ATOM     19  C   UNL     1      -8.673   7.794  -9.421  1.00  0.00     0.000 C 
BRANCH  19  20
ATOM     20  C   UNL     1      -8.817   6.275  -9.638  1.00  0.00     0.000 C 
BRANCH  20  21
ATOM     21  C   UNL     1      -8.133   5.393  -8.576  1.00  0.00     0.000 C 
BRANCH  21  22
ATOM     22  C   UNL     1      -8.967   5.129  -7.309  1.00  0.00    -0.000 C 
BRANCH  22  23
ATOM     23  C   UNL     1      -9.574   3.719  -7.275  1.00  0.00    -0.000 C 
BRANCH  23  24
ATOM     24  C   UNL     1      -9.761   3.234  -5.829  1.00  0.00    -0.000 C 
BRANCH  24  25
ATOM     25  C   UNL     1     -10.125   4.383  -4.866  1.00  0.00    -0.000 C 
BRANCH  25  26
ATOM     26  C   UNL     1      -9.813   4.078  -3.391  1.00  0.00    -0.000 C 
BRANCH  26  27
ATOM     27  C   UNL     1      -9.431   5.331  -2.589  1.00  0.00    -0.000 C 
BRANCH  27  28
ATOM     28  C   UNL     1      -8.614   5.002  -1.328  1.00  0.00    -0.000 C 
BRANCH  28  29
ATOM     29  C   UNL     1      -9.369   5.337  -0.034  1.00  0.00    -0.003 C 
ATOM     30  C   UNL     1      -8.405   5.780   1.063  1.00  0.00     0.004 C 
ENDBRANCH  28  29
ENDBRANCH  27  28
ENDBRANCH  26  27
ENDBRANCH  25  26
ENDBRANCH  24  25
ENDBRANCH  23  24
ENDBRANCH  22  23
ENDBRANCH  21  22
ENDBRANCH  20  21
ENDBRANCH  19  20
ENDBRANCH  18  19
ENDBRANCH  17  18
ENDBRANCH   1  17
TORSDOF 26
ENDMDL
MODEL 6
REMARK VINA RESULT:    -0.245      4.591     13.771
REMARK INTER + INTRA:          -2.529
REMARK INTER:                  -0.639
REMARK INTRA:                  -1.890
REMARK UNBOUND:                -1.912
REMARK SMILES CCCCCCCCCCCCCCCCCCCCCCCCCCCC(=O)[O-]
REMARK SMILES IDX 15 1 16 2 17 3 18 4 19 5 20 6 21 7 22 8 23 9 24 10 25 11
REMARK SMILES IDX 26 12 27 13 28 14 29 15 30 16 14 17 13 18 12 19 11 20 10 21
REMARK SMILES IDX 9 22 8 23 7 24 6 25 5 26 4 27 3 28 2 29 1 30
REMARK H PARENT
REMARK Flexibility Score: inf
ROOT
ATOM      1  C   UNL     1      -2.994   4.905  -3.862  1.00  0.00     0.000 C 
ENDROOT
BRANCH   1   2
ATOM      2  C   UNL     1      -2.863   3.421  -3.483  1.00  0.00     0.000 C 
BRANCH   2   3
ATOM      3  C   UNL     1      -1.464   2.853  -3.789  1.00  0.00     0.000 C 
BRANCH   3   4
ATOM      4  C   UNL     1      -0.726   2.388  -2.525  1.00  0.00     0.000 C 
BRANCH   4   5
ATOM      5  C   UNL     1      -1.058   3.253  -1.295  1.00  0.00     0.000 C 
BRANCH   5   6
ATOM      6  C   UNL     1       0.190   3.626  -0.480  1.00  0.00     0.000 C 
BRANCH   6   7
ATOM      7  C   UNL     1       0.472   2.632   0.661  1.00  0.00     0.000 C 
BRANCH   7   8
ATOM      8  C   UNL     1       1.497   3.165   1.675  1.00  0.00     0.000 C 
BRANCH   8   9
ATOM      9  C   UNL     1       1.697   2.215   2.868  1.00  0.00     0.000 C 
BRANCH   9  10
ATOM     10  C   UNL     1       0.369   1.645   3.392  1.00  0.00     0.000 C 
BRANCH  10  11
ATOM     11  C   UNL     1       0.023   2.146   4.806  1.00  0.00     0.000 C 
BRANCH  11  12
ATOM     12  C   UNL     1       0.804   3.413   5.203  1.00  0.00     0.006 C 
BRANCH  12  13
ATOM     13  C   UNL     1      -0.042   4.461   5.946  1.00  0.00     0.053 C 
BRANCH  13  14
ATOM     14  C   UNL     1      -0.037   4.258   7.431  1.00  0.00     0.041 C 
ATOM     15  O   UNL     1      -0.836   4.904   8.160  1.00  0.00    -0.550 OA
ATOM     16  O   UNL     1       0.868   3.381   8.014  1.00  0.00    -0.550 OA
ENDBRANCH  13  14
ENDBRANCH  12  13
ENDBRANCH  11  12
ENDBRANCH  10  11
ENDBRANCH   9  10
ENDBRANCH   8   9
ENDBRANCH   7   8
ENDBRANCH   6   7
ENDBRANCH   5   6
ENDBRANCH   4   5
ENDBRANCH   3   4
ENDBRANCH   2   3
ENDBRANCH   1   2
BRANCH   1  17
ATOM     17  C   UNL     1      -3.364   5.103  -5.344  1.00  0.00     0.000 C 
BRANCH  17  18
ATOM     18  C   UNL     1      -4.150   6.403  -5.595  1.00  0.00     0.000 C 
BRANCH  18  19
ATOM     19  C   UNL     1      -4.510   6.661  -7.075  1.00  0.00     0.000 C 
BRANCH  19  20
ATOM     20  C   UNL     1      -3.532   7.604  -7.806  1.00  0.00     0.000 C 
BRANCH  20  21
ATOM     21  C   UNL     1      -4.088   9.004  -8.127  1.00  0.00     0.000 C 
BRANCH  21  22
ATOM     22  C   UNL     1      -4.483   9.229  -9.599  1.00  0.00    -0.000 C 
BRANCH  22  23
ATOM     23  C   UNL     1      -6.003   9.303  -9.806  1.00  0.00    -0.000 C 
BRANCH  23  24
ATOM     24  C   UNL     1      -6.750   9.124  -8.475  1.00  0.00    -0.000 C 
BRANCH  24  25
ATOM     25  C   UNL     1      -8.282   9.170  -8.651  1.00  0.00    -0.000 C 
BRANCH  25  26
ATOM     26  C   UNL     1      -8.777   8.504  -9.946  1.00  0.00    -0.000 C 
BRANCH  26  27
ATOM     27  C   UNL     1      -9.262   7.062  -9.729  1.00  0.00    -0.000 C 
BRANCH  27  28
ATOM     28  C   UNL     1      -8.116   6.038  -9.780  1.00  0.00    -0.000 C 
BRANCH  28  29
ATOM     29  C   UNL     1      -8.306   4.892  -8.777  1.00  0.00    -0.003 C 
ATOM     30  C   UNL     1      -7.962   5.342  -7.359  1.00  0.00     0.004 C 
ENDBRANCH  28  29
ENDBRANCH  27  28
ENDBRANCH  26  27
ENDBRANCH  25  26
ENDBRANCH  24  25
ENDBRANCH  23  24
ENDBRANCH  22  23
ENDBRANCH  21  22
ENDBRANCH  20  21
ENDBRANCH  19  20
ENDBRANCH  18  19
ENDBRANCH  17  18
ENDBRANCH   1  17
TORSDOF 26
ENDMDL
MODEL 7
REMARK VINA RESULT:    -0.005      3.411      5.827
REMARK INTER + INTRA:          -1.924
REMARK INTER:                  -0.379
REMARK INTRA:                  -1.545
REMARK UNBOUND:                -1.912
REMARK SMILES CCCCCCCCCCCCCCCCCCCCCCCCCCCC(=O)[O-]
REMARK SMILES IDX 15 1 16 2 17 3 18 4 19 5 20 6 21 7 22 8 23 9 24 10 25 11
REMARK SMILES IDX 26 12 27 13 28 14 29 15 30 16 14 17 13 18 12 19 11 20 10 21
REMARK SMILES IDX 9 22 8 23 7 24 6 25 5 26 4 27 3 28 2 29 1 30
REMARK H PARENT
REMARK Flexibility Score: inf
ROOT
ATOM      1  C   UNL     1      -3.603   6.131  -4.699  1.00  0.00     0.000 C 
ENDROOT
BRANCH   1   2
ATOM      2  C   UNL     1      -3.978   5.871  -6.167  1.00  0.00     0.000 C 
BRANCH   2   3
ATOM      3  C   UNL     1      -4.783   7.029  -6.787  1.00  0.00     0.000 C 
BRANCH   3   4
ATOM      4  C   UNL     1      -6.256   6.664  -7.023  1.00  0.00     0.000 C 
BRANCH   4   5
ATOM      5  C   UNL     1      -6.426   5.263  -7.638  1.00  0.00     0.000 C 
BRANCH   5   6
ATOM      6  C   UNL     1      -7.177   5.293  -8.978  1.00  0.00     0.000 C 
BRANCH   6   7
ATOM      7  C   UNL     1      -8.679   4.994  -8.824  1.00  0.00     0.000 C 
BRANCH   7   8
ATOM      8  C   UNL     1      -9.571   6.114  -9.381  1.00  0.00     0.000 C 
BRANCH   8   9
ATOM      9  C   UNL     1      -8.760   7.242 -10.042  1.00  0.00     0.000 C 
BRANCH   9  10
ATOM     10  C   UNL     1      -9.409   8.622  -9.848  1.00  0.00     0.000 C 
BRANCH  10  11
ATOM     11  C   UNL     1      -8.588   9.540  -8.924  1.00  0.00     0.000 C 
BRANCH  11  12
ATOM     12  C   UNL     1      -7.312  10.084  -9.595  1.00  0.00     0.006 C 
BRANCH  12  13
ATOM     13  C   UNL     1      -6.074  10.071  -8.683  1.00  0.00     0.053 C 
BRANCH  13  14
ATOM     14  C   UNL     1      -4.911   9.353  -9.299  1.00  0.00     0.041 C 
ATOM     15  O   UNL     1      -3.738   9.769  -9.107  1.00  0.00    -0.550 OA
ATOM     16  O   UNL     1      -5.123   8.244 -10.109  1.00  0.00    -0.550 OA
ENDBRANCH  13  14
ENDBRANCH  12  13
ENDBRANCH  11  12
ENDBRANCH  10  11
ENDBRANCH   9  10
ENDBRANCH   8   9
ENDBRANCH   7   8
ENDBRANCH   6   7
ENDBRANCH   5   6
ENDBRANCH   4   5
ENDBRANCH   3   4
ENDBRANCH   2   3
ENDBRANCH   1   2
BRANCH   1  17
ATOM     17  C   UNL     1      -2.634   5.071  -4.142  1.00  0.00     0.000 C 
BRANCH  17  18
ATOM     18  C   UNL     1      -3.292   3.689  -3.977  1.00  0.00     0.000 C 
BRANCH  18  19
ATOM     19  C   UNL     1      -2.986   2.988  -2.634  1.00  0.00     0.000 C 
BRANCH  19  20
ATOM     20  C   UNL     1      -2.065   3.795  -1.698  1.00  0.00     0.000 C 
BRANCH  20  21
ATOM     21  C   UNL     1      -0.809   3.049  -1.211  1.00  0.00     0.000 C 
BRANCH  21  22
ATOM     22  C   UNL     1       0.333   2.951  -2.240  1.00  0.00    -0.000 C 
BRANCH  22  23
ATOM     23  C   UNL     1      -0.153   2.534  -3.636  1.00  0.00    -0.000 C 
BRANCH  23  24
ATOM     24  C   UNL     1       0.575   1.270  -4.118  1.00  0.00    -0.000 C 
BRANCH  24  25
ATOM     25  C   UNL     1      -0.202  -0.021  -3.782  1.00  0.00    -0.000 C 
BRANCH  25  26
ATOM     26  C   UNL     1      -1.629   0.232  -3.267  1.00  0.00    -0.000 C 
BRANCH  26  27
ATOM     27  C   UNL     1      -2.563  -0.970  -3.480  1.00  0.00    -0.000 C 
BRANCH  27  28
ATOM     28  C   UNL     1      -2.149  -1.836  -4.681  1.00  0.00    -0.000 C 
BRANCH  28  29
ATOM     29  C   UNL     1      -1.292  -3.041  -4.270  1.00  0.00    -0.003 C 
ATOM     30  C   UNL     1      -2.118  -4.324  -4.265  1.00  0.00     0.004 C 
ENDBRANCH  28  29
ENDBRANCH  27  28
ENDBRANCH  26  27
ENDBRANCH  25  26
ENDBRANCH  24  25
ENDBRANCH  23  24
ENDBRANCH  22  23
ENDBRANCH  21  22
ENDBRANCH  20  21
ENDBRANCH  19  20
ENDBRANCH  18  19
ENDBRANCH  17  18
ENDBRANCH   1  17
TORSDOF 26
ENDMDL
MODEL 8
REMARK VINA RESULT:     0.055      0.934      1.575
REMARK INTER + INTRA:          -1.774
REMARK INTER:                  -0.073
REMARK INTRA:                  -1.701
REMARK UNBOUND:                -1.912
REMARK SMILES CCCCCCCCCCCCCCCCCCCCCCCCCCCC(=O)[O-]
REMARK SMILES IDX 15 1 16 2 17 3 18 4 19 5 20 6 21 7 22 8 23 9 24 10 25 11
REMARK SMILES IDX 26 12 27 13 28 14 29 15 30 16 14 17 13 18 12 19 11 20 10 21
REMARK SMILES IDX 9 22 8 23 7 24 6 25 5 26 4 27 3 28 2 29 1 30
REMARK H PARENT
REMARK Flexibility Score: inf
ROOT
ATOM      1  C   UNL     1      -3.307   4.313  -3.819  1.00  0.00     0.000 C 
ENDROOT
BRANCH   1   2
ATOM      2  C   UNL     1      -3.362   5.688  -4.504  1.00  0.00     0.000 C 
BRANCH   2   3
ATOM      3  C   UNL     1      -3.852   5.604  -5.962  1.00  0.00     0.000 C 
BRANCH   3   4
ATOM      4  C   UNL     1      -4.341   6.959  -6.498  1.00  0.00     0.000 C 
BRANCH   4   5
ATOM      5  C   UNL     1      -3.457   7.495  -7.639  1.00  0.00     0.000 C 
BRANCH   5   6
ATOM      6  C   UNL     1      -3.859   8.911  -8.082  1.00  0.00     0.000 C 
BRANCH   6   7
ATOM      7  C   UNL     1      -4.528   8.931  -9.468  1.00  0.00     0.000 C 
BRANCH   7   8
ATOM      8  C   UNL     1      -5.782   9.819  -9.512  1.00  0.00     0.000 C 
BRANCH   8   9
ATOM      9  C   UNL     1      -6.397  10.044  -8.120  1.00  0.00     0.000 C 
BRANCH   9  10
ATOM     10  C   UNL     1      -7.628   9.157  -7.872  1.00  0.00     0.000 C 
BRANCH  10  11
ATOM     11  C   UNL     1      -8.455   8.920  -9.149  1.00  0.00     0.000 C 
BRANCH  11  12
ATOM     12  C   UNL     1      -8.750   7.430  -9.407  1.00  0.00     0.006 C 
BRANCH  12  13
ATOM     13  C   UNL     1      -7.490   6.558  -9.538  1.00  0.00     0.053 C 
BRANCH  13  14
ATOM     14  C   UNL     1      -7.455   5.442  -8.538  1.00  0.00     0.041 C 
ATOM     15  O   UNL     1      -7.278   4.255  -8.922  1.00  0.00    -0.550 OA
ATOM     16  O   UNL     1      -7.649   5.706  -7.188  1.00  0.00    -0.550 OA
ENDBRANCH  13  14
ENDBRANCH  12  13
ENDBRANCH  11  12
ENDBRANCH  10  11
ENDBRANCH   9  10
ENDBRANCH   8   9
ENDBRANCH   7   8
ENDBRANCH   6   7
ENDBRANCH   5   6
ENDBRANCH   4   5
ENDBRANCH   3   4
ENDBRANCH   2   3
ENDBRANCH   1   2
BRANCH   1  17
ATOM     17  C   UNL     1      -1.881   3.731  -3.779  1.00  0.00     0.000 C 
BRANCH  17  18
ATOM     18  C   UNL     1      -1.780   2.455  -2.925  1.00  0.00     0.000 C 
BRANCH  18  19
ATOM     19  C   UNL     1      -1.506   2.704  -1.425  1.00  0.00     0.000 C 
BRANCH  19  20
ATOM     20  C   UNL     1      -0.671   3.968  -1.139  1.00  0.00     0.000 C 
BRANCH  20  21
ATOM     21  C   UNL     1       0.630   3.729  -0.350  1.00  0.00     0.000 C 
BRANCH  21  22
ATOM     22  C   UNL     1       0.560   2.606   0.702  1.00  0.00    -0.000 C 
BRANCH  22  23
ATOM     23  C   UNL     1       1.219   2.991   2.035  1.00  0.00    -0.000 C 
BRANCH  23  24
ATOM     24  C   UNL     1       1.389   1.763   2.941  1.00  0.00    -0.000 C 
BRANCH  24  25
ATOM     25  C   UNL     1       0.135   1.486   3.798  1.00  0.00    -0.000 C 
BRANCH  25  26
ATOM     26  C   UNL     1       0.119   2.247   5.135  1.00  0.00    -0.000 C 
BRANCH  26  27
ATOM     27  C   UNL     1       0.425   3.744   4.974  1.00  0.00    -0.000 C 
BRANCH  27  28
ATOM     28  C   UNL     1       0.782   4.422   6.307  1.00  0.00    -0.000 C 
BRANCH  28  29
ATOM     29  C   UNL     1      -0.384   4.405   7.306  1.00  0.00    -0.003 C 
ATOM     30  C   UNL     1       0.121   4.216   8.734  1.00  0.00     0.004 C 
ENDBRANCH  28  29
ENDBRANCH  27  28
ENDBRANCH  26  27
ENDBRANCH  25  26
ENDBRANCH  24  25
ENDBRANCH  23  24
ENDBRANCH  22  23
ENDBRANCH  21  22
ENDBRANCH  20  21
ENDBRANCH  19  20
ENDBRANCH  18  19
ENDBRANCH  17  18
ENDBRANCH   1  17
TORSDOF 26
ENDMDL
MODEL 9
REMARK VINA RESULT:     0.251      3.359      5.540
REMARK INTER + INTRA:          -1.279
REMARK INTER:                  -0.052
REMARK INTRA:                  -1.227
REMARK UNBOUND:                -1.912
REMARK SMILES CCCCCCCCCCCCCCCCCCCCCCCCCCCC(=O)[O-]
REMARK SMILES IDX 15 1 16 2 17 3 18 4 19 5 20 6 21 7 22 8 23 9 24 10 25 11
REMARK SMILES IDX 26 12 27 13 28 14 29 15 30 16 14 17 13 18 12 19 11 20 10 21
REMARK SMILES IDX 9 22 8 23 7 24 6 25 5 26 4 27 3 28 2 29 1 30
REMARK H PARENT
REMARK Flexibility Score: inf
ROOT
ATOM      1  C   UNL     1      -3.780   6.135  -6.384  1.00  0.00     0.000 C 
ENDROOT
BRANCH   1   2
ATOM      2  C   UNL     1      -5.202   6.198  -6.964  1.00  0.00     0.000 C 
BRANCH   2   3
ATOM      3  C   UNL     1      -5.955   7.476  -6.552  1.00  0.00     0.000 C 
BRANCH   3   4
ATOM      4  C   UNL     1      -5.559   8.694  -7.400  1.00  0.00     0.000 C 
BRANCH   4   5
ATOM      5  C   UNL     1      -4.713   8.310  -8.627  1.00  0.00     0.000 C 
BRANCH   5   6
ATOM      6  C   UNL     1      -5.464   8.517  -9.951  1.00  0.00     0.000 C 
BRANCH   6   7
ATOM      7  C   UNL     1      -6.642   7.543 -10.125  1.00  0.00     0.000 C 
BRANCH   7   8
ATOM      8  C   UNL     1      -7.951   8.078  -9.524  1.00  0.00     0.000 C 
BRANCH   8   9
ATOM      9  C   UNL     1      -9.193   7.355 -10.073  1.00  0.00     0.000 C 
BRANCH   9  10
ATOM     10  C   UNL     1      -9.749   6.313  -9.088  1.00  0.00     0.000 C 
BRANCH  10  11
ATOM     11  C   UNL     1      -8.641   5.484  -8.413  1.00  0.00     0.000 C 
BRANCH  11  12
ATOM     12  C   UNL     1      -9.183   4.253  -7.662  1.00  0.00     0.006 C 
BRANCH  12  13
ATOM     13  C   UNL     1     -10.097   4.600  -6.473  1.00  0.00     0.053 C 
BRANCH  13  14
ATOM     14  C   UNL     1     -10.102   3.534  -5.420  1.00  0.00     0.041 C 
ATOM     15  O   UNL     1     -10.082   3.849  -4.201  1.00  0.00    -0.550 OA
ATOM     16  O   UNL     1     -10.099   2.192  -5.783  1.00  0.00    -0.550 OA
ENDBRANCH  13  14
ENDBRANCH  12  13
ENDBRANCH  11  12
ENDBRANCH  10  11
ENDBRANCH   9  10
ENDBRANCH   8   9
ENDBRANCH   7   8
ENDBRANCH   6   7
ENDBRANCH   5   6
ENDBRANCH   4   5
ENDBRANCH   3   4
ENDBRANCH   2   3
ENDBRANCH   1   2
BRANCH   1  17
ATOM     17  C   UNL     1      -3.763   5.661  -4.918  1.00  0.00     0.000 C 
BRANCH  17  18
ATOM     18  C   UNL     1      -3.015   4.329  -4.729  1.00  0.00     0.000 C 
BRANCH  18  19
ATOM     19  C   UNL     1      -2.292   4.184  -3.371  1.00  0.00     0.000 C 
BRANCH  19  20
ATOM     20  C   UNL     1      -2.846   3.054  -2.481  1.00  0.00     0.000 C 
BRANCH  20  21
ATOM     21  C   UNL     1      -1.938   2.637  -1.310  1.00  0.00     0.000 C 
BRANCH  21  22
ATOM     22  C   UNL     1      -0.429   2.828  -1.552  1.00  0.00    -0.000 C 
BRANCH  22  23
ATOM     23  C   UNL     1       0.319   1.501  -1.749  1.00  0.00    -0.000 C 
BRANCH  23  24
ATOM     24  C   UNL     1       0.334   1.091  -3.230  1.00  0.00    -0.000 C 
BRANCH  24  25
ATOM     25  C   UNL     1      -1.039   0.577  -3.712  1.00  0.00    -0.000 C 
BRANCH  25  26
ATOM     26  C   UNL     1      -1.012  -0.875  -4.221  1.00  0.00    -0.000 C 
BRANCH  26  27
ATOM     27  C   UNL     1      -2.253  -1.240  -5.051  1.00  0.00    -0.000 C 
BRANCH  27  28
ATOM     28  C   UNL     1      -2.743  -2.672  -4.785  1.00  0.00    -0.000 C 
BRANCH  28  29
ATOM     29  C   UNL     1      -1.772  -3.472  -3.905  1.00  0.00    -0.003 C 
ATOM     30  C   UNL     1      -1.953  -4.973  -4.114  1.00  0.00     0.004 C 
ENDBRANCH  28  29
ENDBRANCH  27  28
ENDBRANCH  26  27
ENDBRANCH  25  26
ENDBRANCH  24  25
ENDBRANCH  23  24
ENDBRANCH  22  23
ENDBRANCH  21  22
ENDBRANCH  20  21
ENDBRANCH  19  20
ENDBRANCH  18  19
ENDBRANCH  17  18
ENDBRANCH   1  17
TORSDOF 26
ENDMDL
