MODEL 1
REMARK VINA RESULT:    -4.753      0.000      0.000
REMARK INTER + INTRA:          -7.225
REMARK INTER:                  -6.976
REMARK INTRA:                  -0.249
REMARK UNBOUND:                -0.249
REMARK SMILES O=C([O-])CCCCCCCC(=O)[O-]
REMARK SMILES IDX 7 1 6 2 5 3 4 4 2 5 1 6 3 7 8 8 9 9 10 10 11 11 12 12 13 13
REMARK H PARENT
REMARK Flexibility Score: inf
ROOT
ATOM      1  C   UNL     1      58.190 144.069 -31.405  1.00  0.00     0.000 C 
ENDROOT
BRANCH   1   2
ATOM      2  C   UNL     1      58.085 143.977 -29.874  1.00  0.00     0.000 C 
BRANCH   2   3
ATOM      3  C   UNL     1      56.643 143.772 -29.392  1.00  0.00     0.006 C 
BRANCH   3   4
ATOM      4  C   UNL     1      56.423 144.435 -28.028  1.00  0.00     0.053 C 
BRANCH   4   5
ATOM      5  C   UNL     1      55.127 143.985 -27.430  1.00  0.00     0.041 C 
ATOM      6  O   UNL     1      54.394 143.168 -28.047  1.00  0.00    -0.550 OA
ATOM      7  O   UNL     1      54.751 144.431 -26.169  1.00  0.00    -0.550 OA
ENDBRANCH   4   5
ENDBRANCH   3   4
ENDBRANCH   2   3
ENDBRANCH   1   2
BRANCH   1   8
ATOM      8  C   UNL     1      59.515 143.502 -31.943  1.00  0.00     0.000 C 
BRANCH   8   9
ATOM      9  C   UNL     1      60.005 144.238 -33.200  1.00  0.00     0.006 C 
BRANCH   9  10
ATOM     10  C   UNL     1      59.397 145.640 -33.336  1.00  0.00     0.053 C 
BRANCH  10  11
ATOM     11  C   UNL     1      60.460 146.685 -33.211  1.00  0.00     0.041 C 
ATOM     12  O   UNL     1      60.322 147.635 -32.397  1.00  0.00    -0.550 OA
ATOM     13  O   UNL     1      61.629 146.581 -33.957  1.00  0.00    -0.550 OA
ENDBRANCH  10  11
ENDBRANCH   9  10
ENDBRANCH   8   9
ENDBRANCH   1   8
TORSDOF 8
ENDMDL
MODEL 2
REMARK VINA RESULT:    -4.689      1.352      7.265
REMARK INTER + INTRA:          -7.131
REMARK INTER:                  -6.889
REMARK INTRA:                  -0.242
REMARK UNBOUND:                -0.249
REMARK SMILES O=C([O-])CCCCCCCC(=O)[O-]
REMARK SMILES IDX 7 1 6 2 5 3 4 4 2 5 1 6 3 7 8 8 9 9 10 10 11 11 12 12 13 13
REMARK H PARENT
REMARK Flexibility Score: inf
ROOT
ATOM      1  C   UNL     1      58.913 143.840 -30.755  1.00  0.00     0.000 C 
ENDROOT
BRANCH   1   2
ATOM      2  C   UNL     1      59.242 143.923 -32.255  1.00  0.00     0.000 C 
BRANCH   2   3
ATOM      3  C   UNL     1      59.277 145.367 -32.773  1.00  0.00     0.006 C 
BRANCH   3   4
ATOM      4  C   UNL     1      59.787 145.419 -34.217  1.00  0.00     0.053 C 
BRANCH   4   5
ATOM      5  C   UNL     1      61.221 144.996 -34.282  1.00  0.00     0.041 C 
ATOM      6  O   UNL     1      61.571 144.058 -35.045  1.00  0.00    -0.550 OA
ATOM      7  O   UNL     1      62.180 145.672 -33.537  1.00  0.00    -0.550 OA
ENDBRANCH   4   5
ENDBRANCH   3   4
ENDBRANCH   2   3
ENDBRANCH   1   2
BRANCH   1   8
ATOM      8  C   UNL     1      57.401 143.894 -30.478  1.00  0.00     0.000 C 
BRANCH   8   9
ATOM      9  C   UNL     1      57.080 143.997 -28.978  1.00  0.00     0.006 C 
BRANCH   9  10
ATOM     10  C   UNL     1      55.574 144.093 -28.703  1.00  0.00     0.053 C 
BRANCH  10  11
ATOM     11  C   UNL     1      55.322 144.310 -27.245  1.00  0.00     0.041 C 
ATOM     12  O   UNL     1      54.200 144.723 -26.850  1.00  0.00    -0.550 OA
ATOM     13  O   UNL     1      56.311 144.007 -26.316  1.00  0.00    -0.550 OA
ENDBRANCH  10  11
ENDBRANCH   9  10
ENDBRANCH   8   9
ENDBRANCH   1   8
TORSDOF 8
ENDMDL
MODEL 3
REMARK VINA RESULT:    -4.335      1.578      2.159
REMARK INTER + INTRA:          -6.610
REMARK INTER:                  -6.463
REMARK INTRA:                  -0.147
REMARK UNBOUND:                -0.249
REMARK SMILES O=C([O-])CCCCCCCC(=O)[O-]
REMARK SMILES IDX 7 1 6 2 5 3 4 4 2 5 1 6 3 7 8 8 9 9 10 10 11 11 12 12 13 13
REMARK H PARENT
REMARK Flexibility Score: inf
ROOT
ATOM      1  C   UNL     1      57.197 143.863 -30.214  1.00  0.00     0.000 C 
ENDROOT
BRANCH   1   2
ATOM      2  C   UNL     1      57.081 144.147 -28.708  1.00  0.00     0.000 C 
BRANCH   2   3
ATOM      3  C   UNL     1      55.889 143.427 -28.062  1.00  0.00     0.006 C 
BRANCH   3   4
ATOM      4  C   UNL     1      55.028 144.406 -27.257  1.00  0.00     0.053 C 
BRANCH   4   5
ATOM      5  C   UNL     1      55.293 144.255 -25.792  1.00  0.00     0.041 C 
ATOM      6  O   UNL     1      56.235 143.522 -25.391  1.00  0.00    -0.550 OA
ATOM      7  O   UNL     1      54.531 144.963 -24.871  1.00  0.00    -0.550 OA
ENDBRANCH   4   5
ENDBRANCH   3   4
ENDBRANCH   2   3
ENDBRANCH   1   2
BRANCH   1   8
ATOM      8  C   UNL     1      58.658 143.807 -30.693  1.00  0.00     0.000 C 
BRANCH   8   9
ATOM      9  C   UNL     1      58.844 144.416 -32.092  1.00  0.00     0.006 C 
BRANCH   9  10
ATOM     10  C   UNL     1      60.005 143.777 -32.864  1.00  0.00     0.053 C 
BRANCH  10  11
ATOM     11  C   UNL     1      60.437 144.665 -33.988  1.00  0.00     0.041 C 
ATOM     12  O   UNL     1      61.008 144.177 -34.998  1.00  0.00    -0.550 OA
ATOM     13  O   UNL     1      60.163 146.027 -33.942  1.00  0.00    -0.550 OA
ENDBRANCH  10  11
ENDBRANCH   9  10
ENDBRANCH   8   9
ENDBRANCH   1   8
TORSDOF 8
ENDMDL
MODEL 4
REMARK VINA RESULT:    -4.313     12.833     15.514
REMARK INTER + INTRA:          -6.578
REMARK INTER:                  -6.413
REMARK INTRA:                  -0.165
REMARK UNBOUND:                -0.249
REMARK SMILES O=C([O-])CCCCCCCC(=O)[O-]
REMARK SMILES IDX 7 1 6 2 5 3 4 4 2 5 1 6 3 7 8 8 9 9 10 10 11 11 12 12 13 13
REMARK H PARENT
REMARK Flexibility Score: inf
ROOT
ATOM      1  C   UNL     1      49.405 153.073 -20.946  1.00  0.00     0.000 C 
ENDROOT
BRANCH   1   2
ATOM      2  C   UNL     1      49.901 153.864 -19.725  1.00  0.00     0.000 C 
BRANCH   2   3
ATOM      3  C   UNL     1      49.357 153.308 -18.401  1.00  0.00     0.006 C 
BRANCH   3   4
ATOM      4  C   UNL     1      49.489 154.342 -17.278  1.00  0.00     0.053 C 
BRANCH   4   5
ATOM      5  C   UNL     1      49.376 153.681 -15.941  1.00  0.00     0.041 C 
ATOM      6  O   UNL     1      48.751 154.247 -15.005  1.00  0.00    -0.550 OA
ATOM      7  O   UNL     1      49.916 152.416 -15.741  1.00  0.00    -0.550 OA
ENDBRANCH   4   5
ENDBRANCH   3   4
ENDBRANCH   2   3
ENDBRANCH   1   2
BRANCH   1   8
ATOM      8  C   UNL     1      50.537 152.738 -21.932  1.00  0.00     0.000 C 
BRANCH   8   9
ATOM      9  C   UNL     1      50.408 153.502 -23.260  1.00  0.00     0.006 C 
BRANCH   9  10
ATOM     10  C   UNL     1      51.760 153.717 -23.951  1.00  0.00     0.053 C 
BRANCH  10  11
ATOM     11  C   UNL     1      51.731 153.164 -25.340  1.00  0.00     0.041 C 
ATOM     12  O   UNL     1      52.150 151.998 -25.566  1.00  0.00    -0.550 OA
ATOM     13  O   UNL     1      51.194 153.917 -26.377  1.00  0.00    -0.550 OA
ENDBRANCH  10  11
ENDBRANCH   9  10
ENDBRANCH   8   9
ENDBRANCH   1   8
TORSDOF 8
ENDMDL
MODEL 5
REMARK VINA RESULT:    -4.299     10.797     13.134
REMARK INTER + INTRA:          -6.558
REMARK INTER:                  -6.013
REMARK INTRA:                  -0.544
REMARK UNBOUND:                -0.249
REMARK SMILES O=C([O-])CCCCCCCC(=O)[O-]
REMARK SMILES IDX 7 1 6 2 5 3 4 4 2 5 1 6 3 7 8 8 9 9 10 10 11 11 12 12 13 13
REMARK H PARENT
REMARK Flexibility Score: inf
ROOT
ATOM      1  C   UNL     1      50.643 154.869 -24.638  1.00  0.00     0.000 C 
ENDROOT
BRANCH   1   2
ATOM      2  C   UNL     1      49.380 154.172 -24.105  1.00  0.00     0.000 C 
BRANCH   2   3
ATOM      3  C   UNL     1      49.688 152.829 -23.429  1.00  0.00     0.006 C 
BRANCH   3   4
ATOM      4  C   UNL     1      49.149 152.802 -21.995  1.00  0.00     0.053 C 
BRANCH   4   5
ATOM      5  C   UNL     1      50.197 153.267 -21.033  1.00  0.00     0.041 C 
ATOM      6  O   UNL     1      51.409 153.284 -21.375  1.00  0.00    -0.550 OA
ATOM      7  O   UNL     1      49.831 153.729 -19.774  1.00  0.00    -0.550 OA
ENDBRANCH   4   5
ENDBRANCH   3   4
ENDBRANCH   2   3
ENDBRANCH   1   2
BRANCH   1   8
ATOM      8  C   UNL     1      50.583 155.122 -26.154  1.00  0.00     0.000 C 
BRANCH   8   9
ATOM      9  C   UNL     1      51.418 154.109 -26.955  1.00  0.00     0.006 C 
BRANCH   9  10
ATOM     10  C   UNL     1      52.473 153.403 -26.094  1.00  0.00     0.053 C 
BRANCH  10  11
ATOM     11  C   UNL     1      52.472 151.933 -26.368  1.00  0.00     0.041 C 
ATOM     12  O   UNL     1      52.067 151.125 -25.491  1.00  0.00    -0.550 OA
ATOM     13  O   UNL     1      52.870 151.457 -27.612  1.00  0.00    -0.550 OA
ENDBRANCH  10  11
ENDBRANCH   9  10
ENDBRANCH   8   9
ENDBRANCH   1   8
TORSDOF 8
ENDMDL
MODEL 6
REMARK VINA RESULT:    -4.230      1.570      7.346
REMARK INTER + INTRA:          -6.457
REMARK INTER:                  -6.221
REMARK INTRA:                  -0.236
REMARK UNBOUND:                -0.249
REMARK SMILES O=C([O-])CCCCCCCC(=O)[O-]
REMARK SMILES IDX 7 1 6 2 5 3 4 4 2 5 1 6 3 7 8 8 9 9 10 10 11 11 12 12 13 13
REMARK H PARENT
REMARK Flexibility Score: inf
ROOT
ATOM      1  C   UNL     1      57.099 143.889 -29.328  1.00  0.00     0.000 C 
ENDROOT
BRANCH   1   2
ATOM      2  C   UNL     1      57.577 143.768 -30.784  1.00  0.00     0.000 C 
BRANCH   2   3
ATOM      3  C   UNL     1      59.079 144.042 -30.937  1.00  0.00     0.006 C 
BRANCH   3   4
ATOM      4  C   UNL     1      59.614 143.449 -32.244  1.00  0.00     0.053 C 
BRANCH   4   5
ATOM      5  C   UNL     1      59.980 144.538 -33.203  1.00  0.00     0.041 C 
ATOM      6  O   UNL     1      60.552 144.258 -34.290  1.00  0.00    -0.550 OA
ATOM      7  O   UNL     1      59.645 145.856 -32.921  1.00  0.00    -0.550 OA
ENDBRANCH   4   5
ENDBRANCH   3   4
ENDBRANCH   2   3
ENDBRANCH   1   2
BRANCH   1   8
ATOM      8  C   UNL     1      55.567 143.819 -29.201  1.00  0.00     0.000 C 
BRANCH   8   9
ATOM      9  C   UNL     1      55.085 144.030 -27.757  1.00  0.00     0.006 C 
BRANCH   9  10
ATOM     10  C   UNL     1      56.209 143.852 -26.728  1.00  0.00     0.053 C 
BRANCH  10  11
ATOM     11  C   UNL     1      55.685 144.057 -25.342  1.00  0.00     0.041 C 
ATOM     12  O   UNL     1      54.592 144.655 -25.160  1.00  0.00    -0.550 OA
ATOM     13  O   UNL     1      56.380 143.544 -24.253  1.00  0.00    -0.550 OA
ENDBRANCH  10  11
ENDBRANCH   9  10
ENDBRANCH   8   9
ENDBRANCH   1   8
TORSDOF 8
ENDMDL
MODEL 7
REMARK VINA RESULT:    -4.112     12.281     13.229
REMARK INTER + INTRA:          -6.283
REMARK INTER:                  -5.756
REMARK INTRA:                  -0.527
REMARK UNBOUND:                -0.249
REMARK SMILES O=C([O-])CCCCCCCC(=O)[O-]
REMARK SMILES IDX 7 1 6 2 5 3 4 4 2 5 1 6 3 7 8 8 9 9 10 10 11 11 12 12 13 13
REMARK H PARENT
REMARK Flexibility Score: inf
ROOT
ATOM      1  C   UNL     1      51.524 156.004 -25.637  1.00  0.00     0.000 C 
ENDROOT
BRANCH   1   2
ATOM      2  C   UNL     1      51.385 154.609 -26.266  1.00  0.00     0.000 C 
BRANCH   2   3
ATOM      3  C   UNL     1      51.907 153.493 -25.351  1.00  0.00     0.006 C 
BRANCH   3   4
ATOM      4  C   UNL     1      51.642 153.824 -23.879  1.00  0.00     0.053 C 
BRANCH   4   5
ATOM      5  C   UNL     1      50.529 152.979 -23.343  1.00  0.00     0.041 C 
ATOM      6  O   UNL     1      50.704 152.283 -22.309  1.00  0.00    -0.550 OA
ATOM      7  O   UNL     1      49.283 152.999 -23.958  1.00  0.00    -0.550 OA
ENDBRANCH   4   5
ENDBRANCH   3   4
ENDBRANCH   2   3
ENDBRANCH   1   2
BRANCH   1   8
ATOM      8  C   UNL     1      52.432 156.935 -26.459  1.00  0.00     0.000 C 
BRANCH   8   9
ATOM      9  C   UNL     1      53.720 157.315 -25.709  1.00  0.00     0.006 C 
BRANCH   9  10
ATOM     10  C   UNL     1      54.571 156.093 -25.342  1.00  0.00     0.053 C 
BRANCH  10  11
ATOM     11  C   UNL     1      56.006 156.484 -25.184  1.00  0.00     0.041 C 
ATOM     12  O   UNL     1      56.920 155.679 -25.501  1.00  0.00    -0.550 OA
ATOM     13  O   UNL     1      56.334 157.758 -24.735  1.00  0.00    -0.550 OA
ENDBRANCH  10  11
ENDBRANCH   9  10
ENDBRANCH   8   9
ENDBRANCH   1   8
TORSDOF 8
ENDMDL
MODEL 8
REMARK VINA RESULT:    -4.098     11.688     13.294
REMARK INTER + INTRA:          -6.263
REMARK INTER:                  -5.891
REMARK INTRA:                  -0.372
REMARK UNBOUND:                -0.249
REMARK SMILES O=C([O-])CCCCCCCC(=O)[O-]
REMARK SMILES IDX 7 1 6 2 5 3 4 4 2 5 1 6 3 7 8 8 9 9 10 10 11 11 12 12 13 13
REMARK H PARENT
REMARK Flexibility Score: inf
ROOT
ATOM      1  C   UNL     1      61.698 146.722 -18.198  1.00  0.00     0.000 C 
ENDROOT
BRANCH   1   2
ATOM      2  C   UNL     1      61.828 146.616 -16.670  1.00  0.00     0.000 C 
BRANCH   2   3
ATOM      3  C   UNL     1      61.105 147.753 -15.935  1.00  0.00     0.006 C 
BRANCH   3   4
ATOM      4  C   UNL     1      59.876 148.219 -16.722  1.00  0.00     0.053 C 
BRANCH   4   5
ATOM      5  C   UNL     1      59.257 149.415 -16.069  1.00  0.00     0.041 C 
ATOM      6  O   UNL     1      59.942 150.144 -15.304  1.00  0.00    -0.550 OA
ATOM      7  O   UNL     1      57.938 149.754 -16.343  1.00  0.00    -0.550 OA
ENDBRANCH   4   5
ENDBRANCH   3   4
ENDBRANCH   2   3
ENDBRANCH   1   2
BRANCH   1   8
ATOM      8  C   UNL     1      63.057 146.636 -18.914  1.00  0.00     0.000 C 
BRANCH   8   9
ATOM      9  C   UNL     1      63.295 147.814 -19.872  1.00  0.00     0.006 C 
BRANCH   9  10
ATOM     10  C   UNL     1      62.197 147.939 -20.936  1.00  0.00     0.053 C 
BRANCH  10  11
ATOM     11  C   UNL     1      62.249 149.286 -21.584  1.00  0.00     0.041 C 
ATOM     12  O   UNL     1      63.327 149.936 -21.610  1.00  0.00    -0.550 OA
ATOM     13  O   UNL     1      61.118 149.803 -22.205  1.00  0.00    -0.550 OA
ENDBRANCH  10  11
ENDBRANCH   9  10
ENDBRANCH   8   9
ENDBRANCH   1   8
TORSDOF 8
ENDMDL
MODEL 9
REMARK VINA RESULT:    -4.095      5.449      8.646
REMARK INTER + INTRA:          -6.259
REMARK INTER:                  -5.853
REMARK INTRA:                  -0.406
REMARK UNBOUND:                -0.249
REMARK SMILES O=C([O-])CCCCCCCC(=O)[O-]
REMARK SMILES IDX 7 1 6 2 5 3 4 4 2 5 1 6 3 7 8 8 9 9 10 10 11 11 12 12 13 13
REMARK H PARENT
REMARK Flexibility Score: inf
ROOT
ATOM      1  C   UNL     1      56.564 141.745 -23.961  1.00  0.00     0.000 C 
ENDROOT
BRANCH   1   2
ATOM      2  C   UNL     1      55.165 142.374 -24.058  1.00  0.00     0.000 C 
BRANCH   2   3
ATOM      3  C   UNL     1      55.180 143.743 -24.752  1.00  0.00     0.006 C 
BRANCH   3   4
ATOM      4  C   UNL     1      56.176 143.756 -25.916  1.00  0.00     0.053 C 
BRANCH   4   5
ATOM      5  C   UNL     1      55.469 144.021 -27.208  1.00  0.00     0.041 C 
ATOM      6  O   UNL     1      55.956 144.830 -28.041  1.00  0.00    -0.550 OA
ATOM      7  O   UNL     1      54.299 143.337 -27.514  1.00  0.00    -0.550 OA
ENDBRANCH   4   5
ENDBRANCH   3   4
ENDBRANCH   2   3
ENDBRANCH   1   2
BRANCH   1   8
ATOM      8  C   UNL     1      57.235 142.000 -22.600  1.00  0.00     0.000 C 
BRANCH   8   9
ATOM      9  C   UNL     1      58.122 143.256 -22.606  1.00  0.00     0.006 C 
BRANCH   9  10
ATOM     10  C   UNL     1      59.186 143.230 -21.502  1.00  0.00     0.053 C 
BRANCH  10  11
ATOM     11  C   UNL     1      59.607 144.622 -21.151  1.00  0.00     0.041 C 
ATOM     12  O   UNL     1      60.407 145.249 -21.894  1.00  0.00    -0.550 OA
ATOM     13  O   UNL     1      59.077 145.246 -20.028  1.00  0.00    -0.550 OA
ENDBRANCH  10  11
ENDBRANCH   9  10
ENDBRANCH   8   9
ENDBRANCH   1   8
TORSDOF 8
ENDMDL
