MODEL 1
REMARK VINA RESULT:    -3.357      0.000      0.000
REMARK INTER + INTRA:          -5.281
REMARK INTER:                  -4.928
REMARK INTRA:                  -0.353
REMARK UNBOUND:                -0.353
REMARK SMILES O=C([O-])CCCCCCCC(=O)[O-]
REMARK SMILES IDX 7 1 6 2 5 3 4 4 2 5 1 6 3 7 8 8 9 9 10 10 11 11 12 12 13 13
REMARK H PARENT
REMARK Flexibility Score: inf
ROOT
ATOM      1  C   UNL     1      18.790  29.334  55.070  1.00  0.00     0.000 C 
ENDROOT
BRANCH   1   2
ATOM      2  C   UNL     1      18.380  30.268  53.925  1.00  0.00     0.000 C 
BRANCH   2   3
ATOM      3  C   UNL     1      16.993  29.896  53.382  1.00  0.00     0.006 C 
BRANCH   3   4
ATOM      4  C   UNL     1      16.055  29.386  54.485  1.00  0.00     0.053 C 
BRANCH   4   5
ATOM      5  C   UNL     1      15.168  28.283  53.995  1.00  0.00     0.041 C 
ATOM      6  O   UNL     1      14.622  28.365  52.864  1.00  0.00    -0.550 OA
ATOM      7  O   UNL     1      14.916  27.180  54.802  1.00  0.00    -0.550 OA
ENDBRANCH   4   5
ENDBRANCH   3   4
ENDBRANCH   2   3
ENDBRANCH   1   2
BRANCH   1   8
ATOM      8  C   UNL     1      20.309  29.128  55.096  1.00  0.00     0.000 C 
BRANCH   8   9
ATOM      9  C   UNL     1      21.017  30.326  55.740  1.00  0.00     0.006 C 
BRANCH   9  10
ATOM     10  C   UNL     1      21.870  29.884  56.933  1.00  0.00     0.053 C 
BRANCH  10  11
ATOM     11  C   UNL     1      21.103  30.036  58.208  1.00  0.00     0.041 C 
ATOM     12  O   UNL     1      21.116  31.131  58.829  1.00  0.00    -0.550 OA
ATOM     13  O   UNL     1      20.412  28.952  58.737  1.00  0.00    -0.550 OA
ENDBRANCH  10  11
ENDBRANCH   9  10
ENDBRANCH   8   9
ENDBRANCH   1   8
TORSDOF 8
ENDMDL
MODEL 2
REMARK VINA RESULT:    -3.353      0.437      6.168
REMARK INTER + INTRA:          -5.274
REMARK INTER:                  -4.866
REMARK INTRA:                  -0.409
REMARK UNBOUND:                -0.353
REMARK SMILES O=C([O-])CCCCCCCC(=O)[O-]
REMARK SMILES IDX 7 1 6 2 5 3 4 4 2 5 1 6 3 7 8 8 9 9 10 10 11 11 12 12 13 13
REMARK H PARENT
REMARK Flexibility Score: inf
ROOT
ATOM      1  C   UNL     1      19.225  28.764  54.267  1.00  0.00     0.000 C 
ENDROOT
BRANCH   1   2
ATOM      2  C   UNL     1      20.428  28.734  55.217  1.00  0.00     0.000 C 
BRANCH   2   3
ATOM      3  C   UNL     1      20.752  30.142  55.738  1.00  0.00     0.006 C 
BRANCH   3   4
ATOM      4  C   UNL     1      21.742  30.114  56.911  1.00  0.00     0.053 C 
BRANCH   4   5
ATOM      5  C   UNL     1      21.039  30.132  58.233  1.00  0.00     0.041 C 
ATOM      6  O   UNL     1      21.055  31.171  58.945  1.00  0.00    -0.550 OA
ATOM      7  O   UNL     1      20.395  28.992  58.696  1.00  0.00    -0.550 OA
ENDBRANCH   4   5
ENDBRANCH   3   4
ENDBRANCH   2   3
ENDBRANCH   1   2
BRANCH   1   8
ATOM      8  C   UNL     1      18.678  30.188  54.115  1.00  0.00     0.000 C 
BRANCH   8   9
ATOM      9  C   UNL     1      17.217  30.171  53.650  1.00  0.00     0.006 C 
BRANCH   9  10
ATOM     10  C   UNL     1      16.314  29.512  54.696  1.00  0.00     0.053 C 
BRANCH  10  11
ATOM     11  C   UNL     1      15.466  28.454  54.064  1.00  0.00     0.041 C 
ATOM     12  O   UNL     1      15.138  28.546  52.852  1.00  0.00    -0.550 OA
ATOM     13  O   UNL     1      14.999  27.391  54.826  1.00  0.00    -0.550 OA
ENDBRANCH  10  11
ENDBRANCH   9  10
ENDBRANCH   8   9
ENDBRANCH   1   8
TORSDOF 8
ENDMDL
MODEL 3
REMARK VINA RESULT:    -3.321     12.010     14.302
REMARK INTER + INTRA:          -5.227
REMARK INTER:                  -4.705
REMARK INTRA:                  -0.522
REMARK UNBOUND:                -0.353
REMARK SMILES O=C([O-])CCCCCCCC(=O)[O-]
REMARK SMILES IDX 7 1 6 2 5 3 4 4 2 5 1 6 3 7 8 8 9 9 10 10 11 11 12 12 13 13
REMARK H PARENT
REMARK Flexibility Score: inf
ROOT
ATOM      1  C   UNL     1      17.670  18.498  49.613  1.00  0.00     0.000 C 
ENDROOT
BRANCH   1   2
ATOM      2  C   UNL     1      16.283  18.789  50.198  1.00  0.00     0.000 C 
BRANCH   2   3
ATOM      3  C   UNL     1      15.777  17.602  51.031  1.00  0.00     0.006 C 
BRANCH   3   4
ATOM      4  C   UNL     1      16.831  17.102  52.028  1.00  0.00     0.053 C 
BRANCH   4   5
ATOM      5  C   UNL     1      16.833  17.910  53.289  1.00  0.00     0.041 C 
ATOM      6  O   UNL     1      15.745  18.266  53.815  1.00  0.00    -0.550 OA
ATOM      7  O   UNL     1      18.035  18.301  53.865  1.00  0.00    -0.550 OA
ENDBRANCH   4   5
ENDBRANCH   3   4
ENDBRANCH   2   3
ENDBRANCH   1   2
BRANCH   1   8
ATOM      8  C   UNL     1      17.559  17.874  48.217  1.00  0.00     0.000 C 
BRANCH   8   9
ATOM      9  C   UNL     1      16.872  18.834  47.238  1.00  0.00     0.006 C 
BRANCH   9  10
ATOM     10  C   UNL     1      16.290  18.075  46.042  1.00  0.00     0.053 C 
BRANCH  10  11
ATOM     11  C   UNL     1      14.936  17.533  46.374  1.00  0.00     0.041 C 
ATOM     12  O   UNL     1      14.506  16.502  45.793  1.00  0.00    -0.550 OA
ATOM     13  O   UNL     1      14.128  18.195  47.290  1.00  0.00    -0.550 OA
ENDBRANCH  10  11
ENDBRANCH   9  10
ENDBRANCH   8   9
ENDBRANCH   1   8
TORSDOF 8
ENDMDL
MODEL 4
REMARK VINA RESULT:    -3.320     11.981     13.438
REMARK INTER + INTRA:          -5.226
REMARK INTER:                  -4.747
REMARK INTRA:                  -0.479
REMARK UNBOUND:                -0.353
REMARK SMILES O=C([O-])CCCCCCCC(=O)[O-]
REMARK SMILES IDX 7 1 6 2 5 3 4 4 2 5 1 6 3 7 8 8 9 9 10 10 11 11 12 12 13 13
REMARK H PARENT
REMARK Flexibility Score: inf
ROOT
ATOM      1  C   UNL     1      17.584  18.300  49.479  1.00  0.00     0.000 C 
ENDROOT
BRANCH   1   2
ATOM      2  C   UNL     1      17.495  17.697  48.072  1.00  0.00     0.000 C 
BRANCH   2   3
ATOM      3  C   UNL     1      17.115  18.767  47.038  1.00  0.00     0.006 C 
BRANCH   3   4
ATOM      4  C   UNL     1      16.424  18.165  45.807  1.00  0.00     0.053 C 
BRANCH   4   5
ATOM      5  C   UNL     1      15.156  17.456  46.170  1.00  0.00     0.041 C 
ATOM      6  O   UNL     1      14.952  16.280  45.770  1.00  0.00    -0.550 OA
ATOM      7  O   UNL     1      14.185  18.105  46.922  1.00  0.00    -0.550 OA
ENDBRANCH   4   5
ENDBRANCH   3   4
ENDBRANCH   2   3
ENDBRANCH   1   2
BRANCH   1   8
ATOM      8  C   UNL     1      16.189  18.525  50.072  1.00  0.00     0.000 C 
BRANCH   8   9
ATOM      9  C   UNL     1      15.876  17.486  51.155  1.00  0.00     0.006 C 
BRANCH   9  10
ATOM     10  C   UNL     1      17.113  17.194  52.010  1.00  0.00     0.053 C 
BRANCH  10  11
ATOM     11  C   UNL     1      17.083  18.003  53.268  1.00  0.00     0.041 C 
ATOM     12  O   UNL     1      18.157  18.396  53.795  1.00  0.00    -0.550 OA
ATOM     13  O   UNL     1      15.870  18.283  53.885  1.00  0.00    -0.550 OA
ENDBRANCH  10  11
ENDBRANCH   9  10
ENDBRANCH   8   9
ENDBRANCH   1   8
TORSDOF 8
ENDMDL
MODEL 5
REMARK VINA RESULT:    -3.233      1.909      6.126
REMARK INTER + INTRA:          -5.098
REMARK INTER:                  -4.458
REMARK INTRA:                  -0.640
REMARK UNBOUND:                -0.353
REMARK SMILES O=C([O-])CCCCCCCC(=O)[O-]
REMARK SMILES IDX 7 1 6 2 5 3 4 4 2 5 1 6 3 7 8 8 9 9 10 10 11 11 12 12 13 13
REMARK H PARENT
REMARK Flexibility Score: inf
ROOT
ATOM      1  C   UNL     1      17.698  28.143  55.806  1.00  0.00     0.000 C 
ENDROOT
BRANCH   1   2
ATOM      2  C   UNL     1      18.930  28.688  56.540  1.00  0.00     0.000 C 
BRANCH   2   3
ATOM      3  C   UNL     1      20.047  29.043  55.548  1.00  0.00     0.006 C 
BRANCH   3   4
ATOM      4  C   UNL     1      20.875  30.249  56.014  1.00  0.00     0.053 C 
BRANCH   4   5
ATOM      5  C   UNL     1      21.518  30.002  57.345  1.00  0.00     0.041 C 
ATOM      6  O   UNL     1      22.319  29.042  57.492  1.00  0.00    -0.550 OA
ATOM      7  O   UNL     1      21.205  30.810  58.430  1.00  0.00    -0.550 OA
ENDBRANCH   4   5
ENDBRANCH   3   4
ENDBRANCH   2   3
ENDBRANCH   1   2
BRANCH   1   8
ATOM      8  C   UNL     1      16.629  29.229  55.644  1.00  0.00     0.000 C 
BRANCH   8   9
ATOM      9  C   UNL     1      16.278  29.442  54.166  1.00  0.00     0.006 C 
BRANCH   9  10
ATOM     10  C   UNL     1      17.321  30.325  53.476  1.00  0.00     0.053 C 
BRANCH  10  11
ATOM     11  C   UNL     1      17.892  29.626  52.283  1.00  0.00     0.041 C 
ATOM     12  O   UNL     1      17.983  30.226  51.180  1.00  0.00    -0.550 OA
ATOM     13  O   UNL     1      18.280  28.296  52.377  1.00  0.00    -0.550 OA
ENDBRANCH  10  11
ENDBRANCH   9  10
ENDBRANCH   8   9
ENDBRANCH   1   8
TORSDOF 8
ENDMDL
MODEL 6
REMARK VINA RESULT:    -3.188     11.782     14.124
REMARK INTER + INTRA:          -5.031
REMARK INTER:                  -4.702
REMARK INTRA:                  -0.330
REMARK UNBOUND:                -0.353
REMARK SMILES O=C([O-])CCCCCCCC(=O)[O-]
REMARK SMILES IDX 7 1 6 2 5 3 4 4 2 5 1 6 3 7 8 8 9 9 10 10 11 11 12 12 13 13
REMARK H PARENT
REMARK Flexibility Score: inf
ROOT
ATOM      1  C   UNL     1      17.165  18.375  49.904  1.00  0.00     0.000 C 
ENDROOT
BRANCH   1   2
ATOM      2  C   UNL     1      17.664  17.452  51.022  1.00  0.00     0.000 C 
BRANCH   2   3
ATOM      3  C   UNL     1      16.519  17.072  51.973  1.00  0.00     0.006 C 
BRANCH   3   4
ATOM      4  C   UNL     1      16.216  18.183  52.988  1.00  0.00     0.053 C 
BRANCH   4   5
ATOM      5  C   UNL     1      17.111  18.102  54.187  1.00  0.00     0.041 C 
ATOM      6  O   UNL     1      18.250  18.638  54.164  1.00  0.00    -0.550 OA
ATOM      7  O   UNL     1      16.701  17.405  55.316  1.00  0.00    -0.550 OA
ENDBRANCH   4   5
ENDBRANCH   3   4
ENDBRANCH   2   3
ENDBRANCH   1   2
BRANCH   1   8
ATOM      8  C   UNL     1      17.751  17.965  48.548  1.00  0.00     0.000 C 
BRANCH   8   9
ATOM      9  C   UNL     1      16.702  18.081  47.436  1.00  0.00     0.006 C 
BRANCH   9  10
ATOM     10  C   UNL     1      15.333  18.458  48.009  1.00  0.00     0.053 C 
BRANCH  10  11
ATOM     11  C   UNL     1      14.263  18.261  46.981  1.00  0.00     0.041 C 
ATOM     12  O   UNL     1      13.217  18.960  47.014  1.00  0.00    -0.550 OA
ATOM     13  O   UNL     1      14.401  17.272  46.015  1.00  0.00    -0.550 OA
ENDBRANCH  10  11
ENDBRANCH   9  10
ENDBRANCH   8   9
ENDBRANCH   1   8
TORSDOF 8
ENDMDL
MODEL 7
REMARK VINA RESULT:    -3.182     12.051     14.144
REMARK INTER + INTRA:          -5.023
REMARK INTER:                  -4.678
REMARK INTRA:                  -0.345
REMARK UNBOUND:                -0.353
REMARK SMILES O=C([O-])CCCCCCCC(=O)[O-]
REMARK SMILES IDX 7 1 6 2 5 3 4 4 2 5 1 6 3 7 8 8 9 9 10 10 11 11 12 12 13 13
REMARK H PARENT
REMARK Flexibility Score: inf
ROOT
ATOM      1  C   UNL     1      16.507  18.466  49.967  1.00  0.00     0.000 C 
ENDROOT
BRANCH   1   2
ATOM      2  C   UNL     1      17.951  18.075  50.305  1.00  0.00     0.000 C 
BRANCH   2   3
ATOM      3  C   UNL     1      18.001  17.181  51.553  1.00  0.00     0.006 C 
BRANCH   3   4
ATOM      4  C   UNL     1      16.638  17.085  52.252  1.00  0.00     0.053 C 
BRANCH   4   5
ATOM      5  C   UNL     1      16.579  17.944  53.478  1.00  0.00     0.041 C 
ATOM      6  O   UNL     1      15.485  18.443  53.849  1.00  0.00    -0.550 OA
ATOM      7  O   UNL     1      17.739  18.222  54.190  1.00  0.00    -0.550 OA
ENDBRANCH   4   5
ENDBRANCH   3   4
ENDBRANCH   2   3
ENDBRANCH   1   2
BRANCH   1   8
ATOM      8  C   UNL     1      16.319  18.625  48.454  1.00  0.00     0.000 C 
BRANCH   8   9
ATOM      9  C   UNL     1      17.441  17.921  47.682  1.00  0.00     0.006 C 
BRANCH   9  10
ATOM     10  C   UNL     1      17.977  18.812  46.558  1.00  0.00     0.053 C 
BRANCH  10  11
ATOM     11  C   UNL     1      17.369  18.425  45.247  1.00  0.00     0.041 C 
ATOM     12  O   UNL     1      17.828  18.894  44.172  1.00  0.00    -0.550 OA
ATOM     13  O   UNL     1      16.263  17.585  45.216  1.00  0.00    -0.550 OA
ENDBRANCH  10  11
ENDBRANCH   9  10
ENDBRANCH   8   9
ENDBRANCH   1   8
TORSDOF 8
ENDMDL
MODEL 8
REMARK VINA RESULT:    -3.165     12.094     13.524
REMARK INTER + INTRA:          -4.998
REMARK INTER:                  -4.245
REMARK INTRA:                  -0.753
REMARK UNBOUND:                -0.353
REMARK SMILES O=C([O-])CCCCCCCC(=O)[O-]
REMARK SMILES IDX 7 1 6 2 5 3 4 4 2 5 1 6 3 7 8 8 9 9 10 10 11 11 12 12 13 13
REMARK H PARENT
REMARK Flexibility Score: inf
ROOT
ATOM      1  C   UNL     1      16.257  19.831  49.061  1.00  0.00     0.000 C 
ENDROOT
BRANCH   1   2
ATOM      2  C   UNL     1      15.489  18.620  48.517  1.00  0.00     0.000 C 
BRANCH   2   3
ATOM      3  C   UNL     1      15.329  18.711  46.992  1.00  0.00     0.006 C 
BRANCH   3   4
ATOM      4  C   UNL     1      16.276  17.758  46.251  1.00  0.00     0.053 C 
BRANCH   4   5
ATOM      5  C   UNL     1      17.412  18.492  45.606  1.00  0.00     0.041 C 
ATOM      6  O   UNL     1      17.428  18.664  44.360  1.00  0.00    -0.550 OA
ATOM      7  O   UNL     1      18.470  18.954  46.378  1.00  0.00    -0.550 OA
ENDBRANCH   4   5
ENDBRANCH   3   4
ENDBRANCH   2   3
ENDBRANCH   1   2
BRANCH   1   8
ATOM      8  C   UNL     1      17.553  19.394  49.755  1.00  0.00     0.000 C 
BRANCH   8   9
ATOM      9  C   UNL     1      17.715  17.870  49.712  1.00  0.00     0.006 C 
BRANCH   9  10
ATOM     10  C   UNL     1      18.197  17.331  51.062  1.00  0.00     0.053 C 
BRANCH  10  11
ATOM     11  C   UNL     1      17.067  17.286  52.041  1.00  0.00     0.041 C 
ATOM     12  O   UNL     1      17.264  17.578  53.250  1.00  0.00    -0.550 OA
ATOM     13  O   UNL     1      15.806  16.874  51.629  1.00  0.00    -0.550 OA
ENDBRANCH  10  11
ENDBRANCH   9  10
ENDBRANCH   8   9
ENDBRANCH   1   8
TORSDOF 8
ENDMDL
MODEL 9
REMARK VINA RESULT:    -3.089     19.628     21.013
REMARK INTER + INTRA:          -4.887
REMARK INTER:                  -4.508
REMARK INTRA:                  -0.380
REMARK UNBOUND:                -0.353
REMARK SMILES O=C([O-])CCCCCCCC(=O)[O-]
REMARK SMILES IDX 7 1 6 2 5 3 4 4 2 5 1 6 3 7 8 8 9 9 10 10 11 11 12 12 13 13
REMARK H PARENT
REMARK Flexibility Score: inf
ROOT
ATOM      1  C   UNL     1      29.005  20.504  42.401  1.00  0.00     0.000 C 
ENDROOT
BRANCH   1   2
ATOM      2  C   UNL     1      30.480  20.253  42.067  1.00  0.00     0.000 C 
BRANCH   2   3
ATOM      3  C   UNL     1      30.635  19.711  40.638  1.00  0.00     0.006 C 
BRANCH   3   4
ATOM      4  C   UNL     1      31.615  18.532  40.567  1.00  0.00     0.053 C 
BRANCH   4   5
ATOM      5  C   UNL     1      31.160  17.487  39.596  1.00  0.00     0.041 C 
ATOM      6  O   UNL     1      30.148  17.691  38.875  1.00  0.00    -0.550 OA
ATOM      7  O   UNL     1      31.831  16.274  39.512  1.00  0.00    -0.550 OA
ENDBRANCH   4   5
ENDBRANCH   3   4
ENDBRANCH   2   3
ENDBRANCH   1   2
BRANCH   1   8
ATOM      8  C   UNL     1      28.217  20.908  41.150  1.00  0.00     0.000 C 
BRANCH   8   9
ATOM      9  C   UNL     1      26.747  21.183  41.488  1.00  0.00     0.006 C 
BRANCH   9  10
ATOM     10  C   UNL     1      25.825  20.180  40.789  1.00  0.00     0.053 C 
BRANCH  10  11
ATOM     11  C   UNL     1      25.036  19.405  41.796  1.00  0.00     0.041 C 
ATOM     12  O   UNL     1      24.037  18.729  41.434  1.00  0.00    -0.550 OA
ATOM     13  O   UNL     1      25.375  19.466  43.142  1.00  0.00    -0.550 OA
ENDBRANCH  10  11
ENDBRANCH   9  10
ENDBRANCH   8   9
ENDBRANCH   1   8
TORSDOF 8
ENDMDL
