MODEL 1
REMARK VINA RESULT:    -5.005      0.000      0.000
REMARK INTER + INTRA:         -10.906
REMARK INTER:                  -8.808
REMARK INTRA:                  -2.098
REMARK UNBOUND:                -2.098
REMARK SMILES CCCCCCCCCCCCCCC(=O)[O-]
REMARK SMILES IDX 9 1 10 2 11 3 12 4 13 5 14 6 15 7 16 8 17 9 8 10 7 11 6 12
REMARK SMILES IDX 5 13 4 14 3 15 2 16 1 17
REMARK H PARENT
REMARK Flexibility Score: inf
ROOT
ATOM      1  C   UNL     1     103.639  22.436 198.367  1.00  0.00     0.000 C 
ENDROOT
BRANCH   1   2
ATOM      2  C   UNL     1     103.835  23.102 199.738  1.00  0.00     0.000 C 
BRANCH   2   3
ATOM      3  C   UNL     1     105.317  23.218 200.133  1.00  0.00     0.000 C 
BRANCH   3   4
ATOM      4  C   UNL     1     106.262  22.699 199.036  1.00  0.00     0.000 C 
BRANCH   4   5
ATOM      5  C   UNL     1     107.179  21.567 199.530  1.00  0.00     0.006 C 
BRANCH   5   6
ATOM      6  C   UNL     1     106.854  20.224 198.861  1.00  0.00     0.053 C 
BRANCH   6   7
ATOM      7  C   UNL     1     107.076  20.274 197.380  1.00  0.00     0.041 C 
ATOM      8  O   UNL     1     106.161  19.921 196.591  1.00  0.00    -0.550 OA
ATOM      9  O   UNL     1     108.279  20.745 196.872  1.00  0.00    -0.550 OA
ENDBRANCH   6   7
ENDBRANCH   5   6
ENDBRANCH   4   5
ENDBRANCH   3   4
ENDBRANCH   2   3
ENDBRANCH   1   2
BRANCH   1  10
ATOM     10  C   UNL     1     102.612  23.171 197.491  1.00  0.00     0.000 C 
BRANCH  10  11
ATOM     11  C   UNL     1     102.574  24.667 197.826  1.00  0.00    -0.000 C 
BRANCH  11  12
ATOM     12  C   UNL     1     103.392  25.479 196.811  1.00  0.00    -0.000 C 
BRANCH  12  13
ATOM     13  C   UNL     1     104.862  25.646 197.230  1.00  0.00    -0.000 C 
BRANCH  13  14
ATOM     14  C   UNL     1     105.837  24.996 196.234  1.00  0.00    -0.000 C 
BRANCH  14  15
ATOM     15  C   UNL     1     105.142  24.502 194.952  1.00  0.00    -0.000 C 
BRANCH  15  16
ATOM     16  C   UNL     1     105.150  22.976 194.755  1.00  0.00    -0.003 C 
ATOM     17  C   UNL     1     104.069  22.489 193.790  1.00  0.00     0.004 C 
ENDBRANCH  15  16
ENDBRANCH  14  15
ENDBRANCH  13  14
ENDBRANCH  12  13
ENDBRANCH  11  12
ENDBRANCH  10  11
ENDBRANCH   1  10
TORSDOF 13
ENDMDL
MODEL 2
REMARK VINA RESULT:    -4.971      0.960      2.105
REMARK INTER + INTRA:         -10.847
REMARK INTER:                  -9.060
REMARK INTRA:                  -1.787
REMARK UNBOUND:                -2.098
REMARK SMILES CCCCCCCCCCCCCCC(=O)[O-]
REMARK SMILES IDX 9 1 10 2 11 3 12 4 13 5 14 6 15 7 16 8 17 9 8 10 7 11 6 12
REMARK SMILES IDX 5 13 4 14 3 15 2 16 1 17
REMARK H PARENT
REMARK Flexibility Score: inf
ROOT
ATOM      1  C   UNL     1     102.429  24.315 197.907  1.00  0.00     0.000 C 
ENDROOT
BRANCH   1   2
ATOM      2  C   UNL     1     103.331  23.158 198.365  1.00  0.00     0.000 C 
BRANCH   2   3
ATOM      3  C   UNL     1     103.658  23.222 199.866  1.00  0.00     0.000 C 
BRANCH   3   4
ATOM      4  C   UNL     1     105.170  23.168 200.143  1.00  0.00     0.000 C 
BRANCH   4   5
ATOM      5  C   UNL     1     106.003  23.007 198.860  1.00  0.00     0.006 C 
BRANCH   5   6
ATOM      6  C   UNL     1     107.054  21.895 198.988  1.00  0.00     0.053 C 
BRANCH   6   7
ATOM      7  C   UNL     1     106.561  20.599 198.419  1.00  0.00     0.041 C 
ATOM      8  O   UNL     1     106.917  19.506 198.933  1.00  0.00    -0.550 OA
ATOM      9  O   UNL     1     105.682  20.600 197.344  1.00  0.00    -0.550 OA
ENDBRANCH   6   7
ENDBRANCH   5   6
ENDBRANCH   4   5
ENDBRANCH   3   4
ENDBRANCH   2   3
ENDBRANCH   1   2
BRANCH   1  10
ATOM     10  C   UNL     1     103.055  25.145 196.776  1.00  0.00     0.000 C 
BRANCH  10  11
ATOM     11  C   UNL     1     104.467  25.609 197.152  1.00  0.00    -0.000 C 
BRANCH  11  12
ATOM     12  C   UNL     1     105.397  25.585 195.930  1.00  0.00    -0.000 C 
BRANCH  12  13
ATOM     13  C   UNL     1     104.892  24.652 194.817  1.00  0.00    -0.000 C 
BRANCH  13  14
ATOM     14  C   UNL     1     105.427  23.218 194.961  1.00  0.00    -0.000 C 
BRANCH  14  15
ATOM     15  C   UNL     1     104.706  22.215 194.041  1.00  0.00    -0.000 C 
BRANCH  15  16
ATOM     16  C   UNL     1     103.437  22.756 193.358  1.00  0.00    -0.003 C 
ATOM     17  C   UNL     1     102.147  22.270 194.019  1.00  0.00     0.004 C 
ENDBRANCH  15  16
ENDBRANCH  14  15
ENDBRANCH  13  14
ENDBRANCH  12  13
ENDBRANCH  11  12
ENDBRANCH  10  11
ENDBRANCH   1  10
TORSDOF 13
ENDMDL
MODEL 3
REMARK VINA RESULT:    -4.895      1.833      4.035
REMARK INTER + INTRA:         -10.714
REMARK INTER:                  -8.767
REMARK INTRA:                  -1.946
REMARK UNBOUND:                -2.098
REMARK SMILES CCCCCCCCCCCCCCC(=O)[O-]
REMARK SMILES IDX 9 1 10 2 11 3 12 4 13 5 14 6 15 7 16 8 17 9 8 10 7 11 6 12
REMARK SMILES IDX 5 13 4 14 3 15 2 16 1 17
REMARK H PARENT
REMARK Flexibility Score: inf
ROOT
ATOM      1  C   UNL     1     102.156  22.462 193.780  1.00  0.00     0.000 C 
ENDROOT
BRANCH   1   2
ATOM      2  C   UNL     1     103.478  22.832 193.091  1.00  0.00     0.000 C 
BRANCH   2   3
ATOM      3  C   UNL     1     104.705  22.262 193.822  1.00  0.00     0.000 C 
BRANCH   3   4
ATOM      4  C   UNL     1     105.607  21.427 192.897  1.00  0.00     0.000 C 
BRANCH   4   5
ATOM      5  C   UNL     1     106.904  20.971 193.587  1.00  0.00     0.006 C 
BRANCH   5   6
ATOM      6  C   UNL     1     106.692  20.665 195.076  1.00  0.00     0.053 C 
BRANCH   6   7
ATOM      7  C   UNL     1     107.994  20.492 195.798  1.00  0.00     0.041 C 
ATOM      8  O   UNL     1     109.048  20.253 195.152  1.00  0.00    -0.550 OA
ATOM      9  O   UNL     1     108.049  20.631 197.178  1.00  0.00    -0.550 OA
ENDBRANCH   6   7
ENDBRANCH   5   6
ENDBRANCH   4   5
ENDBRANCH   3   4
ENDBRANCH   2   3
ENDBRANCH   1   2
BRANCH   1  10
ATOM     10  C   UNL     1     102.336  22.122 195.268  1.00  0.00     0.000 C 
BRANCH  10  11
ATOM     11  C   UNL     1     101.893  23.291 196.156  1.00  0.00    -0.000 C 
BRANCH  11  12
ATOM     12  C   UNL     1     102.631  23.269 197.503  1.00  0.00    -0.000 C 
BRANCH  12  13
ATOM     13  C   UNL     1     103.747  22.212 197.551  1.00  0.00    -0.000 C 
BRANCH  13  14
ATOM     14  C   UNL     1     105.152  22.836 197.533  1.00  0.00    -0.000 C 
BRANCH  14  15
ATOM     15  C   UNL     1     105.124  24.376 197.551  1.00  0.00    -0.000 C 
BRANCH  15  16
ATOM     16  C   UNL     1     105.904  25.054 196.411  1.00  0.00    -0.003 C 
ATOM     17  C   UNL     1     105.005  25.545 195.277  1.00  0.00     0.004 C 
ENDBRANCH  15  16
ENDBRANCH  14  15
ENDBRANCH  13  14
ENDBRANCH  12  13
ENDBRANCH  11  12
ENDBRANCH  10  11
ENDBRANCH   1  10
TORSDOF 13
ENDMDL
MODEL 4
REMARK VINA RESULT:    -4.888      1.921      4.152
REMARK INTER + INTRA:         -10.700
REMARK INTER:                  -8.499
REMARK INTRA:                  -2.200
REMARK UNBOUND:                -2.098
REMARK SMILES CCCCCCCCCCCCCCC(=O)[O-]
REMARK SMILES IDX 9 1 10 2 11 3 12 4 13 5 14 6 15 7 16 8 17 9 8 10 7 11 6 12
REMARK SMILES IDX 5 13 4 14 3 15 2 16 1 17
REMARK H PARENT
REMARK Flexibility Score: inf
ROOT
ATOM      1  C   UNL     1     105.004  24.276 198.691  1.00  0.00     0.000 C 
ENDROOT
BRANCH   1   2
ATOM      2  C   UNL     1     105.819  22.998 198.942  1.00  0.00     0.000 C 
BRANCH   2   3
ATOM      3  C   UNL     1     106.007  22.157 197.668  1.00  0.00     0.000 C 
BRANCH   3   4
ATOM      4  C   UNL     1     104.822  21.215 197.403  1.00  0.00     0.000 C 
BRANCH   4   5
ATOM      5  C   UNL     1     104.449  21.134 195.913  1.00  0.00     0.006 C 
BRANCH   5   6
ATOM      6  C   UNL     1     105.381  21.981 195.035  1.00  0.00     0.053 C 
BRANCH   6   7
ATOM      7  C   UNL     1     106.285  21.127 194.200  1.00  0.00     0.041 C 
ATOM      8  O   UNL     1     106.014  20.917 192.988  1.00  0.00    -0.550 OA
ATOM      9  O   UNL     1     107.443  20.593 194.748  1.00  0.00    -0.550 OA
ENDBRANCH   6   7
ENDBRANCH   5   6
ENDBRANCH   4   5
ENDBRANCH   3   4
ENDBRANCH   2   3
ENDBRANCH   1   2
BRANCH   1  10
ATOM     10  C   UNL     1     105.303  24.913 197.325  1.00  0.00     0.000 C 
BRANCH  10  11
ATOM     11  C   UNL     1     104.013  25.129 196.525  1.00  0.00    -0.000 C 
BRANCH  11  12
ATOM     12  C   UNL     1     102.776  24.934 197.415  1.00  0.00    -0.000 C 
BRANCH  12  13
ATOM     13  C   UNL     1     101.943  23.705 197.015  1.00  0.00    -0.000 C 
BRANCH  13  14
ATOM     14  C   UNL     1     101.566  22.830 198.221  1.00  0.00    -0.000 C 
BRANCH  14  15
ATOM     15  C   UNL     1     100.619  23.543 199.205  1.00  0.00    -0.000 C 
BRANCH  15  16
ATOM     16  C   UNL     1     101.216  23.818 200.597  1.00  0.00    -0.003 C 
ATOM     17  C   UNL     1     102.498  23.032 200.866  1.00  0.00     0.004 C 
ENDBRANCH  15  16
ENDBRANCH  14  15
ENDBRANCH  13  14
ENDBRANCH  12  13
ENDBRANCH  11  12
ENDBRANCH  10  11
ENDBRANCH   1  10
TORSDOF 13
ENDMDL
MODEL 5
REMARK VINA RESULT:    -4.883      2.575      5.302
REMARK INTER + INTRA:         -10.691
REMARK INTER:                  -8.874
REMARK INTRA:                  -1.817
REMARK UNBOUND:                -2.098
REMARK SMILES CCCCCCCCCCCCCCC(=O)[O-]
REMARK SMILES IDX 9 1 10 2 11 3 12 4 13 5 14 6 15 7 16 8 17 9 8 10 7 11 6 12
REMARK SMILES IDX 5 13 4 14 3 15 2 16 1 17
REMARK H PARENT
REMARK Flexibility Score: inf
ROOT
ATOM      1  C   UNL     1     104.353  22.241 193.705  1.00  0.00     0.000 C 
ENDROOT
BRANCH   1   2
ATOM      2  C   UNL     1     103.032  22.941 193.351  1.00  0.00     0.000 C 
BRANCH   2   3
ATOM      3  C   UNL     1     101.800  22.092 193.709  1.00  0.00     0.000 C 
BRANCH   3   4
ATOM      4  C   UNL     1     101.522  22.064 195.221  1.00  0.00     0.000 C 
BRANCH   4   5
ATOM      5  C   UNL     1     101.376  20.635 195.771  1.00  0.00     0.006 C 
BRANCH   5   6
ATOM      6  C   UNL     1     102.405  20.328 196.868  1.00  0.00     0.053 C 
BRANCH   6   7
ATOM      7  C   UNL     1     102.469  18.863 197.174  1.00  0.00     0.041 C 
ATOM      8  O   UNL     1     103.584  18.286 197.275  1.00  0.00    -0.550 OA
ATOM      9  O   UNL     1     101.301  18.143 197.384  1.00  0.00    -0.550 OA
ENDBRANCH   6   7
ENDBRANCH   5   6
ENDBRANCH   4   5
ENDBRANCH   3   4
ENDBRANCH   2   3
ENDBRANCH   1   2
BRANCH   1  10
ATOM     10  C   UNL     1     105.055  22.875 194.917  1.00  0.00     0.000 C 
BRANCH  10  11
ATOM     11  C   UNL     1     104.632  24.338 195.092  1.00  0.00    -0.000 C 
BRANCH  11  12
ATOM     12  C   UNL     1     103.983  24.561 196.466  1.00  0.00    -0.000 C 
BRANCH  12  13
ATOM     13  C   UNL     1     104.537  23.618 197.546  1.00  0.00    -0.000 C 
BRANCH  13  14
ATOM     14  C   UNL     1     103.476  23.223 198.587  1.00  0.00    -0.000 C 
BRANCH  14  15
ATOM     15  C   UNL     1     102.101  23.860 198.310  1.00  0.00    -0.000 C 
BRANCH  15  16
ATOM     16  C   UNL     1     101.172  23.957 199.534  1.00  0.00    -0.003 C 
ATOM     17  C   UNL     1     101.854  23.547 200.838  1.00  0.00     0.004 C 
ENDBRANCH  15  16
ENDBRANCH  14  15
ENDBRANCH  13  14
ENDBRANCH  12  13
ENDBRANCH  11  12
ENDBRANCH  10  11
ENDBRANCH   1  10
TORSDOF 13
ENDMDL
MODEL 6
REMARK VINA RESULT:    -4.849      1.386      2.530
REMARK INTER + INTRA:         -10.631
REMARK INTER:                  -8.591
REMARK INTRA:                  -2.041
REMARK UNBOUND:                -2.098
REMARK SMILES CCCCCCCCCCCCCCC(=O)[O-]
REMARK SMILES IDX 9 1 10 2 11 3 12 4 13 5 14 6 15 7 16 8 17 9 8 10 7 11 6 12
REMARK SMILES IDX 5 13 4 14 3 15 2 16 1 17
REMARK H PARENT
REMARK Flexibility Score: inf
ROOT
ATOM      1  C   UNL     1     102.520  24.100 197.333  1.00  0.00     0.000 C 
ENDROOT
BRANCH   1   2
ATOM      2  C   UNL     1     103.442  23.146 198.108  1.00  0.00     0.000 C 
BRANCH   2   3
ATOM      3  C   UNL     1     103.435  21.720 197.533  1.00  0.00     0.000 C 
BRANCH   3   4
ATOM      4  C   UNL     1     104.853  21.169 197.307  1.00  0.00     0.000 C 
BRANCH   4   5
ATOM      5  C   UNL     1     105.942  22.051 197.941  1.00  0.00     0.006 C 
BRANCH   5   6
ATOM      6  C   UNL     1     107.170  21.237 198.371  1.00  0.00     0.053 C 
BRANCH   6   7
ATOM      7  C   UNL     1     108.253  21.280 197.337  1.00  0.00     0.041 C 
ATOM      8  O   UNL     1     109.252  22.030 197.497  1.00  0.00    -0.550 OA
ATOM      9  O   UNL     1     108.178  20.466 196.215  1.00  0.00    -0.550 OA
ENDBRANCH   6   7
ENDBRANCH   5   6
ENDBRANCH   4   5
ENDBRANCH   3   4
ENDBRANCH   2   3
ENDBRANCH   1   2
BRANCH   1  10
ATOM     10  C   UNL     1     103.149  25.485 197.112  1.00  0.00     0.000 C 
BRANCH  10  11
ATOM     11  C   UNL     1     104.665  25.374 196.914  1.00  0.00    -0.000 C 
BRANCH  11  12
ATOM     12  C   UNL     1     105.027  25.382 195.421  1.00  0.00    -0.000 C 
BRANCH  12  13
ATOM     13  C   UNL     1     105.306  23.973 194.871  1.00  0.00    -0.000 C 
BRANCH  13  14
ATOM     14  C   UNL     1     104.161  23.448 193.989  1.00  0.00    -0.000 C 
BRANCH  14  15
ATOM     15  C   UNL     1     104.464  22.069 193.373  1.00  0.00    -0.000 C 
BRANCH  15  16
ATOM     16  C   UNL     1     105.791  21.434 193.824  1.00  0.00    -0.003 C 
ATOM     17  C   UNL     1     106.751  21.163 192.666  1.00  0.00     0.004 C 
ENDBRANCH  15  16
ENDBRANCH  14  15
ENDBRANCH  13  14
ENDBRANCH  12  13
ENDBRANCH  11  12
ENDBRANCH  10  11
ENDBRANCH   1  10
TORSDOF 13
ENDMDL
MODEL 7
REMARK VINA RESULT:    -4.837      1.343      3.190
REMARK INTER + INTRA:         -10.611
REMARK INTER:                  -8.827
REMARK INTRA:                  -1.785
REMARK UNBOUND:                -2.098
REMARK SMILES CCCCCCCCCCCCCCC(=O)[O-]
REMARK SMILES IDX 9 1 10 2 11 3 12 4 13 5 14 6 15 7 16 8 17 9 8 10 7 11 6 12
REMARK SMILES IDX 5 13 4 14 3 15 2 16 1 17
REMARK H PARENT
REMARK Flexibility Score: inf
ROOT
ATOM      1  C   UNL     1     102.171  22.012 196.566  1.00  0.00     0.000 C 
ENDROOT
BRANCH   1   2
ATOM      2  C   UNL     1     102.793  22.975 197.590  1.00  0.00     0.000 C 
BRANCH   2   3
ATOM      3  C   UNL     1     102.372  22.655 199.034  1.00  0.00     0.000 C 
BRANCH   3   4
ATOM      4  C   UNL     1     103.402  23.137 200.069  1.00  0.00     0.000 C 
BRANCH   4   5
ATOM      5  C   UNL     1     104.722  23.594 199.425  1.00  0.00     0.006 C 
BRANCH   5   6
ATOM      6  C   UNL     1     105.932  22.828 199.978  1.00  0.00     0.053 C 
BRANCH   6   7
ATOM      7  C   UNL     1     106.575  21.973 198.929  1.00  0.00     0.041 C 
ATOM      8  O   UNL     1     105.879  21.475 198.006  1.00  0.00    -0.550 OA
ATOM      9  O   UNL     1     107.946  21.757 198.950  1.00  0.00    -0.550 OA
ENDBRANCH   6   7
ENDBRANCH   5   6
ENDBRANCH   4   5
ENDBRANCH   3   4
ENDBRANCH   2   3
ENDBRANCH   1   2
BRANCH   1  10
ATOM     10  C   UNL     1     101.448  22.744 195.425  1.00  0.00     0.000 C 
BRANCH  10  11
ATOM     11  C   UNL     1     101.818  22.140 194.065  1.00  0.00    -0.000 C 
BRANCH  11  12
ATOM     12  C   UNL     1     102.956  22.932 193.403  1.00  0.00    -0.000 C 
BRANCH  12  13
ATOM     13  C   UNL     1     104.297  22.182 193.433  1.00  0.00    -0.000 C 
BRANCH  13  14
ATOM     14  C   UNL     1     105.236  22.696 194.538  1.00  0.00    -0.000 C 
BRANCH  14  15
ATOM     15  C   UNL     1     104.995  24.177 194.886  1.00  0.00    -0.000 C 
BRANCH  15  16
ATOM     16  C   UNL     1     105.830  24.711 196.064  1.00  0.00    -0.003 C 
ATOM     17  C   UNL     1     105.175  25.894 196.776  1.00  0.00     0.004 C 
ENDBRANCH  15  16
ENDBRANCH  14  15
ENDBRANCH  13  14
ENDBRANCH  12  13
ENDBRANCH  11  12
ENDBRANCH  10  11
ENDBRANCH   1  10
TORSDOF 13
ENDMDL
MODEL 8
REMARK VINA RESULT:    -4.827      1.734      2.580
REMARK INTER + INTRA:         -10.593
REMARK INTER:                  -8.668
REMARK INTRA:                  -1.925
REMARK UNBOUND:                -2.098
REMARK SMILES CCCCCCCCCCCCCCC(=O)[O-]
REMARK SMILES IDX 9 1 10 2 11 3 12 4 13 5 14 6 15 7 16 8 17 9 8 10 7 11 6 12
REMARK SMILES IDX 5 13 4 14 3 15 2 16 1 17
REMARK H PARENT
REMARK Flexibility Score: inf
ROOT
ATOM      1  C   UNL     1     105.085  23.613 199.191  1.00  0.00     0.000 C 
ENDROOT
BRANCH   1   2
ATOM      2  C   UNL     1     106.073  22.874 200.107  1.00  0.00     0.000 C 
BRANCH   2   3
ATOM      3  C   UNL     1     106.915  21.833 199.351  1.00  0.00     0.000 C 
BRANCH   3   4
ATOM      4  C   UNL     1     106.753  21.938 197.825  1.00  0.00     0.000 C 
BRANCH   4   5
ATOM      5  C   UNL     1     106.803  20.568 197.127  1.00  0.00     0.006 C 
BRANCH   5   6
ATOM      6  C   UNL     1     107.731  20.574 195.904  1.00  0.00     0.053 C 
BRANCH   6   7
ATOM      7  C   UNL     1     109.136  20.206 196.273  1.00  0.00     0.041 C 
ATOM      8  O   UNL     1     109.528  19.015 196.161  1.00  0.00    -0.550 OA
ATOM      9  O   UNL     1     110.022  21.184 196.704  1.00  0.00    -0.550 OA
ENDBRANCH   6   7
ENDBRANCH   5   6
ENDBRANCH   4   5
ENDBRANCH   3   4
ENDBRANCH   2   3
ENDBRANCH   1   2
BRANCH   1  10
ATOM     10  C   UNL     1     103.623  23.218 199.452  1.00  0.00     0.000 C 
BRANCH  10  11
ATOM     11  C   UNL     1     102.805  23.253 198.156  1.00  0.00    -0.000 C 
BRANCH  11  12
ATOM     12  C   UNL     1     102.676  21.847 197.549  1.00  0.00    -0.000 C 
BRANCH  12  13
ATOM     13  C   UNL     1     103.406  21.712 196.203  1.00  0.00    -0.000 C 
BRANCH  13  14
ATOM     14  C   UNL     1     103.900  23.063 195.661  1.00  0.00    -0.000 C 
BRANCH  14  15
ATOM     15  C   UNL     1     105.003  22.915 194.596  1.00  0.00    -0.000 C 
BRANCH  15  16
ATOM     16  C   UNL     1     104.603  22.096 193.356  1.00  0.00    -0.003 C 
ATOM     17  C   UNL     1     105.763  21.295 192.766  1.00  0.00     0.004 C 
ENDBRANCH  15  16
ENDBRANCH  14  15
ENDBRANCH  13  14
ENDBRANCH  12  13
ENDBRANCH  11  12
ENDBRANCH  10  11
ENDBRANCH   1  10
TORSDOF 13
ENDMDL
MODEL 9
REMARK VINA RESULT:    -4.778      1.500      4.099
REMARK INTER + INTRA:         -10.506
REMARK INTER:                  -8.455
REMARK INTRA:                  -2.052
REMARK UNBOUND:                -2.098
REMARK SMILES CCCCCCCCCCCCCCC(=O)[O-]
REMARK SMILES IDX 9 1 10 2 11 3 12 4 13 5 14 6 15 7 16 8 17 9 8 10 7 11 6 12
REMARK SMILES IDX 5 13 4 14 3 15 2 16 1 17
REMARK H PARENT
REMARK Flexibility Score: inf
ROOT
ATOM      1  C   UNL     1     101.503  22.491 194.426  1.00  0.00     0.000 C 
ENDROOT
BRANCH   1   2
ATOM      2  C   UNL     1     102.619  22.493 193.370  1.00  0.00     0.000 C 
BRANCH   2   3
ATOM      3  C   UNL     1     103.923  23.121 193.890  1.00  0.00     0.000 C 
BRANCH   3   4
ATOM      4  C   UNL     1     105.012  22.073 194.171  1.00  0.00     0.000 C 
BRANCH   4   5
ATOM      5  C   UNL     1     105.764  22.335 195.487  1.00  0.00     0.006 C 
BRANCH   5   6
ATOM      6  C   UNL     1     105.977  21.050 196.299  1.00  0.00     0.053 C 
BRANCH   6   7
ATOM      7  C   UNL     1     107.391  20.927 196.780  1.00  0.00     0.041 C 
ATOM      8  O   UNL     1     107.869  21.785 197.567  1.00  0.00    -0.550 OA
ATOM      9  O   UNL     1     108.169  19.846 196.387  1.00  0.00    -0.550 OA
ENDBRANCH   6   7
ENDBRANCH   5   6
ENDBRANCH   4   5
ENDBRANCH   3   4
ENDBRANCH   2   3
ENDBRANCH   1   2
BRANCH   1  10
ATOM     10  C   UNL     1     101.590  21.289 195.379  1.00  0.00     0.000 C 
BRANCH  10  11
ATOM     11  C   UNL     1     101.879  21.746 196.814  1.00  0.00    -0.000 C 
BRANCH  11  12
ATOM     12  C   UNL     1     101.239  23.113 197.095  1.00  0.00    -0.000 C 
BRANCH  12  13
ATOM     13  C   UNL     1     102.107  24.002 198.001  1.00  0.00    -0.000 C 
BRANCH  13  14
ATOM     14  C   UNL     1     103.350  24.545 197.278  1.00  0.00    -0.000 C 
BRANCH  14  15
ATOM     15  C   UNL     1     104.641  24.380 198.101  1.00  0.00    -0.000 C 
BRANCH  15  16
ATOM     16  C   UNL     1     104.627  23.214 199.105  1.00  0.00    -0.003 C 
ATOM     17  C   UNL     1     105.805  23.246 200.078  1.00  0.00     0.004 C 
ENDBRANCH  15  16
ENDBRANCH  14  15
ENDBRANCH  13  14
ENDBRANCH  12  13
ENDBRANCH  11  12
ENDBRANCH  10  11
ENDBRANCH   1  10
TORSDOF 13
ENDMDL
