MODEL 1
REMARK VINA RESULT:    -6.804      0.000      0.000
REMARK INTER + INTRA:          -9.086
REMARK INTER:                  -8.594
REMARK INTRA:                  -0.491
REMARK UNBOUND:                -0.491
REMARK SMILES Oc1cc(O)cc(CCc2ccccc2O)c1
REMARK SMILES IDX 9 1 10 2 12 3 13 4 11 5 14 6 15 7 16 8 8 10 7 11 6 12 17 13
REMARK SMILES IDX 4 14 2 15 3 16 5 17 1 19
REMARK H PARENT 16 9 5 18 1 20
REMARK Flexibility Score: inf
ROOT
ATOM      1  C   UNL     1      19.235  29.276 -21.445  1.00  0.00     0.044 C 
ENDROOT
BRANCH   1   2
ATOM      2  C   UNL     1      18.910  30.628 -22.034  1.00  0.00    -0.006 A 
ATOM      3  C   UNL     1      17.281  32.408 -22.369  1.00  0.00     0.001 A 
ATOM      4  C   UNL     1      18.231  33.154 -23.067  1.00  0.00     0.004 A 
ATOM      5  C   UNL     1      17.618  31.155 -21.852  1.00  0.00     0.007 A 
ATOM      6  C   UNL     1      19.522  32.653 -23.243  1.00  0.00     0.046 A 
ATOM      7  C   UNL     1      19.877  31.401 -22.726  1.00  0.00     0.118 A 
BRANCH   7   8
ATOM      8  O   UNL     1      21.190  30.964 -22.915  1.00  0.00    -0.508 OA
ATOM      9  H   UNL     1      21.998  31.567 -22.835  1.00  0.00     0.293 HD
ENDBRANCH   7   8
ENDBRANCH   1   2
BRANCH   1  10
ATOM     10  C   UNL     1      19.070  28.172 -22.495  1.00  0.00     0.040 C 
BRANCH  10  11
ATOM     11  C   UNL     1      20.180  27.163 -22.377  1.00  0.00    -0.040 A 
ATOM     12  C   UNL     1      21.473  27.572 -22.011  1.00  0.00     0.050 A 
ATOM     13  C   UNL     1      19.919  25.797 -22.578  1.00  0.00     0.050 A 
ATOM     14  C   UNL     1      22.500  26.627 -21.871  1.00  0.00     0.119 A 
ATOM     15  C   UNL     1      20.945  24.853 -22.437  1.00  0.00     0.119 A 
ATOM     16  C   UNL     1      22.234  25.272 -22.087  1.00  0.00     0.092 A 
BRANCH  14  17
ATOM     17  O   UNL     1      23.786  27.026 -21.514  1.00  0.00    -0.508 OA
ATOM     18  H   UNL     1      24.493  26.353 -21.242  1.00  0.00     0.293 HD
ENDBRANCH  14  17
BRANCH  15  19
ATOM     19  O   UNL     1      20.696  23.498 -22.640  1.00  0.00    -0.508 OA
ATOM     20  H   UNL     1      21.220  22.783 -22.148  1.00  0.00     0.293 HD
ENDBRANCH  15  19
ENDBRANCH  10  11
ENDBRANCH   1  10
TORSDOF 6
ENDMDL
MODEL 2
REMARK VINA RESULT:    -6.761     13.558     15.916
REMARK INTER + INTRA:          -9.031
REMARK INTER:                  -8.488
REMARK INTRA:                  -0.543
REMARK UNBOUND:                -0.491
REMARK SMILES Oc1cc(O)cc(CCc2ccccc2O)c1
REMARK SMILES IDX 9 1 10 2 12 3 13 4 11 5 14 6 15 7 16 8 8 10 7 11 6 12 17 13
REMARK SMILES IDX 4 14 2 15 3 16 5 17 1 19
REMARK H PARENT 16 9 5 18 1 20
REMARK Flexibility Score: inf
ROOT
ATOM      1  C   UNL     1      32.892  30.359 -13.751  1.00  0.00     0.044 C 
ENDROOT
BRANCH   1   2
ATOM      2  C   UNL     1      34.273  30.935 -13.549  1.00  0.00    -0.006 A 
ATOM      3  C   UNL     1      36.407  31.595 -14.520  1.00  0.00     0.001 A 
ATOM      4  C   UNL     1      36.849  32.029 -13.269  1.00  0.00     0.004 A 
ATOM      5  C   UNL     1      35.128  31.054 -14.661  1.00  0.00     0.007 A 
ATOM      6  C   UNL     1      36.008  31.932 -12.159  1.00  0.00     0.046 A 
ATOM      7  C   UNL     1      34.719  31.398 -12.285  1.00  0.00     0.118 A 
BRANCH   7   8
ATOM      8  O   UNL     1      33.918  31.348 -11.143  1.00  0.00    -0.508 OA
ATOM      9  H   UNL     1      34.128  31.847 -10.289  1.00  0.00     0.293 HD
ENDBRANCH   7   8
ENDBRANCH   1   2
BRANCH   1  10
ATOM     10  C   UNL     1      31.841  31.472 -13.802  1.00  0.00     0.040 C 
BRANCH  10  11
ATOM     11  C   UNL     1      31.312  31.633 -15.201  1.00  0.00    -0.040 A 
ATOM     12  C   UNL     1      31.699  30.739 -16.213  1.00  0.00     0.050 A 
ATOM     13  C   UNL     1      30.382  32.645 -15.495  1.00  0.00     0.050 A 
ATOM     14  C   UNL     1      31.181  30.870 -17.509  1.00  0.00     0.119 A 
ATOM     15  C   UNL     1      29.864  32.776 -16.790  1.00  0.00     0.119 A 
ATOM     16  C   UNL     1      30.268  31.890 -17.794  1.00  0.00     0.092 A 
BRANCH  14  17
ATOM     17  O   UNL     1      31.566  29.991 -18.518  1.00  0.00    -0.508 OA
ATOM     18  H   UNL     1      30.967  29.227 -18.813  1.00  0.00     0.293 HD
ENDBRANCH  14  17
BRANCH  15  19
ATOM     19  O   UNL     1      28.947  33.781 -17.089  1.00  0.00    -0.508 OA
ATOM     20  H   UNL     1      29.011  34.317 -17.947  1.00  0.00     0.293 HD
ENDBRANCH  15  19
ENDBRANCH  10  11
ENDBRANCH   1  10
TORSDOF 6
ENDMDL
MODEL 3
REMARK VINA RESULT:    -6.757      0.079      2.031
REMARK INTER + INTRA:          -9.027
REMARK INTER:                  -8.535
REMARK INTRA:                  -0.491
REMARK UNBOUND:                -0.491
REMARK SMILES Oc1cc(O)cc(CCc2ccccc2O)c1
REMARK SMILES IDX 9 1 10 2 12 3 13 4 11 5 14 6 15 7 16 8 8 10 7 11 6 12 17 13
REMARK SMILES IDX 4 14 2 15 3 16 5 17 1 19
REMARK H PARENT 16 9 5 18 1 20
REMARK Flexibility Score: inf
ROOT
ATOM      1  C   UNL     1      19.190  29.325 -21.428  1.00  0.00     0.044 C 
ENDROOT
BRANCH   1   2
ATOM      2  C   UNL     1      18.883  30.671 -22.042  1.00  0.00    -0.006 A 
ATOM      3  C   UNL     1      17.274  32.459 -22.421  1.00  0.00     0.001 A 
ATOM      4  C   UNL     1      18.237  33.185 -23.123  1.00  0.00     0.004 A 
ATOM      5  C   UNL     1      17.594  31.212 -21.881  1.00  0.00     0.007 A 
ATOM      6  C   UNL     1      19.525  32.669 -23.278  1.00  0.00     0.046 A 
ATOM      7  C   UNL     1      19.864  31.423 -22.738  1.00  0.00     0.118 A 
BRANCH   7   8
ATOM      8  O   UNL     1      21.174  30.971 -22.908  1.00  0.00    -0.508 OA
ATOM      9  H   UNL     1      21.648  30.368 -22.248  1.00  0.00     0.293 HD
ENDBRANCH   7   8
ENDBRANCH   1   2
BRANCH   1  10
ATOM     10  C   UNL     1      19.007  28.204 -22.455  1.00  0.00     0.040 C 
BRANCH  10  11
ATOM     11  C   UNL     1      20.096  27.175 -22.314  1.00  0.00    -0.040 A 
ATOM     12  C   UNL     1      19.830  25.821 -22.575  1.00  0.00     0.050 A 
ATOM     13  C   UNL     1      21.401  27.568 -21.973  1.00  0.00     0.050 A 
ATOM     14  C   UNL     1      20.852  24.868 -22.475  1.00  0.00     0.119 A 
ATOM     15  C   UNL     1      22.424  26.616 -21.874  1.00  0.00     0.119 A 
ATOM     16  C   UNL     1      22.145  25.267 -22.122  1.00  0.00     0.092 A 
BRANCH  14  17
ATOM     17  O   UNL     1      20.594  23.522 -22.727  1.00  0.00    -0.508 OA
ATOM     18  H   UNL     1      20.227  22.909 -22.008  1.00  0.00     0.293 HD
ENDBRANCH  14  17
BRANCH  15  19
ATOM     19  O   UNL     1      23.719  26.997 -21.531  1.00  0.00    -0.508 OA
ATOM     20  H   UNL     1      24.425  27.166 -22.238  1.00  0.00     0.293 HD
ENDBRANCH  15  19
ENDBRANCH  10  11
ENDBRANCH   1  10
TORSDOF 6
ENDMDL
MODEL 4
REMARK VINA RESULT:    -6.738     13.560     15.879
REMARK INTER + INTRA:          -9.002
REMARK INTER:                  -8.460
REMARK INTRA:                  -0.542
REMARK UNBOUND:                -0.491
REMARK SMILES Oc1cc(O)cc(CCc2ccccc2O)c1
REMARK SMILES IDX 9 1 10 2 12 3 13 4 11 5 14 6 15 7 16 8 8 10 7 11 6 12 17 13
REMARK SMILES IDX 4 14 2 15 3 16 5 17 1 19
REMARK H PARENT 16 9 5 18 1 20
REMARK Flexibility Score: inf
ROOT
ATOM      1  C   UNL     1      32.877  30.364 -13.708  1.00  0.00     0.044 C 
ENDROOT
BRANCH   1   2
ATOM      2  C   UNL     1      34.266  30.937 -13.553  1.00  0.00    -0.006 A 
ATOM      3  C   UNL     1      36.372  31.582 -14.592  1.00  0.00     0.001 A 
ATOM      4  C   UNL     1      36.852  32.025 -13.359  1.00  0.00     0.004 A 
ATOM      5  C   UNL     1      35.087  31.045 -14.691  1.00  0.00     0.007 A 
ATOM      6  C   UNL     1      36.044  31.939 -12.223  1.00  0.00     0.046 A 
ATOM      7  C   UNL     1      34.751  31.409 -12.306  1.00  0.00     0.118 A 
BRANCH   7   8
ATOM      8  O   UNL     1      33.983  31.371 -11.140  1.00  0.00    -0.508 OA
ATOM      9  H   UNL     1      33.206  31.993 -10.961  1.00  0.00     0.293 HD
ENDBRANCH   7   8
ENDBRANCH   1   2
BRANCH   1  10
ATOM     10  C   UNL     1      31.830  31.481 -13.756  1.00  0.00     0.040 C 
BRANCH  10  11
ATOM     11  C   UNL     1      31.264  31.616 -15.144  1.00  0.00    -0.040 A 
ATOM     12  C   UNL     1      30.349  32.639 -15.440  1.00  0.00     0.050 A 
ATOM     13  C   UNL     1      31.690  30.754 -16.168  1.00  0.00     0.050 A 
ATOM     14  C   UNL     1      29.847  32.784 -16.741  1.00  0.00     0.119 A 
ATOM     15  C   UNL     1      31.190  30.899 -17.469  1.00  0.00     0.119 A 
ATOM     16  C   UNL     1      30.267  31.913 -17.751  1.00  0.00     0.092 A 
BRANCH  14  17
ATOM     17  O   UNL     1      28.935  33.793 -17.041  1.00  0.00    -0.508 OA
ATOM     18  H   UNL     1      28.173  34.023 -16.412  1.00  0.00     0.293 HD
ENDBRANCH  14  17
BRANCH  15  19
ATOM     19  O   UNL     1      31.603  30.045 -18.489  1.00  0.00    -0.508 OA
ATOM     20  H   UNL     1      32.454  29.500 -18.410  1.00  0.00     0.293 HD
ENDBRANCH  15  19
ENDBRANCH  10  11
ENDBRANCH   1  10
TORSDOF 6
ENDMDL
MODEL 5
REMARK VINA RESULT:    -6.661     13.969     16.317
REMARK INTER + INTRA:          -8.905
REMARK INTER:                  -8.269
REMARK INTRA:                  -0.637
REMARK UNBOUND:                -0.491
REMARK SMILES Oc1cc(O)cc(CCc2ccccc2O)c1
REMARK SMILES IDX 9 1 10 2 12 3 13 4 11 5 14 6 15 7 16 8 8 10 7 11 6 12 17 13
REMARK SMILES IDX 4 14 2 15 3 16 5 17 1 19
REMARK H PARENT 16 9 5 18 1 20
REMARK Flexibility Score: inf
ROOT
ATOM      1  C   UNL     1      35.000  31.257 -14.533  1.00  0.00     0.044 C 
ENDROOT
BRANCH   1   2
ATOM      2  C   UNL     1      34.625  30.887 -13.117  1.00  0.00    -0.006 A 
ATOM      3  C   UNL     1      33.342  29.463 -11.615  1.00  0.00     0.001 A 
ATOM      4  C   UNL     1      33.899  30.112 -10.513  1.00  0.00     0.004 A 
ATOM      5  C   UNL     1      33.704  29.844 -12.908  1.00  0.00     0.007 A 
ATOM      6  C   UNL     1      34.827  31.138 -10.702  1.00  0.00     0.046 A 
ATOM      7  C   UNL     1      35.205  31.529 -11.992  1.00  0.00     0.118 A 
BRANCH   7   8
ATOM      8  O   UNL     1      36.153  32.547 -12.116  1.00  0.00    -0.508 OA
ATOM      9  H   UNL     1      36.098  33.282 -12.809  1.00  0.00     0.293 HD
ENDBRANCH   7   8
ENDBRANCH   1   2
BRANCH   1  10
ATOM     10  C   UNL     1      34.226  32.496 -14.994  1.00  0.00     0.040 C 
BRANCH  10  11
ATOM     11  C   UNL     1      32.888  32.102 -15.560  1.00  0.00    -0.040 A 
ATOM     12  C   UNL     1      31.704  32.597 -14.990  1.00  0.00     0.050 A 
ATOM     13  C   UNL     1      32.815  31.281 -16.697  1.00  0.00     0.050 A 
ATOM     14  C   UNL     1      30.459  32.256 -15.537  1.00  0.00     0.119 A 
ATOM     15  C   UNL     1      31.571  30.940 -17.245  1.00  0.00     0.119 A 
ATOM     16  C   UNL     1      30.396  31.427 -16.660  1.00  0.00     0.092 A 
BRANCH  14  17
ATOM     17  O   UNL     1      29.281  32.739 -14.973  1.00  0.00    -0.508 OA
ATOM     18  H   UNL     1      28.962  33.686 -15.141  1.00  0.00     0.293 HD
ENDBRANCH  14  17
BRANCH  15  19
ATOM     19  O   UNL     1      31.490  30.122 -18.369  1.00  0.00    -0.508 OA
ATOM     20  H   UNL     1      31.858  29.177 -18.364  1.00  0.00     0.293 HD
ENDBRANCH  15  19
ENDBRANCH  10  11
ENDBRANCH   1  10
TORSDOF 6
ENDMDL
MODEL 6
REMARK VINA RESULT:    -6.656     13.999     16.376
REMARK INTER + INTRA:          -8.899
REMARK INTER:                  -8.257
REMARK INTRA:                  -0.642
REMARK UNBOUND:                -0.491
REMARK SMILES Oc1cc(O)cc(CCc2ccccc2O)c1
REMARK SMILES IDX 9 1 10 2 12 3 13 4 11 5 14 6 15 7 16 8 8 10 7 11 6 12 17 13
REMARK SMILES IDX 4 14 2 15 3 16 5 17 1 19
REMARK H PARENT 16 9 5 18 1 20
REMARK Flexibility Score: inf
ROOT
ATOM      1  C   UNL     1      34.969  31.175 -14.502  1.00  0.00     0.044 C 
ENDROOT
BRANCH   1   2
ATOM      2  C   UNL     1      34.611  30.865 -13.068  1.00  0.00    -0.006 A 
ATOM      3  C   UNL     1      33.322  29.525 -11.495  1.00  0.00     0.001 A 
ATOM      4  C   UNL     1      33.914  30.199 -10.426  1.00  0.00     0.004 A 
ATOM      5  C   UNL     1      33.670  29.852 -12.807  1.00  0.00     0.007 A 
ATOM      6  C   UNL     1      34.861  31.195 -10.667  1.00  0.00     0.046 A 
ATOM      7  C   UNL     1      35.225  31.531 -11.977  1.00  0.00     0.118 A 
BRANCH   7   8
ATOM      8  O   UNL     1      36.195  32.521 -12.153  1.00  0.00    -0.508 OA
ATOM      9  H   UNL     1      35.993  33.445 -12.511  1.00  0.00     0.293 HD
ENDBRANCH   7   8
ENDBRANCH   1   2
BRANCH   1  10
ATOM     10  C   UNL     1      34.263  32.450 -14.975  1.00  0.00     0.040 C 
BRANCH  10  11
ATOM     11  C   UNL     1      32.923  32.119 -15.574  1.00  0.00    -0.040 A 
ATOM     12  C   UNL     1      32.838  31.288 -16.703  1.00  0.00     0.050 A 
ATOM     13  C   UNL     1      31.743  32.594 -14.977  1.00  0.00     0.050 A 
ATOM     14  C   UNL     1      31.587  30.954 -17.242  1.00  0.00     0.119 A 
ATOM     15  C   UNL     1      30.493  32.259 -15.515  1.00  0.00     0.119 A 
ATOM     16  C   UNL     1      30.420  31.442 -16.649  1.00  0.00     0.092 A 
BRANCH  14  17
ATOM     17  O   UNL     1      31.496  30.134 -18.365  1.00  0.00    -0.508 OA
ATOM     18  H   UNL     1      31.077  29.212 -18.316  1.00  0.00     0.293 HD
ENDBRANCH  14  17
BRANCH  15  19
ATOM     19  O   UNL     1      29.320  32.731 -14.932  1.00  0.00    -0.508 OA
ATOM     20  H   UNL     1      28.408  32.448 -15.274  1.00  0.00     0.293 HD
ENDBRANCH  15  19
ENDBRANCH  10  11
ENDBRANCH   1  10
TORSDOF 6
ENDMDL
MODEL 7
REMARK VINA RESULT:    -6.644     11.920     13.883
REMARK INTER + INTRA:          -8.884
REMARK INTER:                  -8.309
REMARK INTRA:                  -0.574
REMARK UNBOUND:                -0.491
REMARK SMILES Oc1cc(O)cc(CCc2ccccc2O)c1
REMARK SMILES IDX 9 1 10 2 12 3 13 4 11 5 14 6 15 7 16 8 8 10 7 11 6 12 17 13
REMARK SMILES IDX 4 14 2 15 3 16 5 17 1 19
REMARK H PARENT 16 9 5 18 1 20
REMARK Flexibility Score: inf
ROOT
ATOM      1  C   UNL     1      30.553  31.642 -18.970  1.00  0.00     0.044 C 
ENDROOT
BRANCH   1   2
ATOM      2  C   UNL     1      30.607  31.662 -17.460  1.00  0.00    -0.006 A 
ATOM      3  C   UNL     1      31.504  30.715 -15.404  1.00  0.00     0.001 A 
ATOM      4  C   UNL     1      30.793  31.653 -14.655  1.00  0.00     0.004 A 
ATOM      5  C   UNL     1      31.416  30.721 -16.797  1.00  0.00     0.007 A 
ATOM      6  C   UNL     1      29.998  32.604 -15.298  1.00  0.00     0.046 A 
ATOM      7  C   UNL     1      29.903  32.626 -16.695  1.00  0.00     0.118 A 
BRANCH   7   8
ATOM      8  O   UNL     1      29.109  33.615 -17.280  1.00  0.00    -0.508 OA
ATOM      9  H   UNL     1      28.486  33.445 -18.058  1.00  0.00     0.293 HD
ENDBRANCH   7   8
ENDBRANCH   1   2
BRANCH   1  10
ATOM     10  C   UNL     1      31.964  31.643 -19.565  1.00  0.00     0.040 C 
BRANCH  10  11
ATOM     11  C   UNL     1      32.270  32.974 -20.196  1.00  0.00    -0.040 A 
ATOM     12  C   UNL     1      31.232  33.877 -20.483  1.00  0.00     0.050 A 
ATOM     13  C   UNL     1      33.599  33.349 -20.450  1.00  0.00     0.050 A 
ATOM     14  C   UNL     1      31.520  35.130 -21.041  1.00  0.00     0.119 A 
ATOM     15  C   UNL     1      33.888  34.602 -21.007  1.00  0.00     0.119 A 
ATOM     16  C   UNL     1      32.846  35.488 -21.304  1.00  0.00     0.092 A 
BRANCH  14  17
ATOM     17  O   UNL     1      30.496  36.027 -21.335  1.00  0.00    -0.508 OA
ATOM     18  H   UNL     1      30.530  36.992 -21.023  1.00  0.00     0.293 HD
ENDBRANCH  14  17
BRANCH  15  19
ATOM     19  O   UNL     1      35.203  34.978 -21.268  1.00  0.00    -0.508 OA
ATOM     20  H   UNL     1      35.421  35.851 -21.734  1.00  0.00     0.293 HD
ENDBRANCH  15  19
ENDBRANCH  10  11
ENDBRANCH   1  10
TORSDOF 6
ENDMDL
MODEL 8
REMARK VINA RESULT:    -6.551     12.049     13.520
REMARK INTER + INTRA:          -8.766
REMARK INTER:                  -8.257
REMARK INTRA:                  -0.510
REMARK UNBOUND:                -0.491
REMARK SMILES Oc1cc(O)cc(CCc2ccccc2O)c1
REMARK SMILES IDX 9 1 10 2 12 3 13 4 11 5 14 6 15 7 16 8 8 10 7 11 6 12 17 13
REMARK SMILES IDX 4 14 2 15 3 16 5 17 1 19
REMARK H PARENT 16 9 5 18 1 20
REMARK Flexibility Score: inf
ROOT
ATOM      1  C   UNL     1      32.513  36.642 -21.141  1.00  0.00     0.044 C 
ENDROOT
BRANCH   1   2
ATOM      2  C   UNL     1      31.724  37.100 -22.345  1.00  0.00    -0.006 A 
ATOM      3  C   UNL     1      31.473  37.143 -24.767  1.00  0.00     0.001 A 
ATOM      4  C   UNL     1      30.297  37.882 -24.639  1.00  0.00     0.004 A 
ATOM      5  C   UNL     1      32.181  36.751 -23.629  1.00  0.00     0.007 A 
ATOM      6  C   UNL     1      29.821  38.223 -23.371  1.00  0.00     0.046 A 
ATOM      7  C   UNL     1      30.516  37.833 -22.220  1.00  0.00     0.118 A 
BRANCH   7   8
ATOM      8  O   UNL     1      29.978  38.186 -20.980  1.00  0.00    -0.508 OA
ATOM      9  H   UNL     1      29.172  38.786 -20.870  1.00  0.00     0.293 HD
ENDBRANCH   7   8
ENDBRANCH   1   2
BRANCH   1  10
ATOM     10  C   UNL     1      33.217  35.312 -21.427  1.00  0.00     0.040 C 
BRANCH  10  11
ATOM     11  C   UNL     1      32.569  34.196 -20.654  1.00  0.00    -0.040 A 
ATOM     12  C   UNL     1      31.186  33.970 -20.761  1.00  0.00     0.050 A 
ATOM     13  C   UNL     1      33.349  33.335 -19.864  1.00  0.00     0.050 A 
ATOM     14  C   UNL     1      30.588  32.910 -20.066  1.00  0.00     0.119 A 
ATOM     15  C   UNL     1      32.751  32.274 -19.171  1.00  0.00     0.119 A 
ATOM     16  C   UNL     1      31.371  32.067 -19.271  1.00  0.00     0.092 A 
BRANCH  14  17
ATOM     17  O   UNL     1      29.216  32.684 -20.162  1.00  0.00    -0.508 OA
ATOM     18  H   UNL     1      28.717  32.817 -21.034  1.00  0.00     0.293 HD
ENDBRANCH  14  17
BRANCH  15  19
ATOM     19  O   UNL     1      33.517  31.420 -18.381  1.00  0.00    -0.508 OA
ATOM     20  H   UNL     1      33.087  30.721 -17.786  1.00  0.00     0.293 HD
ENDBRANCH  15  19
ENDBRANCH  10  11
ENDBRANCH   1  10
TORSDOF 6
ENDMDL
MODEL 9
REMARK VINA RESULT:    -6.542     12.011     13.409
REMARK INTER + INTRA:          -8.755
REMARK INTER:                  -8.247
REMARK INTRA:                  -0.508
REMARK UNBOUND:                -0.491
REMARK SMILES Oc1cc(O)cc(CCc2ccccc2O)c1
REMARK SMILES IDX 9 1 10 2 12 3 13 4 11 5 14 6 15 7 16 8 8 10 7 11 6 12 17 13
REMARK SMILES IDX 4 14 2 15 3 16 5 17 1 19
REMARK H PARENT 16 9 5 18 1 20
REMARK Flexibility Score: inf
ROOT
ATOM      1  C   UNL     1      32.397  36.568 -21.069  1.00  0.00     0.044 C 
ENDROOT
BRANCH   1   2
ATOM      2  C   UNL     1      31.666  37.041 -22.303  1.00  0.00    -0.006 A 
ATOM      3  C   UNL     1      31.503  37.074 -24.732  1.00  0.00     0.001 A 
ATOM      4  C   UNL     1      30.345  37.850 -24.650  1.00  0.00     0.004 A 
ATOM      5  C   UNL     1      32.157  36.669 -23.568  1.00  0.00     0.007 A 
ATOM      6  C   UNL     1      29.836  38.214 -23.402  1.00  0.00     0.046 A 
ATOM      7  C   UNL     1      30.477  37.811 -22.225  1.00  0.00     0.118 A 
BRANCH   7   8
ATOM      8  O   UNL     1      29.907  38.189 -21.007  1.00  0.00    -0.508 OA
ATOM      9  H   UNL     1      29.959  37.628 -20.167  1.00  0.00     0.293 HD
ENDBRANCH   7   8
ENDBRANCH   1   2
BRANCH   1  10
ATOM     10  C   UNL     1      33.171  35.277 -21.357  1.00  0.00     0.040 C 
BRANCH  10  11
ATOM     11  C   UNL     1      32.548  34.116 -20.631  1.00  0.00    -0.040 A 
ATOM     12  C   UNL     1      33.337  33.283 -19.819  1.00  0.00     0.050 A 
ATOM     13  C   UNL     1      31.164  33.889 -20.713  1.00  0.00     0.050 A 
ATOM     14  C   UNL     1      32.751  32.220 -19.117  1.00  0.00     0.119 A 
ATOM     15  C   UNL     1      30.578  32.827 -20.010  1.00  0.00     0.119 A 
ATOM     16  C   UNL     1      31.375  31.994 -19.217  1.00  0.00     0.092 A 
BRANCH  14  17
ATOM     17  O   UNL     1      33.528  31.387 -18.316  1.00  0.00    -0.508 OA
ATOM     18  H   UNL     1      33.147  30.541 -17.905  1.00  0.00     0.293 HD
ENDBRANCH  14  17
BRANCH  15  19
ATOM     19  O   UNL     1      29.208  32.592 -20.092  1.00  0.00    -0.508 OA
ATOM     20  H   UNL     1      28.723  32.593 -20.982  1.00  0.00     0.293 HD
ENDBRANCH  15  19
ENDBRANCH  10  11
ENDBRANCH   1  10
TORSDOF 6
ENDMDL
