MODEL 1
REMARK VINA RESULT:    -3.791      0.000      0.000
REMARK INTER + INTRA:          -7.607
REMARK INTER:                  -6.451
REMARK INTRA:                  -1.156
REMARK UNBOUND:                -1.156
REMARK SMILES CCCCCCCCCCCCCC(=O)[O-]
REMARK SMILES IDX 8 1 9 2 10 3 11 4 12 5 13 6 14 7 15 8 16 9 7 10 6 11 5 12
REMARK SMILES IDX 4 13 3 14 2 15 1 16
REMARK H PARENT
REMARK Flexibility Score: inf
ROOT
ATOM      1  C   UNL     1      32.249 157.849 120.613  1.00  0.00     0.000 C 
ENDROOT
BRANCH   1   2
ATOM      2  C   UNL     1      32.355 159.066 119.668  1.00  0.00     0.000 C 
BRANCH   2   3
ATOM      3  C   UNL     1      31.101 159.955 119.717  1.00  0.00     0.000 C 
BRANCH   3   4
ATOM      4  C   UNL     1      30.437 160.122 118.340  1.00  0.00     0.000 C 
BRANCH   4   5
ATOM      5  C   UNL     1      28.914 160.311 118.434  1.00  0.00     0.006 C 
BRANCH   5   6
ATOM      6  C   UNL     1      28.224 160.138 117.075  1.00  0.00     0.053 C 
BRANCH   6   7
ATOM      7  C   UNL     1      26.771 159.806 117.227  1.00  0.00     0.041 C 
ATOM      8  O   UNL     1      26.262 158.863 116.565  1.00  0.00    -0.550 OA
ATOM      9  O   UNL     1      25.984 160.521 118.121  1.00  0.00    -0.550 OA
ENDBRANCH   6   7
ENDBRANCH   5   6
ENDBRANCH   4   5
ENDBRANCH   3   4
ENDBRANCH   2   3
ENDBRANCH   1   2
BRANCH   1  10
ATOM     10  C   UNL     1      31.272 158.062 121.785  1.00  0.00     0.000 C 
BRANCH  10  11
ATOM     11  C   UNL     1      30.081 157.085 121.818  1.00  0.00    -0.000 C 
BRANCH  11  12
ATOM     12  C   UNL     1      28.691 157.752 121.739  1.00  0.00    -0.000 C 
BRANCH  12  13
ATOM     13  C   UNL     1      27.583 156.888 121.105  1.00  0.00    -0.000 C 
BRANCH  13  14
ATOM     14  C   UNL     1      26.635 157.639 120.153  1.00  0.00    -0.000 C 
BRANCH  14  15
ATOM     15  C   UNL     1      25.746 156.694 119.331  1.00  0.00    -0.003 C 
ATOM     16  C   UNL     1      26.111 155.234 119.589  1.00  0.00     0.004 C 
ENDBRANCH  14  15
ENDBRANCH  13  14
ENDBRANCH  12  13
ENDBRANCH  11  12
ENDBRANCH  10  11
ENDBRANCH   1  10
TORSDOF 12
ENDMDL
MODEL 2
REMARK VINA RESULT:    -3.734      1.642      4.197
REMARK INTER + INTRA:          -7.510
REMARK INTER:                  -6.287
REMARK INTRA:                  -1.223
REMARK UNBOUND:                -1.156
REMARK SMILES CCCCCCCCCCCCCC(=O)[O-]
REMARK SMILES IDX 8 1 9 2 10 3 11 4 12 5 13 6 14 7 15 8 16 9 7 10 6 11 5 12
REMARK SMILES IDX 4 13 3 14 2 15 1 16
REMARK H PARENT
REMARK Flexibility Score: inf
ROOT
ATOM      1  C   UNL     1      31.710 157.491 120.953  1.00  0.00     0.000 C 
ENDROOT
BRANCH   1   2
ATOM      2  C   UNL     1      30.719 157.712 122.117  1.00  0.00     0.000 C 
BRANCH   2   3
ATOM      3  C   UNL     1      29.284 157.298 121.750  1.00  0.00     0.000 C 
BRANCH   3   4
ATOM      4  C   UNL     1      28.392 158.499 121.395  1.00  0.00     0.000 C 
BRANCH   4   5
ATOM      5  C   UNL     1      27.184 158.105 120.528  1.00  0.00     0.006 C 
BRANCH   5   6
ATOM      6  C   UNL     1      26.682 156.690 120.844  1.00  0.00     0.053 C 
BRANCH   6   7
ATOM      7  C   UNL     1      26.148 156.004 119.623  1.00  0.00     0.041 C 
ATOM      8  O   UNL     1      25.625 156.676 118.695  1.00  0.00    -0.550 OA
ATOM      9  O   UNL     1      26.253 154.625 119.499  1.00  0.00    -0.550 OA
ENDBRANCH   6   7
ENDBRANCH   5   6
ENDBRANCH   4   5
ENDBRANCH   3   4
ENDBRANCH   2   3
ENDBRANCH   1   2
BRANCH   1  10
ATOM     10  C   UNL     1      32.571 158.727 120.632  1.00  0.00     0.000 C 
BRANCH  10  11
ATOM     11  C   UNL     1      32.233 159.421 119.299  1.00  0.00    -0.000 C 
BRANCH  11  12
ATOM     12  C   UNL     1      30.922 160.234 119.303  1.00  0.00    -0.000 C 
BRANCH  12  13
ATOM     13  C   UNL     1      30.155 160.250 117.966  1.00  0.00    -0.000 C 
BRANCH  13  14
ATOM     14  C   UNL     1      28.631 160.429 118.090  1.00  0.00    -0.000 C 
BRANCH  14  15
ATOM     15  C   UNL     1      27.897 160.211 116.758  1.00  0.00    -0.003 C 
ATOM     16  C   UNL     1      26.435 159.841 116.992  1.00  0.00     0.004 C 
ENDBRANCH  14  15
ENDBRANCH  13  14
ENDBRANCH  12  13
ENDBRANCH  11  12
ENDBRANCH  10  11
ENDBRANCH   1  10
TORSDOF 12
ENDMDL
MODEL 3
REMARK VINA RESULT:    -3.728      2.675      5.435
REMARK INTER + INTRA:          -7.499
REMARK INTER:                  -6.388
REMARK INTRA:                  -1.111
REMARK UNBOUND:                -1.156
REMARK SMILES CCCCCCCCCCCCCC(=O)[O-]
REMARK SMILES IDX 8 1 9 2 10 3 11 4 12 5 13 6 14 7 15 8 16 9 7 10 6 11 5 12
REMARK SMILES IDX 4 13 3 14 2 15 1 16
REMARK H PARENT
REMARK Flexibility Score: inf
ROOT
ATOM      1  C   UNL     1      26.367 155.335 121.011  1.00  0.00     0.000 C 
ENDROOT
BRANCH   1   2
ATOM      2  C   UNL     1      26.614 156.658 121.768  1.00  0.00     0.000 C 
BRANCH   2   3
ATOM      3  C   UNL     1      28.108 156.905 122.040  1.00  0.00     0.000 C 
BRANCH   3   4
ATOM      4  C   UNL     1      28.753 157.841 121.004  1.00  0.00     0.000 C 
BRANCH   4   5
ATOM      5  C   UNL     1      30.188 158.245 121.380  1.00  0.00     0.006 C 
BRANCH   5   6
ATOM      6  C   UNL     1      30.743 159.337 120.458  1.00  0.00     0.053 C 
BRANCH   6   7
ATOM      7  C   UNL     1      32.015 158.909 119.791  1.00  0.00     0.041 C 
ATOM      8  O   UNL     1      32.648 157.906 120.213  1.00  0.00    -0.550 OA
ATOM      9  O   UNL     1      32.487 159.604 118.684  1.00  0.00    -0.550 OA
ENDBRANCH   6   7
ENDBRANCH   5   6
ENDBRANCH   4   5
ENDBRANCH   3   4
ENDBRANCH   2   3
ENDBRANCH   1   2
BRANCH   1  10
ATOM     10  C   UNL     1      26.042 155.530 119.518  1.00  0.00     0.000 C 
BRANCH  10  11
ATOM     11  C   UNL     1      25.551 156.942 119.142  1.00  0.00    -0.000 C 
BRANCH  11  12
ATOM     12  C   UNL     1      25.506 157.233 117.628  1.00  0.00    -0.000 C 
BRANCH  12  13
ATOM     13  C   UNL     1      25.880 158.673 117.224  1.00  0.00    -0.000 C 
BRANCH  13  14
ATOM     14  C   UNL     1      26.801 159.410 118.214  1.00  0.00    -0.000 C 
BRANCH  14  15
ATOM     15  C   UNL     1      28.038 160.017 117.535  1.00  0.00    -0.003 C 
ATOM     16  C   UNL     1      27.730 160.423 116.096  1.00  0.00     0.004 C 
ENDBRANCH  14  15
ENDBRANCH  13  14
ENDBRANCH  12  13
ENDBRANCH  11  12
ENDBRANCH  10  11
ENDBRANCH   1  10
TORSDOF 12
ENDMDL
MODEL 4
REMARK VINA RESULT:    -3.721      2.146      5.013
REMARK INTER + INTRA:          -7.488
REMARK INTER:                  -6.158
REMARK INTRA:                  -1.330
REMARK UNBOUND:                -1.156
REMARK SMILES CCCCCCCCCCCCCC(=O)[O-]
REMARK SMILES IDX 8 1 9 2 10 3 11 4 12 5 13 6 14 7 15 8 16 9 7 10 6 11 5 12
REMARK SMILES IDX 4 13 3 14 2 15 1 16
REMARK H PARENT
REMARK Flexibility Score: inf
ROOT
ATOM      1  C   UNL     1      28.995 159.958 118.792  1.00  0.00     0.000 C 
ENDROOT
BRANCH   1   2
ATOM      2  C   UNL     1      27.902 159.993 117.702  1.00  0.00     0.000 C 
BRANCH   2   3
ATOM      3  C   UNL     1      26.535 159.524 118.229  1.00  0.00     0.000 C 
BRANCH   3   4
ATOM      4  C   UNL     1      25.859 158.501 117.300  1.00  0.00     0.000 C 
BRANCH   4   5
ATOM      5  C   UNL     1      25.496 157.193 118.023  1.00  0.00     0.006 C 
BRANCH   5   6
ATOM      6  C   UNL     1      25.861 157.234 119.512  1.00  0.00     0.053 C 
BRANCH   6   7
ATOM      7  C   UNL     1      26.188 155.871 120.042  1.00  0.00     0.041 C 
ATOM      8  O   UNL     1      26.263 154.886 119.260  1.00  0.00    -0.550 OA
ATOM      9  O   UNL     1      26.436 155.693 121.397  1.00  0.00    -0.550 OA
ENDBRANCH   6   7
ENDBRANCH   5   6
ENDBRANCH   4   5
ENDBRANCH   3   4
ENDBRANCH   2   3
ENDBRANCH   1   2
BRANCH   1  10
ATOM     10  C   UNL     1      28.436 159.842 120.223  1.00  0.00     0.000 C 
BRANCH  10  11
ATOM     11  C   UNL     1      28.935 158.619 121.014  1.00  0.00    -0.000 C 
BRANCH  11  12
ATOM     12  C   UNL     1      30.358 158.757 121.595  1.00  0.00    -0.000 C 
BRANCH  12  13
ATOM     13  C   UNL     1      31.328 157.614 121.236  1.00  0.00    -0.000 C 
BRANCH  13  14
ATOM     14  C   UNL     1      32.494 158.013 120.313  1.00  0.00    -0.000 C 
BRANCH  14  15
ATOM     15  C   UNL     1      32.558 159.527 120.057  1.00  0.00    -0.003 C 
ATOM     16  C   UNL     1      32.488 159.834 118.564  1.00  0.00     0.004 C 
ENDBRANCH  14  15
ENDBRANCH  13  14
ENDBRANCH  12  13
ENDBRANCH  11  12
ENDBRANCH  10  11
ENDBRANCH   1  10
TORSDOF 12
ENDMDL
MODEL 5
REMARK VINA RESULT:    -3.716      2.785      4.728
REMARK INTER + INTRA:          -7.478
REMARK INTER:                  -6.081
REMARK INTRA:                  -1.397
REMARK UNBOUND:                -1.156
REMARK SMILES CCCCCCCCCCCCCC(=O)[O-]
REMARK SMILES IDX 8 1 9 2 10 3 11 4 12 5 13 6 14 7 15 8 16 9 7 10 6 11 5 12
REMARK SMILES IDX 4 13 3 14 2 15 1 16
REMARK H PARENT
REMARK Flexibility Score: inf
ROOT
ATOM      1  C   UNL     1      29.280 160.241 117.795  1.00  0.00     0.000 C 
ENDROOT
BRANCH   1   2
ATOM      2  C   UNL     1      29.281 161.371 118.848  1.00  0.00     0.000 C 
BRANCH   2   3
ATOM      3  C   UNL     1      29.278 160.828 120.287  1.00  0.00     0.000 C 
BRANCH   3   4
ATOM      4  C   UNL     1      28.934 159.331 120.357  1.00  0.00     0.000 C 
BRANCH   4   5
ATOM      5  C   UNL     1      29.973 158.519 121.147  1.00  0.00     0.006 C 
BRANCH   5   6
ATOM      6  C   UNL     1      31.340 159.213 121.189  1.00  0.00     0.053 C 
BRANCH   6   7
ATOM      7  C   UNL     1      32.266 158.683 120.136  1.00  0.00     0.041 C 
ATOM      8  O   UNL     1      32.832 157.569 120.290  1.00  0.00    -0.550 OA
ATOM      9  O   UNL     1      32.480 159.408 118.970  1.00  0.00    -0.550 OA
ENDBRANCH   6   7
ENDBRANCH   5   6
ENDBRANCH   4   5
ENDBRANCH   3   4
ENDBRANCH   2   3
ENDBRANCH   1   2
BRANCH   1  10
ATOM     10  C   UNL     1      28.068 160.283 116.846  1.00  0.00     0.000 C 
BRANCH  10  11
ATOM     11  C   UNL     1      26.697 160.211 117.546  1.00  0.00    -0.000 C 
BRANCH  11  12
ATOM     12  C   UNL     1      25.955 158.868 117.386  1.00  0.00    -0.000 C 
BRANCH  12  13
ATOM     13  C   UNL     1      25.926 157.980 118.646  1.00  0.00    -0.000 C 
BRANCH  13  14
ATOM     14  C   UNL     1      25.587 156.499 118.393  1.00  0.00    -0.000 C 
BRANCH  14  15
ATOM     15  C   UNL     1      26.024 155.584 119.547  1.00  0.00    -0.003 C 
ATOM     16  C   UNL     1      26.591 156.396 120.707  1.00  0.00     0.004 C 
ENDBRANCH  14  15
ENDBRANCH  13  14
ENDBRANCH  12  13
ENDBRANCH  11  12
ENDBRANCH  10  11
ENDBRANCH   1  10
TORSDOF 12
ENDMDL
MODEL 6
REMARK VINA RESULT:    -3.669      2.788      4.994
REMARK INTER + INTRA:          -7.399
REMARK INTER:                  -5.843
REMARK INTRA:                  -1.556
REMARK UNBOUND:                -1.156
REMARK SMILES CCCCCCCCCCCCCC(=O)[O-]
REMARK SMILES IDX 8 1 9 2 10 3 11 4 12 5 13 6 14 7 15 8 16 9 7 10 6 11 5 12
REMARK SMILES IDX 4 13 3 14 2 15 1 16
REMARK H PARENT
REMARK Flexibility Score: inf
ROOT
ATOM      1  C   UNL     1      28.009 160.228 116.882  1.00  0.00     0.000 C 
ENDROOT
BRANCH   1   2
ATOM      2  C   UNL     1      27.976 161.102 118.155  1.00  0.00     0.000 C 
BRANCH   2   3
ATOM      3  C   UNL     1      29.271 160.988 118.976  1.00  0.00     0.000 C 
BRANCH   3   4
ATOM      4  C   UNL     1      30.345 160.138 118.277  1.00  0.00     0.000 C 
BRANCH   4   5
ATOM      5  C   UNL     1      31.547 159.833 119.187  1.00  0.00     0.006 C 
BRANCH   5   6
ATOM      6  C   UNL     1      31.114 159.281 120.551  1.00  0.00     0.053 C 
BRANCH   6   7
ATOM      7  C   UNL     1      31.669 157.911 120.798  1.00  0.00     0.041 C 
ATOM      8  O   UNL     1      30.980 157.045 121.399  1.00  0.00    -0.550 OA
ATOM      9  O   UNL     1      32.939 157.583 120.340  1.00  0.00    -0.550 OA
ENDBRANCH   6   7
ENDBRANCH   5   6
ENDBRANCH   4   5
ENDBRANCH   3   4
ENDBRANCH   2   3
ENDBRANCH   1   2
BRANCH   1  10
ATOM     10  C   UNL     1      26.633 159.661 116.487  1.00  0.00     0.000 C 
BRANCH  10  11
ATOM     11  C   UNL     1      25.732 159.266 117.673  1.00  0.00    -0.000 C 
BRANCH  11  12
ATOM     12  C   UNL     1      25.708 157.758 117.997  1.00  0.00    -0.000 C 
BRANCH  12  13
ATOM     13  C   UNL     1      25.419 157.407 119.470  1.00  0.00    -0.000 C 
BRANCH  13  14
ATOM     14  C   UNL     1      26.645 156.957 120.286  1.00  0.00    -0.000 C 
BRANCH  14  15
ATOM     15  C   UNL     1      27.596 158.117 120.617  1.00  0.00    -0.003 C 
ATOM     16  C   UNL     1      26.857 159.247 121.328  1.00  0.00     0.004 C 
ENDBRANCH  14  15
ENDBRANCH  13  14
ENDBRANCH  12  13
ENDBRANCH  11  12
ENDBRANCH  10  11
ENDBRANCH   1  10
TORSDOF 12
ENDMDL
MODEL 7
REMARK VINA RESULT:    -3.547      1.753      4.953
REMARK INTER + INTRA:          -7.192
REMARK INTER:                  -5.721
REMARK INTRA:                  -1.471
REMARK UNBOUND:                -1.156
REMARK SMILES CCCCCCCCCCCCCC(=O)[O-]
REMARK SMILES IDX 8 1 9 2 10 3 11 4 12 5 13 6 14 7 15 8 16 9 7 10 6 11 5 12
REMARK SMILES IDX 4 13 3 14 2 15 1 16
REMARK H PARENT
REMARK Flexibility Score: inf
ROOT
ATOM      1  C   UNL     1      27.891 160.418 116.657  1.00  0.00     0.000 C 
ENDROOT
BRANCH   1   2
ATOM      2  C   UNL     1      26.693 159.525 117.045  1.00  0.00     0.000 C 
BRANCH   2   3
ATOM      3  C   UNL     1      25.628 160.292 117.847  1.00  0.00     0.000 C 
BRANCH   3   4
ATOM      4  C   UNL     1      25.602 159.894 119.333  1.00  0.00     0.000 C 
BRANCH   4   5
ATOM      5  C   UNL     1      26.362 158.585 119.610  1.00  0.00     0.006 C 
BRANCH   5   6
ATOM      6  C   UNL     1      25.412 157.406 119.856  1.00  0.00     0.053 C 
BRANCH   6   7
ATOM      7  C   UNL     1      25.628 156.302 118.867  1.00  0.00     0.041 C 
ATOM      8  O   UNL     1      25.293 156.453 117.662  1.00  0.00    -0.550 OA
ATOM      9  O   UNL     1      26.225 155.114 119.270  1.00  0.00    -0.550 OA
ENDBRANCH   6   7
ENDBRANCH   5   6
ENDBRANCH   4   5
ENDBRANCH   3   4
ENDBRANCH   2   3
ENDBRANCH   1   2
BRANCH   1  10
ATOM     10  C   UNL     1      29.097 160.281 117.606  1.00  0.00     0.000 C 
BRANCH  10  11
ATOM     11  C   UNL     1      29.200 161.379 118.682  1.00  0.00    -0.000 C 
BRANCH  11  12
ATOM     12  C   UNL     1      29.440 160.863 120.116  1.00  0.00    -0.000 C 
BRANCH  12  13
ATOM     13  C   UNL     1      30.254 159.558 120.218  1.00  0.00    -0.000 C 
BRANCH  13  14
ATOM     14  C   UNL     1      29.686 158.509 121.191  1.00  0.00    -0.000 C 
BRANCH  14  15
ATOM     15  C   UNL     1      30.618 157.302 121.373  1.00  0.00    -0.003 C 
ATOM     16  C   UNL     1      32.008 157.591 120.812  1.00  0.00     0.004 C 
ENDBRANCH  14  15
ENDBRANCH  13  14
ENDBRANCH  12  13
ENDBRANCH  11  12
ENDBRANCH  10  11
ENDBRANCH   1  10
TORSDOF 12
ENDMDL
MODEL 8
REMARK VINA RESULT:    -3.538      2.098      4.708
REMARK INTER + INTRA:          -7.176
REMARK INTER:                  -5.857
REMARK INTRA:                  -1.320
REMARK UNBOUND:                -1.156
REMARK SMILES CCCCCCCCCCCCCC(=O)[O-]
REMARK SMILES IDX 8 1 9 2 10 3 11 4 12 5 13 6 14 7 15 8 16 9 7 10 6 11 5 12
REMARK SMILES IDX 4 13 3 14 2 15 1 16
REMARK H PARENT
REMARK Flexibility Score: inf
ROOT
ATOM      1  C   UNL     1      29.891 160.487 118.343  1.00  0.00     0.000 C 
ENDROOT
BRANCH   1   2
ATOM      2  C   UNL     1      28.644 160.214 117.474  1.00  0.00     0.000 C 
BRANCH   2   3
ATOM      3  C   UNL     1      27.426 159.796 118.315  1.00  0.00     0.000 C 
BRANCH   3   4
ATOM      4  C   UNL     1      27.750 159.680 119.814  1.00  0.00     0.000 C 
BRANCH   4   5
ATOM      5  C   UNL     1      26.946 158.569 120.511  1.00  0.00     0.006 C 
BRANCH   5   6
ATOM      6  C   UNL     1      26.343 157.576 119.509  1.00  0.00     0.053 C 
BRANCH   6   7
ATOM      7  C   UNL     1      26.288 156.187 120.068  1.00  0.00     0.041 C 
ATOM      8  O   UNL     1      26.397 155.996 121.308  1.00  0.00    -0.550 OA
ATOM      9  O   UNL     1      26.089 155.104 119.220  1.00  0.00    -0.550 OA
ENDBRANCH   6   7
ENDBRANCH   5   6
ENDBRANCH   4   5
ENDBRANCH   3   4
ENDBRANCH   2   3
ENDBRANCH   1   2
BRANCH   1  10
ATOM     10  C   UNL     1      31.222 160.227 117.613  1.00  0.00     0.000 C 
BRANCH  10  11
ATOM     11  C   UNL     1      32.370 159.737 118.516  1.00  0.00    -0.000 C 
BRANCH  11  12
ATOM     12  C   UNL     1      32.534 160.515 119.838  1.00  0.00    -0.000 C 
BRANCH  12  13
ATOM     13  C   UNL     1      32.442 159.661 121.118  1.00  0.00    -0.000 C 
BRANCH  13  14
ATOM     14  C   UNL     1      31.063 159.028 121.383  1.00  0.00    -0.000 C 
BRANCH  14  15
ATOM     15  C   UNL     1      31.084 157.495 121.282  1.00  0.00    -0.003 C 
ATOM     16  C   UNL     1      29.936 156.878 122.075  1.00  0.00     0.004 C 
ENDBRANCH  14  15
ENDBRANCH  13  14
ENDBRANCH  12  13
ENDBRANCH  11  12
ENDBRANCH  10  11
ENDBRANCH   1  10
TORSDOF 12
ENDMDL
MODEL 9
REMARK VINA RESULT:    -3.537      2.807      4.426
REMARK INTER + INTRA:          -7.174
REMARK INTER:                  -6.010
REMARK INTRA:                  -1.164
REMARK UNBOUND:                -1.156
REMARK SMILES CCCCCCCCCCCCCC(=O)[O-]
REMARK SMILES IDX 8 1 9 2 10 3 11 4 12 5 13 6 14 7 15 8 16 9 7 10 6 11 5 12
REMARK SMILES IDX 4 13 3 14 2 15 1 16
REMARK H PARENT
REMARK Flexibility Score: inf
ROOT
ATOM      1  C   UNL     1      29.091 160.193 117.550  1.00  0.00     0.000 C 
ENDROOT
BRANCH   1   2
ATOM      2  C   UNL     1      30.540 160.205 118.082  1.00  0.00     0.000 C 
BRANCH   2   3
ATOM      3  C   UNL     1      30.900 161.533 118.769  1.00  0.00     0.000 C 
BRANCH   3   4
ATOM      4  C   UNL     1      31.376 161.342 120.219  1.00  0.00     0.000 C 
BRANCH   4   5
ATOM      5  C   UNL     1      30.693 160.153 120.916  1.00  0.00     0.006 C 
BRANCH   5   6
ATOM      6  C   UNL     1      31.700 159.246 121.634  1.00  0.00     0.053 C 
BRANCH   6   7
ATOM      7  C   UNL     1      31.825 157.912 120.962  1.00  0.00     0.041 C 
ATOM      8  O   UNL     1      32.817 157.661 120.228  1.00  0.00    -0.550 OA
ATOM      9  O   UNL     1      30.859 156.936 121.170  1.00  0.00    -0.550 OA
ENDBRANCH   6   7
ENDBRANCH   5   6
ENDBRANCH   4   5
ENDBRANCH   3   4
ENDBRANCH   2   3
ENDBRANCH   1   2
BRANCH   1  10
ATOM     10  C   UNL     1      28.188 161.261 118.195  1.00  0.00     0.000 C 
BRANCH  10  11
ATOM     11  C   UNL     1      27.269 160.739 119.316  1.00  0.00    -0.000 C 
BRANCH  11  12
ATOM     12  C   UNL     1      27.281 159.208 119.506  1.00  0.00    -0.000 C 
BRANCH  12  13
ATOM     13  C   UNL     1      26.164 158.445 118.766  1.00  0.00    -0.000 C 
BRANCH  13  14
ATOM     14  C   UNL     1      25.423 157.392 119.610  1.00  0.00    -0.000 C 
BRANCH  14  15
ATOM     15  C   UNL     1      26.358 156.301 120.155  1.00  0.00    -0.003 C 
ATOM     16  C   UNL     1      26.151 154.982 119.416  1.00  0.00     0.004 C 
ENDBRANCH  14  15
ENDBRANCH  13  14
ENDBRANCH  12  13
ENDBRANCH  11  12
ENDBRANCH  10  11
ENDBRANCH   1  10
TORSDOF 12
ENDMDL
