MODEL 1
REMARK VINA RESULT:    -3.557      0.000      0.000
REMARK INTER + INTRA:          -3.832
REMARK INTER:                  -5.012
REMARK INTRA:                   1.180
REMARK UNBOUND:                 1.180
REMARK SMILES CC1=CCC(=C(C)C)C(=O)CC(C)=CCC1
REMARK SMILES IDX 12 1 14 2 13 3 15 4 16 5 2 6 1 7 3 8 11 10 9 11 10 12 5 13
REMARK SMILES IDX 6 14 7 15 8 16 4 17
REMARK H PARENT
REMARK Flexibility Score: 60.00
ROOT
ATOM      1  C   UNL     1      12.864  23.529  -3.134  1.00  0.00    -0.070 C 
ATOM      2  C   UNL     1      13.326  22.799  -4.175  1.00  0.00    -0.027 C 
ATOM      3  C   UNL     1      13.378  24.937  -2.971  1.00  0.00     0.039 C 
ENDROOT
BRANCH   2   4
ATOM      4  C   UNL     1      12.876  21.399  -4.526  1.00  0.00     0.032 C 
BRANCH   4   5
ATOM      5  C   UNL     1      13.366  20.372  -3.494  1.00  0.00     0.034 C 
BRANCH   5   6
ATOM      6  C   UNL     1      12.258  19.830  -2.601  1.00  0.00    -0.077 C 
ATOM      7  C   UNL     1      11.024  19.250  -3.246  1.00  0.00     0.039 C 
ATOM      8  C   UNL     1      12.326  19.825  -1.251  1.00  0.00    -0.023 CG0
ATOM      9  G   UNL     1      13.443  20.423  -0.427  1.00  0.00     0.000 G0
ENDBRANCH   5   6
ENDBRANCH   4   5
ENDBRANCH   2   4
BRANCH   1  10
ATOM     10  C   UNL     1      11.860  22.994  -2.131  1.00  0.00     0.111 C 
BRANCH  10  11
ATOM     11  C   UNL     1      12.491  22.809  -0.779  1.00  0.00     0.163 C 
ATOM     12  O   UNL     1      11.997  23.400   0.219  1.00  0.00    -0.294 OA
BRANCH  11  13
ATOM     13  C   UNL     1      13.669  21.923  -0.592  1.00  0.00    -0.002 C 
ATOM     14  C   UNL     1      14.925  22.445  -0.591  1.00  0.00    -0.069 C 
ATOM     15  C   UNL     1      16.139  21.554  -0.452  1.00  0.00     0.039 C 
ATOM     16  C   UNL     1      15.153  23.937  -0.686  1.00  0.00     0.039 C 
BRANCH  13  17
ATOM     17  C   UNL     1      13.450  20.427  -0.398  1.00  0.00     0.066 CG0
ATOM     18  G   UNL     1      12.346  19.857  -1.259  1.00  0.00     0.000 G0
ENDBRANCH  13  17
ENDBRANCH  11  13
ENDBRANCH  10  11
ENDBRANCH   1  10
TORSDOF 0
ENDMDL
MODEL 2
REMARK VINA RESULT:    -3.545      1.851      4.524
REMARK INTER + INTRA:          -3.816
REMARK INTER:                  -4.608
REMARK INTRA:                   0.792
REMARK UNBOUND:                 1.180
REMARK SMILES CC1=CCC(=C(C)C)C(=O)CC(C)=CCC1
REMARK SMILES IDX 12 1 14 2 13 3 15 4 16 5 2 6 1 7 3 8 11 10 9 11 10 12 5 13
REMARK SMILES IDX 6 14 7 15 8 16 4 17
REMARK H PARENT
REMARK Flexibility Score: 60.00
ROOT
ATOM      1  C   UNL     1      13.590  22.162   0.476  1.00  0.00    -0.070 C 
ATOM      2  C   UNL     1      14.767  22.729   0.124  1.00  0.00    -0.027 C 
ATOM      3  C   UNL     1      12.933  22.626   1.750  1.00  0.00     0.039 C 
ENDROOT
BRANCH   2   4
ATOM      4  C   UNL     1      15.532  22.431  -1.146  1.00  0.00     0.032 C 
BRANCH   4   5
ATOM      5  C   UNL     1      15.508  23.622  -2.115  1.00  0.00     0.034 C 
BRANCH   5   6
ATOM      6  C   UNL     1      14.175  24.357  -2.142  1.00  0.00    -0.077 C 
ATOM      7  C   UNL     1      14.036  25.639  -1.360  1.00  0.00     0.039 C 
ATOM      8  C   UNL     1      13.104  23.929  -2.847  1.00  0.00    -0.023 CG0
ATOM      9  G   UNL     1      13.028  22.639  -3.631  1.00  0.00     0.000 G0
ENDBRANCH   5   6
ENDBRANCH   4   5
ENDBRANCH   2   4
BRANCH   1  10
ATOM     10  C   UNL     1      12.911  21.086  -0.350  1.00  0.00     0.111 C 
BRANCH  10  11
ATOM     11  C   UNL     1      12.037  21.689  -1.413  1.00  0.00     0.163 C 
ATOM     12  O   UNL     1      11.042  22.385  -1.073  1.00  0.00    -0.294 OA
BRANCH  11  13
ATOM     13  C   UNL     1      12.337  21.504  -2.856  1.00  0.00    -0.002 C 
ATOM     14  C   UNL     1      12.010  20.340  -3.480  1.00  0.00    -0.069 C 
ATOM     15  C   UNL     1      12.352  20.112  -4.935  1.00  0.00     0.039 C 
ATOM     16  C   UNL     1      11.256  19.248  -2.754  1.00  0.00     0.039 C 
BRANCH  13  17
ATOM     17  C   UNL     1      13.011  22.634  -3.626  1.00  0.00     0.066 CG0
ATOM     18  G   UNL     1      13.124  23.922  -2.843  1.00  0.00     0.000 G0
ENDBRANCH  13  17
ENDBRANCH  11  13
ENDBRANCH  10  11
ENDBRANCH   1  10
TORSDOF 0
ENDMDL
MODEL 3
REMARK VINA RESULT:    -3.101      1.819      3.091
REMARK INTER + INTRA:          -3.190
REMARK INTER:                  -4.621
REMARK INTRA:                   1.431
REMARK UNBOUND:                 1.180
REMARK SMILES CC1=CCC(=C(C)C)C(=O)CC(C)=CCC1
REMARK SMILES IDX 12 1 14 2 13 3 15 4 16 5 2 6 1 7 3 8 11 10 9 11 10 12 5 13
REMARK SMILES IDX 6 14 7 15 8 16 4 17
REMARK H PARENT
REMARK Flexibility Score: 60.00
ROOT
ATOM      1  C   UNL     1      12.069  22.010  -0.742  1.00  0.00    -0.070 C 
ATOM      2  C   UNL     1      11.673  20.910  -1.424  1.00  0.00    -0.027 C 
ATOM      3  C   UNL     1      11.151  23.205  -0.731  1.00  0.00     0.039 C 
ENDROOT
BRANCH   2   4
ATOM      4  C   UNL     1      12.436  19.606  -1.492  1.00  0.00     0.032 C 
BRANCH   4   5
ATOM      5  C   UNL     1      12.712  19.187  -2.944  1.00  0.00     0.034 C 
BRANCH   5   6
ATOM      6  C   UNL     1      12.381  20.268  -3.962  1.00  0.00    -0.077 C 
ATOM      7  C   UNL     1      11.185  20.078  -4.860  1.00  0.00     0.039 C 
ATOM      8  C   UNL     1      13.097  21.407  -4.097  1.00  0.00    -0.023 CG0
ATOM      9  G   UNL     1      14.361  21.744  -3.341  1.00  0.00     0.000 G0
ENDBRANCH   5   6
ENDBRANCH   4   5
ENDBRANCH   2   4
BRANCH   1  10
ATOM     10  C   UNL     1      13.387  22.090   0.003  1.00  0.00     0.111 C 
BRANCH  10  11
ATOM     11  C   UNL     1      14.492  22.562  -0.900  1.00  0.00     0.163 C 
ATOM     12  O   UNL     1      15.657  22.692  -0.435  1.00  0.00    -0.294 OA
BRANCH  11  13
ATOM     13  C   UNL     1      14.244  22.855  -2.335  1.00  0.00    -0.002 C 
ATOM     14  C   UNL     1      13.908  24.113  -2.729  1.00  0.00    -0.069 C 
ATOM     15  C   UNL     1      13.602  24.420  -4.178  1.00  0.00     0.039 C 
ATOM     16  C   UNL     1      13.868  25.259  -1.742  1.00  0.00     0.039 C 
BRANCH  13  17
ATOM     17  C   UNL     1      14.375  21.730  -3.356  1.00  0.00     0.066 CG0
ATOM     18  G   UNL     1      13.091  21.423  -4.091  1.00  0.00     0.000 G0
ENDBRANCH  13  17
ENDBRANCH  11  13
ENDBRANCH  10  11
ENDBRANCH   1  10
TORSDOF 0
ENDMDL
MODEL 4
REMARK VINA RESULT:    -2.891      1.700      4.079
REMARK INTER + INTRA:          -2.893
REMARK INTER:                  -4.374
REMARK INTRA:                   1.480
REMARK UNBOUND:                 1.180
REMARK SMILES CC1=CCC(=C(C)C)C(=O)CC(C)=CCC1
REMARK SMILES IDX 12 1 14 2 13 3 15 4 16 5 2 6 1 7 3 8 11 10 9 11 10 12 5 13
REMARK SMILES IDX 6 14 7 15 8 16 4 17
REMARK H PARENT
REMARK Flexibility Score: 60.00
ROOT
ATOM      1  C   UNL     1      13.479  24.582  -3.185  1.00  0.00    -0.070 C 
ATOM      2  C   UNL     1      13.805  25.221  -2.038  1.00  0.00    -0.027 C 
ATOM      3  C   UNL     1      12.527  25.267  -4.133  1.00  0.00     0.039 C 
ENDROOT
BRANCH   2   4
ATOM      4  C   UNL     1      14.787  24.713  -1.007  1.00  0.00     0.032 C 
BRANCH   4   5
ATOM      5  C   UNL     1      14.159  23.636  -0.110  1.00  0.00     0.034 C 
BRANCH   5   6
ATOM      6  C   UNL     1      14.673  22.232  -0.396  1.00  0.00    -0.077 C 
ATOM      7  C   UNL     1      16.081  21.876   0.010  1.00  0.00     0.039 C 
ATOM      8  C   UNL     1      13.924  21.271  -0.984  1.00  0.00    -0.023 CG0
ATOM      9  G   UNL     1      12.524  21.457  -1.521  1.00  0.00     0.000 G0
ENDBRANCH   5   6
ENDBRANCH   4   5
ENDBRANCH   2   4
BRANCH   1  10
ATOM     10  C   UNL     1      14.024  23.215  -3.553  1.00  0.00     0.111 C 
BRANCH  10  11
ATOM     11  C   UNL     1      12.918  22.283  -3.960  1.00  0.00     0.163 C 
ATOM     12  O   UNL     1      12.436  22.365  -5.123  1.00  0.00    -0.294 OA
BRANCH  11  13
ATOM     13  C   UNL     1      12.398  21.248  -3.030  1.00  0.00    -0.002 C 
ATOM     14  C   UNL     1      11.830  20.111  -3.516  1.00  0.00    -0.069 C 
ATOM     15  C   UNL     1      11.250  19.070  -2.586  1.00  0.00     0.039 C 
ATOM     16  C   UNL     1      11.796  19.828  -5.002  1.00  0.00     0.039 C 
BRANCH  13  17
ATOM     17  C   UNL     1      12.512  21.476  -1.527  1.00  0.00     0.066 CG0
ATOM     18  G   UNL     1      13.911  21.285  -0.986  1.00  0.00     0.000 G0
ENDBRANCH  13  17
ENDBRANCH  11  13
ENDBRANCH  10  11
ENDBRANCH   1  10
TORSDOF 0
ENDMDL
MODEL 5
REMARK VINA RESULT:    -2.839      1.451      3.232
REMARK INTER + INTRA:          -2.821
REMARK INTER:                  -3.582
REMARK INTRA:                   0.760
REMARK UNBOUND:                 1.180
REMARK SMILES CC1=CCC(=C(C)C)C(=O)CC(C)=CCC1
REMARK SMILES IDX 12 1 14 2 13 3 15 4 16 5 2 6 1 7 3 8 11 10 9 11 10 12 5 13
REMARK SMILES IDX 6 14 7 15 8 16 4 17
REMARK H PARENT
REMARK Flexibility Score: 60.00
ROOT
ATOM      1  C   UNL     1      14.204  21.539  -0.545  1.00  0.00    -0.070 C 
ATOM      2  C   UNL     1      13.807  20.335  -1.018  1.00  0.00    -0.027 C 
ATOM      3  C   UNL     1      15.672  21.875  -0.603  1.00  0.00     0.039 C 
ENDROOT
BRANCH   2   4
ATOM      4  C   UNL     1      12.374  19.858  -1.095  1.00  0.00     0.032 C 
BRANCH   4   5
ATOM      5  C   UNL     1      11.918  19.667  -2.549  1.00  0.00     0.034 C 
BRANCH   5   6
ATOM      6  C   UNL     1      12.923  20.176  -3.573  1.00  0.00    -0.077 C 
ATOM      7  C   UNL     1      13.938  19.213  -4.135  1.00  0.00     0.039 C 
ATOM      8  C   UNL     1      12.945  21.450  -4.023  1.00  0.00    -0.023 CG0
ATOM      9  G   UNL     1      12.058  22.570  -3.530  1.00  0.00     0.000 G0
ENDBRANCH   5   6
ENDBRANCH   4   5
ENDBRANCH   2   4
BRANCH   1  10
ATOM     10  C   UNL     1      13.241  22.555   0.039  1.00  0.00     0.111 C 
BRANCH  10  11
ATOM     11  C   UNL     1      12.216  22.976  -0.977  1.00  0.00     0.163 C 
ATOM     12  O   UNL     1      10.999  23.015  -0.647  1.00  0.00    -0.294 OA
BRANCH  11  13
ATOM     13  C   UNL     1      12.610  23.371  -2.353  1.00  0.00    -0.002 C 
ATOM     14  C   UNL     1      13.462  24.414  -2.549  1.00  0.00    -0.069 C 
ATOM     15  C   UNL     1      13.834  24.864  -3.944  1.00  0.00     0.039 C 
ATOM     16  C   UNL     1      14.098  25.135  -1.382  1.00  0.00     0.039 C 
BRANCH  13  17
ATOM     17  C   UNL     1      12.051  22.592  -3.539  1.00  0.00     0.066 CG0
ATOM     18  G   UNL     1      12.946  21.466  -4.004  1.00  0.00     0.000 G0
ENDBRANCH  13  17
ENDBRANCH  11  13
ENDBRANCH  10  11
ENDBRANCH   1  10
TORSDOF 0
ENDMDL
MODEL 6
REMARK VINA RESULT:    -2.562      1.906      4.374
REMARK INTER + INTRA:          -2.431
REMARK INTER:                  -3.674
REMARK INTRA:                   1.243
REMARK UNBOUND:                 1.180
REMARK SMILES CC1=CCC(=C(C)C)C(=O)CC(C)=CCC1
REMARK SMILES IDX 12 1 14 2 13 3 15 4 16 5 2 6 1 7 3 8 11 10 9 11 10 12 5 13
REMARK SMILES IDX 6 14 7 15 8 16 4 17
REMARK H PARENT
REMARK Flexibility Score: 60.00
ROOT
ATOM      1  C   UNL     1      12.429  23.089  -0.817  1.00  0.00    -0.070 C 
ATOM      2  C   UNL     1      12.886  24.325  -1.126  1.00  0.00    -0.027 C 
ATOM      3  C   UNL     1      10.941  22.900  -0.668  1.00  0.00     0.039 C 
ENDROOT
BRANCH   2   4
ATOM      4  C   UNL     1      14.335  24.681  -1.373  1.00  0.00     0.032 C 
BRANCH   4   5
ATOM      5  C   UNL     1      14.766  24.336  -2.806  1.00  0.00     0.034 C 
BRANCH   5   6
ATOM      6  C   UNL     1      13.598  24.125  -3.758  1.00  0.00    -0.077 C 
ATOM      7  C   UNL     1      12.879  25.332  -4.305  1.00  0.00     0.039 C 
ATOM      8  C   UNL     1      13.175  22.904  -4.158  1.00  0.00    -0.023 CG0
ATOM      9  G   UNL     1      13.722  21.583  -3.668  1.00  0.00     0.000 G0
ENDBRANCH   5   6
ENDBRANCH   4   5
ENDBRANCH   2   4
BRANCH   1  10
ATOM     10  C   UNL     1      13.343  21.896  -0.615  1.00  0.00     0.111 C 
BRANCH  10  11
ATOM     11  C   UNL     1      12.855  20.702  -1.385  1.00  0.00     0.163 C 
ATOM     12  O   UNL     1      12.522  19.658  -0.761  1.00  0.00    -0.294 OA
BRANCH  11  13
ATOM     13  C   UNL     1      12.734  20.735  -2.866  1.00  0.00    -0.002 C 
ATOM     14  C   UNL     1      11.750  20.031  -3.488  1.00  0.00    -0.069 C 
ATOM     15  C   UNL     1      11.641  20.011  -4.996  1.00  0.00     0.039 C 
ATOM     16  C   UNL     1      10.705  19.277  -2.696  1.00  0.00     0.039 C 
BRANCH  13  17
ATOM     17  C   UNL     1      13.722  21.568  -3.674  1.00  0.00     0.066 CG0
ATOM     18  G   UNL     1      13.165  22.895  -4.135  1.00  0.00     0.000 G0
ENDBRANCH  13  17
ENDBRANCH  11  13
ENDBRANCH  10  11
ENDBRANCH   1  10
TORSDOF 0
ENDMDL
MODEL 7
REMARK VINA RESULT:    -2.357      1.815      3.660
REMARK INTER + INTRA:          -2.142
REMARK INTER:                  -3.968
REMARK INTRA:                   1.826
REMARK UNBOUND:                 1.180
REMARK SMILES CC1=CCC(=C(C)C)C(=O)CC(C)=CCC1
REMARK SMILES IDX 12 1 14 2 13 3 15 4 16 5 2 6 1 7 3 8 11 10 9 11 10 12 5 13
REMARK SMILES IDX 6 14 7 15 8 16 4 17
REMARK H PARENT
REMARK Flexibility Score: 60.00
ROOT
ATOM      1  C   UNL     1      11.731  20.175  -3.049  1.00  0.00    -0.070 C 
ATOM      2  C   UNL     1      12.129  20.804  -4.179  1.00  0.00    -0.027 C 
ATOM      3  C   UNL     1      10.602  19.182  -3.150  1.00  0.00     0.039 C 
ENDROOT
BRANCH   2   4
ATOM      4  C   UNL     1      13.281  21.779  -4.274  1.00  0.00     0.032 C 
BRANCH   4   5
ATOM      5  C   UNL     1      12.874  23.065  -5.008  1.00  0.00     0.034 C 
BRANCH   5   6
ATOM      6  C   UNL     1      13.095  24.329  -4.190  1.00  0.00    -0.077 C 
ATOM      7  C   UNL     1      12.533  25.633  -4.699  1.00  0.00     0.039 C 
ATOM      8  C   UNL     1      13.760  24.346  -3.012  1.00  0.00    -0.023 CG0
ATOM      9  G   UNL     1      14.450  23.160  -2.378  1.00  0.00     0.000 G0
ENDBRANCH   5   6
ENDBRANCH   4   5
ENDBRANCH   2   4
BRANCH   1  10
ATOM     10  C   UNL     1      12.366  20.429  -1.695  1.00  0.00     0.111 C 
BRANCH  10  11
ATOM     11  C   UNL     1      12.425  21.899  -1.391  1.00  0.00     0.163 C 
ATOM     12  O   UNL     1      11.352  22.555  -1.301  1.00  0.00    -0.294 OA
BRANCH  11  13
ATOM     13  C   UNL     1      13.721  22.590  -1.169  1.00  0.00    -0.002 C 
ATOM     14  C   UNL     1      14.238  22.690   0.086  1.00  0.00    -0.069 C 
ATOM     15  C   UNL     1      15.530  23.434   0.339  1.00  0.00     0.039 C 
ATOM     16  C   UNL     1      13.563  22.027   1.266  1.00  0.00     0.039 C 
BRANCH  13  17
ATOM     17  C   UNL     1      14.462  23.181  -2.363  1.00  0.00     0.066 CG0
ATOM     18  G   UNL     1      13.748  24.347  -3.007  1.00  0.00     0.000 G0
ENDBRANCH  13  17
ENDBRANCH  11  13
ENDBRANCH  10  11
ENDBRANCH   1  10
TORSDOF 0
ENDMDL
MODEL 8
REMARK VINA RESULT:    -1.607      1.919      3.831
REMARK INTER + INTRA:          -1.085
REMARK INTER:                  -1.996
REMARK INTRA:                   0.911
REMARK UNBOUND:                 1.180
REMARK SMILES CC1=CCC(=C(C)C)C(=O)CC(C)=CCC1
REMARK SMILES IDX 12 1 14 2 13 3 15 4 16 5 2 6 1 7 3 8 11 10 9 11 10 12 5 13
REMARK SMILES IDX 6 14 7 15 8 16 4 17
REMARK H PARENT
REMARK Flexibility Score: 60.00
ROOT
ATOM      1  C   UNL     1      12.326  20.643  -4.391  1.00  0.00    -0.070 C 
ATOM      2  C   UNL     1      12.537  21.913  -4.809  1.00  0.00    -0.027 C 
ATOM      3  C   UNL     1      11.301  19.816  -5.125  1.00  0.00     0.039 C 
ENDROOT
BRANCH   2   4
ATOM      4  C   UNL     1      13.564  22.860  -4.233  1.00  0.00     0.032 C 
BRANCH   4   5
ATOM      5  C   UNL     1      12.917  24.157  -3.726  1.00  0.00     0.034 C 
BRANCH   5   6
ATOM      6  C   UNL     1      13.244  24.473  -2.273  1.00  0.00    -0.077 C 
ATOM      7  C   UNL     1      14.212  25.590  -1.973  1.00  0.00     0.039 C 
ATOM      8  C   UNL     1      12.698  23.813  -1.227  1.00  0.00    -0.023 CG0
ATOM      9  G   UNL     1      11.767  22.627  -1.328  1.00  0.00     0.000 G0
ENDBRANCH   5   6
ENDBRANCH   4   5
ENDBRANCH   2   4
BRANCH   1  10
ATOM     10  C   UNL     1      13.069  20.024  -3.223  1.00  0.00     0.111 C 
BRANCH  10  11
ATOM     11  C   UNL     1      12.277  20.144  -1.952  1.00  0.00     0.163 C 
ATOM     12  O   UNL     1      11.436  19.250  -1.661  1.00  0.00    -0.294 OA
BRANCH  11  13
ATOM     13  C   UNL     1      12.483  21.281  -1.019  1.00  0.00    -0.002 C 
ATOM     14  C   UNL     1      13.290  21.139   0.067  1.00  0.00    -0.069 C 
ATOM     15  C   UNL     1      13.471  22.268   1.056  1.00  0.00     0.039 C 
ATOM     16  C   UNL     1      14.067  19.863   0.304  1.00  0.00     0.039 C 
BRANCH  13  17
ATOM     17  C   UNL     1      11.781  22.606  -1.296  1.00  0.00     0.066 CG0
ATOM     18  G   UNL     1      12.701  23.804  -1.250  1.00  0.00     0.000 G0
ENDBRANCH  13  17
ENDBRANCH  11  13
ENDBRANCH  10  11
ENDBRANCH   1  10
TORSDOF 0
ENDMDL
MODEL 9
REMARK VINA RESULT:    -0.864      1.693      3.621
REMARK INTER + INTRA:          -0.037
REMARK INTER:                  -2.039
REMARK INTRA:                   2.002
REMARK UNBOUND:                 1.180
REMARK SMILES CC1=CCC(=C(C)C)C(=O)CC(C)=CCC1
REMARK SMILES IDX 12 1 14 2 13 3 15 4 16 5 2 6 1 7 3 8 11 10 9 11 10 12 5 13
REMARK SMILES IDX 6 14 7 15 8 16 4 17
REMARK H PARENT
REMARK Flexibility Score: 60.00
ROOT
ATOM      1  C   UNL     1      12.448  20.639  -2.966  1.00  0.00    -0.070 C 
ATOM      2  C   UNL     1      13.712  20.751  -3.438  1.00  0.00    -0.027 C 
ATOM      3  C   UNL     1      11.374  20.180  -3.917  1.00  0.00     0.039 C 
ENDROOT
BRANCH   2   4
ATOM      4  C   UNL     1      14.919  21.136  -2.614  1.00  0.00     0.032 C 
BRANCH   4   5
ATOM      5  C   UNL     1      14.676  20.911  -1.114  1.00  0.00     0.034 C 
BRANCH   5   6
ATOM      6  C   UNL     1      15.481  21.844  -0.220  1.00  0.00    -0.077 C 
ATOM      7  C   UNL     1      16.951  21.573  -0.024  1.00  0.00     0.039 C 
ATOM      8  C   UNL     1      14.949  22.922   0.399  1.00  0.00    -0.023 CG0
ATOM      9  G   UNL     1      13.490  23.314   0.379  1.00  0.00     0.000 G0
ENDBRANCH   5   6
ENDBRANCH   4   5
ENDBRANCH   2   4
BRANCH   1  10
ATOM     10  C   UNL     1      12.072  20.956  -1.531  1.00  0.00     0.111 C 
BRANCH  10  11
ATOM     11  C   UNL     1      11.794  22.422  -1.355  1.00  0.00     0.163 C 
ATOM     12  O   UNL     1      10.614  22.848  -1.489  1.00  0.00    -0.294 OA
BRANCH  11  13
ATOM     13  C   UNL     1      12.876  23.377  -1.003  1.00  0.00    -0.002 C 
ATOM     14  C   UNL     1      13.313  24.286  -1.917  1.00  0.00    -0.069 C 
ATOM     15  C   UNL     1      14.448  25.231  -1.594  1.00  0.00     0.039 C 
ATOM     16  C   UNL     1      12.652  24.413  -3.271  1.00  0.00     0.039 C 
BRANCH  13  17
ATOM     17  C   UNL     1      13.487  23.325   0.393  1.00  0.00     0.066 CG0
ATOM     18  G   UNL     1      14.946  22.932   0.405  1.00  0.00     0.000 G0
ENDBRANCH  13  17
ENDBRANCH  11  13
ENDBRANCH  10  11
ENDBRANCH   1  10
TORSDOF 0
ENDMDL
