MODEL 1
REMARK VINA RESULT:    -5.501      0.000      0.000
REMARK INTER + INTRA:          -5.921
REMARK INTER:                  -5.823
REMARK INTRA:                  -0.098
REMARK UNBOUND:                -0.098
REMARK SMILES C=C(C)[C@H]1CC=C(C)C(=O)C1
REMARK SMILES IDX 8 1 7 2 6 3 5 4 4 5 11 6 9 7 10 8 2 9 1 10 3 11
REMARK H PARENT
REMARK Flexibility Score: inf
ROOT
ATOM      1  C   UNL     1     -11.373 -17.000  26.737  1.00  0.00     0.048 C 
ATOM      2  C   UNL     1     -11.804 -16.485  28.082  1.00  0.00    -0.012 C 
ATOM      3  C   UNL     1     -12.874 -15.677  28.178  1.00  0.00    -0.019 C 
ATOM      4  C   UNL     1     -13.337 -15.119  29.497  1.00  0.00     0.036 C 
ATOM      5  C   UNL     1     -13.057 -16.107  30.645  1.00  0.00     0.025 C 
ATOM      6  C   UNL     1     -11.568 -16.494  30.667  1.00  0.00     0.089 C 
ATOM      7  C   UNL     1     -11.125 -16.968  29.310  1.00  0.00     0.158 C 
ATOM      8  O   UNL     1     -10.143 -17.754  29.224  1.00  0.00    -0.295 OA
ENDROOT
BRANCH   5   9
ATOM      9  C   UNL     1     -13.505 -15.543  31.987  1.00  0.00    -0.077 C 
ATOM     10  C   UNL     1     -12.797 -15.803  33.097  1.00  0.00     0.008 C 
ATOM     11  C   UNL     1     -14.741 -14.684  32.106  1.00  0.00     0.039 C 
ENDBRANCH   5   9
TORSDOF 1
ENDMDL
MODEL 2
REMARK VINA RESULT:    -5.421      1.564      2.035
REMARK INTER + INTRA:          -5.836
REMARK INTER:                  -5.743
REMARK INTRA:                  -0.093
REMARK UNBOUND:                -0.098
REMARK SMILES C=C(C)[C@H]1CC=C(C)C(=O)C1
REMARK SMILES IDX 8 1 7 2 6 3 5 4 4 5 11 6 9 7 10 8 2 9 1 10 3 11
REMARK H PARENT
REMARK Flexibility Score: inf
ROOT
ATOM      1  C   UNL     1     -11.392 -17.333  26.712  1.00  0.00     0.048 C 
ATOM      2  C   UNL     1     -11.603 -17.150  28.190  1.00  0.00    -0.012 C 
ATOM      3  C   UNL     1     -10.972 -16.156  28.839  1.00  0.00    -0.019 C 
ATOM      4  C   UNL     1     -11.133 -15.940  30.320  1.00  0.00     0.036 C 
ATOM      5  C   UNL     1     -12.544 -16.342  30.787  1.00  0.00     0.025 C 
ATOM      6  C   UNL     1     -12.853 -17.791  30.373  1.00  0.00     0.089 C 
ATOM      7  C   UNL     1     -12.600 -17.986  28.903  1.00  0.00     0.158 C 
ATOM      8  O   UNL     1     -13.220 -18.896  28.288  1.00  0.00    -0.295 OA
ENDROOT
BRANCH   5   9
ATOM      9  C   UNL     1     -12.711 -16.145  32.288  1.00  0.00    -0.077 C 
ATOM     10  C   UNL     1     -13.936 -16.159  32.837  1.00  0.00     0.008 C 
ATOM     11  C   UNL     1     -11.520 -15.932  33.190  1.00  0.00     0.039 C 
ENDBRANCH   5   9
TORSDOF 1
ENDMDL
MODEL 3
REMARK VINA RESULT:    -5.391      2.106      4.473
REMARK INTER + INTRA:          -5.804
REMARK INTER:                  -5.706
REMARK INTRA:                  -0.098
REMARK UNBOUND:                -0.098
REMARK SMILES C=C(C)[C@H]1CC=C(C)C(=O)C1
REMARK SMILES IDX 8 1 7 2 6 3 5 4 4 5 11 6 9 7 10 8 2 9 1 10 3 11
REMARK H PARENT
REMARK Flexibility Score: inf
ROOT
ATOM      1  C   UNL     1     -10.750 -16.470  32.799  1.00  0.00     0.048 C 
ATOM      2  C   UNL     1     -11.212 -16.419  31.369  1.00  0.00    -0.012 C 
ATOM      3  C   UNL     1     -10.447 -15.823  30.438  1.00  0.00    -0.019 C 
ATOM      4  C   UNL     1     -10.871 -15.728  28.997  1.00  0.00     0.036 C 
ATOM      5  C   UNL     1     -11.708 -16.953  28.584  1.00  0.00     0.025 C 
ATOM      6  C   UNL     1     -12.906 -17.127  29.533  1.00  0.00     0.089 C 
ATOM      7  C   UNL     1     -12.449 -17.134  30.967  1.00  0.00     0.158 C 
ATOM      8  O   UNL     1     -13.150 -17.725  31.832  1.00  0.00    -0.295 OA
ENDROOT
BRANCH   5   9
ATOM      9  C   UNL     1     -12.157 -16.857  27.133  1.00  0.00    -0.077 C 
ATOM     10  C   UNL     1     -13.395 -16.431  26.837  1.00  0.00     0.008 C 
ATOM     11  C   UNL     1     -11.234 -17.231  25.998  1.00  0.00     0.039 C 
ENDBRANCH   5   9
TORSDOF 1
ENDMDL
MODEL 4
REMARK VINA RESULT:    -5.389      2.866      4.562
REMARK INTER + INTRA:          -5.802
REMARK INTER:                  -5.713
REMARK INTRA:                  -0.090
REMARK UNBOUND:                -0.098
REMARK SMILES C=C(C)[C@H]1CC=C(C)C(=O)C1
REMARK SMILES IDX 8 1 7 2 6 3 5 4 4 5 11 6 9 7 10 8 2 9 1 10 3 11
REMARK H PARENT
REMARK Flexibility Score: inf
ROOT
ATOM      1  C   UNL     1     -12.509 -20.026  31.835  1.00  0.00     0.048 C 
ATOM      2  C   UNL     1     -12.448 -19.352  30.493  1.00  0.00    -0.012 C 
ATOM      3  C   UNL     1     -13.473 -19.479  29.632  1.00  0.00    -0.019 C 
ATOM      4  C   UNL     1     -13.455 -18.840  28.269  1.00  0.00     0.036 C 
ATOM      5  C   UNL     1     -12.673 -17.514  28.289  1.00  0.00     0.025 C 
ATOM      6  C   UNL     1     -11.256 -17.736  28.847  1.00  0.00     0.089 C 
ATOM      7  C   UNL     1     -11.314 -18.450  30.170  1.00  0.00     0.158 C 
ATOM      8  O   UNL     1     -10.369 -18.302  30.990  1.00  0.00    -0.295 OA
ENDROOT
BRANCH   5   9
ATOM      9  C   UNL     1     -12.634 -16.870  26.910  1.00  0.00    -0.077 C 
ATOM     10  C   UNL     1     -13.701 -16.198  26.450  1.00  0.00     0.008 C 
ATOM     11  C   UNL     1     -11.409 -16.964  26.033  1.00  0.00     0.039 C 
ENDBRANCH   5   9
TORSDOF 1
ENDMDL
MODEL 5
REMARK VINA RESULT:    -5.304      2.599      4.217
REMARK INTER + INTRA:          -5.712
REMARK INTER:                  -5.614
REMARK INTRA:                  -0.098
REMARK UNBOUND:                -0.098
REMARK SMILES C=C(C)[C@H]1CC=C(C)C(=O)C1
REMARK SMILES IDX 8 1 7 2 6 3 5 4 4 5 11 6 9 7 10 8 2 9 1 10 3 11
REMARK H PARENT
REMARK Flexibility Score: inf
ROOT
ATOM      1  C   UNL     1     -12.494 -20.384  31.727  1.00  0.00     0.048 C 
ATOM      2  C   UNL     1     -12.835 -19.260  30.787  1.00  0.00    -0.012 C 
ATOM      3  C   UNL     1     -12.705 -17.985  31.192  1.00  0.00    -0.019 C 
ATOM      4  C   UNL     1     -13.050 -16.824  30.298  1.00  0.00     0.036 C 
ATOM      5  C   UNL     1     -12.764 -17.158  28.822  1.00  0.00     0.025 C 
ATOM      6  C   UNL     1     -13.499 -18.447  28.412  1.00  0.00     0.089 C 
ATOM      7  C   UNL     1     -13.193 -19.559  29.378  1.00  0.00     0.158 C 
ATOM      8  O   UNL     1     -13.280 -20.754  28.986  1.00  0.00    -0.295 OA
ENDROOT
BRANCH   5   9
ATOM      9  C   UNL     1     -13.127 -15.996  27.908  1.00  0.00    -0.077 C 
ATOM     10  C   UNL     1     -13.268 -14.760  28.413  1.00  0.00     0.008 C 
ATOM     11  C   UNL     1     -13.334 -16.196  26.426  1.00  0.00     0.039 C 
ENDBRANCH   5   9
TORSDOF 1
ENDMDL
MODEL 6
REMARK VINA RESULT:    -5.295      2.440      2.976
REMARK INTER + INTRA:          -5.703
REMARK INTER:                  -5.616
REMARK INTRA:                  -0.087
REMARK UNBOUND:                -0.098
REMARK SMILES C=C(C)[C@H]1CC=C(C)C(=O)C1
REMARK SMILES IDX 8 1 7 2 6 3 5 4 4 5 11 6 9 7 10 8 2 9 1 10 3 11
REMARK H PARENT
REMARK Flexibility Score: inf
ROOT
ATOM      1  C   UNL     1     -13.291 -20.363  28.620  1.00  0.00     0.048 C 
ATOM      2  C   UNL     1     -13.185 -19.261  29.639  1.00  0.00    -0.012 C 
ATOM      3  C   UNL     1     -13.255 -19.552  30.949  1.00  0.00    -0.019 C 
ATOM      4  C   UNL     1     -13.173 -18.485  32.009  1.00  0.00     0.036 C 
ATOM      5  C   UNL     1     -12.261 -17.329  31.561  1.00  0.00     0.025 C 
ATOM      6  C   UNL     1     -12.731 -16.769  30.207  1.00  0.00     0.089 C 
ATOM      7  C   UNL     1     -12.880 -17.877  29.200  1.00  0.00     0.158 C 
ATOM      8  O   UNL     1     -12.778 -17.608  27.973  1.00  0.00    -0.295 OA
ENDROOT
BRANCH   5   9
ATOM      9  C   UNL     1     -12.187 -16.236  32.619  1.00  0.00    -0.077 C 
ATOM     10  C   UNL     1     -11.001 -15.886  33.143  1.00  0.00     0.008 C 
ATOM     11  C   UNL     1     -13.426 -15.523  33.102  1.00  0.00     0.039 C 
ENDBRANCH   5   9
TORSDOF 1
ENDMDL
MODEL 7
REMARK VINA RESULT:    -5.287      2.574      2.781
REMARK INTER + INTRA:          -5.694
REMARK INTER:                  -5.597
REMARK INTRA:                  -0.097
REMARK UNBOUND:                -0.098
REMARK SMILES C=C(C)[C@H]1CC=C(C)C(=O)C1
REMARK SMILES IDX 8 1 7 2 6 3 5 4 4 5 11 6 9 7 10 8 2 9 1 10 3 11
REMARK H PARENT
REMARK Flexibility Score: inf
ROOT
ATOM      1  C   UNL     1     -13.425 -20.226  28.609  1.00  0.00     0.048 C 
ATOM      2  C   UNL     1     -13.046 -19.167  29.608  1.00  0.00    -0.012 C 
ATOM      3  C   UNL     1     -13.177 -17.868  29.288  1.00  0.00    -0.019 C 
ATOM      4  C   UNL     1     -12.795 -16.769  30.244  1.00  0.00     0.036 C 
ATOM      5  C   UNL     1     -13.038 -17.194  31.703  1.00  0.00     0.025 C 
ATOM      6  C   UNL     1     -12.302 -18.511  32.007  1.00  0.00     0.089 C 
ATOM      7  C   UNL     1     -12.647 -19.558  30.983  1.00  0.00     0.158 C 
ATOM      8  O   UNL     1     -12.558 -20.776  31.295  1.00  0.00    -0.295 OA
ENDROOT
BRANCH   5   9
ATOM      9  C   UNL     1     -12.636 -16.095  32.678  1.00  0.00    -0.077 C 
ATOM     10  C   UNL     1     -11.350 -15.945  33.031  1.00  0.00     0.008 C 
ATOM     11  C   UNL     1     -13.659 -15.154  33.267  1.00  0.00     0.039 C 
ENDBRANCH   5   9
TORSDOF 1
ENDMDL
MODEL 8
REMARK VINA RESULT:    -5.138      2.743      3.206
REMARK INTER + INTRA:          -5.537
REMARK INTER:                  -5.442
REMARK INTRA:                  -0.095
REMARK UNBOUND:                -0.098
REMARK SMILES C=C(C)[C@H]1CC=C(C)C(=O)C1
REMARK SMILES IDX 8 1 7 2 6 3 5 4 4 5 11 6 9 7 10 8 2 9 1 10 3 11
REMARK H PARENT
REMARK Flexibility Score: inf
ROOT
ATOM      1  C   UNL     1     -10.089 -18.693  30.662  1.00  0.00     0.048 C 
ATOM      2  C   UNL     1     -11.086 -17.862  31.420  1.00  0.00    -0.012 C 
ATOM      3  C   UNL     1     -10.693 -16.725  32.020  1.00  0.00    -0.019 C 
ATOM      4  C   UNL     1     -11.646 -15.866  32.807  1.00  0.00     0.036 C 
ATOM      5  C   UNL     1     -13.067 -15.931  32.216  1.00  0.00     0.025 C 
ATOM      6  C   UNL     1     -13.542 -17.391  32.122  1.00  0.00     0.089 C 
ATOM      7  C   UNL     1     -12.524 -18.232  31.401  1.00  0.00     0.158 C 
ATOM      8  O   UNL     1     -12.900 -19.280  30.809  1.00  0.00    -0.295 OA
ENDROOT
BRANCH   5   9
ATOM      9  C   UNL     1     -14.043 -15.079  33.017  1.00  0.00    -0.077 C 
ATOM     10  C   UNL     1     -15.315 -14.950  32.610  1.00  0.00     0.008 C 
ATOM     11  C   UNL     1     -13.614 -14.367  34.277  1.00  0.00     0.039 C 
ENDBRANCH   5   9
TORSDOF 1
ENDMDL
MODEL 9
REMARK VINA RESULT:    -4.980      2.101      4.669
REMARK INTER + INTRA:          -5.369
REMARK INTER:                  -5.272
REMARK INTRA:                  -0.098
REMARK UNBOUND:                -0.098
REMARK SMILES C=C(C)[C@H]1CC=C(C)C(=O)C1
REMARK SMILES IDX 8 1 7 2 6 3 5 4 4 5 11 6 9 7 10 8 2 9 1 10 3 11
REMARK H PARENT
REMARK Flexibility Score: inf
ROOT
ATOM      1  C   UNL     1     -14.493 -16.652  33.148  1.00  0.00     0.048 C 
ATOM      2  C   UNL     1     -13.597 -16.661  31.940  1.00  0.00    -0.012 C 
ATOM      3  C   UNL     1     -12.826 -17.732  31.686  1.00  0.00    -0.019 C 
ATOM      4  C   UNL     1     -11.898 -17.785  30.501  1.00  0.00     0.036 C 
ATOM      5  C   UNL     1     -12.474 -16.995  29.311  1.00  0.00     0.025 C 
ATOM      6  C   UNL     1     -12.798 -15.551  29.733  1.00  0.00     0.089 C 
ATOM      7  C   UNL     1     -13.658 -15.542  30.967  1.00  0.00     0.158 C 
ATOM      8  O   UNL     1     -14.407 -14.552  31.186  1.00  0.00    -0.295 OA
ENDROOT
BRANCH   5   9
ATOM      9  C   UNL     1     -11.534 -17.027  28.114  1.00  0.00    -0.077 C 
ATOM     10  C   UNL     1     -10.204 -17.047  28.302  1.00  0.00     0.008 C 
ATOM     11  C   UNL     1     -12.061 -17.041  26.700  1.00  0.00     0.039 C 
ENDBRANCH   5   9
TORSDOF 1
ENDMDL
