MODEL 1
REMARK VINA RESULT:    -5.165      0.000      0.000
REMARK INTER + INTRA:          -6.669
REMARK INTER:                  -6.373
REMARK INTRA:                  -0.296
REMARK UNBOUND:                -0.296
REMARK SMILES O=c1c(O)c(-c2cc(O)c(O)c(O)c2)oc2cc(O)cc(O)c12
REMARK SMILES IDX 5 1 3 2 2 3 1 4 23 5 21 6 20 7 18 8 17 9 16 10 15 11 6 12
REMARK SMILES IDX 7 13 8 14 14 15 10 16 12 17 9 18 11 20 13 22 4 24 22 26
REMARK SMILES IDX 19 28
REMARK H PARENT 9 19 11 21 13 23 4 25 22 27 19 29
REMARK Flexibility Score: inf
ROOT
ATOM      1  C   UNL     1     -39.339  31.662  13.442  1.00  0.00     0.180 A 
ATOM      2  C   UNL     1     -38.410  31.865  12.403  1.00  0.00     0.208 A 
ATOM      3  C   UNL     1     -37.317  30.993  12.292  1.00  0.00     0.238 A 
ATOM      4  O   UNL     1     -36.484  31.159  11.359  1.00  0.00    -0.285 OA
ATOM      5  C   UNL     1     -37.158  29.951  13.227  1.00  0.00     0.111 A 
ATOM      6  C   UNL     1     -36.082  29.030  13.187  1.00  0.00     0.134 A 
ATOM      7  C   UNL     1     -35.990  28.025  14.160  1.00  0.00     0.093 A 
ATOM      8  C   UNL     1     -36.948  27.921  15.170  1.00  0.00     0.123 A 
ATOM      9  C   UNL     1     -38.014  28.825  15.215  1.00  0.00     0.094 A 
ATOM     10  C   UNL     1     -38.125  29.834  14.253  1.00  0.00     0.146 A 
ATOM     11  O   UNL     1     -39.149  30.677  14.315  1.00  0.00    -0.452 OA
ENDROOT
BRANCH   1  12
ATOM     12  C   UNL     1     -40.528  32.528  13.615  1.00  0.00     0.029 A 
ATOM     13  C   UNL     1     -41.616  32.388  12.742  1.00  0.00     0.062 A 
ATOM     14  C   UNL     1     -42.748  33.203  12.864  1.00  0.00     0.162 A 
ATOM     15  C   UNL     1     -40.567  33.527  14.600  1.00  0.00     0.062 A 
ATOM     16  C   UNL     1     -42.789  34.194  13.874  1.00  0.00     0.200 A 
ATOM     17  C   UNL     1     -41.692  34.351  14.732  1.00  0.00     0.162 A 
BRANCH  14  18
ATOM     18  O   UNL     1     -43.798  32.998  11.966  1.00  0.00    -0.504 OA
ATOM     19  H   UNL     1     -44.749  33.294  12.129  1.00  0.00     0.293 HD
ENDBRANCH  14  18
BRANCH  16  20
ATOM     20  O   UNL     1     -43.889  35.036  14.053  1.00  0.00    -0.502 OA
ATOM     21  H   UNL     1     -44.026  35.903  13.554  1.00  0.00     0.293 HD
ENDBRANCH  16  20
BRANCH  17  22
ATOM     22  O   UNL     1     -41.726  35.337  15.718  1.00  0.00    -0.504 OA
ATOM     23  H   UNL     1     -42.324  36.152  15.634  1.00  0.00     0.293 HD
ENDBRANCH  17  22
ENDBRANCH   1  12
BRANCH   2  24
ATOM     24  O   UNL     1     -38.564  32.936  11.519  1.00  0.00    -0.502 OA
ATOM     25  H   UNL     1     -37.775  33.449  11.146  1.00  0.00     0.293 HD
ENDBRANCH   2  24
BRANCH   6  26
ATOM     26  O   UNL     1     -35.108  29.109  12.191  1.00  0.00    -0.507 OA
ATOM     27  H   UNL     1     -35.074  28.446  11.424  1.00  0.00     0.293 HD
ENDBRANCH   6  26
BRANCH   8  28
ATOM     28  O   UNL     1     -36.833  26.913  16.125  1.00  0.00    -0.508 OA
ATOM     29  H   UNL     1     -36.122  26.946  16.847  1.00  0.00     0.293 HD
ENDBRANCH   8  28
TORSDOF 7
ENDMDL
MODEL 2
REMARK VINA RESULT:    -4.873      1.408      7.117
REMARK INTER + INTRA:          -6.309
REMARK INTER:                  -5.943
REMARK INTRA:                  -0.366
REMARK UNBOUND:                -0.296
REMARK SMILES O=c1c(O)c(-c2cc(O)c(O)c(O)c2)oc2cc(O)cc(O)c12
REMARK SMILES IDX 5 1 3 2 2 3 1 4 23 5 21 6 20 7 18 8 17 9 16 10 15 11 6 12
REMARK SMILES IDX 7 13 8 14 14 15 10 16 12 17 9 18 11 20 13 22 4 24 22 26
REMARK SMILES IDX 19 28
REMARK H PARENT 9 19 11 21 13 23 4 25 22 27 19 29
REMARK Flexibility Score: inf
ROOT
ATOM      1  C   UNL     1     -38.337  31.205  14.275  1.00  0.00     0.180 A 
ATOM      2  C   UNL     1     -37.961  32.356  14.994  1.00  0.00     0.208 A 
ATOM      3  C   UNL     1     -38.834  33.454  15.019  1.00  0.00     0.238 A 
ATOM      4  O   UNL     1     -38.513  34.487  15.669  1.00  0.00    -0.285 OA
ATOM      5  C   UNL     1     -40.052  33.393  14.313  1.00  0.00     0.111 A 
ATOM      6  C   UNL     1     -40.986  34.457  14.285  1.00  0.00     0.134 A 
ATOM      7  C   UNL     1     -42.174  34.322  13.550  1.00  0.00     0.093 A 
ATOM      8  C   UNL     1     -42.445  33.148  12.845  1.00  0.00     0.123 A 
ATOM      9  C   UNL     1     -41.528  32.093  12.869  1.00  0.00     0.094 A 
ATOM     10  C   UNL     1     -40.339  32.207  13.598  1.00  0.00     0.146 A 
ATOM     11  O   UNL     1     -39.487  31.188  13.608  1.00  0.00    -0.452 OA
ENDROOT
BRANCH   1  12
ATOM     12  C   UNL     1     -37.478  29.999  14.216  1.00  0.00     0.029 A 
ATOM     13  C   UNL     1     -36.633  29.808  13.114  1.00  0.00     0.062 A 
ATOM     14  C   UNL     1     -35.823  28.669  13.016  1.00  0.00     0.162 A 
ATOM     15  C   UNL     1     -37.536  29.013  15.212  1.00  0.00     0.062 A 
ATOM     16  C   UNL     1     -35.870  27.690  14.036  1.00  0.00     0.200 A 
ATOM     17  C   UNL     1     -36.732  27.869  15.127  1.00  0.00     0.162 A 
BRANCH  14  18
ATOM     18  O   UNL     1     -34.998  28.553  11.895  1.00  0.00    -0.504 OA
ATOM     19  H   UNL     1     -35.338  28.449  10.950  1.00  0.00     0.293 HD
ENDBRANCH  14  18
BRANCH  16  20
ATOM     20  O   UNL     1     -35.085  26.534  14.002  1.00  0.00    -0.502 OA
ATOM     21  H   UNL     1     -35.299  25.720  13.445  1.00  0.00     0.293 HD
ENDBRANCH  16  20
BRANCH  17  22
ATOM     22  O   UNL     1     -36.789  26.897  16.124  1.00  0.00    -0.504 OA
ATOM     23  H   UNL     1     -36.837  25.909  15.902  1.00  0.00     0.293 HD
ENDBRANCH  17  22
ENDBRANCH   1  12
BRANCH   2  24
ATOM     24  O   UNL     1     -36.726  32.410  15.645  1.00  0.00    -0.502 OA
ATOM     25  H   UNL     1     -36.261  31.582  15.997  1.00  0.00     0.293 HD
ENDBRANCH   2  24
BRANCH   6  26
ATOM     26  O   UNL     1     -40.743  35.643  14.978  1.00  0.00    -0.507 OA
ATOM     27  H   UNL     1     -41.069  35.783  15.928  1.00  0.00     0.293 HD
ENDBRANCH   6  26
BRANCH   8  28
ATOM     28  O   UNL     1     -43.631  33.039  12.123  1.00  0.00    -0.508 OA
ATOM     29  H   UNL     1     -44.066  32.140  11.950  1.00  0.00     0.293 HD
ENDBRANCH   8  28
TORSDOF 7
ENDMDL
MODEL 3
REMARK VINA RESULT:    -4.644      2.520      4.519
REMARK INTER + INTRA:          -6.026
REMARK INTER:                  -5.760
REMARK INTRA:                  -0.266
REMARK UNBOUND:                -0.296
REMARK SMILES O=c1c(O)c(-c2cc(O)c(O)c(O)c2)oc2cc(O)cc(O)c12
REMARK SMILES IDX 5 1 3 2 2 3 1 4 23 5 21 6 20 7 18 8 17 9 16 10 15 11 6 12
REMARK SMILES IDX 7 13 8 14 14 15 10 16 12 17 9 18 11 20 13 22 4 24 22 26
REMARK SMILES IDX 19 28
REMARK H PARENT 9 19 11 21 13 23 4 25 22 27 19 29
REMARK Flexibility Score: inf
ROOT
ATOM      1  C   UNL     1     -42.091  34.307  14.097  1.00  0.00     0.180 A 
ATOM      2  C   UNL     1     -42.342  33.360  13.085  1.00  0.00     0.208 A 
ATOM      3  C   UNL     1     -41.360  32.400  12.798  1.00  0.00     0.238 A 
ATOM      4  O   UNL     1     -41.578  31.540  11.902  1.00  0.00    -0.285 OA
ATOM      5  C   UNL     1     -40.142  32.414  13.508  1.00  0.00     0.111 A 
ATOM      6  C   UNL     1     -39.100  31.484  13.276  1.00  0.00     0.134 A 
ATOM      7  C   UNL     1     -37.913  31.569  14.019  1.00  0.00     0.093 A 
ATOM      8  C   UNL     1     -37.747  32.564  14.984  1.00  0.00     0.123 A 
ATOM      9  C   UNL     1     -38.773  33.486  15.218  1.00  0.00     0.094 A 
ATOM     10  C   UNL     1     -39.965  33.415  14.490  1.00  0.00     0.146 A 
ATOM     11  O   UNL     1     -40.925  34.300  14.736  1.00  0.00    -0.452 OA
ENDROOT
BRANCH   1  12
ATOM     12  C   UNL     1     -43.085  35.340  14.472  1.00  0.00     0.029 A 
ATOM     13  C   UNL     1     -42.801  36.691  14.226  1.00  0.00     0.062 A 
ATOM     14  C   UNL     1     -43.708  37.695  14.586  1.00  0.00     0.162 A 
ATOM     15  C   UNL     1     -44.282  35.001  15.121  1.00  0.00     0.062 A 
ATOM     16  C   UNL     1     -44.924  37.343  15.220  1.00  0.00     0.200 A 
ATOM     17  C   UNL     1     -45.198  35.995  15.487  1.00  0.00     0.162 A 
BRANCH  14  18
ATOM     18  O   UNL     1     -43.362  39.017  14.299  1.00  0.00    -0.504 OA
ATOM     19  H   UNL     1     -43.164  39.716  15.001  1.00  0.00     0.293 HD
ENDBRANCH  14  18
BRANCH  16  20
ATOM     20  O   UNL     1     -45.874  38.295  15.599  1.00  0.00    -0.502 OA
ATOM     21  H   UNL     1     -46.277  38.974  14.971  1.00  0.00     0.293 HD
ENDBRANCH  16  20
BRANCH  17  22
ATOM     22  O   UNL     1     -46.389  35.649  16.125  1.00  0.00    -0.504 OA
ATOM     23  H   UNL     1     -47.281  36.023  15.822  1.00  0.00     0.293 HD
ENDBRANCH  17  22
ENDBRANCH   1  12
BRANCH   2  24
ATOM     24  O   UNL     1     -43.538  33.398  12.363  1.00  0.00    -0.502 OA
ATOM     25  H   UNL     1     -43.710  34.079  11.635  1.00  0.00     0.293 HD
ENDBRANCH   2  24
BRANCH   6  26
ATOM     26  O   UNL     1     -39.234  30.479  12.318  1.00  0.00    -0.507 OA
ATOM     27  H   UNL     1     -38.590  29.697  12.269  1.00  0.00     0.293 HD
ENDBRANCH   6  26
BRANCH   8  28
ATOM     28  O   UNL     1     -36.558  32.628  15.707  1.00  0.00    -0.508 OA
ATOM     29  H   UNL     1     -35.659  32.483  15.262  1.00  0.00     0.293 HD
ENDBRANCH   8  28
TORSDOF 7
ENDMDL
MODEL 4
REMARK VINA RESULT:    -4.636      3.289      8.052
REMARK INTER + INTRA:          -6.016
REMARK INTER:                  -5.666
REMARK INTRA:                  -0.350
REMARK UNBOUND:                -0.296
REMARK SMILES O=c1c(O)c(-c2cc(O)c(O)c(O)c2)oc2cc(O)cc(O)c12
REMARK SMILES IDX 5 1 3 2 2 3 1 4 23 5 21 6 20 7 18 8 17 9 16 10 15 11 6 12
REMARK SMILES IDX 7 13 8 14 14 15 10 16 12 17 9 18 11 20 13 22 4 24 22 26
REMARK SMILES IDX 19 28
REMARK H PARENT 9 19 11 21 13 23 4 25 22 27 19 29
REMARK Flexibility Score: inf
ROOT
ATOM      1  C   UNL     1     -41.931  34.673  14.198  1.00  0.00     0.180 A 
ATOM      2  C   UNL     1     -43.269  35.021  14.466  1.00  0.00     0.208 A 
ATOM      3  C   UNL     1     -43.594  36.374  14.642  1.00  0.00     0.238 A 
ATOM      4  O   UNL     1     -44.791  36.699  14.872  1.00  0.00    -0.285 OA
ATOM      5  C   UNL     1     -42.580  37.351  14.569  1.00  0.00     0.111 A 
ATOM      6  C   UNL     1     -42.824  38.736  14.738  1.00  0.00     0.134 A 
ATOM      7  C   UNL     1     -41.759  39.645  14.659  1.00  0.00     0.093 A 
ATOM      8  C   UNL     1     -40.459  39.198  14.415  1.00  0.00     0.123 A 
ATOM      9  C   UNL     1     -40.211  37.833  14.246  1.00  0.00     0.094 A 
ATOM     10  C   UNL     1     -41.260  36.911  14.319  1.00  0.00     0.146 A 
ATOM     11  O   UNL     1     -40.998  35.620  14.150  1.00  0.00    -0.452 OA
ENDROOT
BRANCH   1  12
ATOM     12  C   UNL     1     -41.511  33.269  13.982  1.00  0.00     0.029 A 
ATOM     13  C   UNL     1     -41.655  32.694  12.711  1.00  0.00     0.062 A 
ATOM     14  C   UNL     1     -41.288  31.363  12.476  1.00  0.00     0.162 A 
ATOM     15  C   UNL     1     -41.026  32.481  15.036  1.00  0.00     0.062 A 
ATOM     16  C   UNL     1     -40.777  30.582  13.540  1.00  0.00     0.200 A 
ATOM     17  C   UNL     1     -40.655  31.148  14.816  1.00  0.00     0.162 A 
BRANCH  14  18
ATOM     18  O   UNL     1     -41.449  30.863  11.182  1.00  0.00    -0.504 OA
ATOM     19  H   UNL     1     -41.634  31.437  10.372  1.00  0.00     0.293 HD
ENDBRANCH  14  18
BRANCH  16  20
ATOM     20  O   UNL     1     -40.388  29.251  13.372  1.00  0.00    -0.502 OA
ATOM     21  H   UNL     1     -40.085  28.650  14.125  1.00  0.00     0.293 HD
ENDBRANCH  16  20
BRANCH  17  22
ATOM     22  O   UNL     1     -40.166  30.374  15.868  1.00  0.00    -0.504 OA
ATOM     23  H   UNL     1     -40.362  29.382  15.933  1.00  0.00     0.293 HD
ENDBRANCH  17  22
ENDBRANCH   1  12
BRANCH   2  24
ATOM     24  O   UNL     1     -44.247  34.030  14.583  1.00  0.00    -0.502 OA
ATOM     25  H   UNL     1     -45.236  34.231  14.503  1.00  0.00     0.293 HD
ENDBRANCH   2  24
BRANCH   6  26
ATOM     26  O   UNL     1     -44.112  39.212  14.984  1.00  0.00    -0.507 OA
ATOM     27  H   UNL     1     -44.855  39.121  14.300  1.00  0.00     0.293 HD
ENDBRANCH   6  26
BRANCH   8  28
ATOM     28  O   UNL     1     -39.419  40.122  14.342  1.00  0.00    -0.508 OA
ATOM     29  H   UNL     1     -39.577  41.112  14.494  1.00  0.00     0.293 HD
ENDBRANCH   8  28
TORSDOF 7
ENDMDL
MODEL 5
REMARK VINA RESULT:    -4.619     15.235     16.325
REMARK INTER + INTRA:          -5.996
REMARK INTER:                  -5.634
REMARK INTRA:                  -0.362
REMARK UNBOUND:                -0.296
REMARK SMILES O=c1c(O)c(-c2cc(O)c(O)c(O)c2)oc2cc(O)cc(O)c12
REMARK SMILES IDX 5 1 3 2 2 3 1 4 23 5 21 6 20 7 18 8 17 9 16 10 15 11 6 12
REMARK SMILES IDX 7 13 8 14 14 15 10 16 12 17 9 18 11 20 13 22 4 24 22 26
REMARK SMILES IDX 19 28
REMARK H PARENT 9 19 11 21 13 23 4 25 22 27 19 29
REMARK Flexibility Score: inf
ROOT
ATOM      1  C   UNL     1     -47.498  23.430   2.421  1.00  0.00     0.180 A 
ATOM      2  C   UNL     1     -46.126  23.157   2.263  1.00  0.00     0.208 A 
ATOM      3  C   UNL     1     -45.516  22.230   3.121  1.00  0.00     0.238 A 
ATOM      4  O   UNL     1     -44.290  21.969   2.982  1.00  0.00    -0.285 OA
ATOM      5  C   UNL     1     -46.278  21.609   4.131  1.00  0.00     0.111 A 
ATOM      6  C   UNL     1     -45.739  20.665   5.040  1.00  0.00     0.134 A 
ATOM      7  C   UNL     1     -46.561  20.097   6.024  1.00  0.00     0.093 A 
ATOM      8  C   UNL     1     -47.908  20.453   6.118  1.00  0.00     0.123 A 
ATOM      9  C   UNL     1     -48.447  21.383   5.224  1.00  0.00     0.094 A 
ATOM     10  C   UNL     1     -47.644  21.959   4.234  1.00  0.00     0.146 A 
ATOM     11  O   UNL     1     -48.183  22.836   3.395  1.00  0.00    -0.452 OA
ENDROOT
BRANCH   1  12
ATOM     12  C   UNL     1     -48.218  24.381   1.543  1.00  0.00     0.029 A 
ATOM     13  C   UNL     1     -48.271  25.738   1.894  1.00  0.00     0.062 A 
ATOM     14  C   UNL     1     -48.960  26.662   1.098  1.00  0.00     0.162 A 
ATOM     15  C   UNL     1     -48.899  23.945   0.396  1.00  0.00     0.062 A 
ATOM     16  C   UNL     1     -49.625  26.218  -0.070  1.00  0.00     0.200 A 
ATOM     17  C   UNL     1     -49.593  24.858  -0.408  1.00  0.00     0.162 A 
BRANCH  14  18
ATOM     18  O   UNL     1     -48.959  27.998   1.504  1.00  0.00    -0.504 OA
ATOM     19  H   UNL     1     -48.563  28.753   0.965  1.00  0.00     0.293 HD
ENDBRANCH  14  18
BRANCH  16  20
ATOM     20  O   UNL     1     -50.325  27.087  -0.910  1.00  0.00    -0.502 OA
ATOM     21  H   UNL     1     -50.201  28.089  -0.918  1.00  0.00     0.293 HD
ENDBRANCH  16  20
BRANCH  17  22
ATOM     22  O   UNL     1     -50.260  24.418  -1.551  1.00  0.00    -0.504 OA
ATOM     23  H   UNL     1     -50.117  23.487  -1.924  1.00  0.00     0.293 HD
ENDBRANCH  17  22
ENDBRANCH   1  12
BRANCH   2  24
ATOM     24  O   UNL     1     -45.382  23.823   1.285  1.00  0.00    -0.502 OA
ATOM     25  H   UNL     1     -44.375  23.739   1.219  1.00  0.00     0.293 HD
ENDBRANCH   2  24
BRANCH   6  26
ATOM     26  O   UNL     1     -44.396  20.290   4.972  1.00  0.00    -0.507 OA
ATOM     27  H   UNL     1     -43.960  20.023   4.096  1.00  0.00     0.293 HD
ENDBRANCH   6  26
BRANCH   8  28
ATOM     28  O   UNL     1     -48.703  19.875   7.105  1.00  0.00    -0.508 OA
ATOM     29  H   UNL     1     -49.714  19.946   7.081  1.00  0.00     0.293 HD
ENDBRANCH   8  28
TORSDOF 7
ENDMDL
MODEL 6
REMARK VINA RESULT:    -4.559     13.478     16.242
REMARK INTER + INTRA:          -5.921
REMARK INTER:                  -5.562
REMARK INTRA:                  -0.359
REMARK UNBOUND:                -0.296
REMARK SMILES O=c1c(O)c(-c2cc(O)c(O)c(O)c2)oc2cc(O)cc(O)c12
REMARK SMILES IDX 5 1 3 2 2 3 1 4 23 5 21 6 20 7 18 8 17 9 16 10 15 11 6 12
REMARK SMILES IDX 7 13 8 14 14 15 10 16 12 17 9 18 11 20 13 22 4 24 22 26
REMARK SMILES IDX 19 28
REMARK H PARENT 9 19 11 21 13 23 4 25 22 27 19 29
REMARK Flexibility Score: inf
ROOT
ATOM      1  C   UNL     1     -48.588  32.452   2.611  1.00  0.00     0.180 A 
ATOM      2  C   UNL     1     -47.694  33.219   3.383  1.00  0.00     0.208 A 
ATOM      3  C   UNL     1     -48.057  34.525   3.741  1.00  0.00     0.238 A 
ATOM      4  O   UNL     1     -47.268  35.218   4.442  1.00  0.00    -0.285 OA
ATOM      5  C   UNL     1     -49.291  35.050   3.308  1.00  0.00     0.111 A 
ATOM      6  C   UNL     1     -49.730  36.360   3.622  1.00  0.00     0.134 A 
ATOM      7  C   UNL     1     -50.969  36.812   3.146  1.00  0.00     0.093 A 
ATOM      8  C   UNL     1     -51.775  35.984   2.362  1.00  0.00     0.123 A 
ATOM      9  C   UNL     1     -51.349  34.690   2.048  1.00  0.00     0.094 A 
ATOM     10  C   UNL     1     -50.117  34.220   2.516  1.00  0.00     0.146 A 
ATOM     11  O   UNL     1     -49.738  32.985   2.208  1.00  0.00    -0.452 OA
ENDROOT
BRANCH   1  12
ATOM     12  C   UNL     1     -48.286  31.059   2.209  1.00  0.00     0.029 A 
ATOM     13  C   UNL     1     -48.641  30.003   3.060  1.00  0.00     0.062 A 
ATOM     14  C   UNL     1     -48.352  28.675   2.721  1.00  0.00     0.162 A 
ATOM     15  C   UNL     1     -47.598  30.775   1.019  1.00  0.00     0.062 A 
ATOM     16  C   UNL     1     -47.679  28.395   1.508  1.00  0.00     0.200 A 
ATOM     17  C   UNL     1     -47.302  29.452   0.667  1.00  0.00     0.162 A 
BRANCH  14  18
ATOM     18  O   UNL     1     -48.747  27.675   3.613  1.00  0.00    -0.504 OA
ATOM     19  H   UNL     1     -48.279  27.478   4.485  1.00  0.00     0.293 HD
ENDBRANCH  14  18
BRANCH  16  20
ATOM     20  O   UNL     1     -47.366  27.094   1.107  1.00  0.00    -0.502 OA
ATOM     21  H   UNL     1     -48.023  26.460   0.678  1.00  0.00     0.293 HD
ENDBRANCH  16  20
BRANCH  17  22
ATOM     22  O   UNL     1     -46.626  29.178  -0.520  1.00  0.00    -0.504 OA
ATOM     23  H   UNL     1     -45.630  29.346  -0.616  1.00  0.00     0.293 HD
ENDBRANCH  17  22
ENDBRANCH   1  12
BRANCH   2  24
ATOM     24  O   UNL     1     -46.455  32.692   3.759  1.00  0.00    -0.502 OA
ATOM     25  H   UNL     1     -46.041  31.893   3.295  1.00  0.00     0.293 HD
ENDBRANCH   2  24
BRANCH   6  26
ATOM     26  O   UNL     1     -48.947  37.211   4.402  1.00  0.00    -0.507 OA
ATOM     27  H   UNL     1     -47.941  37.271   4.282  1.00  0.00     0.293 HD
ENDBRANCH   6  26
BRANCH   8  28
ATOM     28  O   UNL     1     -53.002  36.457   1.900  1.00  0.00    -0.508 OA
ATOM     29  H   UNL     1     -53.779  36.621   2.531  1.00  0.00     0.293 HD
ENDBRANCH   8  28
TORSDOF 7
ENDMDL
MODEL 7
REMARK VINA RESULT:    -4.526     13.527     16.290
REMARK INTER + INTRA:          -5.881
REMARK INTER:                  -5.517
REMARK INTRA:                  -0.364
REMARK UNBOUND:                -0.296
REMARK SMILES O=c1c(O)c(-c2cc(O)c(O)c(O)c2)oc2cc(O)cc(O)c12
REMARK SMILES IDX 5 1 3 2 2 3 1 4 23 5 21 6 20 7 18 8 17 9 16 10 15 11 6 12
REMARK SMILES IDX 7 13 8 14 14 15 10 16 12 17 9 18 11 20 13 22 4 24 22 26
REMARK SMILES IDX 19 28
REMARK H PARENT 9 19 11 21 13 23 4 25 22 27 19 29
REMARK Flexibility Score: inf
ROOT
ATOM      1  C   UNL     1     -48.613  32.320   2.581  1.00  0.00     0.180 A 
ATOM      2  C   UNL     1     -47.745  33.120   3.349  1.00  0.00     0.208 A 
ATOM      3  C   UNL     1     -48.139  34.425   3.678  1.00  0.00     0.238 A 
ATOM      4  O   UNL     1     -47.374  35.147   4.375  1.00  0.00    -0.285 OA
ATOM      5  C   UNL     1     -49.378  34.916   3.220  1.00  0.00     0.111 A 
ATOM      6  C   UNL     1     -49.848  36.221   3.504  1.00  0.00     0.134 A 
ATOM      7  C   UNL     1     -51.090  36.638   3.004  1.00  0.00     0.093 A 
ATOM      8  C   UNL     1     -51.869  35.780   2.226  1.00  0.00     0.123 A 
ATOM      9  C   UNL     1     -51.412  34.489   1.942  1.00  0.00     0.094 A 
ATOM     10  C   UNL     1     -50.177  34.054   2.434  1.00  0.00     0.146 A 
ATOM     11  O   UNL     1     -49.768  32.821   2.153  1.00  0.00    -0.452 OA
ENDROOT
BRANCH   1  12
ATOM     12  C   UNL     1     -48.277  30.927   2.209  1.00  0.00     0.029 A 
ATOM     13  C   UNL     1     -47.589  30.679   1.013  1.00  0.00     0.062 A 
ATOM     14  C   UNL     1     -47.273  29.372   0.619  1.00  0.00     0.162 A 
ATOM     15  C   UNL     1     -48.683  29.841   3.000  1.00  0.00     0.062 A 
ATOM     16  C   UNL     1     -47.667  28.284   1.434  1.00  0.00     0.200 A 
ATOM     17  C   UNL     1     -48.375  28.529   2.619  1.00  0.00     0.162 A 
BRANCH  14  18
ATOM     18  O   UNL     1     -46.577  29.204  -0.579  1.00  0.00    -0.504 OA
ATOM     19  H   UNL     1     -46.739  29.755  -1.410  1.00  0.00     0.293 HD
ENDBRANCH  14  18
BRANCH  16  20
ATOM     20  O   UNL     1     -47.379  26.958   1.104  1.00  0.00    -0.502 OA
ATOM     21  H   UNL     1     -47.041  26.270   1.761  1.00  0.00     0.293 HD
ENDBRANCH  16  20
BRANCH  17  22
ATOM     22  O   UNL     1     -48.775  27.456   3.414  1.00  0.00    -0.504 OA
ATOM     23  H   UNL     1     -48.652  26.496   3.113  1.00  0.00     0.293 HD
ENDBRANCH  17  22
ENDBRANCH   1  12
BRANCH   2  24
ATOM     24  O   UNL     1     -46.500  32.627   3.750  1.00  0.00    -0.502 OA
ATOM     25  H   UNL     1     -45.758  33.230   4.082  1.00  0.00     0.293 HD
ENDBRANCH   2  24
BRANCH   6  26
ATOM     26  O   UNL     1     -49.093  37.103   4.277  1.00  0.00    -0.507 OA
ATOM     27  H   UNL     1     -49.413  37.429   5.183  1.00  0.00     0.293 HD
ENDBRANCH   6  26
BRANCH   8  28
ATOM     28  O   UNL     1     -53.099  36.219   1.740  1.00  0.00    -0.508 OA
ATOM     29  H   UNL     1     -53.916  35.618   1.743  1.00  0.00     0.293 HD
ENDBRANCH   8  28
TORSDOF 7
ENDMDL
MODEL 8
REMARK VINA RESULT:    -4.403     13.733     15.552
REMARK INTER + INTRA:          -5.729
REMARK INTER:                  -5.402
REMARK INTRA:                  -0.327
REMARK UNBOUND:                -0.296
REMARK SMILES O=c1c(O)c(-c2cc(O)c(O)c(O)c2)oc2cc(O)cc(O)c12
REMARK SMILES IDX 5 1 3 2 2 3 1 4 23 5 21 6 20 7 18 8 17 9 16 10 15 11 6 12
REMARK SMILES IDX 7 13 8 14 14 15 10 16 12 17 9 18 11 20 13 22 4 24 22 26
REMARK SMILES IDX 19 28
REMARK H PARENT 9 19 11 21 13 23 4 25 22 27 19 29
REMARK Flexibility Score: inf
ROOT
ATOM      1  C   UNL     1     -48.693  32.522   2.616  1.00  0.00     0.180 A 
ATOM      2  C   UNL     1     -47.897  33.014   1.564  1.00  0.00     0.208 A 
ATOM      3  C   UNL     1     -47.395  34.321   1.648  1.00  0.00     0.238 A 
ATOM      4  O   UNL     1     -46.672  34.769   0.716  1.00  0.00    -0.285 OA
ATOM      5  C   UNL     1     -47.712  35.119   2.766  1.00  0.00     0.111 A 
ATOM      6  C   UNL     1     -47.248  36.448   2.926  1.00  0.00     0.134 A 
ATOM      7  C   UNL     1     -47.615  37.180   4.065  1.00  0.00     0.093 A 
ATOM      8  C   UNL     1     -48.433  36.613   5.043  1.00  0.00     0.123 A 
ATOM      9  C   UNL     1     -48.893  35.301   4.892  1.00  0.00     0.094 A 
ATOM     10  C   UNL     1     -48.537  34.553   3.765  1.00  0.00     0.146 A 
ATOM     11  O   UNL     1     -48.983  33.308   3.649  1.00  0.00    -0.452 OA
ENDROOT
BRANCH   1  12
ATOM     12  C   UNL     1     -49.244  31.147   2.610  1.00  0.00     0.029 A 
ATOM     13  C   UNL     1     -48.414  30.069   2.949  1.00  0.00     0.062 A 
ATOM     14  C   UNL     1     -48.896  28.755   2.933  1.00  0.00     0.162 A 
ATOM     15  C   UNL     1     -50.567  30.892   2.215  1.00  0.00     0.062 A 
ATOM     16  C   UNL     1     -50.238  28.508   2.557  1.00  0.00     0.200 A 
ATOM     17  C   UNL     1     -51.062  29.582   2.195  1.00  0.00     0.162 A 
BRANCH  14  18
ATOM     18  O   UNL     1     -48.014  27.734   3.294  1.00  0.00    -0.504 OA
ATOM     19  H   UNL     1     -47.151  27.883   3.797  1.00  0.00     0.293 HD
ENDBRANCH  14  18
BRANCH  16  20
ATOM     20  O   UNL     1     -50.783  27.222   2.525  1.00  0.00    -0.502 OA
ATOM     21  H   UNL     1     -51.691  26.983   2.897  1.00  0.00     0.293 HD
ENDBRANCH  16  20
BRANCH  17  22
ATOM     22  O   UNL     1     -52.380  29.338   1.809  1.00  0.00    -0.504 OA
ATOM     23  H   UNL     1     -52.958  30.065   1.403  1.00  0.00     0.293 HD
ENDBRANCH  17  22
ENDBRANCH   1  12
BRANCH   2  24
ATOM     24  O   UNL     1     -47.639  32.219   0.443  1.00  0.00    -0.502 OA
ATOM     25  H   UNL     1     -46.832  32.365  -0.150  1.00  0.00     0.293 HD
ENDBRANCH   2  24
BRANCH   6  26
ATOM     26  O   UNL     1     -46.431  37.043   1.965  1.00  0.00    -0.507 OA
ATOM     27  H   UNL     1     -45.897  37.882   2.163  1.00  0.00     0.293 HD
ENDBRANCH   6  26
BRANCH   8  28
ATOM     28  O   UNL     1     -48.782  37.362   6.164  1.00  0.00    -0.508 OA
ATOM     29  H   UNL     1     -48.385  38.280   6.334  1.00  0.00     0.293 HD
ENDBRANCH   8  28
TORSDOF 7
ENDMDL
MODEL 9
REMARK VINA RESULT:    -4.382     13.364     14.886
REMARK INTER + INTRA:          -5.703
REMARK INTER:                  -5.345
REMARK INTRA:                  -0.358
REMARK UNBOUND:                -0.296
REMARK SMILES O=c1c(O)c(-c2cc(O)c(O)c(O)c2)oc2cc(O)cc(O)c12
REMARK SMILES IDX 5 1 3 2 2 3 1 4 23 5 21 6 20 7 18 8 17 9 16 10 15 11 6 12
REMARK SMILES IDX 7 13 8 14 14 15 10 16 12 17 9 18 11 20 13 22 4 24 22 26
REMARK SMILES IDX 19 28
REMARK H PARENT 9 19 11 21 13 23 4 25 22 27 19 29
REMARK Flexibility Score: inf
ROOT
ATOM      1  C   UNL     1     -48.038  31.347   1.873  1.00  0.00     0.180 A 
ATOM      2  C   UNL     1     -47.291  31.268   0.682  1.00  0.00     0.208 A 
ATOM      3  C   UNL     1     -46.991  30.004   0.152  1.00  0.00     0.238 A 
ATOM      4  O   UNL     1     -46.332  29.921  -0.920  1.00  0.00    -0.285 OA
ATOM      5  C   UNL     1     -47.422  28.845   0.828  1.00  0.00     0.111 A 
ATOM      6  C   UNL     1     -47.159  27.533   0.363  1.00  0.00     0.134 A 
ATOM      7  C   UNL     1     -47.615  26.429   1.098  1.00  0.00     0.093 A 
ATOM      8  C   UNL     1     -48.326  26.609   2.286  1.00  0.00     0.123 A 
ATOM      9  C   UNL     1     -48.591  27.901   2.751  1.00  0.00     0.094 A 
ATOM     10  C   UNL     1     -48.146  29.015   2.031  1.00  0.00     0.146 A 
ATOM     11  O   UNL     1     -48.415  30.231   2.492  1.00  0.00    -0.452 OA
ENDROOT
BRANCH   1  12
ATOM     12  C   UNL     1     -48.410  32.643   2.485  1.00  0.00     0.029 A 
ATOM     13  C   UNL     1     -47.529  33.261   3.383  1.00  0.00     0.062 A 
ATOM     14  C   UNL     1     -47.857  34.476   3.996  1.00  0.00     0.162 A 
ATOM     15  C   UNL     1     -49.654  33.241   2.229  1.00  0.00     0.062 A 
ATOM     16  C   UNL     1     -49.104  35.085   3.715  1.00  0.00     0.200 A 
ATOM     17  C   UNL     1     -49.996  34.457   2.835  1.00  0.00     0.162 A 
BRANCH  14  18
ATOM     18  O   UNL     1     -46.924  35.037   4.871  1.00  0.00    -0.504 OA
ATOM     19  H   UNL     1     -45.930  35.064   4.697  1.00  0.00     0.293 HD
ENDBRANCH  14  18
BRANCH  16  20
ATOM     20  O   UNL     1     -49.491  36.299   4.287  1.00  0.00    -0.502 OA
ATOM     21  H   UNL     1     -50.100  36.968   3.839  1.00  0.00     0.293 HD
ENDBRANCH  16  20
BRANCH  17  22
ATOM     22  O   UNL     1     -51.230  35.049   2.569  1.00  0.00    -0.504 OA
ATOM     23  H   UNL     1     -52.027  34.914   3.182  1.00  0.00     0.293 HD
ENDBRANCH  17  22
ENDBRANCH   1  12
BRANCH   2  24
ATOM     24  O   UNL     1     -46.833  32.432   0.057  1.00  0.00    -0.502 OA
ATOM     25  H   UNL     1     -46.792  33.323   0.535  1.00  0.00     0.293 HD
ENDBRANCH   2  24
BRANCH   6  26
ATOM     26  O   UNL     1     -46.450  27.320  -0.819  1.00  0.00    -0.507 OA
ATOM     27  H   UNL     1     -45.782  26.563  -0.913  1.00  0.00     0.293 HD
ENDBRANCH   6  26
BRANCH   8  28
ATOM     28  O   UNL     1     -48.767  25.496   2.998  1.00  0.00    -0.508 OA
ATOM     29  H   UNL     1     -49.746  25.367   3.228  1.00  0.00     0.293 HD
ENDBRANCH   8  28
TORSDOF 7
ENDMDL
