MODEL 1
REMARK VINA RESULT:    -5.569      0.000      0.000
REMARK INTER + INTRA:         -12.090
REMARK INTER:                 -10.126
REMARK INTRA:                  -1.964
REMARK UNBOUND:                -1.964
REMARK SMILES CCCCCCCCCCCCCCCC(=O)[O-]
REMARK SMILES IDX 9 1 10 2 11 3 12 4 13 5 14 6 15 7 16 8 17 9 18 10 8 11 7 12
REMARK SMILES IDX 6 13 5 14 4 15 3 16 2 17 1 18
REMARK H PARENT
REMARK Flexibility Score: inf
ROOT
ATOM      1  C   UNL     1     -32.053  13.199  55.747  1.00  0.00     0.000 C 
ENDROOT
BRANCH   1   2
ATOM      2  C   UNL     1     -32.354  14.702  55.913  1.00  0.00     0.000 C 
BRANCH   2   3
ATOM      3  C   UNL     1     -32.296  15.224  57.363  1.00  0.00     0.000 C 
BRANCH   3   4
ATOM      4  C   UNL     1     -31.641  16.609  57.528  1.00  0.00     0.000 C 
BRANCH   4   5
ATOM      5  C   UNL     1     -30.932  17.149  56.271  1.00  0.00     0.000 C 
BRANCH   5   6
ATOM      6  C   UNL     1     -29.569  17.823  56.528  1.00  0.00     0.006 C 
BRANCH   6   7
ATOM      7  C   UNL     1     -28.596  16.987  57.376  1.00  0.00     0.053 C 
BRANCH   7   8
ATOM      8  C   UNL     1     -27.167  17.262  57.020  1.00  0.00     0.041 C 
ATOM      9  O   UNL     1     -26.263  17.150  57.889  1.00  0.00    -0.550 OA
ATOM     10  O   UNL     1     -26.839  17.674  55.734  1.00  0.00    -0.550 OA
ENDBRANCH   7   8
ENDBRANCH   6   7
ENDBRANCH   5   6
ENDBRANCH   4   5
ENDBRANCH   3   4
ENDBRANCH   2   3
ENDBRANCH   1   2
BRANCH   1  11
ATOM     11  C   UNL     1     -32.330  12.342  56.995  1.00  0.00     0.000 C 
BRANCH  11  12
ATOM     12  C   UNL     1     -33.367  11.234  56.739  1.00  0.00    -0.000 C 
BRANCH  12  13
ATOM     13  C   UNL     1     -34.599  11.362  57.649  1.00  0.00    -0.000 C 
BRANCH  13  14
ATOM     14  C   UNL     1     -34.438  12.468  58.707  1.00  0.00    -0.000 C 
BRANCH  14  15
ATOM     15  C   UNL     1     -35.387  13.654  58.469  1.00  0.00    -0.000 C 
BRANCH  15  16
ATOM     16  C   UNL     1     -36.377  13.398  57.325  1.00  0.00    -0.000 C 
BRANCH  16  17
ATOM     17  C   UNL     1     -36.071  14.300  56.123  1.00  0.00    -0.003 C 
ATOM     18  C   UNL     1     -35.780  13.474  54.873  1.00  0.00     0.004 C 
ENDBRANCH  16  17
ENDBRANCH  15  16
ENDBRANCH  14  15
ENDBRANCH  13  14
ENDBRANCH  12  13
ENDBRANCH  11  12
ENDBRANCH   1  11
TORSDOF 14
ENDMDL
MODEL 2
REMARK VINA RESULT:    -5.520      2.188      3.426
REMARK INTER + INTRA:         -12.001
REMARK INTER:                  -9.995
REMARK INTRA:                  -2.006
REMARK UNBOUND:                -1.964
REMARK SMILES CCCCCCCCCCCCCCCC(=O)[O-]
REMARK SMILES IDX 9 1 10 2 11 3 12 4 13 5 14 6 15 7 16 8 17 9 18 10 8 11 7 12
REMARK SMILES IDX 6 13 5 14 4 15 3 16 2 17 1 18
REMARK H PARENT
REMARK Flexibility Score: inf
ROOT
ATOM      1  C   UNL     1     -34.657  14.468  55.125  1.00  0.00     0.000 C 
ENDROOT
BRANCH   1   2
ATOM      2  C   UNL     1     -34.731  15.772  55.945  1.00  0.00     0.000 C 
BRANCH   2   3
ATOM      3  C   UNL     1     -33.505  16.052  56.837  1.00  0.00     0.000 C 
BRANCH   3   4
ATOM      4  C   UNL     1     -32.144  15.723  56.192  1.00  0.00     0.000 C 
BRANCH   4   5
ATOM      5  C   UNL     1     -30.916  16.256  56.956  1.00  0.00     0.000 C 
BRANCH   5   6
ATOM      6  C   UNL     1     -31.146  17.571  57.727  1.00  0.00     0.006 C 
BRANCH   6   7
ATOM      7  C   UNL     1     -30.202  18.716  57.327  1.00  0.00     0.053 C 
BRANCH   7   8
ATOM      8  C   UNL     1     -30.520  19.984  58.059  1.00  0.00     0.041 C 
ATOM      9  O   UNL     1     -30.868  21.014  57.423  1.00  0.00    -0.550 OA
ATOM     10  O   UNL     1     -30.401  20.036  59.442  1.00  0.00    -0.550 OA
ENDBRANCH   7   8
ENDBRANCH   6   7
ENDBRANCH   5   6
ENDBRANCH   4   5
ENDBRANCH   3   4
ENDBRANCH   2   3
ENDBRANCH   1   2
BRANCH   1  11
ATOM     11  C   UNL     1     -35.890  13.554  55.249  1.00  0.00     0.000 C 
BRANCH  11  12
ATOM     12  C   UNL     1     -36.738  13.865  56.494  1.00  0.00    -0.000 C 
BRANCH  12  13
ATOM     13  C   UNL     1     -36.541  12.831  57.613  1.00  0.00    -0.000 C 
BRANCH  13  14
ATOM     14  C   UNL     1     -35.537  13.301  58.680  1.00  0.00    -0.000 C 
BRANCH  14  15
ATOM     15  C   UNL     1     -34.117  12.767  58.432  1.00  0.00    -0.000 C 
BRANCH  15  16
ATOM     16  C   UNL     1     -34.114  11.346  57.850  1.00  0.00    -0.000 C 
BRANCH  16  17
ATOM     17  C   UNL     1     -33.248  11.273  56.586  1.00  0.00    -0.003 C 
ATOM     18  C   UNL     1     -32.047  12.209  56.687  1.00  0.00     0.004 C 
ENDBRANCH  16  17
ENDBRANCH  15  16
ENDBRANCH  14  15
ENDBRANCH  13  14
ENDBRANCH  12  13
ENDBRANCH  11  12
ENDBRANCH   1  11
TORSDOF 14
ENDMDL
MODEL 3
REMARK VINA RESULT:    -5.468      1.131      2.816
REMARK INTER + INTRA:         -11.908
REMARK INTER:                 -10.108
REMARK INTRA:                  -1.799
REMARK UNBOUND:                -1.964
REMARK SMILES CCCCCCCCCCCCCCCC(=O)[O-]
REMARK SMILES IDX 9 1 10 2 11 3 12 4 13 5 14 6 15 7 16 8 17 9 18 10 8 11 7 12
REMARK SMILES IDX 6 13 5 14 4 15 3 16 2 17 1 18
REMARK H PARENT
REMARK Flexibility Score: inf
ROOT
ATOM      1  C   UNL     1     -34.206  14.980  59.169  1.00  0.00     0.000 C 
ENDROOT
BRANCH   1   2
ATOM      2  C   UNL     1     -32.938  15.270  58.341  1.00  0.00     0.000 C 
BRANCH   2   3
ATOM      3  C   UNL     1     -33.164  16.124  57.078  1.00  0.00     0.000 C 
BRANCH   3   4
ATOM      4  C   UNL     1     -31.894  16.409  56.251  1.00  0.00     0.000 C 
BRANCH   4   5
ATOM      5  C   UNL     1     -30.569  16.285  57.029  1.00  0.00     0.000 C 
BRANCH   5   6
ATOM      6  C   UNL     1     -29.648  17.520  56.952  1.00  0.00     0.006 C 
BRANCH   6   7
ATOM      7  C   UNL     1     -28.492  17.514  57.965  1.00  0.00     0.053 C 
BRANCH   7   8
ATOM      8  C   UNL     1     -27.170  17.279  57.301  1.00  0.00     0.041 C 
ATOM      9  O   UNL     1     -26.194  16.842  57.966  1.00  0.00    -0.550 OA
ATOM     10  O   UNL     1     -27.007  17.576  55.953  1.00  0.00    -0.550 OA
ENDBRANCH   7   8
ENDBRANCH   6   7
ENDBRANCH   5   6
ENDBRANCH   4   5
ENDBRANCH   3   4
ENDBRANCH   2   3
ENDBRANCH   1   2
BRANCH   1  11
ATOM     11  C   UNL     1     -34.803  13.576  58.969  1.00  0.00     0.000 C 
BRANCH  11  12
ATOM     12  C   UNL     1     -36.141  13.600  58.209  1.00  0.00    -0.000 C 
BRANCH  12  13
ATOM     13  C   UNL     1     -35.951  13.728  56.690  1.00  0.00    -0.000 C 
BRANCH  13  14
ATOM     14  C   UNL     1     -36.123  12.385  55.958  1.00  0.00    -0.000 C 
BRANCH  14  15
ATOM     15  C   UNL     1     -34.778  11.725  55.612  1.00  0.00    -0.000 C 
BRANCH  15  16
ATOM     16  C   UNL     1     -33.606  12.716  55.648  1.00  0.00    -0.000 C 
BRANCH  16  17
ATOM     17  C   UNL     1     -32.444  12.162  56.481  1.00  0.00    -0.003 C 
ATOM     18  C   UNL     1     -31.100  12.486  55.835  1.00  0.00     0.004 C 
ENDBRANCH  16  17
ENDBRANCH  15  16
ENDBRANCH  14  15
ENDBRANCH  13  14
ENDBRANCH  12  13
ENDBRANCH  11  12
ENDBRANCH   1  11
TORSDOF 14
ENDMDL
MODEL 4
REMARK VINA RESULT:    -5.458      2.272      3.506
REMARK INTER + INTRA:         -11.889
REMARK INTER:                  -9.987
REMARK INTRA:                  -1.901
REMARK UNBOUND:                -1.964
REMARK SMILES CCCCCCCCCCCCCCCC(=O)[O-]
REMARK SMILES IDX 9 1 10 2 11 3 12 4 13 5 14 6 15 7 16 8 17 9 18 10 8 11 7 12
REMARK SMILES IDX 6 13 5 14 4 15 3 16 2 17 1 18
REMARK H PARENT
REMARK Flexibility Score: inf
ROOT
ATOM      1  C   UNL     1     -33.346  15.090  58.497  1.00  0.00     0.000 C 
ENDROOT
BRANCH   1   2
ATOM      2  C   UNL     1     -33.795  15.961  57.307  1.00  0.00     0.000 C 
BRANCH   2   3
ATOM      3  C   UNL     1     -32.852  15.939  56.088  1.00  0.00     0.000 C 
BRANCH   3   4
ATOM      4  C   UNL     1     -31.349  15.989  56.429  1.00  0.00     0.000 C 
BRANCH   4   5
ATOM      5  C   UNL     1     -30.725  17.398  56.414  1.00  0.00     0.000 C 
BRANCH   5   6
ATOM      6  C   UNL     1     -30.601  18.072  57.796  1.00  0.00     0.006 C 
BRANCH   6   7
ATOM      7  C   UNL     1     -30.673  19.607  57.762  1.00  0.00     0.053 C 
BRANCH   7   8
ATOM      8  C   UNL     1     -30.034  20.222  58.970  1.00  0.00     0.041 C 
ATOM      9  O   UNL     1     -30.422  21.343  59.392  1.00  0.00    -0.550 OA
ATOM     10  O   UNL     1     -28.988  19.570  59.611  1.00  0.00    -0.550 OA
ENDBRANCH   7   8
ENDBRANCH   6   7
ENDBRANCH   5   6
ENDBRANCH   4   5
ENDBRANCH   3   4
ENDBRANCH   2   3
ENDBRANCH   1   2
BRANCH   1  11
ATOM     11  C   UNL     1     -34.488  14.576  59.391  1.00  0.00     0.000 C 
BRANCH  11  12
ATOM     12  C   UNL     1     -35.066  13.235  58.908  1.00  0.00    -0.000 C 
BRANCH  12  13
ATOM     13  C   UNL     1     -36.265  13.417  57.965  1.00  0.00    -0.000 C 
BRANCH  13  14
ATOM     14  C   UNL     1     -35.946  13.001  56.518  1.00  0.00    -0.000 C 
BRANCH  14  15
ATOM     15  C   UNL     1     -34.913  11.864  56.445  1.00  0.00    -0.000 C 
BRANCH  15  16
ATOM     16  C   UNL     1     -33.622  12.285  55.728  1.00  0.00    -0.000 C 
BRANCH  16  17
ATOM     17  C   UNL     1     -32.395  12.020  56.609  1.00  0.00    -0.003 C 
ATOM     18  C   UNL     1     -31.103  12.348  55.866  1.00  0.00     0.004 C 
ENDBRANCH  16  17
ENDBRANCH  15  16
ENDBRANCH  14  15
ENDBRANCH  13  14
ENDBRANCH  12  13
ENDBRANCH  11  12
ENDBRANCH   1  11
TORSDOF 14
ENDMDL
MODEL 5
REMARK VINA RESULT:    -5.449      2.029      2.432
REMARK INTER + INTRA:         -11.873
REMARK INTER:                 -10.010
REMARK INTRA:                  -1.863
REMARK UNBOUND:                -1.964
REMARK SMILES CCCCCCCCCCCCCCCC(=O)[O-]
REMARK SMILES IDX 9 1 10 2 11 3 12 4 13 5 14 6 15 7 16 8 17 9 18 10 8 11 7 12
REMARK SMILES IDX 6 13 5 14 4 15 3 16 2 17 1 18
REMARK H PARENT
REMARK Flexibility Score: inf
ROOT
ATOM      1  C   UNL     1     -32.217  12.861  56.999  1.00  0.00     0.000 C 
ENDROOT
BRANCH   1   2
ATOM      2  C   UNL     1     -32.081  13.815  55.794  1.00  0.00     0.000 C 
BRANCH   2   3
ATOM      3  C   UNL     1     -32.402  15.293  56.092  1.00  0.00     0.000 C 
BRANCH   3   4
ATOM      4  C   UNL     1     -31.797  15.837  57.401  1.00  0.00     0.000 C 
BRANCH   4   5
ATOM      5  C   UNL     1     -31.177  17.245  57.296  1.00  0.00     0.000 C 
BRANCH   5   6
ATOM      6  C   UNL     1     -30.509  17.565  55.943  1.00  0.00     0.006 C 
BRANCH   6   7
ATOM      7  C   UNL     1     -29.528  18.747  55.983  1.00  0.00     0.053 C 
BRANCH   7   8
ATOM      8  C   UNL     1     -29.940  19.847  55.053  1.00  0.00     0.041 C 
ATOM      9  O   UNL     1     -29.881  19.680  53.806  1.00  0.00    -0.550 OA
ATOM     10  O   UNL     1     -30.358  21.069  55.565  1.00  0.00    -0.550 OA
ENDBRANCH   7   8
ENDBRANCH   6   7
ENDBRANCH   5   6
ENDBRANCH   4   5
ENDBRANCH   3   4
ENDBRANCH   2   3
ENDBRANCH   1   2
BRANCH   1  11
ATOM     11  C   UNL     1     -32.963  11.548  56.704  1.00  0.00     0.000 C 
BRANCH  11  12
ATOM     12  C   UNL     1     -34.153  11.314  57.651  1.00  0.00    -0.000 C 
BRANCH  12  13
ATOM     13  C   UNL     1     -34.506  12.564  58.472  1.00  0.00    -0.000 C 
BRANCH  13  14
ATOM     14  C   UNL     1     -36.023  12.799  58.565  1.00  0.00    -0.000 C 
BRANCH  14  15
ATOM     15  C   UNL     1     -36.649  13.161  57.208  1.00  0.00    -0.000 C 
BRANCH  15  16
ATOM     16  C   UNL     1     -35.901  14.297  56.497  1.00  0.00    -0.000 C 
BRANCH  16  17
ATOM     17  C   UNL     1     -35.727  13.989  55.005  1.00  0.00    -0.003 C 
ATOM     18  C   UNL     1     -36.095  12.541  54.694  1.00  0.00     0.004 C 
ENDBRANCH  16  17
ENDBRANCH  15  16
ENDBRANCH  14  15
ENDBRANCH  13  14
ENDBRANCH  12  13
ENDBRANCH  11  12
ENDBRANCH   1  11
TORSDOF 14
ENDMDL
MODEL 6
REMARK VINA RESULT:    -5.438      0.976      2.479
REMARK INTER + INTRA:         -11.853
REMARK INTER:                  -9.969
REMARK INTRA:                  -1.884
REMARK UNBOUND:                -1.964
REMARK SMILES CCCCCCCCCCCCCCCC(=O)[O-]
REMARK SMILES IDX 9 1 10 2 11 3 12 4 13 5 14 6 15 7 16 8 17 9 18 10 8 11 7 12
REMARK SMILES IDX 6 13 5 14 4 15 3 16 2 17 1 18
REMARK H PARENT
REMARK Flexibility Score: inf
ROOT
ATOM      1  C   UNL     1     -34.471  15.174  55.159  1.00  0.00     0.000 C 
ENDROOT
BRANCH   1   2
ATOM      2  C   UNL     1     -34.397  16.000  56.459  1.00  0.00     0.000 C 
BRANCH   2   3
ATOM      3  C   UNL     1     -33.022  16.000  57.156  1.00  0.00     0.000 C 
BRANCH   3   4
ATOM      4  C   UNL     1     -31.811  15.988  56.202  1.00  0.00     0.000 C 
BRANCH   4   5
ATOM      5  C   UNL     1     -30.796  17.126  56.425  1.00  0.00     0.000 C 
BRANCH   5   6
ATOM      6  C   UNL     1     -29.663  16.805  57.421  1.00  0.00     0.006 C 
BRANCH   6   7
ATOM      7  C   UNL     1     -28.609  17.914  57.564  1.00  0.00     0.053 C 
BRANCH   7   8
ATOM      8  C   UNL     1     -27.274  17.487  57.035  1.00  0.00     0.041 C 
ATOM      9  O   UNL     1     -26.414  16.988  57.808  1.00  0.00    -0.550 OA
ATOM     10  O   UNL     1     -26.968  17.671  55.692  1.00  0.00    -0.550 OA
ENDBRANCH   7   8
ENDBRANCH   6   7
ENDBRANCH   5   6
ENDBRANCH   4   5
ENDBRANCH   3   4
ENDBRANCH   2   3
ENDBRANCH   1   2
BRANCH   1  11
ATOM     11  C   UNL     1     -35.372  13.928  55.234  1.00  0.00     0.000 C 
BRANCH  11  12
ATOM     12  C   UNL     1     -36.481  14.058  56.292  1.00  0.00    -0.000 C 
BRANCH  12  13
ATOM     13  C   UNL     1     -36.439  12.925  57.329  1.00  0.00    -0.000 C 
BRANCH  13  14
ATOM     14  C   UNL     1     -35.559  13.270  58.544  1.00  0.00    -0.000 C 
BRANCH  14  15
ATOM     15  C   UNL     1     -34.176  12.603  58.479  1.00  0.00    -0.000 C 
BRANCH  15  16
ATOM     16  C   UNL     1     -34.202  11.258  57.738  1.00  0.00    -0.000 C 
BRANCH  16  17
ATOM     17  C   UNL     1     -33.160  11.231  56.614  1.00  0.00    -0.003 C 
ATOM     18  C   UNL     1     -32.205  12.418  56.719  1.00  0.00     0.004 C 
ENDBRANCH  16  17
ENDBRANCH  15  16
ENDBRANCH  14  15
ENDBRANCH  13  14
ENDBRANCH  12  13
ENDBRANCH  11  12
ENDBRANCH   1  11
TORSDOF 14
ENDMDL
MODEL 7
REMARK VINA RESULT:    -5.419      1.748      3.463
REMARK INTER + INTRA:         -11.819
REMARK INTER:                  -9.859
REMARK INTRA:                  -1.960
REMARK UNBOUND:                -1.964
REMARK SMILES CCCCCCCCCCCCCCCC(=O)[O-]
REMARK SMILES IDX 9 1 10 2 11 3 12 4 13 5 14 6 15 7 16 8 17 9 18 10 8 11 7 12
REMARK SMILES IDX 6 13 5 14 4 15 3 16 2 17 1 18
REMARK H PARENT
REMARK Flexibility Score: inf
ROOT
ATOM      1  C   UNL     1     -35.463  13.495  59.211  1.00  0.00     0.000 C 
ENDROOT
BRANCH   1   2
ATOM      2  C   UNL     1     -34.499  14.640  58.840  1.00  0.00     0.000 C 
BRANCH   2   3
ATOM      3  C   UNL     1     -34.509  15.047  57.353  1.00  0.00     0.000 C 
BRANCH   3   4
ATOM      4  C   UNL     1     -33.472  16.120  56.966  1.00  0.00     0.000 C 
BRANCH   4   5
ATOM      5  C   UNL     1     -32.154  16.069  57.765  1.00  0.00     0.000 C 
BRANCH   5   6
ATOM      6  C   UNL     1     -30.872  16.197  56.918  1.00  0.00     0.006 C 
BRANCH   6   7
ATOM      7  C   UNL     1     -30.713  17.549  56.206  1.00  0.00     0.053 C 
BRANCH   7   8
ATOM      8  C   UNL     1     -29.923  18.523  57.026  1.00  0.00     0.041 C 
ATOM      9  O   UNL     1     -30.287  18.810  58.196  1.00  0.00    -0.550 OA
ATOM     10  O   UNL     1     -28.800  19.137  56.484  1.00  0.00    -0.550 OA
ENDBRANCH   7   8
ENDBRANCH   6   7
ENDBRANCH   5   6
ENDBRANCH   4   5
ENDBRANCH   3   4
ENDBRANCH   2   3
ENDBRANCH   1   2
BRANCH   1  11
ATOM     11  C   UNL     1     -36.708  13.381  58.313  1.00  0.00     0.000 C 
BRANCH  11  12
ATOM     12  C   UNL     1     -37.075  11.923  57.987  1.00  0.00    -0.000 C 
BRANCH  12  13
ATOM     13  C   UNL     1     -35.983  11.211  57.173  1.00  0.00    -0.000 C 
BRANCH  13  14
ATOM     14  C   UNL     1     -35.746  11.869  55.802  1.00  0.00    -0.000 C 
BRANCH  14  15
ATOM     15  C   UNL     1     -34.253  12.017  55.468  1.00  0.00    -0.000 C 
BRANCH  15  16
ATOM     16  C   UNL     1     -33.343  11.429  56.556  1.00  0.00    -0.000 C 
BRANCH  16  17
ATOM     17  C   UNL     1     -32.204  12.395  56.901  1.00  0.00    -0.003 C 
ATOM     18  C   UNL     1     -31.136  12.399  55.810  1.00  0.00     0.004 C 
ENDBRANCH  16  17
ENDBRANCH  15  16
ENDBRANCH  14  15
ENDBRANCH  13  14
ENDBRANCH  12  13
ENDBRANCH  11  12
ENDBRANCH   1  11
TORSDOF 14
ENDMDL
MODEL 8
REMARK VINA RESULT:    -5.388      1.962      2.796
REMARK INTER + INTRA:         -11.762
REMARK INTER:                 -10.116
REMARK INTRA:                  -1.646
REMARK UNBOUND:                -1.964
REMARK SMILES CCCCCCCCCCCCCCCC(=O)[O-]
REMARK SMILES IDX 9 1 10 2 11 3 12 4 13 5 14 6 15 7 16 8 17 9 18 10 8 11 7 12
REMARK SMILES IDX 6 13 5 14 4 15 3 16 2 17 1 18
REMARK H PARENT
REMARK Flexibility Score: inf
ROOT
ATOM      1  C   UNL     1     -33.029  15.216  58.750  1.00  0.00     0.000 C 
ENDROOT
BRANCH   1   2
ATOM      2  C   UNL     1     -32.375  14.459  57.576  1.00  0.00     0.000 C 
BRANCH   2   3
ATOM      3  C   UNL     1     -31.586  15.340  56.588  1.00  0.00     0.000 C 
BRANCH   3   4
ATOM      4  C   UNL     1     -31.878  16.850  56.690  1.00  0.00     0.000 C 
BRANCH   4   5
ATOM      5  C   UNL     1     -30.750  17.691  57.319  1.00  0.00     0.000 C 
BRANCH   5   6
ATOM      6  C   UNL     1     -29.426  17.704  56.528  1.00  0.00     0.006 C 
BRANCH   6   7
ATOM      7  C   UNL     1     -29.436  18.610  55.287  1.00  0.00     0.053 C 
BRANCH   7   8
ATOM      8  C   UNL     1     -29.265  20.054  55.648  1.00  0.00     0.041 C 
ATOM      9  O   UNL     1     -28.196  20.453  56.182  1.00  0.00    -0.550 OA
ATOM     10  O   UNL     1     -30.300  20.954  55.425  1.00  0.00    -0.550 OA
ENDBRANCH   7   8
ENDBRANCH   6   7
ENDBRANCH   5   6
ENDBRANCH   4   5
ENDBRANCH   3   4
ENDBRANCH   2   3
ENDBRANCH   1   2
BRANCH   1  11
ATOM     11  C   UNL     1     -34.494  14.838  59.029  1.00  0.00     0.000 C 
BRANCH  11  12
ATOM     12  C   UNL     1     -34.756  13.328  58.890  1.00  0.00    -0.000 C 
BRANCH  12  13
ATOM     13  C   UNL     1     -36.221  12.957  59.172  1.00  0.00    -0.000 C 
BRANCH  13  14
ATOM     14  C   UNL     1     -37.125  13.152  57.943  1.00  0.00    -0.000 C 
BRANCH  14  15
ATOM     15  C   UNL     1     -36.425  12.769  56.628  1.00  0.00    -0.000 C 
BRANCH  15  16
ATOM     16  C   UNL     1     -36.453  13.902  55.592  1.00  0.00    -0.000 C 
BRANCH  16  17
ATOM     17  C   UNL     1     -35.033  14.290  55.165  1.00  0.00    -0.003 C 
ATOM     18  C   UNL     1     -34.932  15.786  54.883  1.00  0.00     0.004 C 
ENDBRANCH  16  17
ENDBRANCH  15  16
ENDBRANCH  14  15
ENDBRANCH  13  14
ENDBRANCH  12  13
ENDBRANCH  11  12
ENDBRANCH   1  11
TORSDOF 14
ENDMDL
MODEL 9
REMARK VINA RESULT:    -5.332      2.277      3.428
REMARK INTER + INTRA:         -11.660
REMARK INTER:                  -9.747
REMARK INTRA:                  -1.914
REMARK UNBOUND:                -1.964
REMARK SMILES CCCCCCCCCCCCCCCC(=O)[O-]
REMARK SMILES IDX 9 1 10 2 11 3 12 4 13 5 14 6 15 7 16 8 17 9 18 10 8 11 7 12
REMARK SMILES IDX 6 13 5 14 4 15 3 16 2 17 1 18
REMARK H PARENT
REMARK Flexibility Score: inf
ROOT
ATOM      1  C   UNL     1     -34.461  15.961  55.613  1.00  0.00     0.000 C 
ENDROOT
BRANCH   1   2
ATOM      2  C   UNL     1     -34.368  15.609  57.112  1.00  0.00     0.000 C 
BRANCH   2   3
ATOM      3  C   UNL     1     -32.934  15.479  57.664  1.00  0.00     0.000 C 
BRANCH   3   4
ATOM      4  C   UNL     1     -31.827  15.442  56.593  1.00  0.00     0.000 C 
BRANCH   4   5
ATOM      5  C   UNL     1     -31.028  16.750  56.437  1.00  0.00     0.000 C 
BRANCH   5   6
ATOM      6  C   UNL     1     -31.084  17.700  57.651  1.00  0.00     0.006 C 
BRANCH   6   7
ATOM      7  C   UNL     1     -29.928  18.710  57.721  1.00  0.00     0.053 C 
BRANCH   7   8
ATOM      8  C   UNL     1     -30.381  20.041  58.239  1.00  0.00     0.041 C 
ATOM      9  O   UNL     1     -30.414  20.263  59.478  1.00  0.00    -0.550 OA
ATOM     10  O   UNL     1     -30.798  21.026  57.352  1.00  0.00    -0.550 OA
ENDBRANCH   7   8
ENDBRANCH   6   7
ENDBRANCH   5   6
ENDBRANCH   4   5
ENDBRANCH   3   4
ENDBRANCH   2   3
ENDBRANCH   1   2
BRANCH   1  11
ATOM     11  C   UNL     1     -35.231  14.941  54.755  1.00  0.00     0.000 C 
BRANCH  11  12
ATOM     12  C   UNL     1     -35.932  13.861  55.599  1.00  0.00    -0.000 C 
BRANCH  12  13
ATOM     13  C   UNL     1     -35.391  12.451  55.314  1.00  0.00    -0.000 C 
BRANCH  13  14
ATOM     14  C   UNL     1     -33.863  12.363  55.468  1.00  0.00    -0.000 C 
BRANCH  14  15
ATOM     15  C   UNL     1     -33.438  11.861  56.858  1.00  0.00    -0.000 C 
BRANCH  15  16
ATOM     16  C   UNL     1     -34.634  11.461  57.733  1.00  0.00    -0.000 C 
BRANCH  16  17
ATOM     17  C   UNL     1     -34.807  12.436  58.904  1.00  0.00    -0.003 C 
ATOM     18  C   UNL     1     -36.283  12.710  59.179  1.00  0.00     0.004 C 
ENDBRANCH  16  17
ENDBRANCH  15  16
ENDBRANCH  14  15
ENDBRANCH  13  14
ENDBRANCH  12  13
ENDBRANCH  11  12
ENDBRANCH   1  11
TORSDOF 14
ENDMDL
