MODEL 1
REMARK VINA RESULT:    -4.791      0.000      0.000
REMARK INTER + INTRA:         -10.392
REMARK INTER:                  -8.713
REMARK INTRA:                  -1.679
REMARK UNBOUND:                -1.679
REMARK SMILES CCCCCCCCCCCCCCCC(=O)[O-]
REMARK SMILES IDX 9 1 10 2 11 3 12 4 13 5 14 6 15 7 16 8 17 9 18 10 8 11 7 12
REMARK SMILES IDX 6 13 5 14 4 15 3 16 2 17 1 18
REMARK H PARENT
REMARK Flexibility Score: inf
ROOT
ATOM      1  C   UNL     1       1.525 -35.852  21.409  1.00  0.00     0.000 C 
ENDROOT
BRANCH   1   2
ATOM      2  C   UNL     1       1.034 -37.307  21.500  1.00  0.00     0.000 C 
BRANCH   2   3
ATOM      3  C   UNL     1      -0.498 -37.411  21.536  1.00  0.00     0.000 C 
BRANCH   3   4
ATOM      4  C   UNL     1      -1.188 -36.091  21.152  1.00  0.00     0.000 C 
BRANCH   4   5
ATOM      5  C   UNL     1      -2.645 -36.016  21.639  1.00  0.00     0.000 C 
BRANCH   5   6
ATOM      6  C   UNL     1      -2.865 -34.991  22.772  1.00  0.00     0.006 C 
BRANCH   6   7
ATOM      7  C   UNL     1      -1.762 -33.925  22.812  1.00  0.00     0.053 C 
BRANCH   7   8
ATOM      8  C   UNL     1      -2.128 -32.828  23.762  1.00  0.00     0.041 C 
ATOM      9  O   UNL     1      -3.283 -32.329  23.740  1.00  0.00    -0.550 OA
ATOM     10  O   UNL     1      -1.207 -32.391  24.707  1.00  0.00    -0.550 OA
ENDBRANCH   7   8
ENDBRANCH   6   7
ENDBRANCH   5   6
ENDBRANCH   4   5
ENDBRANCH   3   4
ENDBRANCH   2   3
ENDBRANCH   1   2
BRANCH   1  11
ATOM     11  C   UNL     1       2.441 -35.465  22.581  1.00  0.00     0.000 C 
BRANCH  11  12
ATOM     12  C   UNL     1       3.927 -35.434  22.184  1.00  0.00    -0.000 C 
BRANCH  12  13
ATOM     13  C   UNL     1       4.611 -36.798  22.357  1.00  0.00    -0.000 C 
BRANCH  13  14
ATOM     14  C   UNL     1       5.364 -37.246  21.091  1.00  0.00    -0.000 C 
BRANCH  14  15
ATOM     15  C   UNL     1       4.423 -37.801  20.010  1.00  0.00    -0.000 C 
BRANCH  15  16
ATOM     16  C   UNL     1       4.667 -37.168  18.632  1.00  0.00    -0.000 C 
BRANCH  16  17
ATOM     17  C   UNL     1       3.486 -36.284  18.219  1.00  0.00    -0.003 C 
ATOM     18  C   UNL     1       2.228 -37.117  17.982  1.00  0.00     0.004 C 
ENDBRANCH  16  17
ENDBRANCH  15  16
ENDBRANCH  14  15
ENDBRANCH  13  14
ENDBRANCH  12  13
ENDBRANCH  11  12
ENDBRANCH   1  11
TORSDOF 14
ENDMDL
MODEL 2
REMARK VINA RESULT:    -4.769      0.806      2.418
REMARK INTER + INTRA:         -10.350
REMARK INTER:                  -8.639
REMARK INTRA:                  -1.712
REMARK UNBOUND:                -1.679
REMARK SMILES CCCCCCCCCCCCCCCC(=O)[O-]
REMARK SMILES IDX 9 1 10 2 11 3 12 4 13 5 14 6 15 7 16 8 17 9 18 10 8 11 7 12
REMARK SMILES IDX 6 13 5 14 4 15 3 16 2 17 1 18
REMARK H PARENT
REMARK Flexibility Score: inf
ROOT
ATOM      1  C   UNL     1       0.807 -35.887  20.989  1.00  0.00     0.000 C 
ENDROOT
BRANCH   1   2
ATOM      2  C   UNL     1       0.343 -37.313  21.334  1.00  0.00     0.000 C 
BRANCH   2   3
ATOM      3  C   UNL     1      -1.171 -37.500  21.154  1.00  0.00     0.000 C 
BRANCH   3   4
ATOM      4  C   UNL     1      -1.927 -36.163  21.091  1.00  0.00     0.000 C 
BRANCH   4   5
ATOM      5  C   UNL     1      -3.188 -36.147  21.972  1.00  0.00     0.000 C 
BRANCH   5   6
ATOM      6  C   UNL     1      -3.206 -34.998  23.001  1.00  0.00     0.006 C 
BRANCH   6   7
ATOM      7  C   UNL     1      -2.025 -34.035  22.819  1.00  0.00     0.053 C 
BRANCH   7   8
ATOM      8  C   UNL     1      -2.180 -32.842  23.708  1.00  0.00     0.041 C 
ATOM      9  O   UNL     1      -3.269 -32.212  23.740  1.00  0.00    -0.550 OA
ATOM     10  O   UNL     1      -1.136 -32.454  24.539  1.00  0.00    -0.550 OA
ENDBRANCH   7   8
ENDBRANCH   6   7
ENDBRANCH   5   6
ENDBRANCH   4   5
ENDBRANCH   3   4
ENDBRANCH   2   3
ENDBRANCH   1   2
BRANCH   1  11
ATOM     11  C   UNL     1       1.616 -35.830  19.684  1.00  0.00     0.000 C 
BRANCH  11  12
ATOM     12  C   UNL     1       1.755 -37.209  19.016  1.00  0.00    -0.000 C 
BRANCH  12  13
ATOM     13  C   UNL     1       3.016 -37.318  18.145  1.00  0.00    -0.000 C 
BRANCH  13  14
ATOM     14  C   UNL     1       4.240 -36.646  18.793  1.00  0.00    -0.000 C 
BRANCH  14  15
ATOM     15  C   UNL     1       5.142 -37.648  19.532  1.00  0.00    -0.000 C 
BRANCH  15  16
ATOM     16  C   UNL     1       4.895 -37.660  21.047  1.00  0.00    -0.000 C 
BRANCH  16  17
ATOM     17  C   UNL     1       4.692 -36.238  21.580  1.00  0.00    -0.003 C 
ATOM     18  C   UNL     1       3.939 -36.247  22.908  1.00  0.00     0.004 C 
ENDBRANCH  16  17
ENDBRANCH  15  16
ENDBRANCH  14  15
ENDBRANCH  13  14
ENDBRANCH  12  13
ENDBRANCH  11  12
ENDBRANCH   1  11
TORSDOF 14
ENDMDL
MODEL 3
REMARK VINA RESULT:    -4.675      3.042      6.949
REMARK INTER + INTRA:         -10.180
REMARK INTER:                  -8.962
REMARK INTRA:                  -1.218
REMARK UNBOUND:                -1.679
REMARK SMILES CCCCCCCCCCCCCCCC(=O)[O-]
REMARK SMILES IDX 9 1 10 2 11 3 12 4 13 5 14 6 15 7 16 8 17 9 18 10 8 11 7 12
REMARK SMILES IDX 6 13 5 14 4 15 3 16 2 17 1 18
REMARK H PARENT
REMARK Flexibility Score: inf
ROOT
ATOM      1  C   UNL     1       1.280 -35.865  20.066  1.00  0.00     0.000 C 
ENDROOT
BRANCH   1   2
ATOM      2  C   UNL     1       1.548 -37.276  19.513  1.00  0.00     0.000 C 
BRANCH   2   3
ATOM      3  C   UNL     1       2.344 -37.253  18.200  1.00  0.00     0.000 C 
BRANCH   3   4
ATOM      4  C   UNL     1       3.646 -36.444  18.314  1.00  0.00     0.000 C 
BRANCH   4   5
ATOM      5  C   UNL     1       4.883 -37.331  18.544  1.00  0.00     0.000 C 
BRANCH   5   6
ATOM      6  C   UNL     1       5.541 -37.125  19.924  1.00  0.00     0.006 C 
BRANCH   6   7
ATOM      7  C   UNL     1       4.789 -37.860  21.042  1.00  0.00     0.053 C 
BRANCH   7   8
ATOM      8  C   UNL     1       4.473 -36.923  22.165  1.00  0.00     0.041 C 
ATOM      9  O   UNL     1       3.512 -37.164  22.941  1.00  0.00    -0.550 OA
ATOM     10  O   UNL     1       5.271 -35.807  22.383  1.00  0.00    -0.550 OA
ENDBRANCH   7   8
ENDBRANCH   6   7
ENDBRANCH   5   6
ENDBRANCH   4   5
ENDBRANCH   3   4
ENDBRANCH   2   3
ENDBRANCH   1   2
BRANCH   1  11
ATOM     11  C   UNL     1       0.539 -35.891  21.412  1.00  0.00     0.000 C 
BRANCH  11  12
ATOM     12  C   UNL     1      -0.780 -36.679  21.344  1.00  0.00    -0.000 C 
BRANCH  12  13
ATOM     13  C   UNL     1      -2.015 -35.774  21.483  1.00  0.00    -0.000 C 
BRANCH  13  14
ATOM     14  C   UNL     1      -3.332 -36.570  21.476  1.00  0.00    -0.000 C 
BRANCH  14  15
ATOM     15  C   UNL     1      -3.235 -37.867  20.657  1.00  0.00    -0.000 C 
BRANCH  15  16
ATOM     16  C   UNL     1      -4.487 -38.125  19.806  1.00  0.00    -0.000 C 
BRANCH  16  17
ATOM     17  C   UNL     1      -4.245 -37.739  18.343  1.00  0.00    -0.003 C 
ATOM     18  C   UNL     1      -4.711 -36.312  18.064  1.00  0.00     0.004 C 
ENDBRANCH  16  17
ENDBRANCH  15  16
ENDBRANCH  14  15
ENDBRANCH  13  14
ENDBRANCH  12  13
ENDBRANCH  11  12
ENDBRANCH   1  11
TORSDOF 14
ENDMDL
MODEL 4
REMARK VINA RESULT:    -4.566      2.609      6.831
REMARK INTER + INTRA:          -9.983
REMARK INTER:                  -8.364
REMARK INTRA:                  -1.619
REMARK UNBOUND:                -1.679
REMARK SMILES CCCCCCCCCCCCCCCC(=O)[O-]
REMARK SMILES IDX 9 1 10 2 11 3 12 4 13 5 14 6 15 7 16 8 17 9 18 10 8 11 7 12
REMARK SMILES IDX 6 13 5 14 4 15 3 16 2 17 1 18
REMARK H PARENT
REMARK Flexibility Score: inf
ROOT
ATOM      1  C   UNL     1       1.661 -35.877  19.527  1.00  0.00     0.000 C 
ENDROOT
BRANCH   1   2
ATOM      2  C   UNL     1       1.998 -37.154  18.737  1.00  0.00     0.000 C 
BRANCH   2   3
ATOM      3  C   UNL     1       3.268 -37.001  17.885  1.00  0.00     0.000 C 
BRANCH   3   4
ATOM      4  C   UNL     1       4.411 -36.314  18.648  1.00  0.00     0.000 C 
BRANCH   4   5
ATOM      5  C   UNL     1       5.605 -37.252  18.906  1.00  0.00     0.000 C 
BRANCH   5   6
ATOM      6  C   UNL     1       5.894 -37.485  20.403  1.00  0.00     0.006 C 
BRANCH   6   7
ATOM      7  C   UNL     1       4.612 -37.498  21.248  1.00  0.00     0.053 C 
BRANCH   7   8
ATOM      8  C   UNL     1       4.657 -36.419  22.284  1.00  0.00     0.041 C 
ATOM      9  O   UNL     1       5.612 -35.600  22.306  1.00  0.00    -0.550 OA
ATOM     10  O   UNL     1       3.618 -36.289  23.196  1.00  0.00    -0.550 OA
ENDBRANCH   7   8
ENDBRANCH   6   7
ENDBRANCH   5   6
ENDBRANCH   4   5
ENDBRANCH   3   4
ENDBRANCH   2   3
ENDBRANCH   1   2
BRANCH   1  11
ATOM     11  C   UNL     1       0.955 -36.179  20.859  1.00  0.00     0.000 C 
BRANCH  11  12
ATOM     12  C   UNL     1       0.831 -37.688  21.132  1.00  0.00    -0.000 C 
BRANCH  12  13
ATOM     13  C   UNL     1      -0.602 -38.105  21.495  1.00  0.00    -0.000 C 
BRANCH  13  14
ATOM     14  C   UNL     1      -1.661 -37.167  20.888  1.00  0.00    -0.000 C 
BRANCH  14  15
ATOM     15  C   UNL     1      -2.981 -37.178  21.675  1.00  0.00    -0.000 C 
BRANCH  15  16
ATOM     16  C   UNL     1      -3.366 -35.789  22.204  1.00  0.00    -0.000 C 
BRANCH  16  17
ATOM     17  C   UNL     1      -2.155 -34.849  22.208  1.00  0.00    -0.003 C 
ATOM     18  C   UNL     1      -2.307 -33.755  23.261  1.00  0.00     0.004 C 
ENDBRANCH  16  17
ENDBRANCH  15  16
ENDBRANCH  14  15
ENDBRANCH  13  14
ENDBRANCH  12  13
ENDBRANCH  11  12
ENDBRANCH   1  11
TORSDOF 14
ENDMDL
MODEL 5
REMARK VINA RESULT:    -4.557     21.071     22.278
REMARK INTER + INTRA:          -9.965
REMARK INTER:                  -8.258
REMARK INTRA:                  -1.707
REMARK UNBOUND:                -1.679
REMARK SMILES CCCCCCCCCCCCCCCC(=O)[O-]
REMARK SMILES IDX 9 1 10 2 11 3 12 4 13 5 14 6 15 7 16 8 17 9 18 10 8 11 7 12
REMARK SMILES IDX 6 13 5 14 4 15 3 16 2 17 1 18
REMARK H PARENT
REMARK Flexibility Score: inf
ROOT
ATOM      1  C   UNL     1      -9.252 -18.917  29.740  1.00  0.00     0.000 C 
ENDROOT
BRANCH   1   2
ATOM      2  C   UNL     1     -10.606 -18.812  30.464  1.00  0.00     0.000 C 
BRANCH   2   3
ATOM      3  C   UNL     1     -11.244 -20.185  30.723  1.00  0.00     0.000 C 
BRANCH   3   4
ATOM      4  C   UNL     1     -12.267 -20.153  31.870  1.00  0.00     0.000 C 
BRANCH   4   5
ATOM      5  C   UNL     1     -11.904 -19.136  32.966  1.00  0.00     0.000 C 
BRANCH   5   6
ATOM      6  C   UNL     1     -11.700 -19.774  34.356  1.00  0.00     0.006 C 
BRANCH   6   7
ATOM      7  C   UNL     1     -10.641 -20.884  34.335  1.00  0.00     0.053 C 
BRANCH   7   8
ATOM      8  C   UNL     1     -11.058 -22.022  35.213  1.00  0.00     0.041 C 
ATOM      9  O   UNL     1     -12.261 -22.145  35.562  1.00  0.00    -0.550 OA
ATOM     10  O   UNL     1     -10.126 -22.974  35.606  1.00  0.00    -0.550 OA
ENDBRANCH   7   8
ENDBRANCH   6   7
ENDBRANCH   5   6
ENDBRANCH   4   5
ENDBRANCH   3   4
ENDBRANCH   2   3
ENDBRANCH   1   2
BRANCH   1  11
ATOM     11  C   UNL     1      -8.061 -18.675  30.681  1.00  0.00     0.000 C 
BRANCH  11  12
ATOM     12  C   UNL     1      -8.488 -18.068  32.029  1.00  0.00    -0.000 C 
BRANCH  12  13
ATOM     13  C   UNL     1      -7.895 -18.822  33.229  1.00  0.00    -0.000 C 
BRANCH  13  14
ATOM     14  C   UNL     1      -6.355 -18.849  33.205  1.00  0.00    -0.000 C 
BRANCH  14  15
ATOM     15  C   UNL     1      -5.784 -20.240  33.523  1.00  0.00    -0.000 C 
BRANCH  15  16
ATOM     16  C   UNL     1      -6.784 -21.133  34.271  1.00  0.00    -0.000 C 
BRANCH  16  17
ATOM     17  C   UNL     1      -6.076 -21.976  35.337  1.00  0.00    -0.003 C 
ATOM     18  C   UNL     1      -4.672 -21.447  35.617  1.00  0.00     0.004 C 
ENDBRANCH  16  17
ENDBRANCH  15  16
ENDBRANCH  14  15
ENDBRANCH  13  14
ENDBRANCH  12  13
ENDBRANCH  11  12
ENDBRANCH   1  11
TORSDOF 14
ENDMDL
MODEL 6
REMARK VINA RESULT:    -4.522     20.982     22.798
REMARK INTER + INTRA:          -9.902
REMARK INTER:                  -7.891
REMARK INTRA:                  -2.011
REMARK UNBOUND:                -1.679
REMARK SMILES CCCCCCCCCCCCCCCC(=O)[O-]
REMARK SMILES IDX 9 1 10 2 11 3 12 4 13 5 14 6 15 7 16 8 17 9 18 10 8 11 7 12
REMARK SMILES IDX 6 13 5 14 4 15 3 16 2 17 1 18
REMARK H PARENT
REMARK Flexibility Score: inf
ROOT
ATOM      1  C   UNL     1      -9.268 -19.021  30.091  1.00  0.00     0.000 C 
ENDROOT
BRANCH   1   2
ATOM      2  C   UNL     1      -8.048 -18.966  31.028  1.00  0.00     0.000 C 
BRANCH   2   3
ATOM      3  C   UNL     1      -8.254 -18.002  32.207  1.00  0.00     0.000 C 
BRANCH   3   4
ATOM      4  C   UNL     1      -8.222 -18.719  33.566  1.00  0.00     0.000 C 
BRANCH   4   5
ATOM      5  C   UNL     1      -8.185 -20.251  33.434  1.00  0.00     0.000 C 
BRANCH   5   6
ATOM      6  C   UNL     1      -7.007 -20.907  34.185  1.00  0.00     0.006 C 
BRANCH   6   7
ATOM      7  C   UNL     1      -5.674 -20.199  33.907  1.00  0.00     0.053 C 
BRANCH   7   8
ATOM      8  C   UNL     1      -4.623 -20.669  34.863  1.00  0.00     0.041 C 
ATOM      9  O   UNL     1      -3.649 -19.926  35.150  1.00  0.00    -0.550 OA
ATOM     10  O   UNL     1      -4.746 -21.910  35.474  1.00  0.00    -0.550 OA
ENDBRANCH   7   8
ENDBRANCH   6   7
ENDBRANCH   5   6
ENDBRANCH   4   5
ENDBRANCH   3   4
ENDBRANCH   2   3
ENDBRANCH   1   2
BRANCH   1  11
ATOM     11  C   UNL     1     -10.150 -20.254  30.344  1.00  0.00     0.000 C 
BRANCH  11  12
ATOM     12  C   UNL     1     -11.504 -19.889  30.977  1.00  0.00    -0.000 C 
BRANCH  12  13
ATOM     13  C   UNL     1     -11.668 -20.466  32.392  1.00  0.00    -0.000 C 
BRANCH  13  14
ATOM     14  C   UNL     1     -11.870 -19.371  33.455  1.00  0.00    -0.000 C 
BRANCH  14  15
ATOM     15  C   UNL     1     -11.850 -19.927  34.888  1.00  0.00    -0.000 C 
BRANCH  15  16
ATOM     16  C   UNL     1     -12.289 -21.397  34.957  1.00  0.00    -0.000 C 
BRANCH  16  17
ATOM     17  C   UNL     1     -11.495 -22.157  36.025  1.00  0.00    -0.003 C 
ATOM     18  C   UNL     1     -10.242 -22.796  35.434  1.00  0.00     0.004 C 
ENDBRANCH  16  17
ENDBRANCH  15  16
ENDBRANCH  14  15
ENDBRANCH  13  14
ENDBRANCH  12  13
ENDBRANCH  11  12
ENDBRANCH   1  11
TORSDOF 14
ENDMDL
MODEL 7
REMARK VINA RESULT:    -4.425     20.693     22.021
REMARK INTER + INTRA:          -9.725
REMARK INTER:                  -8.011
REMARK INTRA:                  -1.714
REMARK UNBOUND:                -1.679
REMARK SMILES CCCCCCCCCCCCCCCC(=O)[O-]
REMARK SMILES IDX 9 1 10 2 11 3 12 4 13 5 14 6 15 7 16 8 17 9 18 10 8 11 7 12
REMARK SMILES IDX 6 13 5 14 4 15 3 16 2 17 1 18
REMARK H PARENT
REMARK Flexibility Score: inf
ROOT
ATOM      1  C   UNL     1      -9.098 -20.854  33.307  1.00  0.00     0.000 C 
ENDROOT
BRANCH   1   2
ATOM      2  C   UNL     1     -10.451 -20.646  34.008  1.00  0.00     0.000 C 
BRANCH   2   3
ATOM      3  C   UNL     1     -11.515 -20.052  33.072  1.00  0.00     0.000 C 
BRANCH   3   4
ATOM      4  C   UNL     1     -11.486 -18.515  33.048  1.00  0.00     0.000 C 
BRANCH   4   5
ATOM      5  C   UNL     1     -10.899 -17.949  31.743  1.00  0.00     0.000 C 
BRANCH   5   6
ATOM      6  C   UNL     1     -11.000 -18.921  30.549  1.00  0.00     0.006 C 
BRANCH   6   7
ATOM      7  C   UNL     1     -10.186 -18.441  29.339  1.00  0.00     0.053 C 
BRANCH   7   8
ATOM      8  C   UNL     1      -9.929 -19.576  28.398  1.00  0.00     0.041 C 
ATOM      9  O   UNL     1      -9.465 -19.354  27.249  1.00  0.00    -0.550 OA
ATOM     10  O   UNL     1     -10.156 -20.883  28.809  1.00  0.00    -0.550 OA
ENDBRANCH   7   8
ENDBRANCH   6   7
ENDBRANCH   5   6
ENDBRANCH   4   5
ENDBRANCH   3   4
ENDBRANCH   2   3
ENDBRANCH   1   2
BRANCH   1  11
ATOM     11  C   UNL     1      -8.106 -19.716  33.592  1.00  0.00     0.000 C 
BRANCH  11  12
ATOM     12  C   UNL     1      -7.507 -19.120  32.306  1.00  0.00    -0.000 C 
BRANCH  12  13
ATOM     13  C   UNL     1      -6.009 -18.808  32.442  1.00  0.00    -0.000 C 
BRANCH  13  14
ATOM     14  C   UNL     1      -5.614 -18.434  33.882  1.00  0.00    -0.000 C 
BRANCH  14  15
ATOM     15  C   UNL     1      -4.192 -18.894  34.243  1.00  0.00    -0.000 C 
BRANCH  15  16
ATOM     16  C   UNL     1      -4.142 -20.361  34.693  1.00  0.00    -0.000 C 
BRANCH  16  17
ATOM     17  C   UNL     1      -5.279 -20.674  35.671  1.00  0.00    -0.003 C 
ATOM     18  C   UNL     1      -5.809 -22.090  35.468  1.00  0.00     0.004 C 
ENDBRANCH  16  17
ENDBRANCH  15  16
ENDBRANCH  14  15
ENDBRANCH  13  14
ENDBRANCH  12  13
ENDBRANCH  11  12
ENDBRANCH   1  11
TORSDOF 14
ENDMDL
MODEL 8
REMARK VINA RESULT:    -4.420     20.621     21.740
REMARK INTER + INTRA:          -9.716
REMARK INTER:                  -8.581
REMARK INTRA:                  -1.136
REMARK UNBOUND:                -1.679
REMARK SMILES CCCCCCCCCCCCCCCC(=O)[O-]
REMARK SMILES IDX 9 1 10 2 11 3 12 4 13 5 14 6 15 7 16 8 17 9 18 10 8 11 7 12
REMARK SMILES IDX 6 13 5 14 4 15 3 16 2 17 1 18
REMARK H PARENT
REMARK Flexibility Score: inf
ROOT
ATOM      1  C   UNL     1      -8.722 -21.659  33.919  1.00  0.00     0.000 C 
ENDROOT
BRANCH   1   2
ATOM      2  C   UNL     1      -9.428 -20.693  32.952  1.00  0.00     0.000 C 
BRANCH   2   3
ATOM      3  C   UNL     1      -9.393 -19.238  33.444  1.00  0.00     0.000 C 
BRANCH   3   4
ATOM      4  C   UNL     1      -9.340 -18.226  32.288  1.00  0.00     0.000 C 
BRANCH   4   5
ATOM      5  C   UNL     1     -10.725 -17.937  31.682  1.00  0.00     0.000 C 
BRANCH   5   6
ATOM      6  C   UNL     1     -10.799 -18.193  30.163  1.00  0.00     0.006 C 
BRANCH   6   7
ATOM      7  C   UNL     1      -9.491 -18.773  29.607  1.00  0.00     0.053 C 
BRANCH   7   8
ATOM      8  C   UNL     1      -9.756 -19.565  28.366  1.00  0.00     0.041 C 
ATOM      9  O   UNL     1     -10.104 -20.772  28.446  1.00  0.00    -0.550 OA
ATOM     10  O   UNL     1      -9.665 -18.956  27.120  1.00  0.00    -0.550 OA
ENDBRANCH   7   8
ENDBRANCH   6   7
ENDBRANCH   5   6
ENDBRANCH   4   5
ENDBRANCH   3   4
ENDBRANCH   2   3
ENDBRANCH   1   2
BRANCH   1  11
ATOM     11  C   UNL     1      -7.259 -21.267  34.181  1.00  0.00     0.000 C 
BRANCH  11  12
ATOM     12  C   UNL     1      -6.657 -22.007  35.388  1.00  0.00    -0.000 C 
BRANCH  12  13
ATOM     13  C   UNL     1      -5.137 -21.814  35.500  1.00  0.00    -0.000 C 
BRANCH  13  14
ATOM     14  C   UNL     1      -4.737 -20.330  35.591  1.00  0.00    -0.000 C 
BRANCH  14  15
ATOM     15  C   UNL     1      -3.673 -19.939  34.553  1.00  0.00    -0.000 C 
BRANCH  15  16
ATOM     16  C   UNL     1      -3.722 -18.449  34.188  1.00  0.00    -0.000 C 
BRANCH  16  17
ATOM     17  C   UNL     1      -4.554 -18.221  32.921  1.00  0.00    -0.003 C 
ATOM     18  C   UNL     1      -6.015 -17.938  33.263  1.00  0.00     0.004 C 
ENDBRANCH  16  17
ENDBRANCH  15  16
ENDBRANCH  14  15
ENDBRANCH  13  14
ENDBRANCH  12  13
ENDBRANCH  11  12
ENDBRANCH   1  11
TORSDOF 14
ENDMDL
MODEL 9
REMARK VINA RESULT:    -4.397      2.748      6.699
REMARK INTER + INTRA:          -9.674
REMARK INTER:                  -8.252
REMARK INTRA:                  -1.422
REMARK UNBOUND:                -1.679
REMARK SMILES CCCCCCCCCCCCCCCC(=O)[O-]
REMARK SMILES IDX 9 1 10 2 11 3 12 4 13 5 14 6 15 7 16 8 17 9 18 10 8 11 7 12
REMARK SMILES IDX 6 13 5 14 4 15 3 16 2 17 1 18
REMARK H PARENT
REMARK Flexibility Score: inf
ROOT
ATOM      1  C   UNL     1       1.463 -36.716  19.679  1.00  0.00     0.000 C 
ENDROOT
BRANCH   1   2
ATOM      2  C   UNL     1       1.966 -37.517  18.466  1.00  0.00     0.000 C 
BRANCH   2   3
ATOM      3  C   UNL     1       3.119 -36.814  17.732  1.00  0.00     0.000 C 
BRANCH   3   4
ATOM      4  C   UNL     1       4.174 -36.250  18.696  1.00  0.00     0.000 C 
BRANCH   4   5
ATOM      5  C   UNL     1       5.163 -37.320  19.192  1.00  0.00     0.000 C 
BRANCH   5   6
ATOM      6  C   UNL     1       5.706 -37.048  20.610  1.00  0.00     0.006 C 
BRANCH   6   7
ATOM      7  C   UNL     1       4.660 -37.333  21.697  1.00  0.00     0.053 C 
BRANCH   7   8
ATOM      8  C   UNL     1       4.404 -36.104  22.511  1.00  0.00     0.041 C 
ATOM      9  O   UNL     1       5.054 -35.896  23.569  1.00  0.00    -0.550 OA
ATOM     10  O   UNL     1       3.480 -35.162  22.075  1.00  0.00    -0.550 OA
ENDBRANCH   7   8
ENDBRANCH   6   7
ENDBRANCH   5   6
ENDBRANCH   4   5
ENDBRANCH   3   4
ENDBRANCH   2   3
ENDBRANCH   1   2
BRANCH   1  11
ATOM     11  C   UNL     1       1.226 -37.602  20.912  1.00  0.00     0.000 C 
BRANCH  11  12
ATOM     12  C   UNL     1      -0.209 -37.484  21.456  1.00  0.00    -0.000 C 
BRANCH  12  13
ATOM     13  C   UNL     1      -0.712 -36.033  21.480  1.00  0.00    -0.000 C 
BRANCH  13  14
ATOM     14  C   UNL     1      -2.171 -35.907  21.002  1.00  0.00    -0.000 C 
BRANCH  14  15
ATOM     15  C   UNL     1      -3.131 -36.813  21.789  1.00  0.00    -0.000 C 
BRANCH  15  16
ATOM     16  C   UNL     1      -3.883 -37.803  20.888  1.00  0.00    -0.000 C 
BRANCH  16  17
ATOM     17  C   UNL     1      -3.274 -37.835  19.482  1.00  0.00    -0.003 C 
ATOM     18  C   UNL     1      -4.356 -37.747  18.409  1.00  0.00     0.004 C 
ENDBRANCH  16  17
ENDBRANCH  15  16
ENDBRANCH  14  15
ENDBRANCH  13  14
ENDBRANCH  12  13
ENDBRANCH  11  12
ENDBRANCH   1  11
TORSDOF 14
ENDMDL
