MODEL 1
REMARK VINA RESULT:    -3.907      0.000      0.000
REMARK INTER + INTRA:          -3.907
REMARK INTER:                  -3.907
REMARK INTRA:                   0.000
REMARK UNBOUND:                 0.000
REMARK SMILES O=C1CCCCC1
REMARK SMILES IDX 5 1 4 2 3 3 2 4 1 5 7 6 6 7
REMARK H PARENT
REMARK Flexibility Score: inf
ROOT
ATOM      1  C   UNL     1      16.057  41.693 -13.245  1.00  0.00     0.001 C 
ATOM      2  C   UNL     1      15.424  42.335 -12.001  1.00  0.00     0.008 C 
ATOM      3  C   UNL     1      14.197  43.179 -12.368  1.00  0.00     0.075 C 
ATOM      4  C   UNL     1      14.531  44.131 -13.483  1.00  0.00     0.132 C 
ATOM      5  O   UNL     1      14.144  45.289 -13.440  1.00  0.00    -0.300 OA
ATOM      6  C   UNL     1      15.264  43.619 -14.692  1.00  0.00     0.075 C 
ATOM      7  C   UNL     1      16.464  42.765 -14.267  1.00  0.00     0.008 C 
ENDROOT
TORSDOF 0
ENDMDL
MODEL 2
REMARK VINA RESULT:    -3.832      1.582      2.809
REMARK INTER + INTRA:          -3.832
REMARK INTER:                  -3.832
REMARK INTRA:                   0.000
REMARK UNBOUND:                 0.000
REMARK SMILES O=C1CCCCC1
REMARK SMILES IDX 5 1 4 2 3 3 2 4 1 5 7 6 6 7
REMARK H PARENT
REMARK Flexibility Score: inf
ROOT
ATOM      1  C   UNL     1      14.022  43.093 -12.246  1.00  0.00     0.001 C 
ATOM      2  C   UNL     1      14.290  44.175 -13.304  1.00  0.00     0.008 C 
ATOM      3  C   UNL     1      14.984  43.590 -14.540  1.00  0.00     0.075 C 
ATOM      4  C   UNL     1      16.184  42.780 -14.133  1.00  0.00     0.132 C 
ATOM      5  O   UNL     1      17.232  42.879 -14.751  1.00  0.00    -0.300 OA
ATOM      6  C   UNL     1      16.051  41.781 -13.017  1.00  0.00     0.075 C 
ATOM      7  C   UNL     1      15.330  42.411 -11.819  1.00  0.00     0.008 C 
ENDROOT
TORSDOF 0
ENDMDL
MODEL 3
REMARK VINA RESULT:    -3.704      1.941      2.719
REMARK INTER + INTRA:          -3.704
REMARK INTER:                  -3.704
REMARK INTRA:                   0.000
REMARK UNBOUND:                 0.000
REMARK SMILES O=C1CCCCC1
REMARK SMILES IDX 5 1 4 2 3 3 2 4 1 5 7 6 6 7
REMARK H PARENT
REMARK Flexibility Score: inf
ROOT
ATOM      1  C   UNL     1      14.619  44.320 -13.981  1.00  0.00     0.001 C 
ATOM      2  C   UNL     1      14.101  43.475 -12.806  1.00  0.00     0.008 C 
ATOM      3  C   UNL     1      15.247  42.748 -12.091  1.00  0.00     0.075 C 
ATOM      4  C   UNL     1      16.099  42.009 -13.086  1.00  0.00     0.132 C 
ATOM      5  O   UNL     1      16.482  40.875 -12.847  1.00  0.00    -0.300 OA
ATOM      6  C   UNL     1      16.552  42.717 -14.333  1.00  0.00     0.075 C 
ATOM      7  C   UNL     1      15.374  43.445 -14.992  1.00  0.00     0.008 C 
ENDROOT
TORSDOF 0
ENDMDL
MODEL 4
REMARK VINA RESULT:    -3.499     13.877     14.904
REMARK INTER + INTRA:          -3.499
REMARK INTER:                  -3.499
REMARK INTRA:                   0.000
REMARK UNBOUND:                 0.000
REMARK SMILES O=C1CCCCC1
REMARK SMILES IDX 5 1 4 2 3 3 2 4 1 5 7 6 6 7
REMARK H PARENT
REMARK Flexibility Score: inf
ROOT
ATOM      1  C   UNL     1      17.626  42.617   2.070  1.00  0.00     0.001 C 
ATOM      2  C   UNL     1      16.824  43.785   1.475  1.00  0.00     0.008 C 
ATOM      3  C   UNL     1      17.438  44.271   0.156  1.00  0.00     0.075 C 
ATOM      4  C   UNL     1      18.910  44.524   0.325  1.00  0.00     0.132 C 
ATOM      5  O   UNL     1      19.423  45.522  -0.156  1.00  0.00    -0.300 OA
ATOM      6  C   UNL     1      19.759  43.490   1.011  1.00  0.00     0.075 C 
ATOM      7  C   UNL     1      19.088  43.023   2.308  1.00  0.00     0.008 C 
ENDROOT
TORSDOF 0
ENDMDL
MODEL 5
REMARK VINA RESULT:    -3.388     13.987     14.924
REMARK INTER + INTRA:          -3.388
REMARK INTER:                  -3.388
REMARK INTRA:                   0.000
REMARK UNBOUND:                 0.000
REMARK SMILES O=C1CCCCC1
REMARK SMILES IDX 5 1 4 2 3 3 2 4 1 5 7 6 6 7
REMARK H PARENT
REMARK Flexibility Score: inf
ROOT
ATOM      1  C   UNL     1      19.864  43.535   0.844  1.00  0.00     0.001 C 
ATOM      2  C   UNL     1      19.251  43.135   2.195  1.00  0.00     0.008 C 
ATOM      3  C   UNL     1      17.760  42.799   2.056  1.00  0.00     0.075 C 
ATOM      4  C   UNL     1      17.042  43.900   1.325  1.00  0.00     0.132 C 
ATOM      5  O   UNL     1      15.954  44.291   1.717  1.00  0.00    -0.300 OA
ATOM      6  C   UNL     1      17.633  44.446   0.055  1.00  0.00     0.075 C 
ATOM      7  C   UNL     1      19.126  44.740   0.244  1.00  0.00     0.008 C 
ENDROOT
TORSDOF 0
ENDMDL
MODEL 6
REMARK VINA RESULT:    -3.334     14.106     15.017
REMARK INTER + INTRA:          -3.334
REMARK INTER:                  -3.334
REMARK INTRA:                   0.000
REMARK UNBOUND:                 0.000
REMARK SMILES O=C1CCCCC1
REMARK SMILES IDX 5 1 4 2 3 3 2 4 1 5 7 6 6 7
REMARK H PARENT
REMARK Flexibility Score: inf
ROOT
ATOM      1  C   UNL     1      16.648  44.551   0.017  1.00  0.00     0.001 C 
ATOM      2  C   UNL     1      17.883  45.456  -0.117  1.00  0.00     0.008 C 
ATOM      3  C   UNL     1      19.176  44.687   0.179  1.00  0.00     0.075 C 
ATOM      4  C   UNL     1      19.059  43.949   1.484  1.00  0.00     0.132 C 
ATOM      5  O   UNL     1      19.988  43.950   2.277  1.00  0.00    -0.300 OA
ATOM      6  C   UNL     1      17.826  43.135   1.760  1.00  0.00     0.075 C 
ATOM      7  C   UNL     1      16.567  43.942   1.424  1.00  0.00     0.008 C 
ENDROOT
TORSDOF 0
ENDMDL
MODEL 7
REMARK VINA RESULT:    -3.311     13.738     14.556
REMARK INTER + INTRA:          -3.311
REMARK INTER:                  -3.311
REMARK INTRA:                   0.000
REMARK UNBOUND:                 0.000
REMARK SMILES O=C1CCCCC1
REMARK SMILES IDX 5 1 4 2 3 3 2 4 1 5 7 6 6 7
REMARK H PARENT
REMARK Flexibility Score: inf
ROOT
ATOM      1  C   UNL     1      19.397  43.872   1.740  1.00  0.00     0.001 C 
ATOM      2  C   UNL     1      19.485  44.450   0.319  1.00  0.00     0.008 C 
ATOM      3  C   UNL     1      18.231  45.260  -0.034  1.00  0.00     0.075 C 
ATOM      4  C   UNL     1      16.992  44.459   0.258  1.00  0.00     0.132 C 
ATOM      5  O   UNL     1      16.064  44.449  -0.536  1.00  0.00    -0.300 OA
ATOM      6  C   UNL     1      16.869  43.750   1.578  1.00  0.00     0.075 C 
ATOM      7  C   UNL     1      18.157  42.979   1.891  1.00  0.00     0.008 C 
ENDROOT
TORSDOF 0
ENDMDL
MODEL 8
REMARK VINA RESULT:    -3.287     13.976     14.962
REMARK INTER + INTRA:          -3.287
REMARK INTER:                  -3.287
REMARK INTRA:                   0.000
REMARK UNBOUND:                 0.000
REMARK SMILES O=C1CCCCC1
REMARK SMILES IDX 5 1 4 2 3 3 2 4 1 5 7 6 6 7
REMARK H PARENT
REMARK Flexibility Score: inf
ROOT
ATOM      1  C   UNL     1      16.778  44.248   1.169  1.00  0.00     0.001 C 
ATOM      2  C   UNL     1      17.218  42.893   1.744  1.00  0.00     0.008 C 
ATOM      3  C   UNL     1      18.702  42.904   2.132  1.00  0.00     0.075 C 
ATOM      4  C   UNL     1      19.537  43.419   0.992  1.00  0.00     0.132 C 
ATOM      5  O   UNL     1      20.585  42.866   0.698  1.00  0.00    -0.300 OA
ATOM      6  C   UNL     1      19.115  44.675   0.282  1.00  0.00     0.075 C 
ATOM      7  C   UNL     1      17.621  44.620  -0.060  1.00  0.00     0.008 C 
ENDROOT
TORSDOF 0
ENDMDL
MODEL 9
REMARK VINA RESULT:    -3.227     14.025     15.014
REMARK INTER + INTRA:          -3.227
REMARK INTER:                  -3.227
REMARK INTRA:                   0.000
REMARK UNBOUND:                 0.000
REMARK SMILES O=C1CCCCC1
REMARK SMILES IDX 5 1 4 2 3 3 2 4 1 5 7 6 6 7
REMARK H PARENT
REMARK Flexibility Score: inf
ROOT
ATOM      1  C   UNL     1      19.100  44.877   0.275  1.00  0.00     0.001 C 
ATOM      2  C   UNL     1      17.636  44.572  -0.079  1.00  0.00     0.008 C 
ATOM      3  C   UNL     1      16.880  43.987   1.120  1.00  0.00     0.075 C 
ATOM      4  C   UNL     1      17.650  42.839   1.715  1.00  0.00     0.132 C 
ATOM      5  O   UNL     1      17.071  41.816   2.047  1.00  0.00    -0.300 OA
ATOM      6  C   UNL     1      19.120  43.000   1.981  1.00  0.00     0.075 C 
ATOM      7  C   UNL     1      19.820  43.610   0.761  1.00  0.00     0.008 C 
ENDROOT
TORSDOF 0
ENDMDL
