MODEL 1
REMARK VINA RESULT:    -3.588      0.000      0.000
REMARK INTER + INTRA:          -4.724
REMARK INTER:                  -4.637
REMARK INTRA:                  -0.086
REMARK UNBOUND:                -0.086
REMARK SMILES CCCCCCC(=O)[O-]
REMARK SMILES IDX 5 1 6 2 7 3 8 4 9 5 4 6 3 7 2 8 1 9
REMARK H PARENT
REMARK Flexibility Score: inf
ROOT
ATOM      1  C   UNL     1      10.467 -10.554  13.328  1.00  0.00     0.006 C 
ENDROOT
BRANCH   1   2
ATOM      2  C   UNL     1      10.638  -9.609  12.132  1.00  0.00     0.053 C 
BRANCH   2   3
ATOM      3  C   UNL     1       9.383  -9.499  11.322  1.00  0.00     0.041 C 
ATOM      4  O   UNL     1       9.354  -8.773  10.294  1.00  0.00    -0.550 OA
ATOM      5  O   UNL     1       8.236 -10.174  11.719  1.00  0.00    -0.550 OA
ENDBRANCH   2   3
ENDBRANCH   1   2
BRANCH   1   6
ATOM      6  C   UNL     1      11.644 -10.460  14.315  1.00  0.00     0.000 C 
BRANCH   6   7
ATOM      7  C   UNL     1      11.260 -10.904  15.736  1.00  0.00    -0.000 C 
BRANCH   7   8
ATOM      8  C   UNL     1      11.910 -10.036  16.824  1.00  0.00    -0.003 C 
ATOM      9  C   UNL     1      13.337 -10.495  17.112  1.00  0.00     0.004 C 
ENDBRANCH   7   8
ENDBRANCH   6   7
ENDBRANCH   1   6
TORSDOF 5
ENDMDL
MODEL 2
REMARK VINA RESULT:    -3.437      3.303      5.403
REMARK INTER + INTRA:          -4.528
REMARK INTER:                  -4.366
REMARK INTRA:                  -0.162
REMARK UNBOUND:                -0.086
REMARK SMILES CCCCCCC(=O)[O-]
REMARK SMILES IDX 5 1 6 2 7 3 8 4 9 5 4 6 3 7 2 8 1 9
REMARK H PARENT
REMARK Flexibility Score: inf
ROOT
ATOM      1  C   UNL     1      11.349 -10.163  13.885  1.00  0.00     0.006 C 
ENDROOT
BRANCH   1   2
ATOM      2  C   UNL     1      10.698 -11.147  14.866  1.00  0.00     0.053 C 
BRANCH   2   3
ATOM      3  C   UNL     1      11.416 -11.183  16.180  1.00  0.00     0.041 C 
ATOM      4  O   UNL     1      11.441 -12.244  16.858  1.00  0.00    -0.550 OA
ATOM      5  O   UNL     1      12.032 -10.039  16.670  1.00  0.00    -0.550 OA
ENDBRANCH   2   3
ENDBRANCH   1   2
BRANCH   1   6
ATOM      6  C   UNL     1      10.778 -10.298  12.462  1.00  0.00     0.000 C 
BRANCH   6   7
ATOM      7  C   UNL     1       9.241 -10.335  12.443  1.00  0.00    -0.000 C 
BRANCH   7   8
ATOM      8  C   UNL     1       8.652  -9.746  11.153  1.00  0.00    -0.003 C 
ATOM      9  C   UNL     1       9.582  -8.695  10.555  1.00  0.00     0.004 C 
ENDBRANCH   7   8
ENDBRANCH   6   7
ENDBRANCH   1   6
TORSDOF 5
ENDMDL
MODEL 3
REMARK VINA RESULT:    -3.066      3.935      5.660
REMARK INTER + INTRA:          -4.048
REMARK INTER:                  -3.857
REMARK INTRA:                  -0.191
REMARK UNBOUND:                -0.086
REMARK SMILES CCCCCCC(=O)[O-]
REMARK SMILES IDX 5 1 6 2 7 3 8 4 9 5 4 6 3 7 2 8 1 9
REMARK H PARENT
REMARK Flexibility Score: inf
ROOT
ATOM      1  C   UNL     1      11.033 -11.449  15.777  1.00  0.00     0.006 C 
ENDROOT
BRANCH   1   2
ATOM      2  C   UNL     1      12.515 -11.059  15.846  1.00  0.00     0.053 C 
BRANCH   2   3
ATOM      3  C   UNL     1      13.316 -12.044  16.642  1.00  0.00     0.041 C 
ATOM      4  O   UNL     1      14.265 -11.647  17.369  1.00  0.00    -0.550 OA
ATOM      5  O   UNL     1      13.035 -13.401  16.558  1.00  0.00    -0.550 OA
ENDBRANCH   2   3
ENDBRANCH   1   2
BRANCH   1   6
ATOM      6  C   UNL     1      10.399 -11.084  14.424  1.00  0.00     0.000 C 
BRANCH   6   7
ATOM      7  C   UNL     1      11.319 -10.211  13.556  1.00  0.00    -0.000 C 
BRANCH   7   8
ATOM      8  C   UNL     1      10.754  -9.972  12.148  1.00  0.00    -0.003 C 
ATOM      9  C   UNL     1       9.253 -10.246  12.106  1.00  0.00     0.004 C 
ENDBRANCH   7   8
ENDBRANCH   6   7
ENDBRANCH   1   6
TORSDOF 5
ENDMDL
MODEL 4
REMARK VINA RESULT:    -3.034      7.560      8.493
REMARK INTER + INTRA:          -4.008
REMARK INTER:                  -3.878
REMARK INTRA:                  -0.130
REMARK UNBOUND:                -0.086
REMARK SMILES CCCCCCC(=O)[O-]
REMARK SMILES IDX 5 1 6 2 7 3 8 4 9 5 4 6 3 7 2 8 1 9
REMARK H PARENT
REMARK Flexibility Score: inf
ROOT
ATOM      1  C   UNL     1      13.513 -14.565   7.235  1.00  0.00     0.006 C 
ENDROOT
BRANCH   1   2
ATOM      2  C   UNL     1      14.938 -14.007   7.346  1.00  0.00     0.053 C 
BRANCH   2   3
ATOM      3  C   UNL     1      15.001 -12.558   6.970  1.00  0.00     0.041 C 
ATOM      4  O   UNL     1      14.907 -11.670   7.857  1.00  0.00    -0.550 OA
ATOM      5  O   UNL     1      15.133 -12.188   5.638  1.00  0.00    -0.550 OA
ENDBRANCH   2   3
ENDBRANCH   1   2
BRANCH   1   6
ATOM      6  C   UNL     1      13.100 -15.356   8.490  1.00  0.00     0.000 C 
BRANCH   6   7
ATOM      7  C   UNL     1      11.691 -14.989   8.982  1.00  0.00    -0.000 C 
BRANCH   7   8
ATOM      8  C   UNL     1      10.987 -16.160   9.684  1.00  0.00    -0.003 C 
ATOM      9  C   UNL     1      11.183 -17.461   8.912  1.00  0.00     0.004 C 
ENDBRANCH   7   8
ENDBRANCH   6   7
ENDBRANCH   1   6
TORSDOF 5
ENDMDL
MODEL 5
REMARK VINA RESULT:    -2.980      8.501      9.524
REMARK INTER + INTRA:          -3.938
REMARK INTER:                  -3.779
REMARK INTRA:                  -0.159
REMARK UNBOUND:                -0.086
REMARK SMILES CCCCCCC(=O)[O-]
REMARK SMILES IDX 5 1 6 2 7 3 8 4 9 5 4 6 3 7 2 8 1 9
REMARK H PARENT
REMARK Flexibility Score: inf
ROOT
ATOM      1  C   UNL     1      11.444  -3.778  17.072  1.00  0.00     0.006 C 
ENDROOT
BRANCH   1   2
ATOM      2  C   UNL     1      12.787  -3.040  16.995  1.00  0.00     0.053 C 
BRANCH   2   3
ATOM      3  C   UNL     1      13.534  -3.103  18.292  1.00  0.00     0.041 C 
ATOM      4  O   UNL     1      13.878  -4.215  18.772  1.00  0.00    -0.550 OA
ATOM      5  O   UNL     1      13.824  -1.936  18.987  1.00  0.00    -0.550 OA
ENDBRANCH   2   3
ENDBRANCH   1   2
BRANCH   1   6
ATOM      6  C   UNL     1      10.530  -3.445  15.879  1.00  0.00     0.000 C 
BRANCH   6   7
ATOM      7  C   UNL     1      10.483  -1.939  15.573  1.00  0.00    -0.000 C 
BRANCH   7   8
ATOM      8  C   UNL     1       9.082  -1.462  15.165  1.00  0.00    -0.003 C 
ATOM      9  C   UNL     1       8.248  -2.616  14.615  1.00  0.00     0.004 C 
ENDBRANCH   7   8
ENDBRANCH   6   7
ENDBRANCH   1   6
TORSDOF 5
ENDMDL
MODEL 6
REMARK VINA RESULT:    -2.927      7.433      7.800
REMARK INTER + INTRA:          -3.869
REMARK INTER:                  -3.779
REMARK INTRA:                  -0.090
REMARK UNBOUND:                -0.086
REMARK SMILES CCCCCCC(=O)[O-]
REMARK SMILES IDX 5 1 6 2 7 3 8 4 9 5 4 6 3 7 2 8 1 9
REMARK H PARENT
REMARK Flexibility Score: inf
ROOT
ATOM      1  C   UNL     1      10.848  -2.452  16.117  1.00  0.00     0.006 C 
ENDROOT
BRANCH   1   2
ATOM      2  C   UNL     1       9.922  -3.192  15.142  1.00  0.00     0.053 C 
BRANCH   2   3
ATOM      3  C   UNL     1       8.730  -2.366  14.769  1.00  0.00     0.041 C 
ATOM      4  O   UNL     1       8.803  -1.109  14.776  1.00  0.00    -0.550 OA
ATOM      5  O   UNL     1       7.529  -2.982  14.442  1.00  0.00    -0.550 OA
ENDBRANCH   2   3
ENDBRANCH   1   2
BRANCH   1   6
ATOM      6  C   UNL     1      11.642  -3.420  17.011  1.00  0.00     0.000 C 
BRANCH   6   7
ATOM      7  C   UNL     1      13.150  -3.121  17.013  1.00  0.00    -0.000 C 
BRANCH   7   8
ATOM      8  C   UNL     1      13.719  -2.956  18.430  1.00  0.00    -0.003 C 
ATOM      9  C   UNL     1      13.828  -4.304  19.137  1.00  0.00     0.004 C 
ENDBRANCH   7   8
ENDBRANCH   6   7
ENDBRANCH   1   6
TORSDOF 5
ENDMDL
MODEL 7
REMARK VINA RESULT:    -2.863      8.815      9.940
REMARK INTER + INTRA:          -3.786
REMARK INTER:                  -3.652
REMARK INTRA:                  -0.133
REMARK UNBOUND:                -0.086
REMARK SMILES CCCCCCC(=O)[O-]
REMARK SMILES IDX 5 1 6 2 7 3 8 4 9 5 4 6 3 7 2 8 1 9
REMARK H PARENT
REMARK Flexibility Score: inf
ROOT
ATOM      1  C   UNL     1      12.927  -3.283  17.331  1.00  0.00     0.006 C 
ENDROOT
BRANCH   1   2
ATOM      2  C   UNL     1      13.536  -3.636  18.694  1.00  0.00     0.053 C 
BRANCH   2   3
ATOM      3  C   UNL     1      14.269  -2.477  19.296  1.00  0.00     0.041 C 
ATOM      4  O   UNL     1      13.773  -1.321  19.249  1.00  0.00    -0.550 OA
ATOM      5  O   UNL     1      15.515  -2.667  19.880  1.00  0.00    -0.550 OA
ENDBRANCH   2   3
ENDBRANCH   1   2
BRANCH   1   6
ATOM      6  C   UNL     1      11.421  -2.980  17.429  1.00  0.00     0.000 C 
BRANCH   6   7
ATOM      7  C   UNL     1      10.575  -3.885  16.520  1.00  0.00    -0.000 C 
BRANCH   7   8
ATOM      8  C   UNL     1      10.188  -3.202  15.199  1.00  0.00    -0.003 C 
ATOM      9  C   UNL     1      10.152  -1.685  15.357  1.00  0.00     0.004 C 
ENDBRANCH   7   8
ENDBRANCH   6   7
ENDBRANCH   1   6
TORSDOF 5
ENDMDL
MODEL 8
REMARK VINA RESULT:    -2.827      8.232      9.224
REMARK INTER + INTRA:          -3.740
REMARK INTER:                  -3.463
REMARK INTRA:                  -0.277
REMARK UNBOUND:                -0.086
REMARK SMILES CCCCCCC(=O)[O-]
REMARK SMILES IDX 5 1 6 2 7 3 8 4 9 5 4 6 3 7 2 8 1 9
REMARK H PARENT
REMARK Flexibility Score: inf
ROOT
ATOM      1  C   UNL     1      10.509  -3.388  15.637  1.00  0.00     0.006 C 
ENDROOT
BRANCH   1   2
ATOM      2  C   UNL     1      10.850  -3.835  17.065  1.00  0.00     0.053 C 
BRANCH   2   3
ATOM      3  C   UNL     1      12.109  -3.195  17.565  1.00  0.00     0.041 C 
ATOM      4  O   UNL     1      12.077  -2.434  18.568  1.00  0.00    -0.550 OA
ATOM      5  O   UNL     1      13.312  -3.414  16.907  1.00  0.00    -0.550 OA
ENDBRANCH   2   3
ENDBRANCH   1   2
BRANCH   1   6
ATOM      6  C   UNL     1      10.283  -1.869  15.543  1.00  0.00     0.000 C 
BRANCH   6   7
ATOM      7  C   UNL     1       8.848  -1.510  15.124  1.00  0.00    -0.000 C 
BRANCH   7   8
ATOM      8  C   UNL     1       8.118  -2.680  14.450  1.00  0.00    -0.003 C 
ATOM      9  C   UNL     1       6.749  -2.912  15.086  1.00  0.00     0.004 C 
ENDBRANCH   7   8
ENDBRANCH   6   7
ENDBRANCH   1   6
TORSDOF 5
ENDMDL
MODEL 9
REMARK VINA RESULT:    -2.781      5.325      6.158
REMARK INTER + INTRA:          -3.680
REMARK INTER:                  -3.259
REMARK INTRA:                  -0.421
REMARK UNBOUND:                -0.086
REMARK SMILES CCCCCCC(=O)[O-]
REMARK SMILES IDX 5 1 6 2 7 3 8 4 9 5 4 6 3 7 2 8 1 9
REMARK H PARENT
REMARK Flexibility Score: inf
ROOT
ATOM      1  C   UNL     1      11.564 -12.354  16.521  1.00  0.00     0.006 C 
ENDROOT
BRANCH   1   2
ATOM      2  C   UNL     1      12.554 -13.489  16.812  1.00  0.00     0.053 C 
BRANCH   2   3
ATOM      3  C   UNL     1      12.865 -13.598  18.274  1.00  0.00     0.041 C 
ATOM      4  O   UNL     1      13.993 -14.012  18.652  1.00  0.00    -0.550 OA
ATOM      5  O   UNL     1      11.900 -13.274  19.218  1.00  0.00    -0.550 OA
ENDBRANCH   2   3
ENDBRANCH   1   2
BRANCH   1   6
ATOM      6  C   UNL     1      12.268 -11.089  15.999  1.00  0.00     0.000 C 
BRANCH   6   7
ATOM      7  C   UNL     1      11.968  -9.849  16.856  1.00  0.00    -0.000 C 
BRANCH   7   8
ATOM      8  C   UNL     1      12.761  -9.830  18.171  1.00  0.00    -0.003 C 
ATOM      9  C   UNL     1      14.235 -10.138  17.925  1.00  0.00     0.004 C 
ENDBRANCH   7   8
ENDBRANCH   6   7
ENDBRANCH   1   6
TORSDOF 5
ENDMDL
