MODEL 1
REMARK VINA RESULT:    -6.004      0.000      0.000
REMARK INTER + INTRA:          -6.393
REMARK INTER:                  -6.356
REMARK INTRA:                  -0.038
REMARK UNBOUND:                -0.038
REMARK SMILES COc1ccc2ccc(=O)oc2c1
REMARK SMILES IDX 3 1 13 2 12 3 6 4 5 5 4 6 7 7 8 8 9 9 10 10 11 11 2 12 1 13
REMARK H PARENT
REMARK Flexibility Score: inf
ROOT
ATOM      1  C   UNL     1     -32.498  11.376 -34.439  1.00  0.00     0.122 A 
ATOM      2  C   UNL     1     -33.085  12.200 -35.421  1.00  0.00     0.094 A 
ATOM      3  C   UNL     1     -33.273  11.721 -36.722  1.00  0.00     0.142 A 
ATOM      4  C   UNL     1     -32.875  10.408 -37.053  1.00  0.00     0.018 A 
ATOM      5  C   UNL     1     -32.292   9.589 -36.078  1.00  0.00     0.016 A 
ATOM      6  C   UNL     1     -32.107  10.074 -34.780  1.00  0.00     0.047 A 
ATOM      7  C   UNL     1     -33.076   9.959 -38.362  1.00  0.00     0.019 A 
ATOM      8  C   UNL     1     -33.661  10.814 -39.296  1.00  0.00     0.094 A 
ATOM      9  C   UNL     1     -34.031  12.103 -38.897  1.00  0.00     0.336 A 
ATOM     10  O   UNL     1     -34.560  12.889 -39.725  1.00  0.00    -0.246 OA
ATOM     11  O   UNL     1     -33.828  12.505 -37.645  1.00  0.00    -0.423 OA
ENDROOT
BRANCH   1  12
ATOM     12  O   UNL     1     -32.288  11.810 -33.122  1.00  0.00    -0.497 OA
ATOM     13  C   UNL     1     -32.137  13.174 -32.738  1.00  0.00     0.278 C 
ENDBRANCH   1  12
TORSDOF 1
ENDMDL
MODEL 2
REMARK VINA RESULT:    -5.510      2.041      3.131
REMARK INTER + INTRA:          -5.870
REMARK INTER:                  -5.834
REMARK INTRA:                  -0.036
REMARK UNBOUND:                -0.038
REMARK SMILES COc1ccc2ccc(=O)oc2c1
REMARK SMILES IDX 3 1 13 2 12 3 6 4 5 5 4 6 7 7 8 8 9 9 10 10 11 11 2 12 1 13
REMARK H PARENT
REMARK Flexibility Score: inf
ROOT
ATOM      1  C   UNL     1     -32.672  10.678 -36.719  1.00  0.00     0.122 A 
ATOM      2  C   UNL     1     -33.189   9.831 -37.719  1.00  0.00     0.094 A 
ATOM      3  C   UNL     1     -33.893  10.368 -38.803  1.00  0.00     0.142 A 
ATOM      4  C   UNL     1     -34.085  11.764 -38.894  1.00  0.00     0.018 A 
ATOM      5  C   UNL     1     -33.570  12.606 -37.901  1.00  0.00     0.016 A 
ATOM      6  C   UNL     1     -32.868  12.061 -36.821  1.00  0.00     0.047 A 
ATOM      7  C   UNL     1     -34.793  12.270 -39.989  1.00  0.00     0.019 A 
ATOM      8  C   UNL     1     -35.285  11.390 -40.952  1.00  0.00     0.094 A 
ATOM      9  C   UNL     1     -35.058  10.018 -40.796  1.00  0.00     0.336 A 
ATOM     10  O   UNL     1     -35.493   9.207 -41.654  1.00  0.00    -0.246 OA
ATOM     11  O   UNL     1     -34.381   9.563 -39.745  1.00  0.00    -0.423 OA
ENDROOT
BRANCH   1  12
ATOM     12  O   UNL     1     -31.960  10.188 -35.615  1.00  0.00    -0.497 OA
ATOM     13  C   UNL     1     -32.122  10.657 -34.279  1.00  0.00     0.278 C 
ENDBRANCH   1  12
TORSDOF 1
ENDMDL
MODEL 3
REMARK VINA RESULT:    -5.426      2.135      5.614
REMARK INTER + INTRA:          -5.781
REMARK INTER:                  -5.750
REMARK INTRA:                  -0.031
REMARK UNBOUND:                -0.038
REMARK SMILES COc1ccc2ccc(=O)oc2c1
REMARK SMILES IDX 3 1 13 2 12 3 6 4 5 5 4 6 7 7 8 8 9 9 10 10 11 11 2 12 1 13
REMARK H PARENT
REMARK Flexibility Score: inf
ROOT
ATOM      1  C   UNL     1     -34.739  10.839 -40.372  1.00  0.00     0.122 A 
ATOM      2  C   UNL     1     -34.214   9.897 -39.464  1.00  0.00     0.094 A 
ATOM      3  C   UNL     1     -33.672  10.319 -38.245  1.00  0.00     0.142 A 
ATOM      4  C   UNL     1     -33.650  11.693 -37.923  1.00  0.00     0.018 A 
ATOM      5  C   UNL     1     -34.172  12.630 -38.825  1.00  0.00     0.016 A 
ATOM      6  C   UNL     1     -34.712  12.200 -40.041  1.00  0.00     0.047 A 
ATOM      7  C   UNL     1     -33.101  12.084 -36.698  1.00  0.00     0.019 A 
ATOM      8  C   UNL     1     -32.595  11.112 -35.835  1.00  0.00     0.094 A 
ATOM      9  C   UNL     1     -32.650   9.768 -36.220  1.00  0.00     0.336 A 
ATOM     10  O   UNL     1     -32.199   8.877 -35.454  1.00  0.00    -0.246 OA
ATOM     11  O   UNL     1     -33.178   9.425 -37.391  1.00  0.00    -0.423 OA
ENDROOT
BRANCH   1  12
ATOM     12  O   UNL     1     -35.292  10.465 -41.605  1.00  0.00    -0.497 OA
ATOM     13  C   UNL     1     -36.688  10.462 -41.893  1.00  0.00     0.278 C 
ENDBRANCH   1  12
TORSDOF 1
ENDMDL
MODEL 4
REMARK VINA RESULT:    -5.319      1.882      5.118
REMARK INTER + INTRA:          -5.668
REMARK INTER:                  -5.628
REMARK INTRA:                  -0.040
REMARK UNBOUND:                -0.038
REMARK SMILES COc1ccc2ccc(=O)oc2c1
REMARK SMILES IDX 3 1 13 2 12 3 6 4 5 5 4 6 7 7 8 8 9 9 10 10 11 11 2 12 1 13
REMARK H PARENT
REMARK Flexibility Score: inf
ROOT
ATOM      1  C   UNL     1     -32.522   9.801 -38.867  1.00  0.00     0.122 A 
ATOM      2  C   UNL     1     -32.121   9.677 -37.521  1.00  0.00     0.094 A 
ATOM      3  C   UNL     1     -32.523  10.627 -36.576  1.00  0.00     0.142 A 
ATOM      4  C   UNL     1     -33.333  11.713 -36.971  1.00  0.00     0.018 A 
ATOM      5  C   UNL     1     -33.732  11.836 -38.308  1.00  0.00     0.016 A 
ATOM      6  C   UNL     1     -33.327  10.883 -39.246  1.00  0.00     0.047 A 
ATOM      7  C   UNL     1     -33.717  12.646 -36.003  1.00  0.00     0.019 A 
ATOM      8  C   UNL     1     -33.294  12.478 -34.685  1.00  0.00     0.094 A 
ATOM      9  C   UNL     1     -32.492  11.377 -34.365  1.00  0.00     0.336 A 
ATOM     10  O   UNL     1     -32.100  11.208 -33.181  1.00  0.00    -0.246 OA
ATOM     11  O   UNL     1     -32.141  10.505 -35.306  1.00  0.00    -0.423 OA
ENDROOT
BRANCH   1  12
ATOM     12  O   UNL     1     -32.145   8.875 -39.851  1.00  0.00    -0.497 OA
ATOM     13  C   UNL     1     -32.613   8.895 -41.196  1.00  0.00     0.278 C 
ENDBRANCH   1  12
TORSDOF 1
ENDMDL
MODEL 5
REMARK VINA RESULT:    -5.284      1.661      2.153
REMARK INTER + INTRA:          -5.631
REMARK INTER:                  -5.592
REMARK INTRA:                  -0.039
REMARK UNBOUND:                -0.038
REMARK SMILES COc1ccc2ccc(=O)oc2c1
REMARK SMILES IDX 3 1 13 2 12 3 6 4 5 5 4 6 7 7 8 8 9 9 10 10 11 11 2 12 1 13
REMARK H PARENT
REMARK Flexibility Score: inf
ROOT
ATOM      1  C   UNL     1     -32.631  10.753 -36.080  1.00  0.00     0.122 A 
ATOM      2  C   UNL     1     -33.536  11.061 -37.116  1.00  0.00     0.094 A 
ATOM      3  C   UNL     1     -33.423  10.432 -38.360  1.00  0.00     0.142 A 
ATOM      4  C   UNL     1     -32.399   9.486 -38.580  1.00  0.00     0.018 A 
ATOM      5  C   UNL     1     -31.499   9.180 -37.552  1.00  0.00     0.016 A 
ATOM      6  C   UNL     1     -31.619   9.812 -36.310  1.00  0.00     0.047 A 
ATOM      7  C   UNL     1     -32.312   8.875 -39.835  1.00  0.00     0.019 A 
ATOM      8  C   UNL     1     -33.232   9.214 -40.826  1.00  0.00     0.094 A 
ATOM      9  C   UNL     1     -34.221  10.161 -40.537  1.00  0.00     0.336 A 
ATOM     10  O   UNL     1     -35.062  10.480 -41.419  1.00  0.00    -0.246 OA
ATOM     11  O   UNL     1     -34.281  10.727 -39.335  1.00  0.00    -0.423 OA
ENDROOT
BRANCH   1  12
ATOM     12  O   UNL     1     -32.703  11.356 -34.816  1.00  0.00    -0.497 OA
ATOM     13  C   UNL     1     -33.503  12.496 -34.512  1.00  0.00     0.278 C 
ENDBRANCH   1  12
TORSDOF 1
ENDMDL
MODEL 6
REMARK VINA RESULT:    -5.176      1.310      4.893
REMARK INTER + INTRA:          -5.516
REMARK INTER:                  -5.480
REMARK INTRA:                  -0.036
REMARK UNBOUND:                -0.038
REMARK SMILES COc1ccc2ccc(=O)oc2c1
REMARK SMILES IDX 3 1 13 2 12 3 6 4 5 5 4 6 7 7 8 8 9 9 10 10 11 11 2 12 1 13
REMARK H PARENT
REMARK Flexibility Score: inf
ROOT
ATOM      1  C   UNL     1     -34.023  11.279 -39.381  1.00  0.00     0.122 A 
ATOM      2  C   UNL     1     -33.916  11.794 -38.074  1.00  0.00     0.094 A 
ATOM      3  C   UNL     1     -33.172  11.111 -37.106  1.00  0.00     0.142 A 
ATOM      4  C   UNL     1     -32.526   9.902 -37.440  1.00  0.00     0.018 A 
ATOM      5  C   UNL     1     -32.630   9.390 -38.739  1.00  0.00     0.016 A 
ATOM      6  C   UNL     1     -33.376  10.078 -39.701  1.00  0.00     0.047 A 
ATOM      7  C   UNL     1     -31.790   9.243 -36.450  1.00  0.00     0.019 A 
ATOM      8  C   UNL     1     -31.715   9.794 -35.171  1.00  0.00     0.094 A 
ATOM      9  C   UNL     1     -32.383  10.997 -34.912  1.00  0.00     0.336 A 
ATOM     10  O   UNL     1     -32.328  11.510 -33.764  1.00  0.00    -0.246 OA
ATOM     11  O   UNL     1     -33.076  11.603 -35.872  1.00  0.00    -0.423 OA
ENDROOT
BRANCH   1  12
ATOM     12  O   UNL     1     -34.757  11.926 -40.386  1.00  0.00    -0.497 OA
ATOM     13  C   UNL     1     -35.622  11.264 -41.304  1.00  0.00     0.278 C 
ENDBRANCH   1  12
TORSDOF 1
ENDMDL
MODEL 7
REMARK VINA RESULT:    -5.022      1.850      2.486
REMARK INTER + INTRA:          -5.353
REMARK INTER:                  -5.313
REMARK INTRA:                  -0.040
REMARK UNBOUND:                -0.038
REMARK SMILES COc1ccc2ccc(=O)oc2c1
REMARK SMILES IDX 3 1 13 2 12 3 6 4 5 5 4 6 7 7 8 8 9 9 10 10 11 11 2 12 1 13
REMARK H PARENT
REMARK Flexibility Score: inf
ROOT
ATOM      1  C   UNL     1     -32.491  11.788 -33.919  1.00  0.00     0.122 A 
ATOM      2  C   UNL     1     -31.942  10.824 -34.788  1.00  0.00     0.094 A 
ATOM      3  C   UNL     1     -32.345  10.771 -36.127  1.00  0.00     0.142 A 
ATOM      4  C   UNL     1     -33.305  11.686 -36.609  1.00  0.00     0.018 A 
ATOM      5  C   UNL     1     -33.851  12.645 -35.746  1.00  0.00     0.016 A 
ATOM      6  C   UNL     1     -33.443  12.692 -34.410  1.00  0.00     0.047 A 
ATOM      7  C   UNL     1     -33.687  11.608 -37.952  1.00  0.00     0.019 A 
ATOM      8  C   UNL     1     -33.114  10.635 -38.770  1.00  0.00     0.094 A 
ATOM      9  C   UNL     1     -32.169   9.760 -38.224  1.00  0.00     0.336 A 
ATOM     10  O   UNL     1     -31.639   8.876 -38.947  1.00  0.00    -0.246 OA
ATOM     11  O   UNL     1     -31.823   9.857 -36.943  1.00  0.00    -0.423 OA
ENDROOT
BRANCH   1  12
ATOM     12  O   UNL     1     -32.120  11.881 -32.570  1.00  0.00    -0.497 OA
ATOM     13  C   UNL     1     -32.409  12.996 -31.730  1.00  0.00     0.278 C 
ENDBRANCH   1  12
TORSDOF 1
ENDMDL
