MODEL 1
REMARK VINA RESULT:     9.153      0.000      0.000
REMARK INTER + INTRA:          14.169
REMARK INTER:                  14.504
REMARK INTRA:                  -0.335
REMARK UNBOUND:                -0.335
REMARK SMILES CCCCCCCCCCCC(=O)[O-]
REMARK SMILES IDX 7 1 8 2 9 3 10 4 11 5 12 6 13 7 14 8 6 9 5 10 4 11 3 12 2 13
REMARK SMILES IDX 1 14
REMARK H PARENT
REMARK Flexibility Score: inf
ROOT
ATOM      1  C   UNL     1     -10.988  -1.535 -18.378  1.00  0.00     0.000 C 
ENDROOT
BRANCH   1   2
ATOM      2  C   UNL     1     -12.311  -1.663 -17.600  1.00  0.00     0.000 C 
BRANCH   2   3
ATOM      3  C   UNL     1     -12.766  -0.388 -16.868  1.00  0.00     0.000 C 
BRANCH   3   4
ATOM      4  C   UNL     1     -12.662   0.875 -17.739  1.00  0.00     0.006 C 
BRANCH   4   5
ATOM      5  C   UNL     1     -11.720   1.923 -17.132  1.00  0.00     0.053 C 
BRANCH   5   6
ATOM      6  C   UNL     1     -12.210   3.319 -17.370  1.00  0.00     0.041 C 
ATOM      7  O   UNL     1     -13.122   3.535 -18.209  1.00  0.00    -0.550 OA
ATOM      8  O   UNL     1     -11.678   4.377 -16.643  1.00  0.00    -0.550 OA
ENDBRANCH   5   6
ENDBRANCH   4   5
ENDBRANCH   3   4
ENDBRANCH   2   3
ENDBRANCH   1   2
BRANCH   1   9
ATOM      9  C   UNL     1      -9.856  -0.919 -17.539  1.00  0.00     0.000 C 
BRANCH   9  10
ATOM     10  C   UNL     1      -8.487  -1.551 -17.840  1.00  0.00    -0.000 C 
BRANCH  10  11
ATOM     11  C   UNL     1      -7.337  -0.536 -17.775  1.00  0.00    -0.000 C 
BRANCH  11  12
ATOM     12  C   UNL     1      -6.875  -0.323 -16.325  1.00  0.00    -0.000 C 
BRANCH  12  13
ATOM     13  C   UNL     1      -6.949  -1.607 -15.485  1.00  0.00    -0.003 C 
ATOM     14  C   UNL     1      -7.463  -1.359 -14.068  1.00  0.00     0.004 C 
ENDBRANCH  12  13
ENDBRANCH  11  12
ENDBRANCH  10  11
ENDBRANCH   9  10
ENDBRANCH   1   9
TORSDOF 10
ENDMDL
MODEL 2
REMARK VINA RESULT:     9.633      2.975      5.907
REMARK INTER + INTRA:          14.930
REMARK INTER:                  15.327
REMARK INTRA:                  -0.397
REMARK UNBOUND:                -0.335
REMARK SMILES CCCCCCCCCCCC(=O)[O-]
REMARK SMILES IDX 7 1 8 2 9 3 10 4 11 5 12 6 13 7 14 8 6 9 5 10 4 11 3 12 2 13
REMARK SMILES IDX 1 14
REMARK H PARENT
REMARK Flexibility Score: inf
ROOT
ATOM      1  C   UNL     1     -11.850  -1.008 -18.479  1.00  0.00     0.000 C 
ENDROOT
BRANCH   1   2
ATOM      2  C   UNL     1     -10.516  -1.715 -18.171  1.00  0.00     0.000 C 
BRANCH   2   3
ATOM      3  C   UNL     1      -9.465  -0.847 -17.456  1.00  0.00     0.000 C 
BRANCH   3   4
ATOM      4  C   UNL     1      -8.062  -1.476 -17.461  1.00  0.00     0.006 C 
BRANCH   4   5
ATOM      5  C   UNL     1      -7.051  -0.645 -16.660  1.00  0.00     0.053 C 
BRANCH   5   6
ATOM      6  C   UNL     1      -7.129  -0.935 -15.192  1.00  0.00     0.041 C 
ATOM      7  O   UNL     1      -7.448  -0.025 -14.383  1.00  0.00    -0.550 OA
ATOM      8  O   UNL     1      -6.876  -2.217 -14.721  1.00  0.00    -0.550 OA
ENDBRANCH   5   6
ENDBRANCH   4   5
ENDBRANCH   3   4
ENDBRANCH   2   3
ENDBRANCH   1   2
BRANCH   1   9
ATOM      9  C   UNL     1     -12.491  -0.369 -17.237  1.00  0.00     0.000 C 
BRANCH   9  10
ATOM     10  C   UNL     1     -12.185   1.134 -17.121  1.00  0.00    -0.000 C 
BRANCH  10  11
ATOM     11  C   UNL     1     -13.077   1.994 -18.028  1.00  0.00    -0.000 C 
BRANCH  11  12
ATOM     12  C   UNL     1     -12.668   3.473 -17.955  1.00  0.00    -0.000 C 
BRANCH  12  13
ATOM     13  C   UNL     1     -11.701   3.764 -16.797  1.00  0.00    -0.003 C 
ATOM     14  C   UNL     1     -11.812   5.196 -16.277  1.00  0.00     0.004 C 
ENDBRANCH  12  13
ENDBRANCH  11  12
ENDBRANCH  10  11
ENDBRANCH   9  10
ENDBRANCH   1   9
TORSDOF 10
ENDMDL
MODEL 3
REMARK VINA RESULT:    10.137      1.458      2.012
REMARK INTER + INTRA:          15.728
REMARK INTER:                  16.180
REMARK INTRA:                  -0.452
REMARK UNBOUND:                -0.335
REMARK SMILES CCCCCCCCCCCC(=O)[O-]
REMARK SMILES IDX 7 1 8 2 9 3 10 4 11 5 12 6 13 7 14 8 6 9 5 10 4 11 3 12 2 13
REMARK SMILES IDX 1 14
REMARK H PARENT
REMARK Flexibility Score: inf
ROOT
ATOM      1  C   UNL     1     -12.116  -0.780 -18.265  1.00  0.00     0.000 C 
ENDROOT
BRANCH   1   2
ATOM      2  C   UNL     1     -12.254   0.068 -16.986  1.00  0.00     0.000 C 
BRANCH   2   3
ATOM      3  C   UNL     1     -12.135   1.589 -17.194  1.00  0.00     0.000 C 
BRANCH   3   4
ATOM      4  C   UNL     1     -12.917   2.090 -18.420  1.00  0.00     0.006 C 
BRANCH   4   5
ATOM      5  C   UNL     1     -13.032   3.620 -18.448  1.00  0.00     0.053 C 
BRANCH   5   6
ATOM      6  C   UNL     1     -14.459   4.070 -18.548  1.00  0.00     0.041 C 
ATOM      7  O   UNL     1     -15.378   3.377 -18.041  1.00  0.00    -0.550 OA
ATOM      8  O   UNL     1     -14.767   5.269 -19.178  1.00  0.00    -0.550 OA
ENDBRANCH   5   6
ENDBRANCH   4   5
ENDBRANCH   3   4
ENDBRANCH   2   3
ENDBRANCH   1   2
BRANCH   1   9
ATOM      9  C   UNL     1     -10.684  -1.289 -18.496  1.00  0.00     0.000 C 
BRANCH   9  10
ATOM     10  C   UNL     1      -9.752  -0.989 -17.309  1.00  0.00    -0.000 C 
BRANCH  10  11
ATOM     11  C   UNL     1      -8.376  -1.655 -17.451  1.00  0.00    -0.000 C 
BRANCH  11  12
ATOM     12  C   UNL     1      -7.250  -0.656 -17.140  1.00  0.00    -0.000 C 
BRANCH  12  13
ATOM     13  C   UNL     1      -7.025  -0.469 -15.631  1.00  0.00    -0.003 C 
ATOM     14  C   UNL     1      -6.884  -1.795 -14.885  1.00  0.00     0.004 C 
ENDBRANCH  12  13
ENDBRANCH  11  12
ENDBRANCH  10  11
ENDBRANCH   9  10
ENDBRANCH   1   9
TORSDOF 10
ENDMDL
MODEL 4
REMARK VINA RESULT:    10.204      1.189      1.581
REMARK INTER + INTRA:          15.834
REMARK INTER:                  16.208
REMARK INTRA:                  -0.374
REMARK UNBOUND:                -0.335
REMARK SMILES CCCCCCCCCCCC(=O)[O-]
REMARK SMILES IDX 7 1 8 2 9 3 10 4 11 5 12 6 13 7 14 8 6 9 5 10 4 11 3 12 2 13
REMARK SMILES IDX 1 14
REMARK H PARENT
REMARK Flexibility Score: inf
ROOT
ATOM      1  C   UNL     1     -11.712  -0.636 -18.237  1.00  0.00     0.000 C 
ENDROOT
BRANCH   1   2
ATOM      2  C   UNL     1     -12.350   0.225 -17.130  1.00  0.00     0.000 C 
BRANCH   2   3
ATOM      3  C   UNL     1     -13.286   1.341 -17.626  1.00  0.00     0.000 C 
BRANCH   3   4
ATOM      4  C   UNL     1     -12.548   2.439 -18.412  1.00  0.00     0.006 C 
BRANCH   4   5
ATOM      5  C   UNL     1     -12.849   3.842 -17.868  1.00  0.00     0.053 C 
BRANCH   5   6
ATOM      6  C   UNL     1     -11.912   4.225 -16.762  1.00  0.00     0.041 C 
ATOM      7  O   UNL     1     -10.980   3.449 -16.425  1.00  0.00    -0.550 OA
ATOM      8  O   UNL     1     -12.054   5.450 -16.123  1.00  0.00    -0.550 OA
ENDBRANCH   5   6
ENDBRANCH   4   5
ENDBRANCH   3   4
ENDBRANCH   2   3
ENDBRANCH   1   2
BRANCH   1   9
ATOM      9  C   UNL     1     -10.586  -1.544 -17.717  1.00  0.00     0.000 C 
BRANCH   9  10
ATOM     10  C   UNL     1      -9.389  -0.747 -17.172  1.00  0.00    -0.000 C 
BRANCH  10  11
ATOM     11  C   UNL     1      -8.045  -1.235 -17.733  1.00  0.00    -0.000 C 
BRANCH  11  12
ATOM     12  C   UNL     1      -6.875  -0.470 -17.095  1.00  0.00    -0.000 C 
BRANCH  12  13
ATOM     13  C   UNL     1      -6.965  -0.422 -15.562  1.00  0.00    -0.003 C 
ATOM     14  C   UNL     1      -7.060  -1.809 -14.930  1.00  0.00     0.004 C 
ENDBRANCH  12  13
ENDBRANCH  11  12
ENDBRANCH  10  11
ENDBRANCH   9  10
ENDBRANCH   1   9
TORSDOF 10
ENDMDL
MODEL 5
REMARK VINA RESULT:    10.339      2.495      3.512
REMARK INTER + INTRA:          16.049
REMARK INTER:                  16.344
REMARK INTRA:                  -0.296
REMARK UNBOUND:                -0.335
REMARK SMILES CCCCCCCCCCCC(=O)[O-]
REMARK SMILES IDX 7 1 8 2 9 3 10 4 11 5 12 6 13 7 14 8 6 9 5 10 4 11 3 12 2 13
REMARK SMILES IDX 1 14
REMARK H PARENT
REMARK Flexibility Score: inf
ROOT
ATOM      1  C   UNL     1     -12.409   0.953 -17.174  1.00  0.00     0.000 C 
ENDROOT
BRANCH   1   2
ATOM      2  C   UNL     1     -12.390   2.388 -17.732  1.00  0.00     0.000 C 
BRANCH   2   3
ATOM      3  C   UNL     1     -13.715   2.867 -18.352  1.00  0.00     0.000 C 
BRANCH   3   4
ATOM      4  C   UNL     1     -13.624   4.283 -18.945  1.00  0.00     0.006 C 
BRANCH   4   5
ATOM      5  C   UNL     1     -14.988   4.986 -18.981  1.00  0.00     0.053 C 
BRANCH   5   6
ATOM      6  C   UNL     1     -14.954   6.228 -19.819  1.00  0.00     0.041 C 
ATOM      7  O   UNL     1     -14.731   6.151 -21.055  1.00  0.00    -0.550 OA
ATOM      8  O   UNL     1     -15.196   7.466 -19.238  1.00  0.00    -0.550 OA
ENDBRANCH   5   6
ENDBRANCH   4   5
ENDBRANCH   3   4
ENDBRANCH   2   3
ENDBRANCH   1   2
BRANCH   1   9
ATOM      9  C   UNL     1     -12.070  -0.108 -18.235  1.00  0.00     0.000 C 
BRANCH   9  10
ATOM     10  C   UNL     1     -11.014  -1.114 -17.747  1.00  0.00    -0.000 C 
BRANCH  10  11
ATOM     11  C   UNL     1      -9.759  -0.431 -17.183  1.00  0.00    -0.000 C 
BRANCH  11  12
ATOM     12  C   UNL     1      -8.534  -1.351 -17.303  1.00  0.00    -0.000 C 
BRANCH  12  13
ATOM     13  C   UNL     1      -7.287  -0.767 -16.622  1.00  0.00    -0.003 C 
ATOM     14  C   UNL     1      -7.045  -1.349 -15.230  1.00  0.00     0.004 C 
ENDBRANCH  12  13
ENDBRANCH  11  12
ENDBRANCH  10  11
ENDBRANCH   9  10
ENDBRANCH   1   9
TORSDOF 10
ENDMDL
