MODEL 1
REMARK VINA RESULT:    -4.203      0.000      0.000
REMARK INTER + INTRA:          -6.302
REMARK INTER:                  -5.923
REMARK INTRA:                  -0.378
REMARK UNBOUND:                -0.378
REMARK SMILES CC1=CCC(=C(C)C)C(=O)CC(C)=CCC1
REMARK SMILES IDX 12 1 14 2 13 3 15 4 16 5 2 6 1 7 3 8 11 10 9 11 10 12 5 13
REMARK SMILES IDX 6 14 7 15 8 16 4 17
REMARK H PARENT
REMARK Flexibility Score: 60.00
ROOT
ATOM      1  C   UNL     1      15.013 -33.427  23.184  1.00  0.00    -0.070 C 
ATOM      2  C   UNL     1      15.307 -33.884  21.932  1.00  0.00    -0.027 C 
ATOM      3  C   UNL     1      15.959 -33.648  24.337  1.00  0.00     0.039 C 
ENDROOT
BRANCH   2   4
ATOM      4  C   UNL     1      16.735 -34.125  21.425  1.00  0.00     0.032 C 
BRANCH   4   5
ATOM      5  C   UNL     1      17.442 -32.816  20.927  1.00  0.00     0.034 C 
BRANCH   5   6
ATOM      6  C   UNL     1      18.103 -31.897  21.992  1.00  0.00    -0.077 C 
ATOM      7  C   UNL     1      19.381 -32.343  22.654  1.00  0.00     0.039 C 
ATOM      8  C   UNL     1      17.629 -30.654  22.302  1.00  0.00    -0.023 CG0
ATOM      9  G   UNL     1      16.283 -30.276  21.792  1.00  0.00     0.000 G0
ENDBRANCH   5   6
ENDBRANCH   4   5
ENDBRANCH   2   4
BRANCH   1  10
ATOM     10  C   UNL     1      13.913 -32.373  23.356  1.00  0.00     0.111 C 
BRANCH  10  11
ATOM     11  C   UNL     1      14.021 -31.204  22.360  1.00  0.00     0.163 C 
ATOM     12  O   UNL     1      13.229 -31.188  21.379  1.00  0.00    -0.294 OA
BRANCH  11  13
ATOM     13  C   UNL     1      14.997 -30.061  22.551  1.00  0.00    -0.002 C 
ATOM     14  C   UNL     1      14.648 -28.881  23.131  1.00  0.00    -0.069 C 
ATOM     15  C   UNL     1      15.585 -27.699  23.136  1.00  0.00     0.039 C 
ATOM     16  C   UNL     1      13.278 -28.687  23.738  1.00  0.00     0.039 C 
BRANCH  13  17
ATOM     17  C   UNL     1      16.283 -30.268  21.804  1.00  0.00     0.066 CG0
ATOM     18  G   UNL     1      17.636 -30.661  22.283  1.00  0.00     0.000 G0
ENDBRANCH  13  17
ENDBRANCH  11  13
ENDBRANCH  10  11
ENDBRANCH   1  10
TORSDOF 0
ENDMDL
MODEL 2
REMARK VINA RESULT:    -4.185      1.841      4.026
REMARK INTER + INTRA:          -6.276
REMARK INTER:                  -6.251
REMARK INTRA:                  -0.026
REMARK UNBOUND:                -0.378
REMARK SMILES CC1=CCC(=C(C)C)C(=O)CC(C)=CCC1
REMARK SMILES IDX 12 1 14 2 13 3 15 4 16 5 2 6 1 7 3 8 11 10 9 11 10 12 5 13
REMARK SMILES IDX 6 14 7 15 8 16 4 17
REMARK H PARENT
REMARK Flexibility Score: 60.00
ROOT
ATOM      1  C   UNL     1      16.264 -33.789  22.850  1.00  0.00    -0.070 C 
ATOM      2  C   UNL     1      15.741 -33.322  24.022  1.00  0.00    -0.027 C 
ATOM      3  C   UNL     1      15.375 -34.333  21.762  1.00  0.00     0.039 C 
ENDROOT
BRANCH   2   4
ATOM      4  C   UNL     1      14.314 -32.777  24.163  1.00  0.00     0.032 C 
BRANCH   4   5
ATOM      5  C   UNL     1      14.184 -31.272  23.740  1.00  0.00     0.034 C 
BRANCH   5   6
ATOM      6  C   UNL     1      14.085 -30.950  22.222  1.00  0.00    -0.077 C 
ATOM      7  C   UNL     1      12.763 -31.123  21.520  1.00  0.00     0.039 C 
ATOM      8  C   UNL     1      15.122 -30.430  21.502  1.00  0.00    -0.023 CG0
ATOM      9  G   UNL     1      16.470 -30.418  22.132  1.00  0.00     0.000 G0
ENDBRANCH   5   6
ENDBRANCH   4   5
ENDBRANCH   2   4
BRANCH   1  10
ATOM     10  C   UNL     1      17.706 -33.423  22.477  1.00  0.00     0.111 C 
BRANCH  10  11
ATOM     11  C   UNL     1      17.804 -32.393  21.337  1.00  0.00     0.163 C 
ATOM     12  O   UNL     1      17.836 -32.823  20.153  1.00  0.00    -0.294 OA
BRANCH  11  13
ATOM     13  C   UNL     1      17.807 -30.899  21.591  1.00  0.00    -0.002 C 
ATOM     14  C   UNL     1      18.944 -30.152  21.586  1.00  0.00    -0.069 C 
ATOM     15  C   UNL     1      18.939 -28.709  22.027  1.00  0.00     0.039 C 
ATOM     16  C   UNL     1      20.273 -30.758  21.198  1.00  0.00     0.039 C 
BRANCH  13  17
ATOM     17  C   UNL     1      16.489 -30.397  22.105  1.00  0.00     0.066 CG0
ATOM     18  G   UNL     1      15.131 -30.429  21.498  1.00  0.00     0.000 G0
ENDBRANCH  13  17
ENDBRANCH  11  13
ENDBRANCH  10  11
ENDBRANCH   1  10
TORSDOF 0
ENDMDL
MODEL 3
REMARK VINA RESULT:    -4.079      2.011      3.691
REMARK INTER + INTRA:          -6.127
REMARK INTER:                  -5.703
REMARK INTRA:                  -0.424
REMARK UNBOUND:                -0.378
REMARK SMILES CC1=CCC(=C(C)C)C(=O)CC(C)=CCC1
REMARK SMILES IDX 12 1 14 2 13 3 15 4 16 5 2 6 1 7 3 8 11 10 9 11 10 12 5 13
REMARK SMILES IDX 6 14 7 15 8 16 4 17
REMARK H PARENT
REMARK Flexibility Score: 60.00
ROOT
ATOM      1  C   UNL     1      18.715 -32.324  21.920  1.00  0.00    -0.070 C 
ATOM      2  C   UNL     1      18.817 -33.359  22.805  1.00  0.00    -0.027 C 
ATOM      3  C   UNL     1      18.948 -32.533  20.446  1.00  0.00     0.039 C 
ENDROOT
BRANCH   2   4
ATOM      4  C   UNL     1      18.607 -34.830  22.425  1.00  0.00     0.032 C 
BRANCH   4   5
ATOM      5  C   UNL     1      17.094 -35.244  22.372  1.00  0.00     0.034 C 
BRANCH   5   6
ATOM      6  C   UNL     1      16.315 -34.978  21.054  1.00  0.00    -0.077 C 
ATOM      7  C   UNL     1      16.594 -35.839  19.849  1.00  0.00     0.039 C 
ATOM      8  C   UNL     1      15.316 -34.051  20.953  1.00  0.00    -0.023 CG0
ATOM      9  G   UNL     1      15.150 -33.083  22.071  1.00  0.00     0.000 G0
ENDBRANCH   5   6
ENDBRANCH   4   5
ENDBRANCH   2   4
BRANCH   1  10
ATOM     10  C   UNL     1      18.005 -31.036  22.354  1.00  0.00     0.111 C 
BRANCH  10  11
ATOM     11  C   UNL     1      16.629 -31.280  22.999  1.00  0.00     0.163 C 
ATOM     12  O   UNL     1      16.532 -31.157  24.250  1.00  0.00    -0.294 OA
BRANCH  11  13
ATOM     13  C   UNL     1      15.394 -31.602  22.181  1.00  0.00    -0.002 C 
ATOM     14  C   UNL     1      14.500 -30.654  21.789  1.00  0.00    -0.069 C 
ATOM     15  C   UNL     1      13.190 -31.029  21.142  1.00  0.00     0.039 C 
ATOM     16  C   UNL     1      14.758 -29.188  22.045  1.00  0.00     0.039 C 
BRANCH  13  17
ATOM     17  C   UNL     1      15.131 -33.077  22.089  1.00  0.00     0.066 CG0
ATOM     18  G   UNL     1      15.307 -34.029  20.959  1.00  0.00     0.000 G0
ENDBRANCH  13  17
ENDBRANCH  11  13
ENDBRANCH  10  11
ENDBRANCH   1  10
TORSDOF 0
ENDMDL
MODEL 4
REMARK VINA RESULT:    -3.985      3.448      5.294
REMARK INTER + INTRA:          -5.994
REMARK INTER:                  -5.569
REMARK INTRA:                  -0.425
REMARK UNBOUND:                -0.378
REMARK SMILES CC1=CCC(=C(C)C)C(=O)CC(C)=CCC1
REMARK SMILES IDX 12 1 14 2 13 3 15 4 16 5 2 6 1 7 3 8 11 10 9 11 10 12 5 13
REMARK SMILES IDX 6 14 7 15 8 16 4 17
REMARK H PARENT
REMARK Flexibility Score: 60.00
ROOT
ATOM      1  C   UNL     1      18.842 -32.724  20.699  1.00  0.00    -0.070 C 
ATOM      2  C   UNL     1      18.547 -33.658  19.748  1.00  0.00    -0.027 C 
ATOM      3  C   UNL     1      18.043 -31.452  20.817  1.00  0.00     0.039 C 
ENDROOT
BRANCH   2   4
ATOM      4  C   UNL     1      17.156 -33.830  19.124  1.00  0.00     0.032 C 
BRANCH   4   5
ATOM      5  C   UNL     1      16.162 -34.626  20.042  1.00  0.00     0.034 C 
BRANCH   5   6
ATOM      6  C   UNL     1      15.352 -33.825  21.099  1.00  0.00    -0.077 C 
ATOM      7  C   UNL     1      14.239 -32.918  20.639  1.00  0.00     0.039 C 
ATOM      8  C   UNL     1      15.538 -33.966  22.445  1.00  0.00    -0.023 CG0
ATOM      9  G   UNL     1      16.738 -34.717  22.905  1.00  0.00     0.000 G0
ENDBRANCH   5   6
ENDBRANCH   4   5
ENDBRANCH   2   4
BRANCH   1  10
ATOM     10  C   UNL     1      19.734 -33.118  21.882  1.00  0.00     0.111 C 
BRANCH  10  11
ATOM     11  C   UNL     1      19.202 -34.323  22.680  1.00  0.00     0.163 C 
ATOM     12  O   UNL     1      19.833 -35.411  22.599  1.00  0.00    -0.294 OA
BRANCH  11  13
ATOM     13  C   UNL     1      17.993 -34.225  23.588  1.00  0.00    -0.002 C 
ATOM     14  C   UNL     1      18.089 -33.961  24.919  1.00  0.00    -0.069 C 
ATOM     15  C   UNL     1      16.890 -34.056  25.830  1.00  0.00     0.039 C 
ATOM     16  C   UNL     1      19.419 -33.621  25.552  1.00  0.00     0.039 C 
BRANCH  13  17
ATOM     17  C   UNL     1      16.734 -34.708  22.929  1.00  0.00     0.066 CG0
ATOM     18  G   UNL     1      15.544 -33.964  22.435  1.00  0.00     0.000 G0
ENDBRANCH  13  17
ENDBRANCH  11  13
ENDBRANCH  10  11
ENDBRANCH   1  10
TORSDOF 0
ENDMDL
MODEL 5
REMARK VINA RESULT:    -3.978      2.319      4.568
REMARK INTER + INTRA:          -5.983
REMARK INTER:                  -5.642
REMARK INTRA:                  -0.342
REMARK UNBOUND:                -0.378
REMARK SMILES CC1=CCC(=C(C)C)C(=O)CC(C)=CCC1
REMARK SMILES IDX 12 1 14 2 13 3 15 4 16 5 2 6 1 7 3 8 11 10 9 11 10 12 5 13
REMARK SMILES IDX 6 14 7 15 8 16 4 17
REMARK H PARENT
REMARK Flexibility Score: 60.00
ROOT
ATOM      1  C   UNL     1      16.039 -32.434  23.881  1.00  0.00    -0.070 C 
ATOM      2  C   UNL     1      17.213 -32.282  24.562  1.00  0.00    -0.027 C 
ATOM      3  C   UNL     1      15.189 -31.243  23.519  1.00  0.00     0.039 C 
ENDROOT
BRANCH   2   4
ATOM      4  C   UNL     1      18.056 -31.000  24.534  1.00  0.00     0.032 C 
BRANCH   4   5
ATOM      5  C   UNL     1      19.022 -30.923  23.300  1.00  0.00     0.034 C 
BRANCH   5   6
ATOM      6  C   UNL     1      18.425 -30.472  21.938  1.00  0.00    -0.077 C 
ATOM      7  C   UNL     1      18.085 -29.019  21.730  1.00  0.00     0.039 C 
ATOM      8  C   UNL     1      18.270 -31.317  20.876  1.00  0.00    -0.023 CG0
ATOM      9  G   UNL     1      18.434 -32.776  21.118  1.00  0.00     0.000 G0
ENDBRANCH   5   6
ENDBRANCH   4   5
ENDBRANCH   2   4
BRANCH   1  10
ATOM     10  C   UNL     1      15.760 -33.756  23.158  1.00  0.00     0.111 C 
BRANCH  10  11
ATOM     11  C   UNL     1      16.995 -34.344  22.451  1.00  0.00     0.163 C 
ATOM     12  O   UNL     1      17.631 -35.260  23.038  1.00  0.00    -0.294 OA
BRANCH  11  13
ATOM     13  C   UNL     1      17.428 -33.899  21.069  1.00  0.00    -0.002 C 
ATOM     14  C   UNL     1      17.125 -34.596  19.941  1.00  0.00    -0.069 C 
ATOM     15  C   UNL     1      17.728 -34.233  18.606  1.00  0.00     0.039 C 
ATOM     16  C   UNL     1      16.219 -35.804  19.991  1.00  0.00     0.039 C 
BRANCH  13  17
ATOM     17  C   UNL     1      18.433 -32.785  21.109  1.00  0.00     0.066 CG0
ATOM     18  G   UNL     1      18.276 -31.323  20.879  1.00  0.00     0.000 G0
ENDBRANCH  13  17
ENDBRANCH  11  13
ENDBRANCH  10  11
ENDBRANCH   1  10
TORSDOF 0
ENDMDL
MODEL 6
REMARK VINA RESULT:    -3.883      1.665      4.348
REMARK INTER + INTRA:          -5.850
REMARK INTER:                  -5.576
REMARK INTRA:                  -0.274
REMARK UNBOUND:                -0.378
REMARK SMILES CC1=CCC(=C(C)C)C(=O)CC(C)=CCC1
REMARK SMILES IDX 12 1 14 2 13 3 15 4 16 5 2 6 1 7 3 8 11 10 9 11 10 12 5 13
REMARK SMILES IDX 6 14 7 15 8 16 4 17
REMARK H PARENT
REMARK Flexibility Score: 60.00
ROOT
ATOM      1  C   UNL     1      13.831 -32.155  21.726  1.00  0.00    -0.070 C 
ATOM      2  C   UNL     1      13.876 -31.970  23.078  1.00  0.00    -0.027 C 
ATOM      3  C   UNL     1      13.258 -31.101  20.813  1.00  0.00     0.039 C 
ENDROOT
BRANCH   2   4
ATOM      4  C   UNL     1      13.912 -30.591  23.750  1.00  0.00     0.032 C 
BRANCH   4   5
ATOM      5  C   UNL     1      15.361 -30.003  23.875  1.00  0.00     0.034 C 
BRANCH   5   6
ATOM      6  C   UNL     1      16.009 -29.392  22.601  1.00  0.00    -0.077 C 
ATOM      7  C   UNL     1      15.561 -28.031  22.131  1.00  0.00     0.039 C 
ATOM      8  C   UNL     1      17.035 -29.989  21.926  1.00  0.00    -0.023 CG0
ATOM      9  G   UNL     1      17.366 -31.398  22.269  1.00  0.00     0.000 G0
ENDBRANCH   5   6
ENDBRANCH   4   5
ENDBRANCH   2   4
BRANCH   1  10
ATOM     10  C   UNL     1      14.692 -33.255  21.092  1.00  0.00     0.111 C 
BRANCH  10  11
ATOM     11  C   UNL     1      16.038 -33.471  21.807  1.00  0.00     0.163 C 
ATOM     12  O   UNL     1      16.107 -34.386  22.672  1.00  0.00    -0.294 OA
BRANCH  11  13
ATOM     13  C   UNL     1      17.276 -32.667  21.467  1.00  0.00    -0.002 C 
ATOM     14  C   UNL     1      18.292 -33.162  20.708  1.00  0.00    -0.069 C 
ATOM     15  C   UNL     1      19.590 -32.410  20.544  1.00  0.00     0.039 C 
ATOM     16  C   UNL     1      18.182 -34.516  20.048  1.00  0.00     0.039 C 
BRANCH  13  17
ATOM     17  C   UNL     1      17.380 -31.400  22.265  1.00  0.00     0.066 CG0
ATOM     18  G   UNL     1      17.024 -29.998  21.917  1.00  0.00     0.000 G0
ENDBRANCH  13  17
ENDBRANCH  11  13
ENDBRANCH  10  11
ENDBRANCH   1  10
TORSDOF 0
ENDMDL
MODEL 7
REMARK VINA RESULT:    -3.849      2.608      5.224
REMARK INTER + INTRA:          -5.802
REMARK INTER:                  -5.537
REMARK INTRA:                  -0.265
REMARK UNBOUND:                -0.378
REMARK SMILES CC1=CCC(=C(C)C)C(=O)CC(C)=CCC1
REMARK SMILES IDX 12 1 14 2 13 3 15 4 16 5 2 6 1 7 3 8 11 10 9 11 10 12 5 13
REMARK SMILES IDX 6 14 7 15 8 16 4 17
REMARK H PARENT
REMARK Flexibility Score: 60.00
ROOT
ATOM      1  C   UNL     1      16.106 -33.265  24.428  1.00  0.00    -0.070 C 
ATOM      2  C   UNL     1      16.818 -32.105  24.313  1.00  0.00    -0.027 C 
ATOM      3  C   UNL     1      14.600 -33.255  24.454  1.00  0.00     0.039 C 
ENDROOT
BRANCH   2   4
ATOM      4  C   UNL     1      16.271 -30.829  23.661  1.00  0.00     0.032 C 
BRANCH   4   5
ATOM      5  C   UNL     1      16.338 -30.860  22.093  1.00  0.00     0.034 C 
BRANCH   5   6
ATOM      6  C   UNL     1      15.286 -31.721  21.340  1.00  0.00    -0.077 C 
ATOM      7  C   UNL     1      13.863 -31.233  21.255  1.00  0.00     0.039 C 
ATOM      8  C   UNL     1      15.604 -32.867  20.668  1.00  0.00    -0.023 CG0
ATOM      9  G   UNL     1      16.955 -33.449  20.887  1.00  0.00     0.000 G0
ENDBRANCH   5   6
ENDBRANCH   4   5
ENDBRANCH   2   4
BRANCH   1  10
ATOM     10  C   UNL     1      16.806 -34.602  24.155  1.00  0.00     0.111 C 
BRANCH  10  11
ATOM     11  C   UNL     1      17.801 -34.547  22.981  1.00  0.00     0.163 C 
ATOM     12  O   UNL     1      19.020 -34.373  23.247  1.00  0.00    -0.294 OA
BRANCH  11  13
ATOM     13  C   UNL     1      17.370 -34.751  21.542  1.00  0.00    -0.002 C 
ATOM     14  C   UNL     1      17.572 -35.916  20.869  1.00  0.00    -0.069 C 
ATOM     15  C   UNL     1      17.305 -36.025  19.388  1.00  0.00     0.039 C 
ATOM     16  C   UNL     1      18.133 -37.132  21.568  1.00  0.00     0.039 C 
BRANCH  13  17
ATOM     17  C   UNL     1      16.956 -33.471  20.876  1.00  0.00     0.066 CG0
ATOM     18  G   UNL     1      15.611 -32.869  20.673  1.00  0.00     0.000 G0
ENDBRANCH  13  17
ENDBRANCH  11  13
ENDBRANCH  10  11
ENDBRANCH   1  10
TORSDOF 0
ENDMDL
MODEL 8
REMARK VINA RESULT:    -3.800      1.940      4.916
REMARK INTER + INTRA:          -5.733
REMARK INTER:                  -5.817
REMARK INTRA:                   0.084
REMARK UNBOUND:                -0.378
REMARK SMILES CC1=CCC(=C(C)C)C(=O)CC(C)=CCC1
REMARK SMILES IDX 12 1 14 2 13 3 15 4 16 5 2 6 1 7 3 8 11 10 9 11 10 12 5 13
REMARK SMILES IDX 6 14 7 15 8 16 4 17
REMARK H PARENT
REMARK Flexibility Score: 60.00
ROOT
ATOM      1  C   UNL     1      18.308 -32.316  21.253  1.00  0.00    -0.070 C 
ATOM      2  C   UNL     1      17.569 -31.197  21.512  1.00  0.00    -0.027 C 
ATOM      3  C   UNL     1      19.603 -32.580  21.979  1.00  0.00     0.039 C 
ENDROOT
BRANCH   2   4
ATOM      4  C   UNL     1      17.612 -30.435  22.842  1.00  0.00     0.032 C 
BRANCH   4   5
ATOM      5  C   UNL     1      16.460 -30.844  23.825  1.00  0.00     0.034 C 
BRANCH   5   6
ATOM      6  C   UNL     1      15.035 -31.032  23.234  1.00  0.00    -0.077 C 
ATOM      7  C   UNL     1      14.205 -29.814  22.919  1.00  0.00     0.039 C 
ATOM      8  C   UNL     1      14.521 -32.252  22.900  1.00  0.00    -0.023 CG0
ATOM      9  G   UNL     1      15.250 -33.464  23.363  1.00  0.00     0.000 G0
ENDBRANCH   5   6
ENDBRANCH   4   5
ENDBRANCH   2   4
BRANCH   1  10
ATOM     10  C   UNL     1      17.656 -33.487  20.509  1.00  0.00     0.111 C 
BRANCH  10  11
ATOM     11  C   UNL     1      16.491 -34.134  21.280  1.00  0.00     0.163 C 
ATOM     12  O   UNL     1      15.570 -34.678  20.613  1.00  0.00    -0.294 OA
BRANCH  11  13
ATOM     13  C   UNL     1      16.448 -34.184  22.794  1.00  0.00    -0.002 C 
ATOM     14  C   UNL     1      17.260 -34.991  23.530  1.00  0.00    -0.069 C 
ATOM     15  C   UNL     1      17.066 -35.158  25.016  1.00  0.00     0.039 C 
ATOM     16  C   UNL     1      18.353 -35.802  22.873  1.00  0.00     0.039 C 
BRANCH  13  17
ATOM     17  C   UNL     1      15.258 -33.468  23.363  1.00  0.00     0.066 CG0
ATOM     18  G   UNL     1      14.531 -32.258  22.891  1.00  0.00     0.000 G0
ENDBRANCH  13  17
ENDBRANCH  11  13
ENDBRANCH  10  11
ENDBRANCH   1  10
TORSDOF 0
ENDMDL
MODEL 9
REMARK VINA RESULT:    -3.724      2.193      3.862
REMARK INTER + INTRA:          -5.626
REMARK INTER:                  -5.242
REMARK INTRA:                  -0.384
REMARK UNBOUND:                -0.378
REMARK SMILES CC1=CCC(=C(C)C)C(=O)CC(C)=CCC1
REMARK SMILES IDX 12 1 14 2 13 3 15 4 16 5 2 6 1 7 3 8 11 10 9 11 10 12 5 13
REMARK SMILES IDX 6 14 7 15 8 16 4 17
REMARK H PARENT
REMARK Flexibility Score: 60.00
ROOT
ATOM      1  C   UNL     1      18.729 -32.143  20.868  1.00  0.00    -0.070 C 
ATOM      2  C   UNL     1      19.875 -32.084  21.608  1.00  0.00    -0.027 C 
ATOM      3  C   UNL     1      18.251 -33.444  20.274  1.00  0.00     0.039 C 
ENDROOT
BRANCH   2   4
ATOM      4  C   UNL     1      20.459 -33.279  22.373  1.00  0.00     0.032 C 
BRANCH   4   5
ATOM      5  C   UNL     1      19.798 -33.495  23.779  1.00  0.00     0.034 C 
BRANCH   5   6
ATOM      6  C   UNL     1      18.534 -34.396  23.857  1.00  0.00    -0.077 C 
ATOM      7  C   UNL     1      18.684 -35.886  23.694  1.00  0.00     0.039 C 
ATOM      8  C   UNL     1      17.291 -33.913  24.154  1.00  0.00    -0.023 CG0
ATOM      9  G   UNL     1      17.098 -32.438  24.144  1.00  0.00     0.000 G0
ENDBRANCH   5   6
ENDBRANCH   4   5
ENDBRANCH   2   4
BRANCH   1  10
ATOM     10  C   UNL     1      17.728 -30.984  20.944  1.00  0.00     0.111 C 
BRANCH  10  11
ATOM     11  C   UNL     1      17.285 -30.648  22.380  1.00  0.00     0.163 C 
ATOM     12  O   UNL     1      17.676 -29.559  22.880  1.00  0.00    -0.294 OA
BRANCH  11  13
ATOM     13  C   UNL     1      16.361 -31.548  23.176  1.00  0.00    -0.002 C 
ATOM     14  C   UNL     1      15.009 -31.394  23.187  1.00  0.00    -0.069 C 
ATOM     15  C   UNL     1      14.135 -32.181  24.132  1.00  0.00     0.039 C 
ATOM     16  C   UNL     1      14.334 -30.378  22.295  1.00  0.00     0.039 C 
BRANCH  13  17
ATOM     17  C   UNL     1      17.101 -32.431  24.137  1.00  0.00     0.066 CG0
ATOM     18  G   UNL     1      17.302 -33.906  24.151  1.00  0.00     0.000 G0
ENDBRANCH  13  17
ENDBRANCH  11  13
ENDBRANCH  10  11
ENDBRANCH   1  10
TORSDOF 0
ENDMDL
