MODEL 1
REMARK VINA RESULT:    -5.766      0.000      0.000
REMARK INTER + INTRA:          -8.479
REMARK INTER:                  -7.789
REMARK INTRA:                  -0.690
REMARK UNBOUND:                -0.690
REMARK SMILES CC(=O)CCC=C(C)CCC=C(C)C
REMARK SMILES IDX 7 1 6 2 8 3 9 4 10 5 11 6 13 7 12 8 14 9 5 10 4 11 2 12 3 13
REMARK SMILES IDX 1 14
REMARK H PARENT
REMARK Flexibility Score: inf
ROOT
ATOM      1  C   UNL     1       0.156  29.253  33.547  1.00  0.00    -0.077 C 
ATOM      2  C   UNL     1      -0.346  28.858  32.357  1.00  0.00    -0.028 C 
ATOM      3  C   UNL     1       0.114  28.350  34.758  1.00  0.00     0.039 C 
ENDROOT
BRANCH   1   4
ATOM      4  C   UNL     1       0.775  30.630  33.673  1.00  0.00     0.034 C 
BRANCH   4   5
ATOM      5  C   UNL     1       2.165  30.694  33.024  1.00  0.00     0.032 C 
BRANCH   5   6
ATOM      6  C   UNL     1       3.027  29.522  33.432  1.00  0.00    -0.028 C 
ATOM      7  C   UNL     1       2.995  28.488  31.150  1.00  0.00     0.039 C 
ATOM      8  C   UNL     1       3.382  28.509  32.610  1.00  0.00    -0.080 C 
ATOM      9  C   UNL     1       4.205  27.382  33.177  1.00  0.00     0.039 C 
ENDBRANCH   5   6
ENDBRANCH   4   5
ENDBRANCH   1   4
BRANCH   2  10
ATOM     10  C   UNL     1      -0.987  27.508  32.139  1.00  0.00     0.035 C 
BRANCH  10  11
ATOM     11  C   UNL     1      -1.644  27.422  30.758  1.00  0.00     0.079 C 
BRANCH  11  12
ATOM     12  C   UNL     1      -2.713  26.362  30.743  1.00  0.00     0.130 C 
ATOM     13  O   UNL     1      -3.567  26.355  31.616  1.00  0.00    -0.300 OA
ATOM     14  C   UNL     1      -2.748  25.300  29.682  1.00  0.00     0.087 C 
ENDBRANCH  11  12
ENDBRANCH  10  11
ENDBRANCH   2  10
TORSDOF 6
ENDMDL
MODEL 2
REMARK VINA RESULT:    -5.743      1.491      1.816
REMARK INTER + INTRA:          -8.447
REMARK INTER:                  -7.537
REMARK INTRA:                  -0.911
REMARK UNBOUND:                -0.690
REMARK SMILES CC(=O)CCC=C(C)CCC=C(C)C
REMARK SMILES IDX 7 1 6 2 8 3 9 4 10 5 11 6 13 7 12 8 14 9 5 10 4 11 2 12 3 13
REMARK SMILES IDX 1 14
REMARK H PARENT
REMARK Flexibility Score: inf
ROOT
ATOM      1  C   UNL     1       0.164  29.247  33.525  1.00  0.00    -0.077 C 
ATOM      2  C   UNL     1      -0.333  28.899  32.318  1.00  0.00    -0.028 C 
ATOM      3  C   UNL     1       0.103  28.303  34.703  1.00  0.00     0.039 C 
ENDROOT
BRANCH   1   4
ATOM      4  C   UNL     1       0.797  30.612  33.703  1.00  0.00     0.034 C 
BRANCH   4   5
ATOM      5  C   UNL     1       2.196  30.681  33.074  1.00  0.00     0.032 C 
BRANCH   5   6
ATOM      6  C   UNL     1       3.035  29.480  33.443  1.00  0.00    -0.028 C 
ATOM      7  C   UNL     1       3.026  28.547  31.118  1.00  0.00     0.039 C 
ATOM      8  C   UNL     1       3.389  28.499  32.583  1.00  0.00    -0.080 C 
ATOM      9  C   UNL     1       4.189  27.337  33.113  1.00  0.00     0.039 C 
ENDBRANCH   5   6
ENDBRANCH   4   5
ENDBRANCH   1   4
BRANCH   2  10
ATOM     10  C   UNL     1      -0.987  27.565  32.049  1.00  0.00     0.035 C 
BRANCH  10  11
ATOM     11  C   UNL     1      -1.489  27.474  30.605  1.00  0.00     0.079 C 
BRANCH  11  12
ATOM     12  C   UNL     1      -0.333  27.428  29.642  1.00  0.00     0.130 C 
ATOM     13  O   UNL     1       0.479  26.519  29.720  1.00  0.00    -0.300 OA
ATOM     14  C   UNL     1      -0.146  28.483  28.591  1.00  0.00     0.087 C 
ENDBRANCH  11  12
ENDBRANCH  10  11
ENDBRANCH   2  10
TORSDOF 6
ENDMDL
MODEL 3
REMARK VINA RESULT:    -5.706      2.963      4.533
REMARK INTER + INTRA:          -8.397
REMARK INTER:                  -7.112
REMARK INTRA:                  -1.286
REMARK UNBOUND:                -0.690
REMARK SMILES CC(=O)CCC=C(C)CCC=C(C)C
REMARK SMILES IDX 7 1 6 2 8 3 9 4 10 5 11 6 13 7 12 8 14 9 5 10 4 11 2 12 3 13
REMARK SMILES IDX 1 14
REMARK H PARENT
REMARK Flexibility Score: inf
ROOT
ATOM      1  C   UNL     1       1.529  30.547  30.923  1.00  0.00    -0.077 C 
ATOM      2  C   UNL     1       2.260  30.908  32.000  1.00  0.00    -0.028 C 
ATOM      3  C   UNL     1       0.135  29.983  31.070  1.00  0.00     0.039 C 
ENDROOT
BRANCH   1   4
ATOM      4  C   UNL     1       2.119  30.709  29.537  1.00  0.00     0.034 C 
BRANCH   4   5
ATOM      5  C   UNL     1       3.407  29.892  29.363  1.00  0.00     0.032 C 
BRANCH   5   6
ATOM      6  C   UNL     1       3.114  28.462  28.971  1.00  0.00    -0.028 C 
ATOM      7  C   UNL     1       3.714  27.544  31.224  1.00  0.00     0.039 C 
ATOM      8  C   UNL     1       3.276  27.396  29.786  1.00  0.00    -0.080 C 
ATOM      9  C   UNL     1       2.988  26.024  29.234  1.00  0.00     0.039 C 
ENDBRANCH   5   6
ENDBRANCH   4   5
ENDBRANCH   1   4
BRANCH   2  10
ATOM     10  C   UNL     1       1.758  30.775  33.418  1.00  0.00     0.035 C 
BRANCH  10  11
ATOM     11  C   UNL     1       2.386  29.566  34.118  1.00  0.00     0.079 C 
BRANCH  11  12
ATOM     12  C   UNL     1       1.366  28.475  34.313  1.00  0.00     0.130 C 
ATOM     13  O   UNL     1       1.714  27.306  34.241  1.00  0.00    -0.300 OA
ATOM     14  C   UNL     1      -0.076  28.791  34.582  1.00  0.00     0.087 C 
ENDBRANCH  11  12
ENDBRANCH  10  11
ENDBRANCH   2  10
TORSDOF 6
ENDMDL
MODEL 4
REMARK VINA RESULT:    -5.638      2.501      6.420
REMARK INTER + INTRA:          -8.306
REMARK INTER:                  -7.733
REMARK INTRA:                  -0.573
REMARK UNBOUND:                -0.690
REMARK SMILES CC(=O)CCC=C(C)CCC=C(C)C
REMARK SMILES IDX 7 1 6 2 8 3 9 4 10 5 11 6 13 7 12 8 14 9 5 10 4 11 2 12 3 13
REMARK SMILES IDX 1 14
REMARK H PARENT
REMARK Flexibility Score: inf
ROOT
ATOM      1  C   UNL     1      -0.624  28.302  31.729  1.00  0.00    -0.077 C 
ATOM      2  C   UNL     1      -0.503  27.917  33.019  1.00  0.00    -0.028 C 
ATOM      3  C   UNL     1      -0.265  29.701  31.288  1.00  0.00     0.039 C 
ENDROOT
BRANCH   1   4
ATOM      4  C   UNL     1      -1.129  27.309  30.702  1.00  0.00     0.034 C 
BRANCH   4   5
ATOM      5  C   UNL     1      -2.599  26.935  30.943  1.00  0.00     0.032 C 
BRANCH   5   6
ATOM      6  C   UNL     1      -2.803  25.437  30.938  1.00  0.00    -0.028 C 
ATOM      7  C   UNL     1      -5.176  25.587  31.725  1.00  0.00     0.039 C 
ATOM      8  C   UNL     1      -3.943  24.817  31.316  1.00  0.00    -0.080 C 
ATOM      9  C   UNL     1      -3.977  23.311  31.304  1.00  0.00     0.039 C 
ENDBRANCH   5   6
ENDBRANCH   4   5
ENDBRANCH   1   4
BRANCH   2  10
ATOM     10  C   UNL     1      -0.015  28.838  34.111  1.00  0.00     0.035 C 
BRANCH  10  11
ATOM     11  C   UNL     1       1.403  28.469  34.556  1.00  0.00     0.079 C 
BRANCH  11  12
ATOM     12  C   UNL     1       2.424  29.304  33.829  1.00  0.00     0.130 C 
ATOM     13  O   UNL     1       3.484  28.799  33.493  1.00  0.00    -0.300 OA
ATOM     14  C   UNL     1       2.174  30.750  33.517  1.00  0.00     0.087 C 
ENDBRANCH  11  12
ENDBRANCH  10  11
ENDBRANCH   2  10
TORSDOF 6
ENDMDL
MODEL 5
REMARK VINA RESULT:    -5.450      2.821      4.557
REMARK INTER + INTRA:          -8.052
REMARK INTER:                  -7.256
REMARK INTRA:                  -0.796
REMARK UNBOUND:                -0.690
REMARK SMILES CC(=O)CCC=C(C)CCC=C(C)C
REMARK SMILES IDX 7 1 6 2 8 3 9 4 10 5 11 6 13 7 12 8 14 9 5 10 4 11 2 12 3 13
REMARK SMILES IDX 1 14
REMARK H PARENT
REMARK Flexibility Score: inf
ROOT
ATOM      1  C   UNL     1       2.962  29.207  31.606  1.00  0.00    -0.077 C 
ATOM      2  C   UNL     1       2.231  30.261  32.030  1.00  0.00    -0.028 C 
ATOM      3  C   UNL     1       3.569  28.226  32.581  1.00  0.00     0.039 C 
ENDROOT
BRANCH   1   4
ATOM      4  C   UNL     1       3.179  29.004  30.120  1.00  0.00     0.034 C 
BRANCH   4   5
ATOM      5  C   UNL     1       3.301  27.516  29.758  1.00  0.00     0.032 C 
BRANCH   5   6
ATOM      6  C   UNL     1       4.723  27.141  29.409  1.00  0.00    -0.028 C 
ATOM      7  C   UNL     1       4.711  25.085  30.841  1.00  0.00     0.039 C 
ATOM      8  C   UNL     1       5.378  26.070  29.911  1.00  0.00    -0.080 C 
ATOM      9  C   UNL     1       6.813  25.854  29.505  1.00  0.00     0.039 C 
ENDBRANCH   5   6
ENDBRANCH   4   5
ENDBRANCH   1   4
BRANCH   2  10
ATOM     10  C   UNL     1       1.969  30.548  33.490  1.00  0.00     0.035 C 
BRANCH  10  11
ATOM     11  C   UNL     1       0.499  30.307  33.847  1.00  0.00     0.079 C 
BRANCH  11  12
ATOM     12  C   UNL     1       0.217  28.833  33.971  1.00  0.00     0.130 C 
ATOM     13  O   UNL     1      -0.620  28.318  33.245  1.00  0.00    -0.300 OA
ATOM     14  C   UNL     1       0.931  27.980  34.978  1.00  0.00     0.087 C 
ENDBRANCH  11  12
ENDBRANCH  10  11
ENDBRANCH   2  10
TORSDOF 6
ENDMDL
MODEL 6
REMARK VINA RESULT:    -5.427      3.037      5.082
REMARK INTER + INTRA:          -8.021
REMARK INTER:                  -7.395
REMARK INTRA:                  -0.626
REMARK UNBOUND:                -0.690
REMARK SMILES CC(=O)CCC=C(C)CCC=C(C)C
REMARK SMILES IDX 7 1 6 2 8 3 9 4 10 5 11 6 13 7 12 8 14 9 5 10 4 11 2 12 3 13
REMARK SMILES IDX 1 14
REMARK H PARENT
REMARK Flexibility Score: inf
ROOT
ATOM      1  C   UNL     1       3.475  28.101  31.901  1.00  0.00    -0.077 C 
ATOM      2  C   UNL     1       2.630  29.148  31.783  1.00  0.00    -0.028 C 
ATOM      3  C   UNL     1       4.124  27.757  33.221  1.00  0.00     0.039 C 
ENDROOT
BRANCH   1   4
ATOM      4  C   UNL     1       3.779  27.251  30.684  1.00  0.00     0.034 C 
BRANCH   4   5
ATOM      5  C   UNL     1       5.059  26.423  30.870  1.00  0.00     0.032 C 
BRANCH   5   6
ATOM      6  C   UNL     1       4.864  24.988  30.438  1.00  0.00    -0.028 C 
ATOM      7  C   UNL     1       7.244  24.706  29.709  1.00  0.00     0.039 C 
ATOM      8  C   UNL     1       5.827  24.215  29.888  1.00  0.00    -0.080 C 
ATOM      9  C   UNL     1       5.466  22.816  29.462  1.00  0.00     0.039 C 
ENDBRANCH   5   6
ENDBRANCH   4   5
ENDBRANCH   1   4
BRANCH   2  10
ATOM     10  C   UNL     1       2.274  30.054  32.938  1.00  0.00     0.035 C 
BRANCH  10  11
ATOM     11  C   UNL     1       0.761  30.084  33.173  1.00  0.00     0.079 C 
BRANCH  11  12
ATOM     12  C   UNL     1       0.276  28.759  33.698  1.00  0.00     0.130 C 
ATOM     13  O   UNL     1      -0.666  28.204  33.154  1.00  0.00    -0.300 OA
ATOM     14  C   UNL     1       0.919  28.105  34.887  1.00  0.00     0.087 C 
ENDBRANCH  11  12
ENDBRANCH  10  11
ENDBRANCH   2  10
TORSDOF 6
ENDMDL
MODEL 7
REMARK VINA RESULT:    -5.313      3.942      5.960
REMARK INTER + INTRA:          -7.866
REMARK INTER:                  -7.271
REMARK INTRA:                  -0.595
REMARK UNBOUND:                -0.690
REMARK SMILES CC(=O)CCC=C(C)CCC=C(C)C
REMARK SMILES IDX 7 1 6 2 8 3 9 4 10 5 11 6 13 7 12 8 14 9 5 10 4 11 2 12 3 13
REMARK SMILES IDX 1 14
REMARK H PARENT
REMARK Flexibility Score: inf
ROOT
ATOM      1  C   UNL     1       1.090  30.074  30.767  1.00  0.00    -0.077 C 
ATOM      2  C   UNL     1       1.958  30.693  31.598  1.00  0.00    -0.028 C 
ATOM      3  C   UNL     1      -0.246  29.568  31.259  1.00  0.00     0.039 C 
ENDROOT
BRANCH   1   4
ATOM      4  C   UNL     1       1.462  29.884  29.311  1.00  0.00     0.034 C 
BRANCH   4   5
ATOM      5  C   UNL     1       1.108  31.116  28.464  1.00  0.00     0.032 C 
BRANCH   5   6
ATOM      6  C   UNL     1      -0.376  31.397  28.479  1.00  0.00    -0.028 C 
ATOM      7  C   UNL     1      -0.164  33.500  27.135  1.00  0.00     0.039 C 
ATOM      8  C   UNL     1      -0.958  32.478  27.913  1.00  0.00    -0.080 C 
ATOM      9  C   UNL     1      -2.448  32.645  28.055  1.00  0.00     0.039 C 
ENDBRANCH   5   6
ENDBRANCH   4   5
ENDBRANCH   1   4
BRANCH   2  10
ATOM     10  C   UNL     1       1.676  30.920  33.064  1.00  0.00     0.035 C 
BRANCH  10  11
ATOM     11  C   UNL     1       2.500  29.972  33.941  1.00  0.00     0.079 C 
BRANCH  11  12
ATOM     12  C   UNL     1       1.817  28.636  34.068  1.00  0.00     0.130 C 
ATOM     13  O   UNL     1       2.347  27.642  33.595  1.00  0.00    -0.300 OA
ATOM     14  C   UNL     1       0.489  28.497  34.753  1.00  0.00     0.087 C 
ENDBRANCH  11  12
ENDBRANCH  10  11
ENDBRANCH   2  10
TORSDOF 6
ENDMDL
MODEL 8
REMARK VINA RESULT:    -5.305      3.052      5.082
REMARK INTER + INTRA:          -7.856
REMARK INTER:                  -6.820
REMARK INTRA:                  -1.036
REMARK UNBOUND:                -0.690
REMARK SMILES CC(=O)CCC=C(C)CCC=C(C)C
REMARK SMILES IDX 7 1 6 2 8 3 9 4 10 5 11 6 13 7 12 8 14 9 5 10 4 11 2 12 3 13
REMARK SMILES IDX 1 14
REMARK H PARENT
REMARK Flexibility Score: inf
ROOT
ATOM      1  C   UNL     1       2.035  29.100  30.153  1.00  0.00    -0.077 C 
ATOM      2  C   UNL     1       3.345  28.785  30.044  1.00  0.00    -0.028 C 
ATOM      3  C   UNL     1       0.955  28.087  29.854  1.00  0.00     0.039 C 
ENDROOT
BRANCH   1   4
ATOM      4  C   UNL     1       1.640  30.497  30.585  1.00  0.00     0.034 C 
BRANCH   4   5
ATOM      5  C   UNL     1       2.094  30.803  32.020  1.00  0.00     0.032 C 
BRANCH   5   6
ATOM      6  C   UNL     1       1.119  30.266  33.041  1.00  0.00    -0.028 C 
ATOM      7  C   UNL     1       2.598  28.354  33.699  1.00  0.00     0.039 C 
ATOM      8  C   UNL     1       1.318  29.152  33.780  1.00  0.00    -0.080 C 
ATOM      9  C   UNL     1       0.228  28.714  34.724  1.00  0.00     0.039 C 
ENDBRANCH   5   6
ENDBRANCH   4   5
ENDBRANCH   1   4
BRANCH   2  10
ATOM     10  C   UNL     1       3.832  27.422  29.615  1.00  0.00     0.035 C 
BRANCH  10  11
ATOM     11  C   UNL     1       4.307  26.599  30.816  1.00  0.00     0.079 C 
BRANCH  11  12
ATOM     12  C   UNL     1       4.581  25.175  30.410  1.00  0.00     0.130 C 
ATOM     13  O   UNL     1       3.675  24.357  30.434  1.00  0.00    -0.300 OA
ATOM     14  C   UNL     1       5.951  24.732  29.987  1.00  0.00     0.087 C 
ENDBRANCH  11  12
ENDBRANCH  10  11
ENDBRANCH   2  10
TORSDOF 6
ENDMDL
MODEL 9
REMARK VINA RESULT:    -5.191      2.477      5.592
REMARK INTER + INTRA:          -7.702
REMARK INTER:                  -6.830
REMARK INTRA:                  -0.873
REMARK UNBOUND:                -0.690
REMARK SMILES CC(=O)CCC=C(C)CCC=C(C)C
REMARK SMILES IDX 7 1 6 2 8 3 9 4 10 5 11 6 13 7 12 8 14 9 5 10 4 11 2 12 3 13
REMARK SMILES IDX 1 14
REMARK H PARENT
REMARK Flexibility Score: inf
ROOT
ATOM      1  C   UNL     1      -0.407  28.617  32.253  1.00  0.00    -0.077 C 
ATOM      2  C   UNL     1       0.143  28.782  33.476  1.00  0.00    -0.028 C 
ATOM      3  C   UNL     1      -0.214  29.641  31.159  1.00  0.00     0.039 C 
ENDROOT
BRANCH   1   4
ATOM      4  C   UNL     1      -1.233  27.379  31.970  1.00  0.00     0.034 C 
BRANCH   4   5
ATOM      5  C   UNL     1      -1.863  27.419  30.570  1.00  0.00     0.032 C 
BRANCH   5   6
ATOM      6  C   UNL     1      -1.572  26.158  29.790  1.00  0.00    -0.028 C 
ATOM      7  C   UNL     1       0.091  27.270  28.283  1.00  0.00     0.039 C 
ATOM      8  C   UNL     1      -0.721  26.083  28.743  1.00  0.00    -0.080 C 
ATOM      9  C   UNL     1      -0.574  24.762  28.033  1.00  0.00     0.039 C 
ENDBRANCH   5   6
ENDBRANCH   4   5
ENDBRANCH   1   4
BRANCH   2  10
ATOM     10  C   UNL     1       0.974  29.985  33.851  1.00  0.00     0.035 C 
BRANCH  10  11
ATOM     11  C   UNL     1       2.399  29.576  34.238  1.00  0.00     0.079 C 
BRANCH  11  12
ATOM     12  C   UNL     1       3.148  29.060  33.039  1.00  0.00     0.130 C 
ATOM     13  O   UNL     1       3.151  29.711  32.005  1.00  0.00    -0.300 OA
ATOM     14  C   UNL     1       3.885  27.753  33.079  1.00  0.00     0.087 C 
ENDBRANCH  11  12
ENDBRANCH  10  11
ENDBRANCH   2  10
TORSDOF 6
ENDMDL
