MODEL 1
REMARK VINA RESULT:    -3.349      0.000      0.000
REMARK INTER + INTRA:          -4.750
REMARK INTER:                  -4.328
REMARK INTRA:                  -0.422
REMARK UNBOUND:                -0.422
REMARK SMILES CCO[C@H]1O[C@@H](CO)[C@@H](O)[C@H](O)[C@H]1O
REMARK SMILES IDX 4 1 13 2 11 3 9 4 6 5 5 6 3 7 2 8 1 9 14 10 12 12 7 14 8 15
REMARK SMILES IDX 10 17
REMARK H PARENT 14 11 12 13 8 16 10 18
REMARK Flexibility Score: inf
ROOT
ATOM      1  C   UNL     1       9.615  35.522  33.661  1.00  0.00     0.281 C 
ATOM      2  C   UNL     1      10.793  35.845  32.687  1.00  0.00     0.202 C 
ATOM      3  C   UNL     1      12.188  35.739  33.345  1.00  0.00     0.179 C 
ATOM      4  C   UNL     1      12.335  34.506  34.276  1.00  0.00     0.177 C 
ATOM      5  C   UNL     1      11.017  34.136  35.021  1.00  0.00     0.178 C 
ATOM      6  O   UNL     1      10.025  35.150  34.969  1.00  0.00    -0.341 OA
ENDROOT
BRANCH   1   7
ATOM      7  O   UNL     1       8.726  34.543  33.142  1.00  0.00    -0.350 OA
BRANCH   7   8
ATOM      8  C   UNL     1       7.389  34.773  33.548  1.00  0.00     0.160 C 
ATOM      9  C   UNL     1       7.011  36.232  33.319  1.00  0.00     0.035 C 
ENDBRANCH   7   8
ENDBRANCH   1   7
BRANCH   2  10
ATOM     10  O   UNL     1      10.733  35.104  31.492  1.00  0.00    -0.385 OA
ATOM     11  H   UNL     1       9.786  35.029  31.222  1.00  0.00     0.211 HD
ENDBRANCH   2  10
BRANCH   3  12
ATOM     12  O   UNL     1      12.481  36.922  34.049  1.00  0.00    -0.387 OA
ATOM     13  H   UNL     1      13.008  37.512  33.449  1.00  0.00     0.211 HD
ENDBRANCH   3  12
BRANCH   5  14
ATOM     14  C   UNL     1      10.451  32.715  34.786  1.00  0.00     0.191 C 
BRANCH  14  15
ATOM     15  O   UNL     1      11.369  31.715  35.124  1.00  0.00    -0.394 OA
ATOM     16  H   UNL     1      11.720  31.954  36.021  1.00  0.00     0.210 HD
ENDBRANCH  14  15
ENDBRANCH   5  14
BRANCH   4  17
ATOM     17  O   UNL     1      12.916  33.397  33.630  1.00  0.00    -0.387 OA
ATOM     18  H   UNL     1      13.899  33.510  33.619  1.00  0.00     0.211 HD
ENDBRANCH   4  17
TORSDOF 7
ENDMDL
MODEL 2
REMARK VINA RESULT:    -3.169      1.491      4.107
REMARK INTER + INTRA:          -4.517
REMARK INTER:                  -3.806
REMARK INTRA:                  -0.711
REMARK UNBOUND:                -0.422
REMARK SMILES CCO[C@H]1O[C@@H](CO)[C@@H](O)[C@H](O)[C@H]1O
REMARK SMILES IDX 4 1 13 2 11 3 9 4 6 5 5 6 3 7 2 8 1 9 14 10 12 12 7 14 8 15
REMARK SMILES IDX 10 17
REMARK H PARENT 14 11 12 13 8 16 10 18
REMARK Flexibility Score: inf
ROOT
ATOM      1  C   UNL     1       9.463  33.957  34.628  1.00  0.00     0.281 C 
ATOM      2  C   UNL     1       8.266  34.037  33.626  1.00  0.00     0.202 C 
ATOM      3  C   UNL     1       7.752  35.475  33.389  1.00  0.00     0.179 C 
ATOM      4  C   UNL     1       8.892  36.518  33.240  1.00  0.00     0.177 C 
ATOM      5  C   UNL     1      10.138  36.199  34.121  1.00  0.00     0.178 C 
ATOM      6  O   UNL     1       9.898  35.217  35.118  1.00  0.00    -0.341 OA
ENDROOT
BRANCH   1   7
ATOM      7  O   UNL     1      10.571  33.239  34.103  1.00  0.00    -0.350 OA
BRANCH   7   8
ATOM      8  C   UNL     1      11.336  32.625  35.125  1.00  0.00     0.160 C 
ATOM      9  C   UNL     1      12.823  32.854  34.882  1.00  0.00     0.035 C 
ENDBRANCH   7   8
ENDBRANCH   1   7
BRANCH   2  10
ATOM     10  O   UNL     1       8.527  33.379  32.410  1.00  0.00    -0.385 OA
ATOM     11  H   UNL     1       7.912  32.610  32.336  1.00  0.00     0.211 HD
ENDBRANCH   2  10
BRANCH   3  12
ATOM     12  O   UNL     1       6.876  35.852  34.424  1.00  0.00    -0.387 OA
ATOM     13  H   UNL     1       7.139  35.358  35.243  1.00  0.00     0.211 HD
ENDBRANCH   3  12
BRANCH   5  14
ATOM     14  C   UNL     1      11.488  36.009  33.389  1.00  0.00     0.191 C 
BRANCH  14  15
ATOM     15  O   UNL     1      11.375  35.169  32.276  1.00  0.00    -0.394 OA
ATOM     16  H   UNL     1      10.524  35.414  31.829  1.00  0.00     0.210 HD
ENDBRANCH  14  15
ENDBRANCH   5  14
BRANCH   4  17
ATOM     17  O   UNL     1       9.234  36.768  31.897  1.00  0.00    -0.387 OA
ATOM     18  H   UNL     1       8.576  37.398  31.510  1.00  0.00     0.211 HD
ENDBRANCH   4  17
TORSDOF 7
ENDMDL
MODEL 3
REMARK VINA RESULT:    -3.127      1.545      2.568
REMARK INTER + INTRA:          -4.463
REMARK INTER:                  -3.760
REMARK INTRA:                  -0.704
REMARK UNBOUND:                -0.422
REMARK SMILES CCO[C@H]1O[C@@H](CO)[C@@H](O)[C@H](O)[C@H]1O
REMARK SMILES IDX 4 1 13 2 11 3 9 4 6 5 5 6 3 7 2 8 1 9 14 10 12 12 7 14 8 15
REMARK SMILES IDX 10 17
REMARK H PARENT 14 11 12 13 8 16 10 18
REMARK Flexibility Score: inf
ROOT
ATOM      1  C   UNL     1       9.775  36.616  33.461  1.00  0.00     0.281 C 
ATOM      2  C   UNL     1      10.965  35.693  33.043  1.00  0.00     0.202 C 
ATOM      3  C   UNL     1      11.280  34.585  34.073  1.00  0.00     0.179 C 
ATOM      4  C   UNL     1      10.010  33.910  34.656  1.00  0.00     0.177 C 
ATOM      5  C   UNL     1       8.807  34.889  34.808  1.00  0.00     0.178 C 
ATOM      6  O   UNL     1       9.164  36.258  34.691  1.00  0.00    -0.341 OA
ENDROOT
BRANCH   1   7
ATOM      7  O   UNL     1       8.784  36.726  32.448  1.00  0.00    -0.350 OA
BRANCH   7   8
ATOM      8  C   UNL     1       8.234  38.030  32.386  1.00  0.00     0.160 C 
ATOM      9  C   UNL     1       6.742  37.990  32.699  1.00  0.00     0.035 C 
ENDBRANCH   7   8
ENDBRANCH   1   7
BRANCH   2  10
ATOM     10  O   UNL     1      10.816  35.163  31.749  1.00  0.00    -0.385 OA
ATOM     11  H   UNL     1       9.963  35.492  31.375  1.00  0.00     0.211 HD
ENDBRANCH   2  10
BRANCH   3  12
ATOM     12  O   UNL     1      12.080  35.101  35.110  1.00  0.00    -0.387 OA
ATOM     13  H   UNL     1      11.540  35.101  35.942  1.00  0.00     0.211 HD
ENDBRANCH   3  12
BRANCH   5  14
ATOM     14  C   UNL     1       7.507  34.529  34.049  1.00  0.00     0.191 C 
BRANCH  14  15
ATOM     15  O   UNL     1       7.751  34.170  32.719  1.00  0.00    -0.394 OA
ATOM     16  H   UNL     1       8.047  33.224  32.737  1.00  0.00     0.210 HD
ENDBRANCH  14  15
ENDBRANCH   5  14
BRANCH   4  17
ATOM     17  O   UNL     1       9.658  32.726  33.979  1.00  0.00    -0.387 OA
ATOM     18  H   UNL     1      10.139  32.695  33.115  1.00  0.00     0.211 HD
ENDBRANCH   4  17
TORSDOF 7
ENDMDL
MODEL 4
REMARK VINA RESULT:    -3.093      2.821      4.437
REMARK INTER + INTRA:          -4.419
REMARK INTER:                  -4.184
REMARK INTRA:                  -0.234
REMARK UNBOUND:                -0.422
REMARK SMILES CCO[C@H]1O[C@@H](CO)[C@@H](O)[C@H](O)[C@H]1O
REMARK SMILES IDX 4 1 13 2 11 3 9 4 6 5 5 6 3 7 2 8 1 9 14 10 12 12 7 14 8 15
REMARK SMILES IDX 10 17
REMARK H PARENT 14 11 12 13 8 16 10 18
REMARK Flexibility Score: inf
ROOT
ATOM      1  C   UNL     1       6.997  34.081  34.600  1.00  0.00     0.281 C 
ATOM      2  C   UNL     1       8.367  34.425  33.931  1.00  0.00     0.202 C 
ATOM      3  C   UNL     1       9.095  33.196  33.342  1.00  0.00     0.179 C 
ATOM      4  C   UNL     1       8.147  32.222  32.592  1.00  0.00     0.177 C 
ATOM      5  C   UNL     1       6.723  32.142  33.221  1.00  0.00     0.178 C 
ATOM      6  O   UNL     1       6.637  32.711  34.519  1.00  0.00    -0.341 OA
ENDROOT
BRANCH   1   7
ATOM      7  O   UNL     1       5.931  34.885  34.112  1.00  0.00    -0.350 OA
BRANCH   7   8
ATOM      8  C   UNL     1       5.386  35.712  35.125  1.00  0.00     0.160 C 
ATOM      9  C   UNL     1       5.832  37.156  34.926  1.00  0.00     0.035 C 
ENDBRANCH   7   8
ENDBRANCH   1   7
BRANCH   2  10
ATOM     10  O   UNL     1       8.268  35.463  32.986  1.00  0.00    -0.385 OA
ATOM     11  H   UNL     1       8.592  36.296  33.405  1.00  0.00     0.211 HD
ENDBRANCH   2  10
BRANCH   3  12
ATOM     12  O   UNL     1       9.792  32.515  34.358  1.00  0.00    -0.387 OA
ATOM     13  H   UNL     1      10.060  31.627  34.004  1.00  0.00     0.211 HD
ENDBRANCH   3  12
BRANCH   5  14
ATOM     14  C   UNL     1       5.530  32.516  32.310  1.00  0.00     0.191 C 
BRANCH  14  15
ATOM     15  O   UNL     1       4.475  31.603  32.414  1.00  0.00    -0.394 OA
ATOM     16  H   UNL     1       4.870  30.706  32.259  1.00  0.00     0.210 HD
ENDBRANCH  14  15
ENDBRANCH   5  14
BRANCH   4  17
ATOM     17  O   UNL     1       8.109  32.455  31.204  1.00  0.00    -0.387 OA
ATOM     18  H   UNL     1       8.024  31.588  30.735  1.00  0.00     0.211 HD
ENDBRANCH   4  17
TORSDOF 7
ENDMDL
MODEL 5
REMARK VINA RESULT:    -2.953      2.727      4.230
REMARK INTER + INTRA:          -4.238
REMARK INTER:                  -3.798
REMARK INTRA:                  -0.439
REMARK UNBOUND:                -0.422
REMARK SMILES CCO[C@H]1O[C@@H](CO)[C@@H](O)[C@H](O)[C@H]1O
REMARK SMILES IDX 4 1 13 2 11 3 9 4 6 5 5 6 3 7 2 8 1 9 14 10 12 12 7 14 8 15
REMARK SMILES IDX 10 17
REMARK H PARENT 14 11 12 13 8 16 10 18
REMARK Flexibility Score: inf
ROOT
ATOM      1  C   UNL     1       6.321  32.924  34.176  1.00  0.00     0.281 C 
ATOM      2  C   UNL     1       6.247  33.777  32.869  1.00  0.00     0.202 C 
ATOM      3  C   UNL     1       7.192  35.000  32.873  1.00  0.00     0.179 C 
ATOM      4  C   UNL     1       8.596  34.689  33.456  1.00  0.00     0.177 C 
ATOM      5  C   UNL     1       8.566  33.638  34.607  1.00  0.00     0.178 C 
ATOM      6  O   UNL     1       7.267  33.392  35.125  1.00  0.00    -0.341 OA
ENDROOT
BRANCH   1   7
ATOM      7  O   UNL     1       6.544  31.544  33.918  1.00  0.00    -0.350 OA
BRANCH   7   8
ATOM      8  C   UNL     1       5.594  30.723  34.573  1.00  0.00     0.160 C 
ATOM      9  C   UNL     1       4.363  30.533  33.695  1.00  0.00     0.035 C 
ENDBRANCH   7   8
ENDBRANCH   1   7
BRANCH   2  10
ATOM     10  O   UNL     1       6.412  33.007  31.703  1.00  0.00    -0.385 OA
ATOM     11  H   UNL     1       5.694  32.329  31.676  1.00  0.00     0.211 HD
ENDBRANCH   2  10
BRANCH   3  12
ATOM     12  O   UNL     1       6.597  36.068  33.572  1.00  0.00    -0.387 OA
ATOM     13  H   UNL     1       6.928  36.915  33.176  1.00  0.00     0.211 HD
ENDBRANCH   3  12
BRANCH   5  14
ATOM     14  C   UNL     1       9.397  32.348  34.404  1.00  0.00     0.191 C 
BRANCH  14  15
ATOM     15  O   UNL     1      10.774  32.597  34.410  1.00  0.00    -0.394 OA
ATOM     16  H   UNL     1      10.942  33.200  35.180  1.00  0.00     0.210 HD
ENDBRANCH  14  15
ENDBRANCH   5  14
BRANCH   4  17
ATOM     17  O   UNL     1       9.544  34.372  32.463  1.00  0.00    -0.387 OA
ATOM     18  H   UNL     1      10.449  34.565  32.811  1.00  0.00     0.211 HD
ENDBRANCH   4  17
TORSDOF 7
ENDMDL
MODEL 6
REMARK VINA RESULT:    -2.952      2.294      3.434
REMARK INTER + INTRA:          -4.236
REMARK INTER:                  -3.552
REMARK INTRA:                  -0.684
REMARK UNBOUND:                -0.422
REMARK SMILES CCO[C@H]1O[C@@H](CO)[C@@H](O)[C@H](O)[C@H]1O
REMARK SMILES IDX 4 1 13 2 11 3 9 4 6 5 5 6 3 7 2 8 1 9 14 10 12 12 7 14 8 15
REMARK SMILES IDX 10 17
REMARK H PARENT 14 11 12 13 8 16 10 18
REMARK Flexibility Score: inf
ROOT
ATOM      1  C   UNL     1       7.026  34.838  34.811  1.00  0.00     0.281 C 
ATOM      2  C   UNL     1       7.604  36.112  34.116  1.00  0.00     0.202 C 
ATOM      3  C   UNL     1       9.138  36.076  33.933  1.00  0.00     0.179 C 
ATOM      4  C   UNL     1       9.669  34.694  33.468  1.00  0.00     0.177 C 
ATOM      5  C   UNL     1       8.856  33.496  34.046  1.00  0.00     0.178 C 
ATOM      6  O   UNL     1       7.998  33.851  35.120  1.00  0.00    -0.341 OA
ENDROOT
BRANCH   1   7
ATOM      7  O   UNL     1       5.961  34.248  34.077  1.00  0.00    -0.350 OA
BRANCH   7   8
ATOM      8  C   UNL     1       5.021  33.613  34.925  1.00  0.00     0.160 C 
ATOM      9  C   UNL     1       4.406  32.407  34.225  1.00  0.00     0.035 C 
ENDBRANCH   7   8
ENDBRANCH   1   7
BRANCH   2  10
ATOM     10  O   UNL     1       6.951  36.419  32.908  1.00  0.00    -0.385 OA
ATOM     11  H   UNL     1       7.635  36.517  32.202  1.00  0.00     0.211 HD
ENDBRANCH   2  10
BRANCH   3  12
ATOM     12  O   UNL     1       9.776  36.470  35.125  1.00  0.00    -0.387 OA
ATOM     13  H   UNL     1       9.720  35.714  35.766  1.00  0.00     0.211 HD
ENDBRANCH   3  12
BRANCH   5  14
ATOM     14  C   UNL     1       8.196  32.536  33.027  1.00  0.00     0.191 C 
BRANCH  14  15
ATOM     15  O   UNL     1       7.506  33.222  32.022  1.00  0.00    -0.394 OA
ATOM     16  H   UNL     1       7.049  33.981  32.469  1.00  0.00     0.210 HD
ENDBRANCH  14  15
ENDBRANCH   5  14
BRANCH   4  17
ATOM     17  O   UNL     1       9.829  34.610  32.071  1.00  0.00    -0.387 OA
ATOM     18  H   UNL     1       9.368  35.376  31.648  1.00  0.00     0.211 HD
ENDBRANCH   4  17
TORSDOF 7
ENDMDL
MODEL 7
REMARK VINA RESULT:    -2.938      1.554      4.220
REMARK INTER + INTRA:          -4.219
REMARK INTER:                  -3.557
REMARK INTRA:                  -0.663
REMARK UNBOUND:                -0.422
REMARK SMILES CCO[C@H]1O[C@@H](CO)[C@@H](O)[C@H](O)[C@H]1O
REMARK SMILES IDX 4 1 13 2 11 3 9 4 6 5 5 6 3 7 2 8 1 9 14 10 12 12 7 14 8 15
REMARK SMILES IDX 10 17
REMARK H PARENT 14 11 12 13 8 16 10 18
REMARK Flexibility Score: inf
ROOT
ATOM      1  C   UNL     1      10.182  34.974  35.124  1.00  0.00     0.281 C 
ATOM      2  C   UNL     1       9.899  33.443  34.983  1.00  0.00     0.202 C 
ATOM      3  C   UNL     1       8.584  33.122  34.240  1.00  0.00     0.179 C 
ATOM      4  C   UNL     1       8.347  34.019  32.995  1.00  0.00     0.177 C 
ATOM      5  C   UNL     1       8.888  35.470  33.171  1.00  0.00     0.178 C 
ATOM      6  O   UNL     1       9.206  35.805  34.513  1.00  0.00    -0.341 OA
ENDROOT
BRANCH   1   7
ATOM      7  O   UNL     1      11.476  35.337  34.663  1.00  0.00    -0.350 OA
BRANCH   7   8
ATOM      8  C   UNL     1      11.861  36.620  35.125  1.00  0.00     0.160 C 
ATOM      9  C   UNL     1      12.822  37.271  34.136  1.00  0.00     0.035 C 
ENDBRANCH   7   8
ENDBRANCH   1   7
BRANCH   2  10
ATOM     10  O   UNL     1      10.984  32.736  34.434  1.00  0.00    -0.385 OA
ATOM     11  H   UNL     1      10.678  31.824  34.210  1.00  0.00     0.211 HD
ENDBRANCH   2  10
BRANCH   3  12
ATOM     12  O   UNL     1       7.493  33.215  35.125  1.00  0.00    -0.387 OA
ATOM     13  H   UNL     1       7.537  34.099  35.573  1.00  0.00     0.211 HD
ENDBRANCH   3  12
BRANCH   5  14
ATOM     14  C   UNL     1       9.948  35.954  32.152  1.00  0.00     0.191 C 
BRANCH  14  15
ATOM     15  O   UNL     1      10.965  35.014  31.957  1.00  0.00    -0.394 OA
ATOM     16  H   UNL     1      11.797  35.533  31.807  1.00  0.00     0.210 HD
ENDBRANCH  14  15
ENDBRANCH   5  14
BRANCH   4  17
ATOM     17  O   UNL     1       8.787  33.422  31.798  1.00  0.00    -0.387 OA
ATOM     18  H   UNL     1       8.395  33.911  31.032  1.00  0.00     0.211 HD
ENDBRANCH   4  17
TORSDOF 7
ENDMDL
MODEL 8
REMARK VINA RESULT:    -2.788      2.051      2.621
REMARK INTER + INTRA:          -4.025
REMARK INTER:                  -3.315
REMARK INTRA:                  -0.710
REMARK UNBOUND:                -0.422
REMARK SMILES CCO[C@H]1O[C@@H](CO)[C@@H](O)[C@H](O)[C@H]1O
REMARK SMILES IDX 4 1 13 2 11 3 9 4 6 5 5 6 3 7 2 8 1 9 14 10 12 12 7 14 8 15
REMARK SMILES IDX 10 17
REMARK H PARENT 14 11 12 13 8 16 10 18
REMARK Flexibility Score: inf
ROOT
ATOM      1  C   UNL     1       8.194  36.740  34.301  1.00  0.00     0.281 C 
ATOM      2  C   UNL     1       8.914  37.501  33.141  1.00  0.00     0.202 C 
ATOM      3  C   UNL     1      10.406  37.131  32.989  1.00  0.00     0.179 C 
ATOM      4  C   UNL     1      10.679  35.610  33.137  1.00  0.00     0.177 C 
ATOM      5  C   UNL     1       9.733  34.911  34.158  1.00  0.00     0.178 C 
ATOM      6  O   UNL     1       9.019  35.813  34.990  1.00  0.00    -0.341 OA
ENDROOT
BRANCH   1   7
ATOM      7  O   UNL     1       7.001  36.095  33.876  1.00  0.00    -0.350 OA
BRANCH   7   8
ATOM      8  C   UNL     1       6.072  35.949  34.936  1.00  0.00     0.160 C 
ATOM      9  C   UNL     1       5.423  34.571  34.884  1.00  0.00     0.035 C 
ENDBRANCH   7   8
ENDBRANCH   1   7
BRANCH   2  10
ATOM     10  O   UNL     1       8.233  37.397  31.914  1.00  0.00    -0.385 OA
ATOM     11  H   UNL     1       7.918  36.467  31.813  1.00  0.00     0.211 HD
ENDBRANCH   2  10
BRANCH   3  12
ATOM     12  O   UNL     1      11.181  37.859  33.912  1.00  0.00    -0.387 OA
ATOM     13  H   UNL     1      12.116  37.533  33.850  1.00  0.00     0.211 HD
ENDBRANCH   3  12
BRANCH   5  14
ATOM     14  C   UNL     1       8.860  33.749  33.627  1.00  0.00     0.191 C 
BRANCH  14  15
ATOM     15  O   UNL     1       8.219  34.071  32.427  1.00  0.00    -0.394 OA
ATOM     16  H   UNL     1       7.762  34.938  32.581  1.00  0.00     0.210 HD
ENDBRANCH  14  15
ENDBRANCH   5  14
BRANCH   4  17
ATOM     17  O   UNL     1      10.724  34.939  31.899  1.00  0.00    -0.387 OA
ATOM     18  H   UNL     1       9.801  34.810  31.570  1.00  0.00     0.211 HD
ENDBRANCH   4  17
TORSDOF 7
ENDMDL
