MODEL 1
REMARK VINA RESULT:    15.233      0.000      0.000
REMARK INTER + INTRA:          33.986
REMARK INTER:                  34.824
REMARK INTRA:                  -0.838
REMARK UNBOUND:                -0.838
REMARK SMILES CCCCCCCCCCCCCCCCCCCCCCCC(=O)[O-]
REMARK SMILES IDX 13 1 14 2 15 3 16 4 17 5 18 6 19 7 20 8 21 9 22 10 23 11
REMARK SMILES IDX 24 12 25 13 26 14 12 15 11 16 10 17 9 18 8 19 7 20 6 21 5 22
REMARK SMILES IDX 4 23 3 24 2 25 1 26
REMARK H PARENT
REMARK Flexibility Score: inf
ROOT
ATOM      1  C   UNL     1      13.480  -9.993   3.905  1.00  0.00     0.000 C 
ENDROOT
BRANCH   1   2
ATOM      2  C   UNL     1      12.534 -11.071   4.460  1.00  0.00     0.000 C 
BRANCH   2   3
ATOM      3  C   UNL     1      11.636 -10.555   5.599  1.00  0.00     0.000 C 
BRANCH   3   4
ATOM      4  C   UNL     1      10.514 -11.515   6.036  1.00  0.00     0.000 C 
BRANCH   4   5
ATOM      5  C   UNL     1      10.673 -12.930   5.452  1.00  0.00     0.000 C 
BRANCH   5   6
ATOM      6  C   UNL     1      11.935 -13.650   5.975  1.00  0.00     0.000 C 
BRANCH   6   7
ATOM      7  C   UNL     1      12.429 -14.786   5.058  1.00  0.00     0.000 C 
BRANCH   7   8
ATOM      8  C   UNL     1      13.577 -15.637   5.634  1.00  0.00     0.000 C 
BRANCH   8   9
ATOM      9  C   UNL     1      14.631 -14.857   6.444  1.00  0.00     0.000 C 
BRANCH   9  10
ATOM     10  C   UNL     1      15.780 -15.706   7.020  1.00  0.00     0.006 C 
BRANCH  10  11
ATOM     11  C   UNL     1      17.169 -15.057   6.880  1.00  0.00     0.053 C 
BRANCH  11  12
ATOM     12  C   UNL     1      18.230 -16.034   6.473  1.00  0.00     0.041 C 
ATOM     13  O   UNL     1      18.330 -16.399   5.272  1.00  0.00    -0.550 OA
ATOM     14  O   UNL     1      19.067 -16.589   7.433  1.00  0.00    -0.550 OA
ENDBRANCH  11  12
ENDBRANCH  10  11
ENDBRANCH   9  10
ENDBRANCH   8   9
ENDBRANCH   7   8
ENDBRANCH   6   7
ENDBRANCH   5   6
ENDBRANCH   4   5
ENDBRANCH   3   4
ENDBRANCH   2   3
ENDBRANCH   1   2
BRANCH   1  15
ATOM     15  C   UNL     1      14.638 -10.581   3.079  1.00  0.00     0.000 C 
BRANCH  15  16
ATOM     16  C   UNL     1      15.088  -9.728   1.875  1.00  0.00     0.000 C 
BRANCH  16  17
ATOM     17  C   UNL     1      16.407  -8.959   2.077  1.00  0.00     0.000 C 
BRANCH  17  18
ATOM     18  C   UNL     1      16.299  -7.433   1.890  1.00  0.00    -0.000 C 
BRANCH  18  19
ATOM     19  C   UNL     1      16.888  -6.592   3.040  1.00  0.00    -0.000 C 
BRANCH  19  20
ATOM     20  C   UNL     1      16.070  -6.605   4.346  1.00  0.00    -0.000 C 
BRANCH  20  21
ATOM     21  C   UNL     1      16.829  -6.110   5.592  1.00  0.00    -0.000 C 
BRANCH  21  22
ATOM     22  C   UNL     1      15.919  -5.373   6.589  1.00  0.00    -0.000 C 
BRANCH  22  23
ATOM     23  C   UNL     1      14.788  -4.592   5.886  1.00  0.00    -0.000 C 
BRANCH  23  24
ATOM     24  C   UNL     1      14.195  -3.453   6.739  1.00  0.00    -0.000 C 
BRANCH  24  25
ATOM     25  C   UNL     1      14.560  -2.038   6.264  1.00  0.00    -0.003 C 
ATOM     26  C   UNL     1      15.630  -1.377   7.134  1.00  0.00     0.004 C 
ENDBRANCH  24  25
ENDBRANCH  23  24
ENDBRANCH  22  23
ENDBRANCH  21  22
ENDBRANCH  20  21
ENDBRANCH  19  20
ENDBRANCH  18  19
ENDBRANCH  17  18
ENDBRANCH  16  17
ENDBRANCH  15  16
ENDBRANCH   1  15
TORSDOF 22
ENDMDL
MODEL 2
REMARK VINA RESULT:    15.406      1.337      2.467
REMARK INTER + INTRA:          34.383
REMARK INTER:                  34.475
REMARK INTRA:                  -0.092
REMARK UNBOUND:                -0.838
REMARK SMILES CCCCCCCCCCCCCCCCCCCCCCCC(=O)[O-]
REMARK SMILES IDX 13 1 14 2 15 3 16 4 17 5 18 6 19 7 20 8 21 9 22 10 23 11
REMARK SMILES IDX 24 12 25 13 26 14 12 15 11 16 10 17 9 18 8 19 7 20 6 21 5 22
REMARK SMILES IDX 4 23 3 24 2 25 1 26
REMARK H PARENT
REMARK Flexibility Score: inf
ROOT
ATOM      1  C   UNL     1      11.901 -10.338   4.756  1.00  0.00     0.000 C 
ENDROOT
BRANCH   1   2
ATOM      2  C   UNL     1      11.253 -10.860   6.050  1.00  0.00     0.000 C 
BRANCH   2   3
ATOM      3  C   UNL     1      10.642 -12.264   5.893  1.00  0.00     0.000 C 
BRANCH   3   4
ATOM      4  C   UNL     1      11.631 -13.365   5.466  1.00  0.00     0.000 C 
BRANCH   4   5
ATOM      5  C   UNL     1      12.837 -13.491   6.414  1.00  0.00     0.000 C 
BRANCH   5   6
ATOM      6  C   UNL     1      13.704 -14.732   6.111  1.00  0.00     0.000 C 
BRANCH   6   7
ATOM      7  C   UNL     1      14.928 -14.878   7.035  1.00  0.00     0.000 C 
BRANCH   7   8
ATOM      8  C   UNL     1      16.002 -15.868   6.546  1.00  0.00     0.000 C 
BRANCH   8   9
ATOM      9  C   UNL     1      17.373 -15.745   7.239  1.00  0.00     0.000 C 
BRANCH   9  10
ATOM     10  C   UNL     1      18.461 -16.706   6.724  1.00  0.00     0.006 C 
BRANCH  10  11
ATOM     11  C   UNL     1      19.053 -16.309   5.360  1.00  0.00     0.053 C 
BRANCH  11  12
ATOM     12  C   UNL     1      18.945 -17.400   4.339  1.00  0.00     0.041 C 
ATOM     13  O   UNL     1      19.125 -18.602   4.672  1.00  0.00    -0.550 OA
ATOM     14  O   UNL     1      18.709 -17.084   3.006  1.00  0.00    -0.550 OA
ENDBRANCH  11  12
ENDBRANCH  10  11
ENDBRANCH   9  10
ENDBRANCH   8   9
ENDBRANCH   7   8
ENDBRANCH   6   7
ENDBRANCH   5   6
ENDBRANCH   4   5
ENDBRANCH   3   4
ENDBRANCH   2   3
ENDBRANCH   1   2
BRANCH   1  15
ATOM     15  C   UNL     1      12.881 -11.347   4.130  1.00  0.00     0.000 C 
BRANCH  15  16
ATOM     16  C   UNL     1      13.683 -10.823   2.921  1.00  0.00     0.000 C 
BRANCH  16  17
ATOM     17  C   UNL     1      14.632  -9.649   3.226  1.00  0.00     0.000 C 
BRANCH  17  18
ATOM     18  C   UNL     1      15.590  -9.278   2.077  1.00  0.00    -0.000 C 
BRANCH  18  19
ATOM     19  C   UNL     1      16.185  -7.859   2.159  1.00  0.00    -0.000 C 
BRANCH  19  20
ATOM     20  C   UNL     1      15.873  -7.090   3.458  1.00  0.00    -0.000 C 
BRANCH  20  21
ATOM     21  C   UNL     1      17.018  -6.201   3.978  1.00  0.00    -0.000 C 
BRANCH  21  22
ATOM     22  C   UNL     1      17.237  -6.340   5.494  1.00  0.00    -0.000 C 
BRANCH  22  23
ATOM     23  C   UNL     1      15.966  -6.009   6.304  1.00  0.00    -0.000 C 
BRANCH  23  24
ATOM     24  C   UNL     1      15.833  -4.517   6.670  1.00  0.00    -0.000 C 
BRANCH  24  25
ATOM     25  C   UNL     1      14.394  -3.978   6.655  1.00  0.00    -0.003 C 
ATOM     26  C   UNL     1      13.522  -4.641   5.588  1.00  0.00     0.004 C 
ENDBRANCH  24  25
ENDBRANCH  23  24
ENDBRANCH  22  23
ENDBRANCH  21  22
ENDBRANCH  20  21
ENDBRANCH  19  20
ENDBRANCH  18  19
ENDBRANCH  17  18
ENDBRANCH  16  17
ENDBRANCH  15  16
ENDBRANCH   1  15
TORSDOF 22
ENDMDL
MODEL 3
REMARK VINA RESULT:    15.954      4.291     10.230
REMARK INTER + INTRA:          35.636
REMARK INTER:                  36.107
REMARK INTRA:                  -0.471
REMARK UNBOUND:                -0.838
REMARK SMILES CCCCCCCCCCCCCCCCCCCCCCCC(=O)[O-]
REMARK SMILES IDX 13 1 14 2 15 3 16 4 17 5 18 6 19 7 20 8 21 9 22 10 23 11
REMARK SMILES IDX 24 12 25 13 26 14 12 15 11 16 10 17 9 18 8 19 7 20 6 21 5 22
REMARK SMILES IDX 4 23 3 24 2 25 1 26
REMARK H PARENT
REMARK Flexibility Score: inf
ROOT
ATOM      1  C   UNL     1      13.614  -9.910   4.060  1.00  0.00     0.000 C 
ENDROOT
BRANCH   1   2
ATOM      2  C   UNL     1      14.544 -10.296   2.898  1.00  0.00     0.000 C 
BRANCH   2   3
ATOM      3  C   UNL     1      14.971  -9.090   2.042  1.00  0.00     0.000 C 
BRANCH   3   4
ATOM      4  C   UNL     1      16.432  -8.641   2.224  1.00  0.00     0.000 C 
BRANCH   4   5
ATOM      5  C   UNL     1      16.564  -7.150   2.582  1.00  0.00     0.000 C 
BRANCH   5   6
ATOM      6  C   UNL     1      15.438  -6.662   3.520  1.00  0.00     0.000 C 
BRANCH   6   7
ATOM      7  C   UNL     1      15.728  -6.895   5.015  1.00  0.00     0.000 C 
BRANCH   7   8
ATOM      8  C   UNL     1      16.873  -6.045   5.599  1.00  0.00     0.000 C 
BRANCH   8   9
ATOM      9  C   UNL     1      16.458  -5.058   6.708  1.00  0.00     0.000 C 
BRANCH   9  10
ATOM     10  C   UNL     1      14.946  -4.785   6.815  1.00  0.00     0.006 C 
BRANCH  10  11
ATOM     11  C   UNL     1      14.454  -3.624   5.931  1.00  0.00     0.053 C 
BRANCH  11  12
ATOM     12  C   UNL     1      14.701  -2.280   6.546  1.00  0.00     0.041 C 
ATOM     13  O   UNL     1      13.802  -1.399   6.528  1.00  0.00    -0.550 OA
ATOM     14  O   UNL     1      15.947  -1.981   7.082  1.00  0.00    -0.550 OA
ENDBRANCH  11  12
ENDBRANCH  10  11
ENDBRANCH   9  10
ENDBRANCH   8   9
ENDBRANCH   7   8
ENDBRANCH   6   7
ENDBRANCH   5   6
ENDBRANCH   4   5
ENDBRANCH   3   4
ENDBRANCH   2   3
ENDBRANCH   1   2
BRANCH   1  15
ATOM     15  C   UNL     1      12.483 -10.930   4.286  1.00  0.00     0.000 C 
BRANCH  15  16
ATOM     16  C   UNL     1      11.608 -10.679   5.531  1.00  0.00     0.000 C 
BRANCH  16  17
ATOM     17  C   UNL     1      10.477 -11.701   5.751  1.00  0.00     0.000 C 
BRANCH  17  18
ATOM     18  C   UNL     1      10.928 -13.175   5.740  1.00  0.00    -0.000 C 
BRANCH  18  19
ATOM     19  C   UNL     1      12.447 -13.391   5.590  1.00  0.00    -0.000 C 
BRANCH  19  20
ATOM     20  C   UNL     1      13.016 -14.601   6.356  1.00  0.00    -0.000 C 
BRANCH  20  21
ATOM     21  C   UNL     1      14.408 -14.380   6.976  1.00  0.00    -0.000 C 
BRANCH  21  22
ATOM     22  C   UNL     1      15.189 -15.692   7.169  1.00  0.00    -0.000 C 
BRANCH  22  23
ATOM     23  C   UNL     1      16.442 -15.766   6.270  1.00  0.00    -0.000 C 
BRANCH  23  24
ATOM     24  C   UNL     1      17.769 -15.631   7.042  1.00  0.00    -0.000 C 
BRANCH  24  25
ATOM     25  C   UNL     1      18.774 -16.767   6.796  1.00  0.00    -0.003 C 
ATOM     26  C   UNL     1      19.124 -16.941   5.318  1.00  0.00     0.004 C 
ENDBRANCH  24  25
ENDBRANCH  23  24
ENDBRANCH  22  23
ENDBRANCH  21  22
ENDBRANCH  20  21
ENDBRANCH  19  20
ENDBRANCH  18  19
ENDBRANCH  17  18
ENDBRANCH  16  17
ENDBRANCH  15  16
ENDBRANCH   1  15
TORSDOF 22
ENDMDL
MODEL 4
REMARK VINA RESULT:    16.068      1.112      2.317
REMARK INTER + INTRA:          35.895
REMARK INTER:                  35.097
REMARK INTRA:                   0.798
REMARK UNBOUND:                -0.838
REMARK SMILES CCCCCCCCCCCCCCCCCCCCCCCC(=O)[O-]
REMARK SMILES IDX 13 1 14 2 15 3 16 4 17 5 18 6 19 7 20 8 21 9 22 10 23 11
REMARK SMILES IDX 24 12 25 13 26 14 12 15 11 16 10 17 9 18 8 19 7 20 6 21 5 22
REMARK SMILES IDX 4 23 3 24 2 25 1 26
REMARK H PARENT
REMARK Flexibility Score: inf
ROOT
ATOM      1  C   UNL     1      15.451 -10.186   2.877  1.00  0.00     0.000 C 
ENDROOT
BRANCH   1   2
ATOM      2  C   UNL     1      14.008 -10.719   2.871  1.00  0.00     0.000 C 
BRANCH   2   3
ATOM      3  C   UNL     1      13.223 -10.342   4.140  1.00  0.00     0.000 C 
BRANCH   3   4
ATOM      4  C   UNL     1      12.142 -11.353   4.566  1.00  0.00     0.000 C 
BRANCH   4   5
ATOM      5  C   UNL     1      11.236 -10.826   5.694  1.00  0.00     0.000 C 
BRANCH   5   6
ATOM      6  C   UNL     1       9.936 -11.645   5.844  1.00  0.00     0.000 C 
BRANCH   6   7
ATOM      7  C   UNL     1      10.167 -13.161   5.994  1.00  0.00     0.000 C 
BRANCH   7   8
ATOM      8  C   UNL     1      11.510 -13.674   5.440  1.00  0.00     0.000 C 
BRANCH   8   9
ATOM      9  C   UNL     1      12.688 -13.637   6.434  1.00  0.00     0.000 C 
BRANCH   9  10
ATOM     10  C   UNL     1      13.750 -14.735   6.238  1.00  0.00     0.006 C 
BRANCH  10  11
ATOM     11  C   UNL     1      15.012 -14.546   7.099  1.00  0.00     0.053 C 
BRANCH  11  12
ATOM     12  C   UNL     1      15.961 -15.702   7.003  1.00  0.00     0.041 C 
ATOM     13  O   UNL     1      15.540 -16.882   7.134  1.00  0.00    -0.550 OA
ATOM     14  O   UNL     1      17.320 -15.472   6.832  1.00  0.00    -0.550 OA
ENDBRANCH  11  12
ENDBRANCH  10  11
ENDBRANCH   9  10
ENDBRANCH   8   9
ENDBRANCH   7   8
ENDBRANCH   6   7
ENDBRANCH   5   6
ENDBRANCH   4   5
ENDBRANCH   3   4
ENDBRANCH   2   3
ENDBRANCH   1   2
BRANCH   1  15
ATOM     15  C   UNL     1      15.669  -9.038   1.875  1.00  0.00     0.000 C 
BRANCH  15  16
ATOM     16  C   UNL     1      16.991  -8.261   2.040  1.00  0.00     0.000 C 
BRANCH  16  17
ATOM     17  C   UNL     1      16.847  -6.728   2.081  1.00  0.00     0.000 C 
BRANCH  17  18
ATOM     18  C   UNL     1      17.276  -6.074   3.409  1.00  0.00    -0.000 C 
BRANCH  18  19
ATOM     19  C   UNL     1      16.323  -6.322   4.595  1.00  0.00    -0.000 C 
BRANCH  19  20
ATOM     20  C   UNL     1      16.867  -5.900   5.973  1.00  0.00    -0.000 C 
BRANCH  20  21
ATOM     21  C   UNL     1      15.798  -5.435   6.979  1.00  0.00    -0.000 C 
BRANCH  21  22
ATOM     22  C   UNL     1      15.276  -4.019   6.681  1.00  0.00    -0.000 C 
BRANCH  22  23
ATOM     23  C   UNL     1      16.258  -2.921   7.142  1.00  0.00    -0.000 C 
BRANCH  23  24
ATOM     24  C   UNL     1      15.695  -1.492   7.019  1.00  0.00    -0.000 C 
BRANCH  24  25
ATOM     25  C   UNL     1      14.716  -1.285   5.853  1.00  0.00    -0.003 C 
ATOM     26  C   UNL     1      13.259  -1.197   6.309  1.00  0.00     0.004 C 
ENDBRANCH  24  25
ENDBRANCH  23  24
ENDBRANCH  22  23
ENDBRANCH  21  22
ENDBRANCH  20  21
ENDBRANCH  19  20
ENDBRANCH  18  19
ENDBRANCH  17  18
ENDBRANCH  16  17
ENDBRANCH  15  16
ENDBRANCH   1  15
TORSDOF 22
ENDMDL
MODEL 5
REMARK VINA RESULT:    16.226      0.965      1.440
REMARK INTER + INTRA:          36.257
REMARK INTER:                  36.150
REMARK INTRA:                   0.107
REMARK UNBOUND:                -0.838
REMARK SMILES CCCCCCCCCCCCCCCCCCCCCCCC(=O)[O-]
REMARK SMILES IDX 13 1 14 2 15 3 16 4 17 5 18 6 19 7 20 8 21 9 22 10 23 11
REMARK SMILES IDX 24 12 25 13 26 14 12 15 11 16 10 17 9 18 8 19 7 20 6 21 5 22
REMARK SMILES IDX 4 23 3 24 2 25 1 26
REMARK H PARENT
REMARK Flexibility Score: inf
ROOT
ATOM      1  C   UNL     1      12.593  -9.912   4.447  1.00  0.00     0.000 C 
ENDROOT
BRANCH   1   2
ATOM      2  C   UNL     1      11.466 -10.274   5.429  1.00  0.00     0.000 C 
BRANCH   2   3
ATOM      3  C   UNL     1      11.602 -11.697   6.002  1.00  0.00     0.000 C 
BRANCH   3   4
ATOM      4  C   UNL     1      10.387 -12.615   5.772  1.00  0.00     0.000 C 
BRANCH   4   5
ATOM      5  C   UNL     1      10.756 -13.940   5.081  1.00  0.00     0.000 C 
BRANCH   5   6
ATOM      6  C   UNL     1      12.115 -14.499   5.555  1.00  0.00     0.000 C 
BRANCH   6   7
ATOM      7  C   UNL     1      12.920 -13.520   6.431  1.00  0.00     0.000 C 
BRANCH   7   8
ATOM      8  C   UNL     1      14.216 -14.097   7.033  1.00  0.00     0.000 C 
BRANCH   8   9
ATOM      9  C   UNL     1      14.535 -15.551   6.634  1.00  0.00     0.000 C 
BRANCH   9  10
ATOM     10  C   UNL     1      15.913 -16.071   7.084  1.00  0.00     0.006 C 
BRANCH  10  11
ATOM     11  C   UNL     1      17.101 -15.282   6.501  1.00  0.00     0.053 C 
BRANCH  11  12
ATOM     12  C   UNL     1      18.348 -16.105   6.391  1.00  0.00     0.041 C 
ATOM     13  O   UNL     1      18.889 -16.293   5.270  1.00  0.00    -0.550 OA
ATOM     14  O   UNL     1      18.877 -16.718   7.521  1.00  0.00    -0.550 OA
ENDBRANCH  11  12
ENDBRANCH  10  11
ENDBRANCH   9  10
ENDBRANCH   8   9
ENDBRANCH   7   8
ENDBRANCH   6   7
ENDBRANCH   5   6
ENDBRANCH   4   5
ENDBRANCH   3   4
ENDBRANCH   2   3
ENDBRANCH   1   2
BRANCH   1  15
ATOM     15  C   UNL     1      13.184 -11.142   3.735  1.00  0.00     0.000 C 
BRANCH  15  16
ATOM     16  C   UNL     1      14.303 -10.840   2.717  1.00  0.00     0.000 C 
BRANCH  16  17
ATOM     17  C   UNL     1      14.808  -9.385   2.714  1.00  0.00     0.000 C 
BRANCH  17  18
ATOM     18  C   UNL     1      16.095  -9.150   1.900  1.00  0.00    -0.000 C 
BRANCH  18  19
ATOM     19  C   UNL     1      16.648  -7.712   1.957  1.00  0.00    -0.000 C 
BRANCH  19  20
ATOM     20  C   UNL     1      15.887  -6.754   2.894  1.00  0.00    -0.000 C 
BRANCH  20  21
ATOM     21  C   UNL     1      16.663  -6.327   4.155  1.00  0.00    -0.000 C 
BRANCH  21  22
ATOM     22  C   UNL     1      16.034  -6.867   5.451  1.00  0.00    -0.000 C 
BRANCH  22  23
ATOM     23  C   UNL     1      15.325  -5.762   6.264  1.00  0.00    -0.000 C 
BRANCH  23  24
ATOM     24  C   UNL     1      16.292  -4.777   6.949  1.00  0.00    -0.000 C 
BRANCH  24  25
ATOM     25  C   UNL     1      16.078  -3.302   6.575  1.00  0.00    -0.003 C 
ATOM     26  C   UNL     1      16.047  -2.379   7.794  1.00  0.00     0.004 C 
ENDBRANCH  24  25
ENDBRANCH  23  24
ENDBRANCH  22  23
ENDBRANCH  21  22
ENDBRANCH  20  21
ENDBRANCH  19  20
ENDBRANCH  18  19
ENDBRANCH  17  18
ENDBRANCH  16  17
ENDBRANCH  15  16
ENDBRANCH   1  15
TORSDOF 22
ENDMDL
MODEL 6
REMARK VINA RESULT:    16.971      7.649     11.910
REMARK INTER + INTRA:          37.960
REMARK INTER:                  38.808
REMARK INTRA:                  -0.848
REMARK UNBOUND:                -0.838
REMARK SMILES CCCCCCCCCCCCCCCCCCCCCCCC(=O)[O-]
REMARK SMILES IDX 13 1 14 2 15 3 16 4 17 5 18 6 19 7 20 8 21 9 22 10 23 11
REMARK SMILES IDX 24 12 25 13 26 14 12 15 11 16 10 17 9 18 8 19 7 20 6 21 5 22
REMARK SMILES IDX 4 23 3 24 2 25 1 26
REMARK H PARENT
REMARK Flexibility Score: inf
ROOT
ATOM      1  C   UNL     1      10.822 -12.166   5.981  1.00  0.00     0.000 C 
ENDROOT
BRANCH   1   2
ATOM      2  C   UNL     1       9.888 -13.226   5.374  1.00  0.00     0.000 C 
BRANCH   2   3
ATOM      3  C   UNL     1       8.617 -12.622   4.749  1.00  0.00     0.000 C 
BRANCH   3   4
ATOM      4  C   UNL     1       8.096 -11.344   5.432  1.00  0.00     0.000 C 
BRANCH   4   5
ATOM      5  C   UNL     1       6.638 -11.469   5.909  1.00  0.00     0.000 C 
BRANCH   5   6
ATOM      6  C   UNL     1       6.194 -10.277   6.785  1.00  0.00     0.000 C 
BRANCH   6   7
ATOM      7  C   UNL     1       4.686 -10.262   7.099  1.00  0.00     0.000 C 
BRANCH   7   8
ATOM      8  C   UNL     1       4.286 -10.957   8.414  1.00  0.00     0.000 C 
BRANCH   8   9
ATOM      9  C   UNL     1       3.116 -10.301   9.174  1.00  0.00     0.000 C 
BRANCH   9  10
ATOM     10  C   UNL     1       2.868 -10.840  10.595  1.00  0.00     0.006 C 
BRANCH  10  11
ATOM     11  C   UNL     1       1.466 -10.525  11.149  1.00  0.00     0.053 C 
BRANCH  11  12
ATOM     12  C   UNL     1       1.489  -9.494  12.236  1.00  0.00     0.041 C 
ATOM     13  O   UNL     1       0.491  -8.749  12.426  1.00  0.00    -0.550 OA
ATOM     14  O   UNL     1       2.637  -9.312  12.997  1.00  0.00    -0.550 OA
ENDBRANCH  11  12
ENDBRANCH  10  11
ENDBRANCH   9  10
ENDBRANCH   8   9
ENDBRANCH   7   8
ENDBRANCH   6   7
ENDBRANCH   5   6
ENDBRANCH   4   5
ENDBRANCH   3   4
ENDBRANCH   2   3
ENDBRANCH   1   2
BRANCH   1  15
ATOM     15  C   UNL     1      12.307 -12.433   5.677  1.00  0.00     0.000 C 
BRANCH  15  16
ATOM     16  C   UNL     1      12.819 -13.833   6.074  1.00  0.00     0.000 C 
BRANCH  16  17
ATOM     17  C   UNL     1      14.119 -13.843   6.900  1.00  0.00     0.000 C 
BRANCH  17  18
ATOM     18  C   UNL     1      15.192 -14.832   6.405  1.00  0.00    -0.000 C 
BRANCH  18  19
ATOM     19  C   UNL     1      15.607 -15.908   7.427  1.00  0.00    -0.000 C 
BRANCH  19  20
ATOM     20  C   UNL     1      16.609 -16.957   6.905  1.00  0.00    -0.000 C 
BRANCH  20  21
ATOM     21  C   UNL     1      18.022 -16.863   7.510  1.00  0.00    -0.000 C 
BRANCH  21  22
ATOM     22  C   UNL     1      19.123 -17.276   6.517  1.00  0.00    -0.000 C 
BRANCH  22  23
ATOM     23  C   UNL     1      18.550 -17.698   5.147  1.00  0.00    -0.000 C 
BRANCH  23  24
ATOM     24  C   UNL     1      18.857 -16.703   4.012  1.00  0.00    -0.000 C 
BRANCH  24  25
ATOM     25  C   UNL     1      18.492 -17.201   2.604  1.00  0.00    -0.003 C 
ATOM     26  C   UNL     1      17.191 -16.595   2.078  1.00  0.00     0.004 C 
ENDBRANCH  24  25
ENDBRANCH  23  24
ENDBRANCH  22  23
ENDBRANCH  21  22
ENDBRANCH  20  21
ENDBRANCH  19  20
ENDBRANCH  18  19
ENDBRANCH  17  18
ENDBRANCH  16  17
ENDBRANCH  15  16
ENDBRANCH   1  15
TORSDOF 22
ENDMDL
MODEL 7
REMARK VINA RESULT:    17.455      3.912     10.252
REMARK INTER + INTRA:          39.067
REMARK INTER:                  40.312
REMARK INTRA:                  -1.245
REMARK UNBOUND:                -0.838
REMARK SMILES CCCCCCCCCCCCCCCCCCCCCCCC(=O)[O-]
REMARK SMILES IDX 13 1 14 2 15 3 16 4 17 5 18 6 19 7 20 8 21 9 22 10 23 11
REMARK SMILES IDX 24 12 25 13 26 14 12 15 11 16 10 17 9 18 8 19 7 20 6 21 5 22
REMARK SMILES IDX 4 23 3 24 2 25 1 26
REMARK H PARENT
REMARK Flexibility Score: inf
ROOT
ATOM      1  C   UNL     1      10.379 -11.733   5.844  1.00  0.00     0.000 C 
ENDROOT
BRANCH   1   2
ATOM      2  C   UNL     1      11.233 -10.598   5.253  1.00  0.00     0.000 C 
BRANCH   2   3
ATOM      3  C   UNL     1      12.320 -11.103   4.287  1.00  0.00     0.000 C 
BRANCH   3   4
ATOM      4  C   UNL     1      13.565 -10.204   4.173  1.00  0.00     0.000 C 
BRANCH   4   5
ATOM      5  C   UNL     1      14.023  -9.993   2.719  1.00  0.00     0.000 C 
BRANCH   5   6
ATOM      6  C   UNL     1      15.557 -10.072   2.561  1.00  0.00     0.000 C 
BRANCH   6   7
ATOM      7  C   UNL     1      16.179  -8.831   1.892  1.00  0.00     0.000 C 
BRANCH   7   8
ATOM      8  C   UNL     1      15.656  -7.478   2.411  1.00  0.00     0.000 C 
BRANCH   8   9
ATOM      9  C   UNL     1      16.531  -6.805   3.487  1.00  0.00     0.000 C 
BRANCH   9  10
ATOM     10  C   UNL     1      15.945  -6.813   4.912  1.00  0.00     0.006 C 
BRANCH  10  11
ATOM     11  C   UNL     1      16.711  -5.923   5.909  1.00  0.00     0.053 C 
BRANCH  11  12
ATOM     12  C   UNL     1      15.834  -4.905   6.571  1.00  0.00     0.041 C 
ATOM     13  O   UNL     1      16.293  -4.169   7.484  1.00  0.00    -0.550 OA
ATOM     14  O   UNL     1      14.492  -4.812   6.223  1.00  0.00    -0.550 OA
ENDBRANCH  11  12
ENDBRANCH  10  11
ENDBRANCH   9  10
ENDBRANCH   8   9
ENDBRANCH   7   8
ENDBRANCH   6   7
ENDBRANCH   5   6
ENDBRANCH   4   5
ENDBRANCH   3   4
ENDBRANCH   2   3
ENDBRANCH   1   2
BRANCH   1  15
ATOM     15  C   UNL     1      10.737 -13.114   5.265  1.00  0.00     0.000 C 
BRANCH  15  16
ATOM     16  C   UNL     1      11.669 -13.974   6.144  1.00  0.00     0.000 C 
BRANCH  16  17
ATOM     17  C   UNL     1      13.158 -13.584   6.093  1.00  0.00     0.000 C 
BRANCH  17  18
ATOM     18  C   UNL     1      13.907 -13.722   7.434  1.00  0.00    -0.000 C 
BRANCH  18  19
ATOM     19  C   UNL     1      15.176 -14.594   7.383  1.00  0.00    -0.000 C 
BRANCH  19  20
ATOM     20  C   UNL     1      15.055 -15.882   6.545  1.00  0.00    -0.000 C 
BRANCH  20  21
ATOM     21  C   UNL     1      16.152 -16.932   6.804  1.00  0.00    -0.000 C 
BRANCH  21  22
ATOM     22  C   UNL     1      15.630 -18.163   7.565  1.00  0.00    -0.000 C 
BRANCH  22  23
ATOM     23  C   UNL     1      14.117 -18.387   7.351  1.00  0.00    -0.000 C 
BRANCH  23  24
ATOM     24  C   UNL     1      13.672 -19.850   7.546  1.00  0.00    -0.000 C 
BRANCH  24  25
ATOM     25  C   UNL     1      12.679 -20.365   6.493  1.00  0.00    -0.003 C 
ATOM     26  C   UNL     1      12.145 -19.256   5.586  1.00  0.00     0.004 C 
ENDBRANCH  24  25
ENDBRANCH  23  24
ENDBRANCH  22  23
ENDBRANCH  21  22
ENDBRANCH  20  21
ENDBRANCH  19  20
ENDBRANCH  18  19
ENDBRANCH  17  18
ENDBRANCH  16  17
ENDBRANCH  15  16
ENDBRANCH   1  15
TORSDOF 22
ENDMDL
