MODEL 1
REMARK VINA RESULT:    -3.809      0.000      0.000
REMARK INTER + INTRA:          -4.910
REMARK INTER:                  -4.589
REMARK INTRA:                  -0.321
REMARK UNBOUND:                -0.321
REMARK SMILES O=c1c(O)c(-c2ccc(O)cc2O)oc2cc(O)cc(O)c12
REMARK SMILES IDX 5 1 3 2 2 3 1 4 22 5 20 6 19 7 17 8 16 9 15 10 14 11 6 12
REMARK SMILES IDX 8 13 7 14 9 15 11 16 12 17 10 18 13 20 4 22 21 24 18 26
REMARK H PARENT 10 19 13 21 4 23 21 25 18 27
REMARK Flexibility Score: inf
ROOT
ATOM      1  C   UNL     1      79.646  15.655   5.582  1.00  0.00     0.184 A 
ATOM      2  C   UNL     1      78.627  14.878   5.009  1.00  0.00     0.208 A 
ATOM      3  C   UNL     1      78.220  15.153   3.694  1.00  0.00     0.238 A 
ATOM      4  O   UNL     1      77.269  14.488   3.205  1.00  0.00    -0.285 OA
ATOM      5  C   UNL     1      78.852  16.189   2.963  1.00  0.00     0.111 A 
ATOM      6  C   UNL     1      78.548  16.526   1.610  1.00  0.00     0.134 A 
ATOM      7  C   UNL     1      79.144  17.653   1.030  1.00  0.00     0.093 A 
ATOM      8  C   UNL     1      80.079  18.415   1.729  1.00  0.00     0.123 A 
ATOM      9  C   UNL     1      80.428  18.058   3.033  1.00  0.00     0.094 A 
ATOM     10  C   UNL     1      79.823  16.961   3.652  1.00  0.00     0.146 A 
ATOM     11  O   UNL     1      80.174  16.661   4.898  1.00  0.00    -0.451 OA
ENDROOT
BRANCH   1  12
ATOM     12  C   UNL     1      80.132  15.408   6.956  1.00  0.00     0.063 A 
ATOM     13  C   UNL     1      81.111  13.875   8.569  1.00  0.00     0.047 A 
ATOM     14  C   UNL     1      80.648  14.143   7.278  1.00  0.00     0.020 A 
ATOM     15  C   UNL     1      81.052  14.862   9.556  1.00  0.00     0.119 A 
ATOM     16  C   UNL     1      80.517  16.120   9.251  1.00  0.00     0.093 A 
ATOM     17  C   UNL     1      80.045  16.396   7.959  1.00  0.00     0.130 A 
BRANCH  15  18
ATOM     18  O   UNL     1      81.521  14.581  10.837  1.00  0.00    -0.508 OA
ATOM     19  H   UNL     1      82.354  14.023  10.986  1.00  0.00     0.293 HD
ENDBRANCH  15  18
BRANCH  17  20
ATOM     20  O   UNL     1      79.470  17.636   7.680  1.00  0.00    -0.507 OA
ATOM     21  H   UNL     1      79.355  17.967   6.728  1.00  0.00     0.293 HD
ENDBRANCH  17  20
ENDBRANCH   1  12
BRANCH   2  22
ATOM     22  O   UNL     1      78.008  13.875   5.759  1.00  0.00    -0.502 OA
ATOM     23  H   UNL     1      78.215  13.724   6.739  1.00  0.00     0.293 HD
ENDBRANCH   2  22
BRANCH   6  24
ATOM     24  O   UNL     1      77.697  15.779   0.790  1.00  0.00    -0.507 OA
ATOM     25  H   UNL     1      77.997  15.033   0.181  1.00  0.00     0.293 HD
ENDBRANCH   6  24
BRANCH   8  26
ATOM     26  O   UNL     1      80.664  19.520   1.115  1.00  0.00    -0.508 OA
ATOM     27  H   UNL     1      80.111  20.197   0.604  1.00  0.00     0.293 HD
ENDBRANCH   8  26
TORSDOF 6
ENDMDL
MODEL 2
REMARK VINA RESULT:    -3.010      1.446      3.040
REMARK INTER + INTRA:          -3.948
REMARK INTER:                  -4.194
REMARK INTRA:                   0.246
REMARK UNBOUND:                -0.321
REMARK SMILES O=c1c(O)c(-c2ccc(O)cc2O)oc2cc(O)cc(O)c12
REMARK SMILES IDX 5 1 3 2 2 3 1 4 22 5 20 6 19 7 17 8 16 9 15 10 14 11 6 12
REMARK SMILES IDX 8 13 7 14 9 15 11 16 12 17 10 18 13 20 4 22 21 24 18 26
REMARK H PARENT 10 19 13 21 4 23 21 25 18 27
REMARK Flexibility Score: inf
ROOT
ATOM      1  C   UNL     1      79.530  16.051   4.546  1.00  0.00     0.184 A 
ATOM      2  C   UNL     1      80.013  17.246   3.989  1.00  0.00     0.208 A 
ATOM      3  C   UNL     1      79.644  17.583   2.677  1.00  0.00     0.238 A 
ATOM      4  O   UNL     1      80.123  18.629   2.165  1.00  0.00    -0.285 OA
ATOM      5  C   UNL     1      78.781  16.730   1.947  1.00  0.00     0.111 A 
ATOM      6  C   UNL     1      78.309  16.994   0.626  1.00  0.00     0.134 A 
ATOM      7  C   UNL     1      77.566  16.017  -0.048  1.00  0.00     0.093 A 
ATOM      8  C   UNL     1      77.221  14.817   0.571  1.00  0.00     0.123 A 
ATOM      9  C   UNL     1      77.627  14.574   1.884  1.00  0.00     0.094 A 
ATOM     10  C   UNL     1      78.401  15.513   2.571  1.00  0.00     0.146 A 
ATOM     11  O   UNL     1      78.777  15.239   3.815  1.00  0.00    -0.451 OA
ENDROOT
BRANCH   1  12
ATOM     12  C   UNL     1      79.867  15.645   5.926  1.00  0.00     0.063 A 
ATOM     13  C   UNL     1      80.586  13.902   7.460  1.00  0.00     0.047 A 
ATOM     14  C   UNL     1      80.265  14.320   6.166  1.00  0.00     0.020 A 
ATOM     15  C   UNL     1      80.498  14.796   8.531  1.00  0.00     0.119 A 
ATOM     16  C   UNL     1      80.079  16.113   8.304  1.00  0.00     0.093 A 
ATOM     17  C   UNL     1      79.750  16.540   7.010  1.00  0.00     0.130 A 
BRANCH  15  18
ATOM     18  O   UNL     1      80.825  14.364   9.814  1.00  0.00    -0.508 OA
ATOM     19  H   UNL     1      81.687  14.649  10.266  1.00  0.00     0.293 HD
ENDBRANCH  15  18
BRANCH  17  20
ATOM     20  O   UNL     1      79.286  17.840   6.804  1.00  0.00    -0.507 OA
ATOM     21  H   UNL     1      79.159  18.218   5.872  1.00  0.00     0.293 HD
ENDBRANCH  17  20
ENDBRANCH   1  12
BRANCH   2  22
ATOM     22  O   UNL     1      80.877  18.060   4.726  1.00  0.00    -0.502 OA
ATOM     23  H   UNL     1      81.611  17.681   5.313  1.00  0.00     0.293 HD
ENDBRANCH   2  22
BRANCH   6  24
ATOM     24  O   UNL     1      78.518  18.198  -0.052  1.00  0.00    -0.507 OA
ATOM     25  H   UNL     1      79.275  18.839   0.134  1.00  0.00     0.293 HD
ENDBRANCH   6  24
BRANCH   8  26
ATOM     26  O   UNL     1      76.466  13.875  -0.125  1.00  0.00    -0.508 OA
ATOM     27  H   UNL     1      76.725  12.896  -0.140  1.00  0.00     0.293 HD
ENDBRANCH   8  26
TORSDOF 6
ENDMDL
MODEL 3
REMARK VINA RESULT:    -1.415      1.881      2.027
REMARK INTER + INTRA:          -2.026
REMARK INTER:                  -2.078
REMARK INTRA:                   0.053
REMARK UNBOUND:                -0.321
REMARK SMILES O=c1c(O)c(-c2ccc(O)cc2O)oc2cc(O)cc(O)c12
REMARK SMILES IDX 5 1 3 2 2 3 1 4 22 5 20 6 19 7 17 8 16 9 15 10 14 11 6 12
REMARK SMILES IDX 8 13 7 14 9 15 11 16 12 17 10 18 13 20 4 22 21 24 18 26
REMARK H PARENT 10 19 13 21 4 23 21 25 18 27
REMARK Flexibility Score: inf
ROOT
ATOM      1  C   UNL     1      79.707  15.874   4.995  1.00  0.00     0.184 A 
ATOM      2  C   UNL     1      80.320  14.858   4.246  1.00  0.00     0.208 A 
ATOM      3  C   UNL     1      80.129  14.829   2.855  1.00  0.00     0.238 A 
ATOM      4  O   UNL     1      80.638  13.884   2.195  1.00  0.00    -0.285 OA
ATOM      5  C   UNL     1      79.342  15.827   2.231  1.00  0.00     0.111 A 
ATOM      6  C   UNL     1      79.115  15.918   0.825  1.00  0.00     0.134 A 
ATOM      7  C   UNL     1      78.213  16.869   0.332  1.00  0.00     0.093 A 
ATOM      8  C   UNL     1      77.582  17.773   1.184  1.00  0.00     0.123 A 
ATOM      9  C   UNL     1      77.842  17.732   2.555  1.00  0.00     0.094 A 
ATOM     10  C   UNL     1      78.708  16.770   3.082  1.00  0.00     0.146 A 
ATOM     11  O   UNL     1      78.921  16.757   4.393  1.00  0.00    -0.451 OA
ENDROOT
BRANCH   1  12
ATOM     12  C   UNL     1      79.880  15.972   6.460  1.00  0.00     0.063 A 
ATOM     13  C   UNL     1      80.089  14.849   8.606  1.00  0.00     0.047 A 
ATOM     14  C   UNL     1      79.931  14.792   7.219  1.00  0.00     0.020 A 
ATOM     15  C   UNL     1      80.183  16.085   9.253  1.00  0.00     0.119 A 
ATOM     16  C   UNL     1      80.109  17.268   8.506  1.00  0.00     0.093 A 
ATOM     17  C   UNL     1      79.945  17.219   7.114  1.00  0.00     0.130 A 
BRANCH  15  18
ATOM     18  O   UNL     1      80.344  16.125  10.636  1.00  0.00    -0.508 OA
ATOM     19  H   UNL     1      79.553  16.253  11.258  1.00  0.00     0.293 HD
ENDBRANCH  15  18
BRANCH  17  20
ATOM     20  O   UNL     1      79.824  18.405   6.388  1.00  0.00    -0.507 OA
ATOM     21  H   UNL     1      79.618  18.401   5.395  1.00  0.00     0.293 HD
ENDBRANCH  17  20
ENDBRANCH   1  12
BRANCH   2  22
ATOM     22  O   UNL     1      81.077  13.875   4.889  1.00  0.00    -0.502 OA
ATOM     23  H   UNL     1      81.831  13.381   4.427  1.00  0.00     0.293 HD
ENDBRANCH   2  22
BRANCH   6  24
ATOM     24  O   UNL     1      79.765  15.124  -0.124  1.00  0.00    -0.507 OA
ATOM     25  H   UNL     1      80.765  15.005  -0.186  1.00  0.00     0.293 HD
ENDBRANCH   6  24
BRANCH   8  26
ATOM     26  O   UNL     1      76.703  18.718   0.657  1.00  0.00    -0.508 OA
ATOM     27  H   UNL     1      76.980  19.682   0.522  1.00  0.00     0.293 HD
ENDBRANCH   8  26
TORSDOF 6
ENDMDL
