MODEL 1
REMARK VINA RESULT:    -5.510      0.000      0.000
REMARK INTER + INTRA:          -8.041
REMARK INTER:                  -7.764
REMARK INTRA:                  -0.276
REMARK UNBOUND:                -0.276
REMARK SMILES CC1=CCC(=C(C)C)C(=O)CC(C)=CCC1
REMARK SMILES IDX 12 1 14 2 13 3 15 4 16 5 2 6 1 7 3 8 11 10 9 11 10 12 5 13
REMARK SMILES IDX 6 14 7 15 8 16 4 17
REMARK H PARENT
REMARK Flexibility Score: 60.00
ROOT
ATOM      1  C   UNL     1     -38.689  12.182   9.379  1.00  0.00    -0.070 C 
ATOM      2  C   UNL     1     -39.036  13.465   9.121  1.00  0.00    -0.027 C 
ATOM      3  C   UNL     1     -37.547  11.604   8.578  1.00  0.00     0.039 C 
ENDROOT
BRANCH   2   4
ATOM      4  C   UNL     1     -40.107  14.262   9.822  1.00  0.00     0.032 C 
BRANCH   4   5
ATOM      5  C   UNL     1     -41.560  13.850   9.484  1.00  0.00     0.034 C 
BRANCH   5   6
ATOM      6  C   UNL     1     -42.431  13.475  10.674  1.00  0.00    -0.077 C 
ATOM      7  C   UNL     1     -42.759  14.562  11.669  1.00  0.00     0.039 C 
ATOM      8  C   UNL     1     -42.892  12.222  10.947  1.00  0.00    -0.023 CG0
ATOM      9  G   UNL     1     -42.862  10.964  10.092  1.00  0.00     0.000 G0
ENDBRANCH   5   6
ENDBRANCH   4   5
ENDBRANCH   2   4
BRANCH   1  10
ATOM     10  C   UNL     1     -39.329  11.300  10.446  1.00  0.00     0.111 C 
BRANCH  10  11
ATOM     11  C   UNL     1     -40.361  10.304   9.970  1.00  0.00     0.163 C 
ATOM     12  O   UNL     1     -40.117   9.090  10.207  1.00  0.00    -0.294 OA
BRANCH  11  13
ATOM     13  C   UNL     1     -41.635  10.689   9.259  1.00  0.00    -0.002 C 
ATOM     14  C   UNL     1     -41.715  10.748   7.892  1.00  0.00    -0.069 C 
ATOM     15  C   UNL     1     -43.030  11.015   7.191  1.00  0.00     0.039 C 
ATOM     16  C   UNL     1     -40.501  10.588   7.005  1.00  0.00     0.039 C 
BRANCH  13  17
ATOM     17  C   UNL     1     -42.873  10.956  10.099  1.00  0.00     0.066 CG0
ATOM     18  G   UNL     1     -42.873  12.228  10.936  1.00  0.00     0.000 G0
ENDBRANCH  13  17
ENDBRANCH  11  13
ENDBRANCH  10  11
ENDBRANCH   1  10
TORSDOF 0
ENDMDL
MODEL 2
REMARK VINA RESULT:    -5.415      1.827      4.078
REMARK INTER + INTRA:          -7.906
REMARK INTER:                  -7.978
REMARK INTRA:                   0.072
REMARK UNBOUND:                -0.276
REMARK SMILES CC1=CCC(=C(C)C)C(=O)CC(C)=CCC1
REMARK SMILES IDX 12 1 14 2 13 3 15 4 16 5 2 6 1 7 3 8 11 10 9 11 10 12 5 13
REMARK SMILES IDX 6 14 7 15 8 16 4 17
REMARK H PARENT
REMARK Flexibility Score: 60.00
ROOT
ATOM      1  C   UNL     1     -40.207  13.284   9.326  1.00  0.00    -0.070 C 
ATOM      2  C   UNL     1     -39.999  12.144   8.627  1.00  0.00    -0.027 C 
ATOM      3  C   UNL     1     -39.020  13.876  10.046  1.00  0.00     0.039 C 
ENDROOT
BRANCH   2   4
ATOM      4  C   UNL     1     -41.017  11.403   7.798  1.00  0.00     0.032 C 
BRANCH   4   5
ATOM      5  C   UNL     1     -41.468  10.039   8.375  1.00  0.00     0.034 C 
BRANCH   5   6
ATOM      6  C   UNL     1     -41.108   9.791   9.833  1.00  0.00    -0.077 C 
ATOM      7  C   UNL     1     -39.817   9.062  10.118  1.00  0.00     0.039 C 
ATOM      8  C   UNL     1     -41.885  10.121  10.902  1.00  0.00    -0.023 CG0
ATOM      9  G   UNL     1     -43.146  10.970  10.965  1.00  0.00     0.000 G0
ENDBRANCH   5   6
ENDBRANCH   4   5
ENDBRANCH   2   4
BRANCH   1  10
ATOM     10  C   UNL     1     -41.531  14.038   9.396  1.00  0.00     0.111 C 
BRANCH  10  11
ATOM     11  C   UNL     1     -42.761  13.216   9.708  1.00  0.00     0.163 C 
ATOM     12  O   UNL     1     -43.631  13.146   8.799  1.00  0.00    -0.294 OA
BRANCH  11  13
ATOM     13  C   UNL     1     -42.977  12.491  11.013  1.00  0.00    -0.002 C 
ATOM     14  C   UNL     1     -43.071  13.157  12.208  1.00  0.00    -0.069 C 
ATOM     15  C   UNL     1     -43.411  12.428  13.491  1.00  0.00     0.039 C 
ATOM     16  C   UNL     1     -42.808  14.641  12.327  1.00  0.00     0.039 C 
BRANCH  13  17
ATOM     17  C   UNL     1     -43.156  10.982  10.974  1.00  0.00     0.066 CG0
ATOM     18  G   UNL     1     -41.888  10.143  10.902  1.00  0.00     0.000 G0
ENDBRANCH  13  17
ENDBRANCH  11  13
ENDBRANCH  10  11
ENDBRANCH   1  10
TORSDOF 0
ENDMDL
MODEL 3
REMARK VINA RESULT:    -5.255      2.006      4.188
REMARK INTER + INTRA:          -7.682
REMARK INTER:                  -7.515
REMARK INTRA:                  -0.167
REMARK UNBOUND:                -0.276
REMARK SMILES CC1=CCC(=C(C)C)C(=O)CC(C)=CCC1
REMARK SMILES IDX 12 1 14 2 13 3 15 4 16 5 2 6 1 7 3 8 11 10 9 11 10 12 5 13
REMARK SMILES IDX 6 14 7 15 8 16 4 17
REMARK H PARENT
REMARK Flexibility Score: 60.00
ROOT
ATOM      1  C   UNL     1     -42.230  13.558   9.560  1.00  0.00    -0.070 C 
ATOM      2  C   UNL     1     -41.154  14.150  10.128  1.00  0.00    -0.027 C 
ATOM      3  C   UNL     1     -43.555  13.714  10.268  1.00  0.00     0.039 C 
ENDROOT
BRANCH   2   4
ATOM      4  C   UNL     1     -39.749  14.168   9.583  1.00  0.00     0.032 C 
BRANCH   4   5
ATOM      5  C   UNL     1     -38.975  12.835   9.717  1.00  0.00     0.034 C 
BRANCH   5   6
ATOM      6  C   UNL     1     -38.438  12.251   8.417  1.00  0.00    -0.077 C 
ATOM      7  C   UNL     1     -37.350  13.018   7.706  1.00  0.00     0.039 C 
ATOM      8  C   UNL     1     -38.902  11.122   7.812  1.00  0.00    -0.023 CG0
ATOM      9  G   UNL     1     -39.869  10.066   8.327  1.00  0.00     0.000 G0
ENDBRANCH   5   6
ENDBRANCH   4   5
ENDBRANCH   2   4
BRANCH   1  10
ATOM     10  C   UNL     1     -42.213  12.793   8.241  1.00  0.00     0.111 C 
BRANCH  10  11
ATOM     11  C   UNL     1     -42.164  11.285   8.334  1.00  0.00     0.163 C 
ATOM     12  O   UNL     1     -43.072  10.657   7.726  1.00  0.00    -0.294 OA
BRANCH  11  13
ATOM     13  C   UNL     1     -41.101  10.525   9.088  1.00  0.00    -0.002 C 
ATOM     14  C   UNL     1     -41.235  10.211  10.416  1.00  0.00    -0.069 C 
ATOM     15  C   UNL     1     -40.219   9.342  11.127  1.00  0.00     0.039 C 
ATOM     16  C   UNL     1     -42.377  10.736  11.257  1.00  0.00     0.039 C 
BRANCH  13  17
ATOM     17  C   UNL     1     -39.879  10.048   8.320  1.00  0.00     0.066 CG0
ATOM     18  G   UNL     1     -38.921  11.120   7.822  1.00  0.00     0.000 G0
ENDBRANCH  13  17
ENDBRANCH  11  13
ENDBRANCH  10  11
ENDBRANCH   1  10
TORSDOF 0
ENDMDL
MODEL 4
REMARK VINA RESULT:    -5.232     11.458     13.866
REMARK INTER + INTRA:          -7.649
REMARK INTER:                  -7.429
REMARK INTRA:                  -0.220
REMARK UNBOUND:                -0.276
REMARK SMILES CC1=CCC(=C(C)C)C(=O)CC(C)=CCC1
REMARK SMILES IDX 12 1 14 2 13 3 15 4 16 5 2 6 1 7 3 8 11 10 9 11 10 12 5 13
REMARK SMILES IDX 6 14 7 15 8 16 4 17
REMARK H PARENT
REMARK Flexibility Score: 60.00
ROOT
ATOM      1  C   UNL     1     -33.127  15.427   2.398  1.00  0.00    -0.070 C 
ATOM      2  C   UNL     1     -32.244  15.096   3.369  1.00  0.00    -0.027 C 
ATOM      3  C   UNL     1     -34.594  15.343   2.745  1.00  0.00     0.039 C 
ENDROOT
BRANCH   2   4
ATOM      4  C   UNL     1     -30.741  15.147   3.268  1.00  0.00     0.032 C 
BRANCH   4   5
ATOM      5  C   UNL     1     -30.120  14.206   2.208  1.00  0.00     0.034 C 
BRANCH   5   6
ATOM      6  C   UNL     1     -29.333  14.891   1.100  1.00  0.00    -0.077 C 
ATOM      7  C   UNL     1     -28.164  15.755   1.506  1.00  0.00     0.039 C 
ATOM      8  C   UNL     1     -29.634  14.835  -0.228  1.00  0.00    -0.023 CG0
ATOM      9  G   UNL     1     -30.636  13.959  -0.965  1.00  0.00     0.000 G0
ENDBRANCH   5   6
ENDBRANCH   4   5
ENDBRANCH   2   4
BRANCH   1  10
ATOM     10  C   UNL     1     -32.752  15.924   1.007  1.00  0.00     0.111 C 
BRANCH  10  11
ATOM     11  C   UNL     1     -32.895  14.935  -0.127  1.00  0.00     0.163 C 
ATOM     12  O   UNL     1     -33.830  15.153  -0.944  1.00  0.00    -0.294 OA
BRANCH  11  13
ATOM     13  C   UNL     1     -31.989  13.745  -0.323  1.00  0.00    -0.002 C 
ATOM     14  C   UNL     1     -32.368  12.477   0.034  1.00  0.00    -0.069 C 
ATOM     15  C   UNL     1     -31.499  11.277  -0.281  1.00  0.00     0.039 C 
ATOM     16  C   UNL     1     -33.648  12.200   0.789  1.00  0.00     0.039 C 
BRANCH  13  17
ATOM     17  C   UNL     1     -30.644  13.970  -0.994  1.00  0.00     0.066 CG0
ATOM     18  G   UNL     1     -29.631  14.813  -0.232  1.00  0.00     0.000 G0
ENDBRANCH  13  17
ENDBRANCH  11  13
ENDBRANCH  10  11
ENDBRANCH   1  10
TORSDOF 0
ENDMDL
MODEL 5
REMARK VINA RESULT:    -5.109      1.366      2.259
REMARK INTER + INTRA:          -7.476
REMARK INTER:                  -7.294
REMARK INTRA:                  -0.183
REMARK UNBOUND:                -0.276
REMARK SMILES CC1=CCC(=C(C)C)C(=O)CC(C)=CCC1
REMARK SMILES IDX 12 1 14 2 13 3 15 4 16 5 2 6 1 7 3 8 11 10 9 11 10 12 5 13
REMARK SMILES IDX 6 14 7 15 8 16 4 17
REMARK H PARENT
REMARK Flexibility Score: 60.00
ROOT
ATOM      1  C   UNL     1     -38.841  12.587   9.685  1.00  0.00    -0.070 C 
ATOM      2  C   UNL     1     -39.654  13.670   9.684  1.00  0.00    -0.027 C 
ATOM      3  C   UNL     1     -37.457  12.766   9.108  1.00  0.00     0.039 C 
ENDROOT
BRANCH   2   4
ATOM      4  C   UNL     1     -41.051  13.741  10.245  1.00  0.00     0.032 C 
BRANCH   4   5
ATOM      5  C   UNL     1     -42.184  13.482   9.223  1.00  0.00     0.034 C 
BRANCH   5   6
ATOM      6  C   UNL     1     -42.831  12.105   9.293  1.00  0.00    -0.077 C 
ATOM      7  C   UNL     1     -43.985  11.926  10.249  1.00  0.00     0.039 C 
ATOM      8  C   UNL     1     -42.415  11.005   8.606  1.00  0.00    -0.023 CG0
ATOM      9  G   UNL     1     -41.396  10.885   7.481  1.00  0.00     0.000 G0
ENDBRANCH   5   6
ENDBRANCH   4   5
ENDBRANCH   2   4
BRANCH   1  10
ATOM     10  C   UNL     1     -39.200  11.225  10.266  1.00  0.00     0.111 C 
BRANCH  10  11
ATOM     11  C   UNL     1     -39.681  10.177   9.289  1.00  0.00     0.163 C 
ATOM     12  O   UNL     1     -39.843   9.015   9.749  1.00  0.00    -0.294 OA
BRANCH  11  13
ATOM     13  C   UNL     1     -39.978  10.458   7.836  1.00  0.00    -0.002 C 
ATOM     14  C   UNL     1     -39.037  10.283   6.855  1.00  0.00    -0.069 C 
ATOM     15  C   UNL     1     -39.385  10.449   5.391  1.00  0.00     0.039 C 
ATOM     16  C   UNL     1     -37.595   9.950   7.170  1.00  0.00     0.039 C 
BRANCH  13  17
ATOM     17  C   UNL     1     -41.387  10.888   7.462  1.00  0.00     0.066 CG0
ATOM     18  G   UNL     1     -42.393  11.004   8.598  1.00  0.00     0.000 G0
ENDBRANCH  13  17
ENDBRANCH  11  13
ENDBRANCH  10  11
ENDBRANCH   1  10
TORSDOF 0
ENDMDL
MODEL 6
REMARK VINA RESULT:    -4.994      2.013      4.123
REMARK INTER + INTRA:          -7.313
REMARK INTER:                  -7.222
REMARK INTRA:                  -0.091
REMARK UNBOUND:                -0.276
REMARK SMILES CC1=CCC(=C(C)C)C(=O)CC(C)=CCC1
REMARK SMILES IDX 12 1 14 2 13 3 15 4 16 5 2 6 1 7 3 8 11 10 9 11 10 12 5 13
REMARK SMILES IDX 6 14 7 15 8 16 4 17
REMARK H PARENT
REMARK Flexibility Score: 60.00
ROOT
ATOM      1  C   UNL     1     -38.694  12.592   9.413  1.00  0.00    -0.070 C 
ATOM      2  C   UNL     1     -37.763  12.899   8.480  1.00  0.00    -0.027 C 
ATOM      3  C   UNL     1     -39.747  13.634   9.702  1.00  0.00     0.039 C 
ENDROOT
BRANCH   2   4
ATOM      4  C   UNL     1     -36.650  12.004   7.996  1.00  0.00     0.032 C 
BRANCH   4   5
ATOM      5  C   UNL     1     -37.109  10.719   7.268  1.00  0.00     0.034 C 
BRANCH   5   6
ATOM      6  C   UNL     1     -38.230  10.902   6.254  1.00  0.00    -0.077 C 
ATOM      7  C   UNL     1     -37.898  11.624   4.971  1.00  0.00     0.039 C 
ATOM      8  C   UNL     1     -39.524  10.517   6.435  1.00  0.00    -0.023 CG0
ATOM      9  G   UNL     1     -40.143   9.658   7.528  1.00  0.00     0.000 G0
ENDBRANCH   5   6
ENDBRANCH   4   5
ENDBRANCH   2   4
BRANCH   1  10
ATOM     10  C   UNL     1     -38.787  11.261  10.151  1.00  0.00     0.111 C 
BRANCH  10  11
ATOM     11  C   UNL     1     -40.074  10.485   9.986  1.00  0.00     0.163 C 
ATOM     12  O   UNL     1     -40.524   9.922  11.020  1.00  0.00    -0.294 OA
BRANCH  11  13
ATOM     13  C   UNL     1     -40.823  10.370   8.682  1.00  0.00    -0.002 C 
ATOM     14  C   UNL     1     -42.058  10.936   8.501  1.00  0.00    -0.069 C 
ATOM     15  C   UNL     1     -42.743  10.919   7.150  1.00  0.00     0.039 C 
ATOM     16  C   UNL     1     -42.825  11.578   9.635  1.00  0.00     0.039 C 
BRANCH  13  17
ATOM     17  C   UNL     1     -40.146   9.653   7.525  1.00  0.00     0.066 CG0
ATOM     18  G   UNL     1     -39.521  10.528   6.448  1.00  0.00     0.000 G0
ENDBRANCH  13  17
ENDBRANCH  11  13
ENDBRANCH  10  11
ENDBRANCH   1  10
TORSDOF 0
ENDMDL
MODEL 7
REMARK VINA RESULT:    -4.899      1.524      3.269
REMARK INTER + INTRA:          -7.180
REMARK INTER:                  -6.937
REMARK INTRA:                  -0.242
REMARK UNBOUND:                -0.276
REMARK SMILES CC1=CCC(=C(C)C)C(=O)CC(C)=CCC1
REMARK SMILES IDX 12 1 14 2 13 3 15 4 16 5 2 6 1 7 3 8 11 10 9 11 10 12 5 13
REMARK SMILES IDX 6 14 7 15 8 16 4 17
REMARK H PARENT
REMARK Flexibility Score: 60.00
ROOT
ATOM      1  C   UNL     1     -41.787  10.535   7.821  1.00  0.00    -0.070 C 
ATOM      2  C   UNL     1     -42.832  11.383   7.681  1.00  0.00    -0.027 C 
ATOM      3  C   UNL     1     -41.139  10.028   6.555  1.00  0.00     0.039 C 
ENDROOT
BRANCH   2   4
ATOM      4  C   UNL     1     -43.601  12.049   8.795  1.00  0.00     0.032 C 
BRANCH   4   5
ATOM      5  C   UNL     1     -43.138  13.482   9.148  1.00  0.00     0.034 C 
BRANCH   5   6
ATOM      6  C   UNL     1     -42.164  13.591  10.313  1.00  0.00    -0.077 C 
ATOM      7  C   UNL     1     -42.748  13.738  11.697  1.00  0.00     0.039 C 
ATOM      8  C   UNL     1     -40.807  13.625  10.203  1.00  0.00    -0.023 CG0
ATOM      9  G   UNL     1     -39.919  13.362   8.995  1.00  0.00     0.000 G0
ENDBRANCH   5   6
ENDBRANCH   4   5
ENDBRANCH   2   4
BRANCH   1  10
ATOM     10  C   UNL     1     -41.186  10.098   9.152  1.00  0.00     0.111 C 
BRANCH  10  11
ATOM     11  C   UNL     1     -39.961  10.849   9.621  1.00  0.00     0.163 C 
ATOM     12  O   UNL     1     -39.463  10.478  10.718  1.00  0.00    -0.294 OA
BRANCH  11  13
ATOM     13  C   UNL     1     -39.322  11.977   8.850  1.00  0.00    -0.002 C 
ATOM     14  C   UNL     1     -38.281  11.767   7.983  1.00  0.00    -0.069 C 
ATOM     15  C   UNL     1     -37.732  12.888   7.125  1.00  0.00     0.039 C 
ATOM     16  C   UNL     1     -37.596  10.425   7.855  1.00  0.00     0.039 C 
BRANCH  13  17
ATOM     17  C   UNL     1     -39.904  13.373   9.005  1.00  0.00     0.066 CG0
ATOM     18  G   UNL     1     -40.819  13.605  10.199  1.00  0.00     0.000 G0
ENDBRANCH  13  17
ENDBRANCH  11  13
ENDBRANCH  10  11
ENDBRANCH   1  10
TORSDOF 0
ENDMDL
MODEL 8
REMARK VINA RESULT:    -4.877     12.563     14.823
REMARK INTER + INTRA:          -7.149
REMARK INTER:                  -7.143
REMARK INTRA:                  -0.005
REMARK UNBOUND:                -0.276
REMARK SMILES CC1=CCC(=C(C)C)C(=O)CC(C)=CCC1
REMARK SMILES IDX 12 1 14 2 13 3 15 4 16 5 2 6 1 7 3 8 11 10 9 11 10 12 5 13
REMARK SMILES IDX 6 14 7 15 8 16 4 17
REMARK H PARENT
REMARK Flexibility Score: 60.00
ROOT
ATOM      1  C   UNL     1     -31.335  14.488   2.771  1.00  0.00    -0.070 C 
ATOM      2  C   UNL     1     -32.205  13.855   1.949  1.00  0.00    -0.027 C 
ATOM      3  C   UNL     1     -31.901  15.541   3.692  1.00  0.00     0.039 C 
ENDROOT
BRANCH   2   4
ATOM      4  C   UNL     1     -31.879  12.745   0.983  1.00  0.00     0.032 C 
BRANCH   4   5
ATOM      5  C   UNL     1     -31.863  13.155  -0.509  1.00  0.00     0.034 C 
BRANCH   5   6
ATOM      6  C   UNL     1     -31.752  14.649  -0.780  1.00  0.00    -0.077 C 
ATOM      7  C   UNL     1     -33.036  15.436  -0.886  1.00  0.00     0.039 C 
ATOM      8  C   UNL     1     -30.588  15.325  -0.992  1.00  0.00    -0.023 CG0
ATOM      9  G   UNL     1     -29.148  14.866  -0.816  1.00  0.00     0.000 G0
ENDBRANCH   5   6
ENDBRANCH   4   5
ENDBRANCH   2   4
BRANCH   1  10
ATOM     10  C   UNL     1     -29.845  14.181   2.870  1.00  0.00     0.111 C 
BRANCH  10  11
ATOM     11  C   UNL     1     -28.967  14.724   1.765  1.00  0.00     0.163 C 
ATOM     12  O   UNL     1     -28.347  15.792   2.018  1.00  0.00    -0.294 OA
BRANCH  11  13
ATOM     13  C   UNL     1     -28.799  14.057   0.423  1.00  0.00    -0.002 C 
ATOM     14  C   UNL     1     -28.415  12.746   0.305  1.00  0.00    -0.069 C 
ATOM     15  C   UNL     1     -28.370  12.056  -1.042  1.00  0.00     0.039 C 
ATOM     16  C   UNL     1     -27.983  11.922   1.498  1.00  0.00     0.039 C 
BRANCH  13  17
ATOM     17  C   UNL     1     -29.127  14.861  -0.825  1.00  0.00     0.066 CG0
ATOM     18  G   UNL     1     -30.572  15.311  -0.990  1.00  0.00     0.000 G0
ENDBRANCH  13  17
ENDBRANCH  11  13
ENDBRANCH  10  11
ENDBRANCH   1  10
TORSDOF 0
ENDMDL
MODEL 9
REMARK VINA RESULT:    -4.710     11.354     13.684
REMARK INTER + INTRA:          -6.913
REMARK INTER:                  -6.703
REMARK INTRA:                  -0.210
REMARK UNBOUND:                -0.276
REMARK SMILES CC1=CCC(=C(C)C)C(=O)CC(C)=CCC1
REMARK SMILES IDX 12 1 14 2 13 3 15 4 16 5 2 6 1 7 3 8 11 10 9 11 10 12 5 13
REMARK SMILES IDX 6 14 7 15 8 16 4 17
REMARK H PARENT
REMARK Flexibility Score: 60.00
ROOT
ATOM      1  C   UNL     1     -31.394  15.092   2.654  1.00  0.00    -0.070 C 
ATOM      2  C   UNL     1     -30.052  14.936   2.573  1.00  0.00    -0.027 C 
ATOM      3  C   UNL     1     -32.066  14.619   3.921  1.00  0.00     0.039 C 
ENDROOT
BRANCH   2   4
ATOM      4  C   UNL     1     -29.167  15.372   1.433  1.00  0.00     0.032 C 
BRANCH   4   5
ATOM      5  C   UNL     1     -29.092  14.384   0.244  1.00  0.00     0.034 C 
BRANCH   5   6
ATOM      6  C   UNL     1     -29.346  12.923   0.587  1.00  0.00    -0.077 C 
ATOM      7  C   UNL     1     -28.304  12.208   1.412  1.00  0.00     0.039 C 
ATOM      8  C   UNL     1     -30.412  12.189   0.159  1.00  0.00    -0.023 CG0
ATOM      9  G   UNL     1     -31.682  12.636  -0.550  1.00  0.00     0.000 G0
ENDBRANCH   5   6
ENDBRANCH   4   5
ENDBRANCH   2   4
BRANCH   1  10
ATOM     10  C   UNL     1     -32.265  15.751   1.590  1.00  0.00     0.111 C 
BRANCH  10  11
ATOM     11  C   UNL     1     -32.484  14.969   0.316  1.00  0.00     0.163 C 
ATOM     12  O   UNL     1     -32.492  15.635  -0.754  1.00  0.00    -0.294 OA
BRANCH  11  13
ATOM     13  C   UNL     1     -32.674  13.473   0.271  1.00  0.00    -0.002 C 
ATOM     14  C   UNL     1     -33.729  12.856   0.890  1.00  0.00    -0.069 C 
ATOM     15  C   UNL     1     -33.975  11.370   0.733  1.00  0.00     0.039 C 
ATOM     16  C   UNL     1     -34.687  13.604   1.790  1.00  0.00     0.039 C 
BRANCH  13  17
ATOM     17  C   UNL     1     -31.689  12.649  -0.542  1.00  0.00     0.066 CG0
ATOM     18  G   UNL     1     -30.422  12.197   0.171  1.00  0.00     0.000 G0
ENDBRANCH  13  17
ENDBRANCH  11  13
ENDBRANCH  10  11
ENDBRANCH   1  10
TORSDOF 0
ENDMDL
