MODEL 1
REMARK VINA RESULT:    -6.501      0.000      0.000
REMARK INTER + INTRA:          -7.635
REMARK INTER:                  -7.641
REMARK INTRA:                   0.006
REMARK UNBOUND:                 0.006
REMARK SMILES O=c1c(O)c(-c2ccc(O)cc2)oc2cc(O)cc(O)c12
REMARK SMILES IDX 5 1 3 2 2 3 1 4 21 5 19 6 18 7 16 8 15 9 14 10 13 11 6 12
REMARK SMILES IDX 7 13 8 14 9 15 12 16 11 17 10 18 4 20 20 22 17 24
REMARK H PARENT 10 19 4 21 20 23 17 25
REMARK Flexibility Score: inf
ROOT
ATOM      1  C   UNL     1      27.468  -2.204  35.584  1.00  0.00     0.180 A 
ATOM      2  C   UNL     1      27.353  -1.806  36.928  1.00  0.00     0.208 A 
ATOM      3  C   UNL     1      26.429  -0.802  37.264  1.00  0.00     0.238 A 
ATOM      4  O   UNL     1      26.292  -0.489  38.474  1.00  0.00    -0.285 OA
ATOM      5  C   UNL     1      25.645  -0.199  36.250  1.00  0.00     0.111 A 
ATOM      6  C   UNL     1      24.709   0.855  36.471  1.00  0.00     0.134 A 
ATOM      7  C   UNL     1      23.893   1.286  35.417  1.00  0.00     0.093 A 
ATOM      8  C   UNL     1      24.029   0.747  34.135  1.00  0.00     0.123 A 
ATOM      9  C   UNL     1      24.982  -0.240  33.897  1.00  0.00     0.094 A 
ATOM     10  C   UNL     1      25.784  -0.717  34.937  1.00  0.00     0.146 A 
ATOM     11  O   UNL     1      26.674  -1.665  34.668  1.00  0.00    -0.452 OA
ENDROOT
BRANCH   1  12
ATOM     12  C   UNL     1      28.437  -3.237  35.150  1.00  0.00     0.021 A 
ATOM     13  C   UNL     1      29.792  -3.174  35.522  1.00  0.00     0.016 A 
ATOM     14  C   UNL     1      30.693  -4.148  35.079  1.00  0.00     0.047 A 
ATOM     15  C   UNL     1      30.253  -5.187  34.248  1.00  0.00     0.115 A 
ATOM     16  C   UNL     1      28.010  -4.271  34.300  1.00  0.00     0.016 A 
ATOM     17  C   UNL     1      28.912  -5.244  33.859  1.00  0.00     0.047 A 
BRANCH  15  18
ATOM     18  O   UNL     1      31.141  -6.163  33.802  1.00  0.00    -0.508 OA
ATOM     19  H   UNL     1      31.379  -6.255  32.821  1.00  0.00     0.293 HD
ENDBRANCH  15  18
ENDBRANCH   1  12
BRANCH   2  20
ATOM     20  O   UNL     1      28.121  -2.430  37.915  1.00  0.00    -0.502 OA
ATOM     21  H   UNL     1      28.601  -1.910  38.639  1.00  0.00     0.293 HD
ENDBRANCH   2  20
BRANCH   6  22
ATOM     22  O   UNL     1      24.559   1.524  37.689  1.00  0.00    -0.507 OA
ATOM     23  H   UNL     1      24.529   1.074  38.592  1.00  0.00     0.293 HD
ENDBRANCH   6  22
BRANCH   8  24
ATOM     24  O   UNL     1      23.225   1.193  33.088  1.00  0.00    -0.508 OA
ATOM     25  H   UNL     1      23.054   2.180  32.934  1.00  0.00     0.293 HD
ENDBRANCH   8  24
TORSDOF 5
ENDMDL
MODEL 2
REMARK VINA RESULT:    -6.222      2.269      3.211
REMARK INTER + INTRA:          -7.308
REMARK INTER:                  -7.106
REMARK INTRA:                  -0.202
REMARK UNBOUND:                 0.006
REMARK SMILES O=c1c(O)c(-c2ccc(O)cc2)oc2cc(O)cc(O)c12
REMARK SMILES IDX 5 1 3 2 2 3 1 4 21 5 19 6 18 7 16 8 15 9 14 10 13 11 6 12
REMARK SMILES IDX 7 13 8 14 9 15 12 16 11 17 10 18 4 20 20 22 17 24
REMARK H PARENT 10 19 4 21 20 23 17 25
REMARK Flexibility Score: inf
ROOT
ATOM      1  C   UNL     1      25.615  -1.433  34.394  1.00  0.00     0.180 A 
ATOM      2  C   UNL     1      24.293  -1.828  34.663  1.00  0.00     0.208 A 
ATOM      3  C   UNL     1      23.244  -0.942  34.365  1.00  0.00     0.238 A 
ATOM      4  O   UNL     1      22.060  -1.321  34.557  1.00  0.00    -0.285 OA
ATOM      5  C   UNL     1      23.533   0.332  33.818  1.00  0.00     0.111 A 
ATOM      6  C   UNL     1      22.553   1.324  33.516  1.00  0.00     0.134 A 
ATOM      7  C   UNL     1      22.939   2.498  32.856  1.00  0.00     0.093 A 
ATOM      8  C   UNL     1      24.280   2.743  32.548  1.00  0.00     0.123 A 
ATOM      9  C   UNL     1      25.251   1.806  32.892  1.00  0.00     0.094 A 
ATOM     10  C   UNL     1      24.892   0.610  33.517  1.00  0.00     0.146 A 
ATOM     11  O   UNL     1      25.848  -0.260  33.821  1.00  0.00    -0.452 OA
ENDROOT
BRANCH   1  12
ATOM     12  C   UNL     1      26.774  -2.303  34.703  1.00  0.00     0.021 A 
ATOM     13  C   UNL     1      27.661  -1.997  35.753  1.00  0.00     0.016 A 
ATOM     14  C   UNL     1      28.762  -2.819  36.009  1.00  0.00     0.047 A 
ATOM     15  C   UNL     1      28.999  -3.948  35.213  1.00  0.00     0.115 A 
ATOM     16  C   UNL     1      27.032  -3.424  33.898  1.00  0.00     0.016 A 
ATOM     17  C   UNL     1      28.133  -4.246  34.157  1.00  0.00     0.047 A 
BRANCH  15  18
ATOM     18  O   UNL     1      30.092  -4.774  35.461  1.00  0.00    -0.508 OA
ATOM     19  H   UNL     1      30.358  -5.510  34.816  1.00  0.00     0.293 HD
ENDBRANCH  15  18
ENDBRANCH   1  12
BRANCH   2  20
ATOM     20  O   UNL     1      24.029  -3.098  35.183  1.00  0.00    -0.502 OA
ATOM     21  H   UNL     1      24.715  -3.621  35.714  1.00  0.00     0.293 HD
ENDBRANCH   2  20
BRANCH   6  22
ATOM     22  O   UNL     1      21.203   1.219  33.863  1.00  0.00    -0.507 OA
ATOM     23  H   UNL     1      20.622   0.416  33.674  1.00  0.00     0.293 HD
ENDBRANCH   6  22
BRANCH   8  24
ATOM     24  O   UNL     1      24.657   3.920  31.905  1.00  0.00    -0.508 OA
ATOM     25  H   UNL     1      24.234   4.811  32.140  1.00  0.00     0.293 HD
ENDBRANCH   8  24
TORSDOF 5
ENDMDL
MODEL 3
REMARK VINA RESULT:    -5.702      1.731      2.072
REMARK INTER + INTRA:          -6.696
REMARK INTER:                  -6.788
REMARK INTRA:                   0.092
REMARK UNBOUND:                 0.006
REMARK SMILES O=c1c(O)c(-c2ccc(O)cc2)oc2cc(O)cc(O)c12
REMARK SMILES IDX 5 1 3 2 2 3 1 4 21 5 19 6 18 7 16 8 15 9 14 10 13 11 6 12
REMARK SMILES IDX 7 13 8 14 9 15 12 16 11 17 10 18 4 20 20 22 17 24
REMARK H PARENT 10 19 4 21 20 23 17 25
REMARK Flexibility Score: inf
ROOT
ATOM      1  C   UNL     1      27.356  -1.718  35.571  1.00  0.00     0.180 A 
ATOM      2  C   UNL     1      27.893  -0.418  35.570  1.00  0.00     0.208 A 
ATOM      3  C   UNL     1      27.055   0.665  35.880  1.00  0.00     0.238 A 
ATOM      4  O   UNL     1      27.552   1.819  35.930  1.00  0.00    -0.285 OA
ATOM      5  C   UNL     1      25.687   0.437  36.170  1.00  0.00     0.111 A 
ATOM      6  C   UNL     1      24.738   1.463  36.457  1.00  0.00     0.134 A 
ATOM      7  C   UNL     1      23.443   1.113  36.859  1.00  0.00     0.093 A 
ATOM      8  C   UNL     1      23.045  -0.225  36.920  1.00  0.00     0.123 A 
ATOM      9  C   UNL     1      23.947  -1.231  36.584  1.00  0.00     0.094 A 
ATOM     10  C   UNL     1      25.256  -0.914  36.215  1.00  0.00     0.146 A 
ATOM     11  O   UNL     1      26.087  -1.905  35.912  1.00  0.00    -0.452 OA
ENDROOT
BRANCH   1  12
ATOM     12  C   UNL     1      28.171  -2.907  35.231  1.00  0.00     0.021 A 
ATOM     13  C   UNL     1      29.448  -3.104  35.790  1.00  0.00     0.016 A 
ATOM     14  C   UNL     1      30.210  -4.221  35.434  1.00  0.00     0.047 A 
ATOM     15  C   UNL     1      29.712  -5.146  34.507  1.00  0.00     0.115 A 
ATOM     16  C   UNL     1      27.690  -3.828  34.287  1.00  0.00     0.016 A 
ATOM     17  C   UNL     1      28.453  -4.945  33.934  1.00  0.00     0.047 A 
BRANCH  15  18
ATOM     18  O   UNL     1      30.462  -6.264  34.146  1.00  0.00    -0.508 OA
ATOM     19  H   UNL     1      30.623  -7.026  34.794  1.00  0.00     0.293 HD
ENDBRANCH  15  18
ENDBRANCH   1  12
BRANCH   2  20
ATOM     20  O   UNL     1      29.250  -0.218  35.301  1.00  0.00    -0.502 OA
ATOM     21  H   UNL     1      29.951  -0.923  35.490  1.00  0.00     0.293 HD
ENDBRANCH   2  20
BRANCH   6  22
ATOM     22  O   UNL     1      25.007   2.830  36.339  1.00  0.00    -0.507 OA
ATOM     23  H   UNL     1      24.448   3.562  36.750  1.00  0.00     0.293 HD
ENDBRANCH   6  22
BRANCH   8  24
ATOM     24  O   UNL     1      21.749  -0.563  37.305  1.00  0.00    -0.508 OA
ATOM     25  H   UNL     1      21.501  -1.514  37.554  1.00  0.00     0.293 HD
ENDBRANCH   8  24
TORSDOF 5
ENDMDL
MODEL 4
REMARK VINA RESULT:    -5.689      3.289      6.908
REMARK INTER + INTRA:          -6.681
REMARK INTER:                  -6.392
REMARK INTRA:                  -0.289
REMARK UNBOUND:                 0.006
REMARK SMILES O=c1c(O)c(-c2ccc(O)cc2)oc2cc(O)cc(O)c12
REMARK SMILES IDX 5 1 3 2 2 3 1 4 21 5 19 6 18 7 16 8 15 9 14 10 13 11 6 12
REMARK SMILES IDX 7 13 8 14 9 15 12 16 11 17 10 18 4 20 20 22 17 24
REMARK H PARENT 10 19 4 21 20 23 17 25
REMARK Flexibility Score: inf
ROOT
ATOM      1  C   UNL     1      25.735   1.375  37.542  1.00  0.00     0.180 A 
ATOM      2  C   UNL     1      26.933   0.980  36.922  1.00  0.00     0.208 A 
ATOM      3  C   UNL     1      26.899  -0.055  35.972  1.00  0.00     0.238 A 
ATOM      4  O   UNL     1      27.964  -0.368  35.381  1.00  0.00    -0.285 OA
ATOM      5  C   UNL     1      25.671  -0.691  35.667  1.00  0.00     0.111 A 
ATOM      6  C   UNL     1      25.527  -1.776  34.753  1.00  0.00     0.134 A 
ATOM      7  C   UNL     1      24.245  -2.241  34.429  1.00  0.00     0.093 A 
ATOM      8  C   UNL     1      23.109  -1.703  35.039  1.00  0.00     0.123 A 
ATOM      9  C   UNL     1      23.245  -0.684  35.978  1.00  0.00     0.094 A 
ATOM     10  C   UNL     1      24.507  -0.174  36.293  1.00  0.00     0.146 A 
ATOM     11  O   UNL     1      24.591   0.805  37.187  1.00  0.00    -0.452 OA
ENDROOT
BRANCH   1  12
ATOM     12  C   UNL     1      25.695   2.441  38.570  1.00  0.00     0.021 A 
ATOM     13  C   UNL     1      25.992   2.170  39.919  1.00  0.00     0.016 A 
ATOM     14  C   UNL     1      25.923   3.187  40.876  1.00  0.00     0.047 A 
ATOM     15  C   UNL     1      25.544   4.482  40.500  1.00  0.00     0.115 A 
ATOM     16  C   UNL     1      25.296   3.738  38.207  1.00  0.00     0.016 A 
ATOM     17  C   UNL     1      25.229   4.753  39.166  1.00  0.00     0.047 A 
BRANCH  15  18
ATOM     18  O   UNL     1      25.474   5.503  41.445  1.00  0.00    -0.508 OA
ATOM     19  H   UNL     1      26.144   6.264  41.455  1.00  0.00     0.293 HD
ENDBRANCH  15  18
ENDBRANCH   1  12
BRANCH   2  20
ATOM     20  O   UNL     1      28.130   1.635  37.222  1.00  0.00    -0.502 OA
ATOM     21  H   UNL     1      28.534   1.632  38.151  1.00  0.00     0.293 HD
ENDBRANCH   2  20
BRANCH   6  22
ATOM     22  O   UNL     1      26.601  -2.445  34.158  1.00  0.00    -0.507 OA
ATOM     23  H   UNL     1      26.701  -2.602  33.167  1.00  0.00     0.293 HD
ENDBRANCH   6  22
BRANCH   8  24
ATOM     24  O   UNL     1      21.839  -2.183  34.724  1.00  0.00    -0.508 OA
ATOM     25  H   UNL     1      21.509  -2.217  33.766  1.00  0.00     0.293 HD
ENDBRANCH   8  24
TORSDOF 5
ENDMDL
MODEL 5
REMARK VINA RESULT:    -5.586      6.236      9.646
REMARK INTER + INTRA:          -6.560
REMARK INTER:                  -6.264
REMARK INTRA:                  -0.296
REMARK UNBOUND:                 0.006
REMARK SMILES O=c1c(O)c(-c2ccc(O)cc2)oc2cc(O)cc(O)c12
REMARK SMILES IDX 5 1 3 2 2 3 1 4 21 5 19 6 18 7 16 8 15 9 14 10 13 11 6 12
REMARK SMILES IDX 7 13 8 14 9 15 12 16 11 17 10 18 4 20 20 22 17 24
REMARK H PARENT 10 19 4 21 20 23 17 25
REMARK Flexibility Score: inf
ROOT
ATOM      1  C   UNL     1      33.642  -2.737  31.976  1.00  0.00     0.180 A 
ATOM      2  C   UNL     1      34.656  -3.583  31.493  1.00  0.00     0.208 A 
ATOM      3  C   UNL     1      35.494  -3.122  30.464  1.00  0.00     0.238 A 
ATOM      4  O   UNL     1      36.434  -3.861  30.074  1.00  0.00    -0.285 OA
ATOM      5  C   UNL     1      35.296  -1.829  29.921  1.00  0.00     0.111 A 
ATOM      6  C   UNL     1      36.058  -1.276  28.849  1.00  0.00     0.134 A 
ATOM      7  C   UNL     1      35.862   0.061  28.480  1.00  0.00     0.093 A 
ATOM      8  C   UNL     1      34.885   0.843  29.100  1.00  0.00     0.123 A 
ATOM      9  C   UNL     1      34.095   0.293  30.107  1.00  0.00     0.094 A 
ATOM     10  C   UNL     1      34.292  -1.025  30.522  1.00  0.00     0.146 A 
ATOM     11  O   UNL     1      33.524  -1.508  31.492  1.00  0.00    -0.452 OA
ENDROOT
BRANCH   1  12
ATOM     12  C   UNL     1      32.704  -3.162  33.042  1.00  0.00     0.021 A 
ATOM     13  C   UNL     1      31.478  -3.780  32.736  1.00  0.00     0.016 A 
ATOM     14  C   UNL     1      30.598  -4.149  33.758  1.00  0.00     0.047 A 
ATOM     15  C   UNL     1      30.926  -3.893  35.096  1.00  0.00     0.115 A 
ATOM     16  C   UNL     1      33.015  -2.890  34.385  1.00  0.00     0.016 A 
ATOM     17  C   UNL     1      32.134  -3.261  35.405  1.00  0.00     0.047 A 
BRANCH  15  18
ATOM     18  O   UNL     1      30.058  -4.257  36.122  1.00  0.00    -0.508 OA
ATOM     19  H   UNL     1      30.382  -4.769  36.934  1.00  0.00     0.293 HD
ENDBRANCH  15  18
ENDBRANCH   1  12
BRANCH   2  20
ATOM     20  O   UNL     1      34.847  -4.846  32.059  1.00  0.00    -0.502 OA
ATOM     21  H   UNL     1      34.757  -5.701  31.523  1.00  0.00     0.293 HD
ENDBRANCH   2  20
BRANCH   6  22
ATOM     22  O   UNL     1      36.994  -1.998  28.103  1.00  0.00    -0.507 OA
ATOM     23  H   UNL     1      37.801  -1.596  27.651  1.00  0.00     0.293 HD
ENDBRANCH   6  22
BRANCH   8  24
ATOM     24  O   UNL     1      34.685   2.168  28.716  1.00  0.00    -0.508 OA
ATOM     25  H   UNL     1      35.097   2.937  29.232  1.00  0.00     0.293 HD
ENDBRANCH   8  24
TORSDOF 5
ENDMDL
MODEL 6
REMARK VINA RESULT:    -5.538      2.409      7.369
REMARK INTER + INTRA:          -6.504
REMARK INTER:                  -6.397
REMARK INTRA:                  -0.106
REMARK UNBOUND:                 0.006
REMARK SMILES O=c1c(O)c(-c2ccc(O)cc2)oc2cc(O)cc(O)c12
REMARK SMILES IDX 5 1 3 2 2 3 1 4 21 5 19 6 18 7 16 8 15 9 14 10 13 11 6 12
REMARK SMILES IDX 7 13 8 14 9 15 12 16 11 17 10 18 4 20 20 22 17 24
REMARK H PARENT 10 19 4 21 20 23 17 25
REMARK Flexibility Score: inf
ROOT
ATOM      1  C   UNL     1      28.951  -2.947  34.929  1.00  0.00     0.180 A 
ATOM      2  C   UNL     1      28.968  -4.206  34.305  1.00  0.00     0.208 A 
ATOM      3  C   UNL     1      30.177  -4.686  33.774  1.00  0.00     0.238 A 
ATOM      4  O   UNL     1      30.199  -5.836  33.265  1.00  0.00    -0.285 OA
ATOM      5  C   UNL     1      31.348  -3.893  33.858  1.00  0.00     0.111 A 
ATOM      6  C   UNL     1      32.616  -4.261  33.319  1.00  0.00     0.134 A 
ATOM      7  C   UNL     1      33.735  -3.459  33.576  1.00  0.00     0.093 A 
ATOM      8  C   UNL     1      33.617  -2.268  34.297  1.00  0.00     0.123 A 
ATOM      9  C   UNL     1      32.372  -1.871  34.777  1.00  0.00     0.094 A 
ATOM     10  C   UNL     1      31.244  -2.668  34.568  1.00  0.00     0.146 A 
ATOM     11  O   UNL     1      30.077  -2.257  35.051  1.00  0.00    -0.452 OA
ENDROOT
BRANCH   1  12
ATOM     12  C   UNL     1      27.710  -2.364  35.491  1.00  0.00     0.021 A 
ATOM     13  C   UNL     1      26.583  -2.122  34.684  1.00  0.00     0.016 A 
ATOM     14  C   UNL     1      25.432  -1.548  35.231  1.00  0.00     0.047 A 
ATOM     15  C   UNL     1      25.397  -1.197  36.587  1.00  0.00     0.115 A 
ATOM     16  C   UNL     1      27.673  -1.989  36.844  1.00  0.00     0.016 A 
ATOM     17  C   UNL     1      26.520  -1.416  37.389  1.00  0.00     0.047 A 
BRANCH  15  18
ATOM     18  O   UNL     1      24.255  -0.625  37.143  1.00  0.00    -0.508 OA
ATOM     19  H   UNL     1      24.202  -0.397  38.129  1.00  0.00     0.293 HD
ENDBRANCH  15  18
ENDBRANCH   1  12
BRANCH   2  20
ATOM     20  O   UNL     1      27.807  -4.982  34.251  1.00  0.00    -0.502 OA
ATOM     21  H   UNL     1      27.230  -5.154  35.065  1.00  0.00     0.293 HD
ENDBRANCH   2  20
BRANCH   6  22
ATOM     22  O   UNL     1      32.824  -5.381  32.508  1.00  0.00    -0.507 OA
ATOM     23  H   UNL     1      33.009  -6.312  32.851  1.00  0.00     0.293 HD
ENDBRANCH   6  22
BRANCH   8  24
ATOM     24  O   UNL     1      34.733  -1.468  34.534  1.00  0.00    -0.508 OA
ATOM     25  H   UNL     1      35.671  -1.853  34.536  1.00  0.00     0.293 HD
ENDBRANCH   8  24
TORSDOF 5
ENDMDL
MODEL 7
REMARK VINA RESULT:    -5.480      4.488      8.158
REMARK INTER + INTRA:          -6.435
REMARK INTER:                  -6.150
REMARK INTRA:                  -0.285
REMARK UNBOUND:                 0.006
REMARK SMILES O=c1c(O)c(-c2ccc(O)cc2)oc2cc(O)cc(O)c12
REMARK SMILES IDX 5 1 3 2 2 3 1 4 21 5 19 6 18 7 16 8 15 9 14 10 13 11 6 12
REMARK SMILES IDX 7 13 8 14 9 15 12 16 11 17 10 18 4 20 20 22 17 24
REMARK H PARENT 10 19 4 21 20 23 17 25
REMARK Flexibility Score: inf
ROOT
ATOM      1  C   UNL     1      25.589   2.476  39.810  1.00  0.00     0.180 A 
ATOM      2  C   UNL     1      26.950   2.807  39.692  1.00  0.00     0.208 A 
ATOM      3  C   UNL     1      27.639   2.451  38.521  1.00  0.00     0.238 A 
ATOM      4  O   UNL     1      28.842   2.799  38.398  1.00  0.00    -0.285 OA
ATOM      5  C   UNL     1      26.962   1.753  37.490  1.00  0.00     0.111 A 
ATOM      6  C   UNL     1      27.571   1.307  36.280  1.00  0.00     0.134 A 
ATOM      7  C   UNL     1      26.776   0.743  35.274  1.00  0.00     0.093 A 
ATOM      8  C   UNL     1      25.405   0.548  35.464  1.00  0.00     0.123 A 
ATOM      9  C   UNL     1      24.813   0.927  36.666  1.00  0.00     0.094 A 
ATOM     10  C   UNL     1      25.573   1.526  37.673  1.00  0.00     0.146 A 
ATOM     11  O   UNL     1      24.967   1.880  38.800  1.00  0.00    -0.452 OA
ENDROOT
BRANCH   1  12
ATOM     12  C   UNL     1      24.803   2.796  41.024  1.00  0.00     0.021 A 
ATOM     13  C   UNL     1      24.849   1.974  42.165  1.00  0.00     0.016 A 
ATOM     14  C   UNL     1      24.078   2.284  43.290  1.00  0.00     0.047 A 
ATOM     15  C   UNL     1      23.244   3.409  43.284  1.00  0.00     0.115 A 
ATOM     16  C   UNL     1      23.947   3.910  41.020  1.00  0.00     0.016 A 
ATOM     17  C   UNL     1      23.179   4.218  42.146  1.00  0.00     0.047 A 
BRANCH  15  18
ATOM     18  O   UNL     1      22.473   3.727  44.400  1.00  0.00    -0.508 OA
ATOM     19  H   UNL     1      22.898   4.019  45.272  1.00  0.00     0.293 HD
ENDBRANCH  15  18
ENDBRANCH   1  12
BRANCH   2  20
ATOM     20  O   UNL     1      27.593   3.515  40.712  1.00  0.00    -0.502 OA
ATOM     21  H   UNL     1      28.551   3.331  40.980  1.00  0.00     0.293 HD
ENDBRANCH   2  20
BRANCH   6  22
ATOM     22  O   UNL     1      28.945   1.370  36.027  1.00  0.00    -0.507 OA
ATOM     23  H   UNL     1      29.636   1.689  36.689  1.00  0.00     0.293 HD
ENDBRANCH   6  22
BRANCH   8  24
ATOM     24  O   UNL     1      24.625  -0.029  34.464  1.00  0.00    -0.508 OA
ATOM     25  H   UNL     1      24.952  -0.825  33.929  1.00  0.00     0.293 HD
ENDBRANCH   8  24
TORSDOF 5
ENDMDL
MODEL 8
REMARK VINA RESULT:    -5.443      4.399      7.892
REMARK INTER + INTRA:          -6.391
REMARK INTER:                  -6.111
REMARK INTRA:                  -0.280
REMARK UNBOUND:                 0.006
REMARK SMILES O=c1c(O)c(-c2ccc(O)cc2)oc2cc(O)cc(O)c12
REMARK SMILES IDX 5 1 3 2 2 3 1 4 21 5 19 6 18 7 16 8 15 9 14 10 13 11 6 12
REMARK SMILES IDX 7 13 8 14 9 15 12 16 11 17 10 18 4 20 20 22 17 24
REMARK H PARENT 10 19 4 21 20 23 17 25
REMARK Flexibility Score: inf
ROOT
ATOM      1  C   UNL     1      23.747   2.486  38.300  1.00  0.00     0.180 A 
ATOM      2  C   UNL     1      22.674   3.096  37.625  1.00  0.00     0.208 A 
ATOM      3  C   UNL     1      22.127   2.457  36.500  1.00  0.00     0.238 A 
ATOM      4  O   UNL     1      21.133   2.979  35.933  1.00  0.00    -0.285 OA
ATOM      5  C   UNL     1      22.670   1.227  36.055  1.00  0.00     0.111 A 
ATOM      6  C   UNL     1      22.221   0.514  34.903  1.00  0.00     0.134 A 
ATOM      7  C   UNL     1      22.743  -0.758  34.632  1.00  0.00     0.093 A 
ATOM      8  C   UNL     1      23.744  -1.311  35.433  1.00  0.00     0.123 A 
ATOM      9  C   UNL     1      24.230  -0.596  36.525  1.00  0.00     0.094 A 
ATOM     10  C   UNL     1      23.704   0.658  36.842  1.00  0.00     0.146 A 
ATOM     11  O   UNL     1      24.190   1.302  37.897  1.00  0.00    -0.452 OA
ENDROOT
BRANCH   1  12
ATOM     12  C   UNL     1      24.391   3.110  39.479  1.00  0.00     0.021 A 
ATOM     13  C   UNL     1      25.567   3.874  39.353  1.00  0.00     0.016 A 
ATOM     14  C   UNL     1      26.171   4.432  40.484  1.00  0.00     0.047 A 
ATOM     15  C   UNL     1      25.617   4.223  41.753  1.00  0.00     0.115 A 
ATOM     16  C   UNL     1      23.856   2.888  40.758  1.00  0.00     0.016 A 
ATOM     17  C   UNL     1      24.461   3.448  41.887  1.00  0.00     0.047 A 
BRANCH  15  18
ATOM     18  O   UNL     1      26.211   4.775  42.886  1.00  0.00    -0.508 OA
ATOM     19  H   UNL     1      25.660   5.233  43.603  1.00  0.00     0.293 HD
ENDBRANCH  15  18
ENDBRANCH   1  12
BRANCH   2  20
ATOM     20  O   UNL     1      22.140   4.299  38.095  1.00  0.00    -0.502 OA
ATOM     21  H   UNL     1      22.609   5.187  37.969  1.00  0.00     0.293 HD
ENDBRANCH   2  20
BRANCH   6  22
ATOM     22  O   UNL     1      21.292   1.016  33.987  1.00  0.00    -0.507 OA
ATOM     23  H   UNL     1      20.472   1.548  34.234  1.00  0.00     0.293 HD
ENDBRANCH   6  22
BRANCH   8  24
ATOM     24  O   UNL     1      24.269  -2.570  35.146  1.00  0.00    -0.508 OA
ATOM     25  H   UNL     1      25.202  -2.835  35.441  1.00  0.00     0.293 HD
ENDBRANCH   8  24
TORSDOF 5
ENDMDL
MODEL 9
REMARK VINA RESULT:    -5.410      3.486      7.850
REMARK INTER + INTRA:          -6.353
REMARK INTER:                  -6.057
REMARK INTRA:                  -0.296
REMARK UNBOUND:                 0.006
REMARK SMILES O=c1c(O)c(-c2ccc(O)cc2)oc2cc(O)cc(O)c12
REMARK SMILES IDX 5 1 3 2 2 3 1 4 21 5 19 6 18 7 16 8 15 9 14 10 13 11 6 12
REMARK SMILES IDX 7 13 8 14 9 15 12 16 11 17 10 18 4 20 20 22 17 24
REMARK H PARENT 10 19 4 21 20 23 17 25
REMARK Flexibility Score: inf
ROOT
ATOM      1  C   UNL     1      23.398   1.637  33.040  1.00  0.00     0.180 A 
ATOM      2  C   UNL     1      22.453   0.865  33.738  1.00  0.00     0.208 A 
ATOM      3  C   UNL     1      22.900  -0.023  34.730  1.00  0.00     0.238 A 
ATOM      4  O   UNL     1      22.047  -0.672  35.390  1.00  0.00    -0.285 OA
ATOM      5  C   UNL     1      24.286  -0.141  34.999  1.00  0.00     0.111 A 
ATOM      6  C   UNL     1      24.852  -1.038  35.952  1.00  0.00     0.134 A 
ATOM      7  C   UNL     1      26.225  -0.976  36.228  1.00  0.00     0.093 A 
ATOM      8  C   UNL     1      27.059  -0.094  35.536  1.00  0.00     0.123 A 
ATOM      9  C   UNL     1      26.523   0.744  34.562  1.00  0.00     0.094 A 
ATOM     10  C   UNL     1      25.153   0.731  34.290  1.00  0.00     0.146 A 
ATOM     11  O   UNL     1      24.683   1.553  33.359  1.00  0.00    -0.452 OA
ENDROOT
BRANCH   1  12
ATOM     12  C   UNL     1      23.005   2.577  31.964  1.00  0.00     0.021 A 
ATOM     13  C   UNL     1      22.841   2.144  30.635  1.00  0.00     0.016 A 
ATOM     14  C   UNL     1      22.495   3.055  29.633  1.00  0.00     0.047 A 
ATOM     15  C   UNL     1      22.322   4.410  29.942  1.00  0.00     0.115 A 
ATOM     16  C   UNL     1      22.850   3.941  32.261  1.00  0.00     0.016 A 
ATOM     17  C   UNL     1      22.502   4.850  31.257  1.00  0.00     0.047 A 
BRANCH  15  18
ATOM     18  O   UNL     1      21.975   5.326  28.951  1.00  0.00    -0.508 OA
ATOM     19  H   UNL     1      22.666   5.933  28.526  1.00  0.00     0.293 HD
ENDBRANCH  15  18
ENDBRANCH   1  12
BRANCH   2  20
ATOM     20  O   UNL     1      21.089   1.012  33.472  1.00  0.00    -0.502 OA
ATOM     21  H   UNL     1      20.702   1.854  33.065  1.00  0.00     0.293 HD
ENDBRANCH   2  20
BRANCH   6  22
ATOM     22  O   UNL     1      24.124  -2.019  36.631  1.00  0.00    -0.507 OA
ATOM     23  H   UNL     1      24.036  -2.077  37.634  1.00  0.00     0.293 HD
ENDBRANCH   6  22
BRANCH   8  24
ATOM     24  O   UNL     1      28.425  -0.050  35.806  1.00  0.00    -0.508 OA
ATOM     25  H   UNL     1      28.925   0.830  35.870  1.00  0.00     0.293 HD
ENDBRANCH   8  24
TORSDOF 5
ENDMDL
