MODEL 1
REMARK VINA RESULT:    -5.262      0.000      0.000
REMARK INTER + INTRA:          -7.688
REMARK INTER:                  -7.108
REMARK INTRA:                  -0.581
REMARK UNBOUND:                -0.581
REMARK SMILES CC(=O)CCC=C(C)CCC=C(C)C
REMARK SMILES IDX 7 1 6 2 8 3 9 4 10 5 11 6 13 7 12 8 14 9 5 10 4 11 2 12 3 13
REMARK SMILES IDX 1 14
REMARK H PARENT
REMARK Flexibility Score: inf
ROOT
ATOM      1  C   UNL     1      86.986  36.221  24.348  1.00  0.00    -0.077 C 
ATOM      2  C   UNL     1      87.526  35.265  23.559  1.00  0.00    -0.028 C 
ATOM      3  C   UNL     1      85.583  36.108  24.899  1.00  0.00     0.039 C 
ENDROOT
BRANCH   1   4
ATOM      4  C   UNL     1      87.789  37.470  24.651  1.00  0.00     0.034 C 
BRANCH   4   5
ATOM      5  C   UNL     1      87.704  37.857  26.132  1.00  0.00     0.032 C 
BRANCH   5   6
ATOM      6  C   UNL     1      89.074  38.125  26.711  1.00  0.00    -0.028 C 
ATOM      7  C   UNL     1      89.098  40.533  26.020  1.00  0.00     0.039 C 
ATOM      8  C   UNL     1      89.723  39.309  26.645  1.00  0.00    -0.080 C 
ATOM      9  C   UNL     1      91.115  39.396  27.215  1.00  0.00     0.039 C 
ENDBRANCH   5   6
ENDBRANCH   4   5
ENDBRANCH   1   4
BRANCH   2  10
ATOM     10  C   UNL     1      86.838  33.973  23.185  1.00  0.00     0.035 C 
BRANCH  10  11
ATOM     11  C   UNL     1      87.149  32.854  24.187  1.00  0.00     0.079 C 
BRANCH  11  12
ATOM     12  C   UNL     1      85.906  32.086  24.563  1.00  0.00     0.130 C 
ATOM     13  O   UNL     1      86.013  30.988  25.087  1.00  0.00    -0.300 OA
ATOM     14  C   UNL     1      84.538  32.644  24.306  1.00  0.00     0.087 C 
ENDBRANCH  11  12
ENDBRANCH  10  11
ENDBRANCH   2  10
TORSDOF 6
ENDMDL
MODEL 2
REMARK VINA RESULT:    -5.253      5.634      7.660
REMARK INTER + INTRA:          -7.676
REMARK INTER:                  -7.256
REMARK INTRA:                  -0.420
REMARK UNBOUND:                -0.581
REMARK SMILES CC(=O)CCC=C(C)CCC=C(C)C
REMARK SMILES IDX 7 1 6 2 8 3 9 4 10 5 11 6 13 7 12 8 14 9 5 10 4 11 2 12 3 13
REMARK SMILES IDX 1 14
REMARK H PARENT
REMARK Flexibility Score: inf
ROOT
ATOM      1  C   UNL     1      85.667  37.087  29.142  1.00  0.00    -0.077 C 
ATOM      2  C   UNL     1      86.734  37.087  28.311  1.00  0.00    -0.028 C 
ATOM      3  C   UNL     1      85.275  38.307  29.942  1.00  0.00     0.039 C 
ENDROOT
BRANCH   1   4
ATOM      4  C   UNL     1      84.868  35.812  29.319  1.00  0.00     0.034 C 
BRANCH   4   5
ATOM      5  C   UNL     1      85.468  34.910  30.404  1.00  0.00     0.032 C 
BRANCH   5   6
ATOM      6  C   UNL     1      84.706  35.029  31.703  1.00  0.00    -0.028 C 
ATOM      7  C   UNL     1      86.445  33.827  33.048  1.00  0.00     0.039 C 
ATOM      8  C   UNL     1      85.116  34.527  32.889  1.00  0.00    -0.080 C 
ATOM      9  C   UNL     1      84.208  34.674  34.082  1.00  0.00     0.039 C 
ENDBRANCH   5   6
ENDBRANCH   4   5
ENDBRANCH   1   4
BRANCH   2  10
ATOM     10  C   UNL     1      87.610  38.288  28.039  1.00  0.00     0.035 C 
BRANCH  10  11
ATOM     11  C   UNL     1      88.406  38.127  26.737  1.00  0.00     0.079 C 
BRANCH  11  12
ATOM     12  C   UNL     1      89.592  39.057  26.695  1.00  0.00     0.130 C 
ATOM     13  O   UNL     1      90.678  38.665  27.095  1.00  0.00    -0.300 OA
ATOM     14  C   UNL     1      89.467  40.457  26.172  1.00  0.00     0.087 C 
ENDBRANCH  11  12
ENDBRANCH  10  11
ENDBRANCH   2  10
TORSDOF 6
ENDMDL
MODEL 3
REMARK VINA RESULT:    -5.238      3.413      6.785
REMARK INTER + INTRA:          -7.656
REMARK INTER:                  -7.167
REMARK INTRA:                  -0.489
REMARK UNBOUND:                -0.581
REMARK SMILES CC(=O)CCC=C(C)CCC=C(C)C
REMARK SMILES IDX 7 1 6 2 8 3 9 4 10 5 11 6 13 7 12 8 14 9 5 10 4 11 2 12 3 13
REMARK SMILES IDX 1 14
REMARK H PARENT
REMARK Flexibility Score: inf
ROOT
ATOM      1  C   UNL     1      86.425  35.602  24.272  1.00  0.00    -0.077 C 
ATOM      2  C   UNL     1      86.564  36.717  25.024  1.00  0.00    -0.028 C 
ATOM      3  C   UNL     1      87.549  35.072  23.411  1.00  0.00     0.039 C 
ENDROOT
BRANCH   1   4
ATOM      4  C   UNL     1      85.089  34.889  24.247  1.00  0.00     0.034 C 
BRANCH   4   5
ATOM      5  C   UNL     1      84.430  34.963  22.865  1.00  0.00     0.032 C 
BRANCH   5   6
ATOM      6  C   UNL     1      83.832  36.328  22.612  1.00  0.00    -0.028 C 
ATOM      7  C   UNL     1      83.407  35.896  20.181  1.00  0.00     0.039 C 
ATOM      8  C   UNL     1      83.395  36.770  21.412  1.00  0.00    -0.080 C 
ATOM      9  C   UNL     1      82.886  38.185  21.312  1.00  0.00     0.039 C 
ENDBRANCH   5   6
ENDBRANCH   4   5
ENDBRANCH   1   4
BRANCH   2  10
ATOM     10  C   UNL     1      87.839  37.518  25.144  1.00  0.00     0.035 C 
BRANCH  10  11
ATOM     11  C   UNL     1      88.053  38.036  26.572  1.00  0.00     0.079 C 
BRANCH  11  12
ATOM     12  C   UNL     1      89.329  38.830  26.688  1.00  0.00     0.130 C 
ATOM     13  O   UNL     1      90.314  38.316  27.195  1.00  0.00    -0.300 OA
ATOM     14  C   UNL     1      89.415  40.244  26.194  1.00  0.00     0.087 C 
ENDBRANCH  11  12
ENDBRANCH  10  11
ENDBRANCH   2  10
TORSDOF 6
ENDMDL
MODEL 4
REMARK VINA RESULT:    -5.139      4.834      7.270
REMARK INTER + INTRA:          -7.522
REMARK INTER:                  -6.778
REMARK INTRA:                  -0.744
REMARK UNBOUND:                -0.581
REMARK SMILES CC(=O)CCC=C(C)CCC=C(C)C
REMARK SMILES IDX 7 1 6 2 8 3 9 4 10 5 11 6 13 7 12 8 14 9 5 10 4 11 2 12 3 13
REMARK SMILES IDX 1 14
REMARK H PARENT
REMARK Flexibility Score: inf
ROOT
ATOM      1  C   UNL     1      86.202  37.599  28.931  1.00  0.00    -0.077 C 
ATOM      2  C   UNL     1      87.304  38.221  28.455  1.00  0.00    -0.028 C 
ATOM      3  C   UNL     1      85.720  36.281  28.369  1.00  0.00     0.039 C 
ENDROOT
BRANCH   1   4
ATOM      4  C   UNL     1      85.392  38.263  30.025  1.00  0.00     0.034 C 
BRANCH   4   5
ATOM      5  C   UNL     1      83.991  37.654  30.148  1.00  0.00     0.032 C 
BRANCH   5   6
ATOM      6  C   UNL     1      82.917  38.683  29.875  1.00  0.00    -0.028 C 
ATOM      7  C   UNL     1      82.420  37.825  27.574  1.00  0.00     0.039 C 
ATOM      8  C   UNL     1      82.225  38.789  28.719  1.00  0.00    -0.080 C 
ATOM      9  C   UNL     1      81.231  39.913  28.580  1.00  0.00     0.039 C 
ENDBRANCH   5   6
ENDBRANCH   4   5
ENDBRANCH   1   4
BRANCH   2  10
ATOM     10  C   UNL     1      88.201  37.668  27.373  1.00  0.00     0.035 C 
BRANCH  10  11
ATOM     11  C   UNL     1      88.411  38.678  26.237  1.00  0.00     0.079 C 
BRANCH  11  12
ATOM     12  C   UNL     1      89.612  39.553  26.489  1.00  0.00     0.130 C 
ATOM     13  O   UNL     1      89.572  40.734  26.178  1.00  0.00    -0.300 OA
ATOM     14  C   UNL     1      90.861  39.003  27.113  1.00  0.00     0.087 C 
ENDBRANCH  11  12
ENDBRANCH  10  11
ENDBRANCH   2  10
TORSDOF 6
ENDMDL
MODEL 5
REMARK VINA RESULT:    -5.116      3.921      5.254
REMARK INTER + INTRA:          -7.492
REMARK INTER:                  -6.649
REMARK INTRA:                  -0.842
REMARK UNBOUND:                -0.581
REMARK SMILES CC(=O)CCC=C(C)CCC=C(C)C
REMARK SMILES IDX 7 1 6 2 8 3 9 4 10 5 11 6 13 7 12 8 14 9 5 10 4 11 2 12 3 13
REMARK SMILES IDX 1 14
REMARK H PARENT
REMARK Flexibility Score: inf
ROOT
ATOM      1  C   UNL     1      85.615  36.703  26.399  1.00  0.00    -0.077 C 
ATOM      2  C   UNL     1      86.306  36.620  27.558  1.00  0.00    -0.028 C 
ATOM      3  C   UNL     1      84.104  36.706  26.366  1.00  0.00     0.039 C 
ENDROOT
BRANCH   1   4
ATOM      4  C   UNL     1      86.372  36.743  25.088  1.00  0.00     0.034 C 
BRANCH   4   5
ATOM      5  C   UNL     1      87.863  37.032  25.299  1.00  0.00     0.032 C 
BRANCH   5   6
ATOM      6  C   UNL     1      88.126  38.517  25.406  1.00  0.00    -0.028 C 
ATOM      7  C   UNL     1      89.866  38.267  27.191  1.00  0.00     0.039 C 
ATOM      8  C   UNL     1      88.999  39.087  26.266  1.00  0.00    -0.080 C 
ATOM      9  C   UNL     1      89.099  40.590  26.295  1.00  0.00     0.039 C 
ENDBRANCH   5   6
ENDBRANCH   4   5
ENDBRANCH   1   4
BRANCH   2  10
ATOM     10  C   UNL     1      85.678  36.580  28.931  1.00  0.00     0.035 C 
BRANCH  10  11
ATOM     11  C   UNL     1      85.671  37.963  29.594  1.00  0.00     0.079 C 
BRANCH  11  12
ATOM     12  C   UNL     1      84.393  38.207  30.355  1.00  0.00     0.130 C 
ATOM     13  O   UNL     1      84.386  39.007  31.278  1.00  0.00    -0.300 OA
ATOM     14  C   UNL     1      83.126  37.485  30.002  1.00  0.00     0.087 C 
ENDBRANCH  11  12
ENDBRANCH  10  11
ENDBRANCH   2  10
TORSDOF 6
ENDMDL
MODEL 6
REMARK VINA RESULT:    -5.093      1.808      2.427
REMARK INTER + INTRA:          -7.461
REMARK INTER:                  -6.578
REMARK INTRA:                  -0.882
REMARK UNBOUND:                -0.581
REMARK SMILES CC(=O)CCC=C(C)CCC=C(C)C
REMARK SMILES IDX 7 1 6 2 8 3 9 4 10 5 11 6 13 7 12 8 14 9 5 10 4 11 2 12 3 13
REMARK SMILES IDX 1 14
REMARK H PARENT
REMARK Flexibility Score: inf
ROOT
ATOM      1  C   UNL     1      85.713  36.439  26.453  1.00  0.00    -0.077 C 
ATOM      2  C   UNL     1      86.397  36.250  25.301  1.00  0.00    -0.028 C 
ATOM      3  C   UNL     1      84.211  36.599  26.476  1.00  0.00     0.039 C 
ENDROOT
BRANCH   1   4
ATOM      4  C   UNL     1      86.477  36.545  27.757  1.00  0.00     0.034 C 
BRANCH   4   5
ATOM      5  C   UNL     1      86.980  37.971  28.008  1.00  0.00     0.032 C 
BRANCH   5   6
ATOM      6  C   UNL     1      88.490  38.039  27.959  1.00  0.00    -0.028 C 
ATOM      7  C   UNL     1      88.542  39.452  25.891  1.00  0.00     0.039 C 
ATOM      8  C   UNL     1      89.203  38.675  27.003  1.00  0.00    -0.080 C 
ATOM      9  C   UNL     1      90.707  38.595  27.060  1.00  0.00     0.039 C 
ENDBRANCH   5   6
ENDBRANCH   4   5
ENDBRANCH   1   4
BRANCH   2  10
ATOM     10  C   UNL     1      85.760  36.121  23.938  1.00  0.00     0.035 C 
BRANCH  10  11
ATOM     11  C   UNL     1      85.519  34.654  23.560  1.00  0.00     0.079 C 
BRANCH  11  12
ATOM     12  C   UNL     1      86.816  33.910  23.368  1.00  0.00     0.130 C 
ATOM     13  O   UNL     1      87.570  34.238  22.465  1.00  0.00    -0.300 OA
ATOM     14  C   UNL     1      87.201  32.771  24.266  1.00  0.00     0.087 C 
ENDBRANCH  11  12
ENDBRANCH  10  11
ENDBRANCH   2  10
TORSDOF 6
ENDMDL
MODEL 7
REMARK VINA RESULT:    -5.063      5.436      6.276
REMARK INTER + INTRA:          -7.420
REMARK INTER:                  -6.840
REMARK INTRA:                  -0.579
REMARK UNBOUND:                -0.581
REMARK SMILES CC(=O)CCC=C(C)CCC=C(C)C
REMARK SMILES IDX 7 1 6 2 8 3 9 4 10 5 11 6 13 7 12 8 14 9 5 10 4 11 2 12 3 13
REMARK SMILES IDX 1 14
REMARK H PARENT
REMARK Flexibility Score: inf
ROOT
ATOM      1  C   UNL     1      85.416  36.093  29.702  1.00  0.00    -0.077 C 
ATOM      2  C   UNL     1      84.673  36.166  30.830  1.00  0.00    -0.028 C 
ATOM      3  C   UNL     1      85.784  34.770  29.071  1.00  0.00     0.039 C 
ENDROOT
BRANCH   1   4
ATOM      4  C   UNL     1      85.941  37.369  29.077  1.00  0.00     0.034 C 
BRANCH   4   5
ATOM      5  C   UNL     1      86.808  37.086  27.845  1.00  0.00     0.032 C 
BRANCH   5   6
ATOM      6  C   UNL     1      87.941  38.079  27.728  1.00  0.00    -0.028 C 
ATOM      7  C   UNL     1      88.066  37.923  25.231  1.00  0.00     0.039 C 
ATOM      8  C   UNL     1      88.532  38.443  26.569  1.00  0.00    -0.080 C 
ATOM      9  C   UNL     1      89.697  39.398  26.628  1.00  0.00     0.039 C 
ENDBRANCH   5   6
ENDBRANCH   4   5
ENDBRANCH   1   4
BRANCH   2  10
ATOM     10  C   UNL     1      84.085  34.976  31.549  1.00  0.00     0.035 C 
BRANCH  10  11
ATOM     11  C   UNL     1      84.615  34.860  32.984  1.00  0.00     0.079 C 
BRANCH  11  12
ATOM     12  C   UNL     1      85.558  33.693  33.134  1.00  0.00     0.130 C 
ATOM     13  O   UNL     1      85.153  32.651  33.627  1.00  0.00    -0.300 OA
ATOM     14  C   UNL     1      86.988  33.785  32.691  1.00  0.00     0.087 C 
ENDBRANCH  11  12
ENDBRANCH  10  11
ENDBRANCH   2  10
TORSDOF 6
ENDMDL
MODEL 8
REMARK VINA RESULT:    -5.028      3.166      6.056
REMARK INTER + INTRA:          -7.372
REMARK INTER:                  -6.415
REMARK INTRA:                  -0.958
REMARK UNBOUND:                -0.581
REMARK SMILES CC(=O)CCC=C(C)CCC=C(C)C
REMARK SMILES IDX 7 1 6 2 8 3 9 4 10 5 11 6 13 7 12 8 14 9 5 10 4 11 2 12 3 13
REMARK SMILES IDX 1 14
REMARK H PARENT
REMARK Flexibility Score: inf
ROOT
ATOM      1  C   UNL     1      86.350  35.990  24.541  1.00  0.00    -0.077 C 
ATOM      2  C   UNL     1      86.657  37.101  25.248  1.00  0.00    -0.028 C 
ATOM      3  C   UNL     1      87.373  35.279  23.685  1.00  0.00     0.039 C 
ENDROOT
BRANCH   1   4
ATOM      4  C   UNL     1      84.929  35.468  24.563  1.00  0.00     0.034 C 
BRANCH   4   5
ATOM      5  C   UNL     1      84.406  35.299  25.994  1.00  0.00     0.032 C 
BRANCH   5   6
ATOM      6  C   UNL     1      85.130  34.187  26.718  1.00  0.00    -0.028 C 
ATOM      7  C   UNL     1      85.993  35.681  28.535  1.00  0.00     0.039 C 
ATOM      8  C   UNL     1      85.866  34.346  27.840  1.00  0.00    -0.080 C 
ATOM      9  C   UNL     1      86.582  33.146  28.404  1.00  0.00     0.039 C 
ENDBRANCH   5   6
ENDBRANCH   4   5
ENDBRANCH   1   4
BRANCH   2  10
ATOM     10  C   UNL     1      88.032  37.722  25.318  1.00  0.00     0.035 C 
BRANCH  10  11
ATOM     11  C   UNL     1      88.356  38.228  26.730  1.00  0.00     0.079 C 
BRANCH  11  12
ATOM     12  C   UNL     1      89.611  39.064  26.745  1.00  0.00     0.130 C 
ATOM     13  O   UNL     1      90.644  38.589  27.191  1.00  0.00    -0.300 OA
ATOM     14  C   UNL     1      89.616  40.470  26.223  1.00  0.00     0.087 C 
ENDBRANCH  11  12
ENDBRANCH  10  11
ENDBRANCH   2  10
TORSDOF 6
ENDMDL
MODEL 9
REMARK VINA RESULT:    -4.803      3.361      6.637
REMARK INTER + INTRA:          -7.069
REMARK INTER:                  -6.224
REMARK INTRA:                  -0.845
REMARK UNBOUND:                -0.581
REMARK SMILES CC(=O)CCC=C(C)CCC=C(C)C
REMARK SMILES IDX 7 1 6 2 8 3 9 4 10 5 11 6 13 7 12 8 14 9 5 10 4 11 2 12 3 13
REMARK SMILES IDX 1 14
REMARK H PARENT
REMARK Flexibility Score: inf
ROOT
ATOM      1  C   UNL     1      85.822  36.713  28.616  1.00  0.00    -0.077 C 
ATOM      2  C   UNL     1      86.886  36.915  27.806  1.00  0.00    -0.028 C 
ATOM      3  C   UNL     1      85.364  37.754  29.611  1.00  0.00     0.039 C 
ENDROOT
BRANCH   1   4
ATOM      4  C   UNL     1      85.097  35.384  28.567  1.00  0.00     0.034 C 
BRANCH   4   5
ATOM      5  C   UNL     1      84.899  34.896  27.128  1.00  0.00     0.032 C 
BRANCH   5   6
ATOM      6  C   UNL     1      83.912  35.764  26.382  1.00  0.00    -0.028 C 
ATOM      7  C   UNL     1      85.487  36.258  24.497  1.00  0.00     0.039 C 
ATOM      8  C   UNL     1      84.169  36.402  25.219  1.00  0.00    -0.080 C 
ATOM      9  C   UNL     1      83.097  37.286  24.634  1.00  0.00     0.039 C 
ENDBRANCH   5   6
ENDBRANCH   4   5
ENDBRANCH   1   4
BRANCH   2  10
ATOM     10  C   UNL     1      87.691  38.191  27.750  1.00  0.00     0.035 C 
BRANCH  10  11
ATOM     11  C   UNL     1      88.482  38.307  26.440  1.00  0.00     0.079 C 
BRANCH  11  12
ATOM     12  C   UNL     1      89.718  39.153  26.612  1.00  0.00     0.130 C 
ATOM     13  O   UNL     1      90.713  38.667  27.128  1.00  0.00    -0.300 OA
ATOM     14  C   UNL     1      89.752  40.584  26.161  1.00  0.00     0.087 C 
ENDBRANCH  11  12
ENDBRANCH  10  11
ENDBRANCH   2  10
TORSDOF 6
ENDMDL
