MODEL 1
REMARK VINA RESULT:    -1.471      0.000      0.000
REMARK INTER + INTRA:          -1.471
REMARK INTER:                  -1.471
REMARK INTRA:                   0.000
REMARK UNBOUND:                 0.000
REMARK SMILES CC(=O)[O-]
REMARK SMILES IDX 1 1 2 2 3 3 4 4
REMARK H PARENT
REMARK Flexibility Score: inf
ROOT
ATOM      1  C   UNL     1       8.038   1.853   2.567  1.00  0.00     0.063 C 
ATOM      2  C   UNL     1       7.227   3.087   2.779  1.00  0.00     0.038 C 
ATOM      3  O   UNL     1       6.914   3.444   3.945  1.00  0.00    -0.550 OA
ATOM      4  O   UNL     1       6.769   3.814   1.689  1.00  0.00    -0.550 OA
ENDROOT
TORSDOF 0
ENDMDL
MODEL 2
REMARK VINA RESULT:    -1.458      0.155      1.627
REMARK INTER + INTRA:          -1.458
REMARK INTER:                  -1.458
REMARK INTRA:                   0.000
REMARK UNBOUND:                 0.000
REMARK SMILES CC(=O)[O-]
REMARK SMILES IDX 1 1 2 2 3 3 4 4
REMARK H PARENT
REMARK Flexibility Score: inf
ROOT
ATOM      1  C   UNL     1       8.161   1.999   2.368  1.00  0.00     0.063 C 
ATOM      2  C   UNL     1       7.233   3.130   2.657  1.00  0.00     0.038 C 
ATOM      3  O   UNL     1       6.785   3.836   1.717  1.00  0.00    -0.550 OA
ATOM      4  O   UNL     1       6.904   3.441   3.970  1.00  0.00    -0.550 OA
ENDROOT
TORSDOF 0
ENDMDL
MODEL 3
REMARK VINA RESULT:    -1.438      6.542      6.872
REMARK INTER + INTRA:          -1.438
REMARK INTER:                  -1.438
REMARK INTRA:                   0.000
REMARK UNBOUND:                 0.000
REMARK SMILES CC(=O)[O-]
REMARK SMILES IDX 1 1 2 2 3 3 4 4
REMARK H PARENT
REMARK Flexibility Score: inf
ROOT
ATOM      1  C   UNL     1       0.669   2.716  -1.343  1.00  0.00     0.063 C 
ATOM      2  C   UNL     1       1.208   3.533  -0.217  1.00  0.00     0.038 C 
ATOM      3  O   UNL     1       0.733   3.404   0.940  1.00  0.00    -0.550 OA
ATOM      4  O   UNL     1       2.199   4.477  -0.455  1.00  0.00    -0.550 OA
ENDROOT
TORSDOF 0
ENDMDL
MODEL 4
REMARK VINA RESULT:    -1.432      9.492      9.817
REMARK INTER + INTRA:          -1.432
REMARK INTER:                  -1.432
REMARK INTRA:                   0.000
REMARK UNBOUND:                 0.000
REMARK SMILES CC(=O)[O-]
REMARK SMILES IDX 1 1 2 2 3 3 4 4
REMARK H PARENT
REMARK Flexibility Score: inf
ROOT
ATOM      1  C   UNL     1      -0.367   2.530  -1.251  1.00  0.00     0.063 C 
ATOM      2  C   UNL     1      -1.294   1.445  -1.684  1.00  0.00     0.038 C 
ATOM      3  O   UNL     1      -1.974   0.818  -0.832  1.00  0.00    -0.550 OA
ATOM      4  O   UNL     1      -1.369   1.088  -3.024  1.00  0.00    -0.550 OA
ENDROOT
TORSDOF 0
ENDMDL
MODEL 5
REMARK VINA RESULT:    -1.401     10.184     10.574
REMARK INTER + INTRA:          -1.401
REMARK INTER:                  -1.401
REMARK INTRA:                   0.000
REMARK UNBOUND:                 0.000
REMARK SMILES CC(=O)[O-]
REMARK SMILES IDX 1 1 2 2 3 3 4 4
REMARK H PARENT
REMARK Flexibility Score: inf
ROOT
ATOM      1  C   UNL     1      -2.089   2.336   0.841  1.00  0.00     0.063 C 
ATOM      2  C   UNL     1      -2.592   1.300  -0.106  1.00  0.00     0.038 C 
ATOM      3  O   UNL     1      -1.841   0.853  -1.011  1.00  0.00    -0.550 OA
ATOM      4  O   UNL     1      -3.909   0.866  -0.026  1.00  0.00    -0.550 OA
ENDROOT
TORSDOF 0
ENDMDL
MODEL 6
REMARK VINA RESULT:    -1.383      9.220      9.714
REMARK INTER + INTRA:          -1.383
REMARK INTER:                  -1.383
REMARK INTRA:                   0.000
REMARK UNBOUND:                 0.000
REMARK SMILES CC(=O)[O-]
REMARK SMILES IDX 1 1 2 2 3 3 4 4
REMARK H PARENT
REMARK Flexibility Score: inf
ROOT
ATOM      1  C   UNL     1       0.247   2.380  -1.715  1.00  0.00     0.063 C 
ATOM      2  C   UNL     1      -0.854   1.419  -2.012  1.00  0.00     0.038 C 
ATOM      3  O   UNL     1      -1.084   1.069  -3.199  1.00  0.00    -0.550 OA
ATOM      4  O   UNL     1      -1.664   0.950  -0.986  1.00  0.00    -0.550 OA
ENDROOT
TORSDOF 0
ENDMDL
MODEL 7
REMARK VINA RESULT:    -1.378      7.639      7.912
REMARK INTER + INTRA:          -1.378
REMARK INTER:                  -1.378
REMARK INTRA:                   0.000
REMARK UNBOUND:                 0.000
REMARK SMILES CC(=O)[O-]
REMARK SMILES IDX 1 1 2 2 3 3 4 4
REMARK H PARENT
REMARK Flexibility Score: inf
ROOT
ATOM      1  C   UNL     1      -1.741   2.754   1.550  1.00  0.00     0.063 C 
ATOM      2  C   UNL     1      -0.465   3.427   1.932  1.00  0.00     0.038 C 
ATOM      3  O   UNL     1      -0.394   4.085   3.002  1.00  0.00    -0.550 OA
ATOM      4  O   UNL     1       0.630   3.374   1.081  1.00  0.00    -0.550 OA
ENDROOT
TORSDOF 0
ENDMDL
MODEL 8
REMARK VINA RESULT:    -1.349      7.116      7.570
REMARK INTER + INTRA:          -1.349
REMARK INTER:                  -1.349
REMARK INTRA:                   0.000
REMARK UNBOUND:                 0.000
REMARK SMILES CC(=O)[O-]
REMARK SMILES IDX 1 1 2 2 3 3 4 4
REMARK H PARENT
REMARK Flexibility Score: inf
ROOT
ATOM      1  C   UNL     1      -0.784   2.935  -0.289  1.00  0.00     0.063 C 
ATOM      2  C   UNL     1       0.288   3.346   0.664  1.00  0.00     0.038 C 
ATOM      3  O   UNL     1       1.451   3.576   0.243  1.00  0.00    -0.550 OA
ATOM      4  O   UNL     1       0.018   3.423   2.024  1.00  0.00    -0.550 OA
ENDROOT
TORSDOF 0
ENDMDL
MODEL 9
REMARK VINA RESULT:    -1.325      6.855      7.244
REMARK INTER + INTRA:          -1.325
REMARK INTER:                  -1.325
REMARK INTRA:                   0.000
REMARK UNBOUND:                 0.000
REMARK SMILES CC(=O)[O-]
REMARK SMILES IDX 1 1 2 2 3 3 4 4
REMARK H PARENT
REMARK Flexibility Score: inf
ROOT
ATOM      1  C   UNL     1       8.997  -3.885   0.387  1.00  0.00     0.063 C 
ATOM      2  C   UNL     1       8.575  -3.791   1.815  1.00  0.00     0.038 C 
ATOM      3  O   UNL     1       8.951  -2.820   2.521  1.00  0.00    -0.550 OA
ATOM      4  O   UNL     1       7.813  -4.804   2.383  1.00  0.00    -0.550 OA
ENDROOT
TORSDOF 0
ENDMDL
