MODEL 1
REMARK VINA RESULT:    -6.463      0.000      0.000
REMARK INTER + INTRA:         -14.150
REMARK INTER:                 -12.131
REMARK INTRA:                  -2.019
REMARK UNBOUND:                -2.019
REMARK SMILES CCCCCCCCC=CCCCCCCCC(=O)[O-]
REMARK SMILES IDX 10 1 9 2 11 3 12 4 13 5 14 6 15 7 16 8 17 9 18 10 19 11
REMARK SMILES IDX 20 12 8 13 7 14 6 15 5 16 4 17 3 18 2 19 1 20
REMARK H PARENT
REMARK Flexibility Score: inf
ROOT
ATOM      1  C   UNL     1       4.610   9.426  15.069  1.00  0.00    -0.031 C 
ATOM      2  C   UNL     1       4.280   9.175  16.349  1.00  0.00    -0.031 C 
ENDROOT
BRANCH   1   3
ATOM      3  C   UNL     1       3.936  10.456  14.195  1.00  0.00     0.027 C 
BRANCH   3   4
ATOM      4  C   UNL     1       4.620  11.827  14.303  1.00  0.00     0.004 C 
BRANCH   4   5
ATOM      5  C   UNL     1       3.702  12.881  14.937  1.00  0.00     0.000 C 
BRANCH   5   6
ATOM      6  C   UNL     1       4.146  13.212  16.366  1.00  0.00     0.000 C 
BRANCH   6   7
ATOM      7  C   UNL     1       5.661  13.015  16.531  1.00  0.00     0.000 C 
BRANCH   7   8
ATOM      8  C   UNL     1       6.013  12.090  17.706  1.00  0.00     0.006 C 
BRANCH   8   9
ATOM      9  C   UNL     1       5.079  12.280  18.909  1.00  0.00     0.053 C 
BRANCH   9  10
ATOM     10  C   UNL     1       5.543  11.451  20.064  1.00  0.00     0.041 C 
ATOM     11  O   UNL     1       4.705  10.885  20.815  1.00  0.00    -0.550 OA
ATOM     12  O   UNL     1       6.902  11.263  20.286  1.00  0.00    -0.550 OA
ENDBRANCH   9  10
ENDBRANCH   8   9
ENDBRANCH   7   8
ENDBRANCH   6   7
ENDBRANCH   5   6
ENDBRANCH   4   5
ENDBRANCH   3   4
ENDBRANCH   1   3
BRANCH   2  13
ATOM     13  C   UNL     1       3.116   9.805  17.073  1.00  0.00     0.027 C 
BRANCH  13  14
ATOM     14  C   UNL     1       2.790   9.063  18.378  1.00  0.00     0.004 C 
BRANCH  14  15
ATOM     15  C   UNL     1       2.064   7.731  18.117  1.00  0.00     0.000 C 
BRANCH  15  16
ATOM     16  C   UNL     1       0.544   7.842  18.316  1.00  0.00     0.000 C 
BRANCH  16  17
ATOM     17  C   UNL     1      -0.128   6.470  18.492  1.00  0.00    -0.000 C 
BRANCH  17  18
ATOM     18  C   UNL     1       0.863   5.304  18.344  1.00  0.00    -0.000 C 
BRANCH  18  19
ATOM     19  C   UNL     1       1.178   4.626  19.685  1.00  0.00    -0.003 C 
ATOM     20  C   UNL     1       2.658   4.266  19.784  1.00  0.00     0.004 C 
ENDBRANCH  18  19
ENDBRANCH  17  18
ENDBRANCH  16  17
ENDBRANCH  15  16
ENDBRANCH  14  15
ENDBRANCH  13  14
ENDBRANCH   2  13
TORSDOF 15
ENDMDL
MODEL 2
REMARK VINA RESULT:    -6.386      2.362      3.685
REMARK INTER + INTRA:         -14.005
REMARK INTER:                 -12.116
REMARK INTRA:                  -1.889
REMARK UNBOUND:                -2.019
REMARK SMILES CCCCCCCCC=CCCCCCCCC(=O)[O-]
REMARK SMILES IDX 10 1 9 2 11 3 12 4 13 5 14 6 15 7 16 8 17 9 18 10 19 11
REMARK SMILES IDX 20 12 8 13 7 14 6 15 5 16 4 17 3 18 2 19 1 20
REMARK H PARENT
REMARK Flexibility Score: inf
ROOT
ATOM      1  C   UNL     1       5.169  11.121  18.966  1.00  0.00    -0.031 C 
ATOM      2  C   UNL     1       3.899  10.769  19.239  1.00  0.00    -0.031 C 
ENDROOT
BRANCH   1   3
ATOM      3  C   UNL     1       5.722  11.329  17.578  1.00  0.00     0.027 C 
BRANCH   3   4
ATOM      4  C   UNL     1       5.782  12.819  17.208  1.00  0.00     0.004 C 
BRANCH   4   5
ATOM      5  C   UNL     1       5.253  13.083  15.791  1.00  0.00     0.000 C 
BRANCH   5   6
ATOM      6  C   UNL     1       3.721  13.040  15.757  1.00  0.00     0.000 C 
BRANCH   6   7
ATOM      7  C   UNL     1       3.223  12.035  14.706  1.00  0.00     0.000 C 
BRANCH   7   8
ATOM      8  C   UNL     1       4.357  11.184  14.116  1.00  0.00     0.006 C 
BRANCH   8   9
ATOM      9  C   UNL     1       3.854   9.867  13.510  1.00  0.00     0.053 C 
BRANCH   9  10
ATOM     10  C   UNL     1       4.544   8.703  14.148  1.00  0.00     0.041 C 
ATOM     11  O   UNL     1       5.434   8.893  15.019  1.00  0.00    -0.550 OA
ATOM     12  O   UNL     1       4.172   7.406  13.817  1.00  0.00    -0.550 OA
ENDBRANCH   9  10
ENDBRANCH   8   9
ENDBRANCH   7   8
ENDBRANCH   6   7
ENDBRANCH   5   6
ENDBRANCH   4   5
ENDBRANCH   3   4
ENDBRANCH   1   3
BRANCH   2  13
ATOM     13  C   UNL     1       2.864  10.420  18.197  1.00  0.00     0.027 C 
BRANCH  13  14
ATOM     14  C   UNL     1       3.118   9.034  17.586  1.00  0.00     0.004 C 
BRANCH  14  15
ATOM     15  C   UNL     1       2.316   7.933  18.301  1.00  0.00     0.000 C 
BRANCH  15  16
ATOM     16  C   UNL     1       0.800   8.176  18.238  1.00  0.00     0.000 C 
BRANCH  16  17
ATOM     17  C   UNL     1      -0.013   6.906  18.541  1.00  0.00    -0.000 C 
BRANCH  17  18
ATOM     18  C   UNL     1       0.763   5.618  18.221  1.00  0.00    -0.000 C 
BRANCH  18  19
ATOM     19  C   UNL     1       0.915   4.704  19.445  1.00  0.00    -0.003 C 
ATOM     20  C   UNL     1       2.387   4.477  19.781  1.00  0.00     0.004 C 
ENDBRANCH  18  19
ENDBRANCH  17  18
ENDBRANCH  16  17
ENDBRANCH  15  16
ENDBRANCH  14  15
ENDBRANCH  13  14
ENDBRANCH   2  13
TORSDOF 15
ENDMDL
MODEL 3
REMARK VINA RESULT:    -6.321      2.330      3.706
REMARK INTER + INTRA:         -13.883
REMARK INTER:                 -11.954
REMARK INTRA:                  -1.930
REMARK UNBOUND:                -2.019
REMARK SMILES CCCCCCCCC=CCCCCCCCC(=O)[O-]
REMARK SMILES IDX 10 1 9 2 11 3 12 4 13 5 14 6 15 7 16 8 17 9 18 10 19 11
REMARK SMILES IDX 20 12 8 13 7 14 6 15 5 16 4 17 3 18 2 19 1 20
REMARK H PARENT
REMARK Flexibility Score: inf
ROOT
ATOM      1  C   UNL     1       3.078  11.201  18.777  1.00  0.00    -0.031 C 
ATOM      2  C   UNL     1       2.504  10.323  17.934  1.00  0.00    -0.031 C 
ENDROOT
BRANCH   1   3
ATOM      3  C   UNL     1       4.310  10.918  19.602  1.00  0.00     0.027 C 
BRANCH   3   4
ATOM      4  C   UNL     1       5.483  11.823  19.198  1.00  0.00     0.004 C 
BRANCH   4   5
ATOM      5  C   UNL     1       6.072  11.431  17.836  1.00  0.00     0.000 C 
BRANCH   5   6
ATOM      6  C   UNL     1       6.161  12.644  16.902  1.00  0.00     0.000 C 
BRANCH   6   7
ATOM      7  C   UNL     1       4.791  12.961  16.282  1.00  0.00     0.000 C 
BRANCH   7   8
ATOM      8  C   UNL     1       4.693  12.531  14.811  1.00  0.00     0.006 C 
BRANCH   8   9
ATOM      9  C   UNL     1       3.682  11.399  14.591  1.00  0.00     0.053 C 
BRANCH   9  10
ATOM     10  C   UNL     1       4.392  10.119  14.281  1.00  0.00     0.041 C 
ATOM     11  O   UNL     1       4.406   9.670  13.104  1.00  0.00    -0.550 OA
ATOM     12  O   UNL     1       5.080   9.444  15.282  1.00  0.00    -0.550 OA
ENDBRANCH   9  10
ENDBRANCH   8   9
ENDBRANCH   7   8
ENDBRANCH   6   7
ENDBRANCH   5   6
ENDBRANCH   4   5
ENDBRANCH   3   4
ENDBRANCH   1   3
BRANCH   2  13
ATOM     13  C   UNL     1       2.938   8.887  17.766  1.00  0.00     0.027 C 
BRANCH  13  14
ATOM     14  C   UNL     1       2.039   7.926  18.560  1.00  0.00     0.004 C 
BRANCH  14  15
ATOM     15  C   UNL     1       0.545   8.220  18.338  1.00  0.00     0.000 C 
BRANCH  15  16
ATOM     16  C   UNL     1      -0.304   6.940  18.288  1.00  0.00     0.000 C 
BRANCH  16  17
ATOM     17  C   UNL     1       0.460   5.750  17.682  1.00  0.00    -0.000 C 
BRANCH  17  18
ATOM     18  C   UNL     1       0.551   4.556  18.645  1.00  0.00    -0.000 C 
BRANCH  18  19
ATOM     19  C   UNL     1       2.000   4.116  18.901  1.00  0.00    -0.003 C 
ATOM     20  C   UNL     1       2.504   4.641  20.242  1.00  0.00     0.004 C 
ENDBRANCH  18  19
ENDBRANCH  17  18
ENDBRANCH  16  17
ENDBRANCH  15  16
ENDBRANCH  14  15
ENDBRANCH  13  14
ENDBRANCH   2  13
TORSDOF 15
ENDMDL
MODEL 4
REMARK VINA RESULT:    -6.278      2.449      6.344
REMARK INTER + INTRA:         -13.802
REMARK INTER:                 -11.732
REMARK INTRA:                  -2.070
REMARK UNBOUND:                -2.019
REMARK SMILES CCCCCCCCC=CCCCCCCCC(=O)[O-]
REMARK SMILES IDX 10 1 9 2 11 3 12 4 13 5 14 6 15 7 16 8 17 9 18 10 19 11
REMARK SMILES IDX 20 12 8 13 7 14 6 15 5 16 4 17 3 18 2 19 1 20
REMARK H PARENT
REMARK Flexibility Score: inf
ROOT
ATOM      1  C   UNL     1       4.641   9.233  15.154  1.00  0.00    -0.031 C 
ATOM      2  C   UNL     1       4.279  10.154  14.242  1.00  0.00    -0.031 C 
ENDROOT
BRANCH   1   3
ATOM      3  C   UNL     1       4.283   9.290  16.618  1.00  0.00     0.027 C 
BRANCH   3   4
ATOM      4  C   UNL     1       3.159   8.303  16.966  1.00  0.00     0.004 C 
BRANCH   4   5
ATOM      5  C   UNL     1       2.488   8.640  18.305  1.00  0.00     0.000 C 
BRANCH   5   6
ATOM      6  C   UNL     1       1.192   9.431  18.090  1.00  0.00     0.000 C 
BRANCH   6   7
ATOM      7  C   UNL     1      -0.022   8.491  18.036  1.00  0.00     0.000 C 
BRANCH   7   8
ATOM      8  C   UNL     1       0.108   7.298  18.994  1.00  0.00     0.006 C 
BRANCH   8   9
ATOM      9  C   UNL     1       0.228   5.958  18.258  1.00  0.00     0.053 C 
BRANCH   9  10
ATOM     10  C   UNL     1       1.257   5.093  18.915  1.00  0.00     0.041 C 
ATOM     11  O   UNL     1       1.765   5.435  20.015  1.00  0.00    -0.550 OA
ATOM     12  O   UNL     1       1.622   3.883  18.336  1.00  0.00    -0.550 OA
ENDBRANCH   9  10
ENDBRANCH   8   9
ENDBRANCH   7   8
ENDBRANCH   6   7
ENDBRANCH   5   6
ENDBRANCH   4   5
ENDBRANCH   3   4
ENDBRANCH   1   3
BRANCH   2  13
ATOM     13  C   UNL     1       3.554  11.438  14.562  1.00  0.00     0.027 C 
BRANCH  13  14
ATOM     14  C   UNL     1       4.520  12.630  14.645  1.00  0.00     0.004 C 
BRANCH  14  15
ATOM     15  C   UNL     1       4.736  13.097  16.095  1.00  0.00     0.000 C 
BRANCH  15  16
ATOM     16  C   UNL     1       3.420  13.200  16.881  1.00  0.00     0.000 C 
BRANCH  16  17
ATOM     17  C   UNL     1       3.459  12.410  18.201  1.00  0.00    -0.000 C 
BRANCH  17  18
ATOM     18  C   UNL     1       4.889  12.044  18.627  1.00  0.00    -0.000 C 
BRANCH  18  19
ATOM     19  C   UNL     1       4.930  11.292  19.965  1.00  0.00    -0.003 C 
ATOM     20  C   UNL     1       6.339  11.293  20.553  1.00  0.00     0.004 C 
ENDBRANCH  18  19
ENDBRANCH  17  18
ENDBRANCH  16  17
ENDBRANCH  15  16
ENDBRANCH  14  15
ENDBRANCH  13  14
ENDBRANCH   2  13
TORSDOF 15
ENDMDL
MODEL 5
REMARK VINA RESULT:    -6.210      1.109      1.443
REMARK INTER + INTRA:         -13.675
REMARK INTER:                 -11.515
REMARK INTRA:                  -2.160
REMARK UNBOUND:                -2.019
REMARK SMILES CCCCCCCCC=CCCCCCCCC(=O)[O-]
REMARK SMILES IDX 10 1 9 2 11 3 12 4 13 5 14 6 15 7 16 8 17 9 18 10 19 11
REMARK SMILES IDX 20 12 8 13 7 14 6 15 5 16 4 17 3 18 2 19 1 20
REMARK H PARENT
REMARK Flexibility Score: inf
ROOT
ATOM      1  C   UNL     1       4.965  10.452  15.579  1.00  0.00    -0.031 C 
ATOM      2  C   UNL     1       4.695   9.533  16.525  1.00  0.00    -0.031 C 
ENDROOT
BRANCH   1   3
ATOM      3  C   UNL     1       4.026  10.834  14.462  1.00  0.00     0.027 C 
BRANCH   3   4
ATOM      4  C   UNL     1       3.303  12.158  14.755  1.00  0.00     0.004 C 
BRANCH   4   5
ATOM      5  C   UNL     1       4.105  13.053  15.711  1.00  0.00     0.000 C 
BRANCH   5   6
ATOM      6  C   UNL     1       3.240  13.516  16.889  1.00  0.00     0.000 C 
BRANCH   6   7
ATOM      7  C   UNL     1       3.028  12.376  17.897  1.00  0.00     0.000 C 
BRANCH   7   8
ATOM      8  C   UNL     1       3.799  12.593  19.208  1.00  0.00     0.006 C 
BRANCH   8   9
ATOM      9  C   UNL     1       4.487  11.316  19.707  1.00  0.00     0.053 C 
BRANCH   9  10
ATOM     10  C   UNL     1       5.973  11.443  19.585  1.00  0.00     0.041 C 
ATOM     11  O   UNL     1       6.490  11.830  18.504  1.00  0.00    -0.550 OA
ATOM     12  O   UNL     1       6.786  11.180  20.680  1.00  0.00    -0.550 OA
ENDBRANCH   9  10
ENDBRANCH   8   9
ENDBRANCH   7   8
ENDBRANCH   6   7
ENDBRANCH   5   6
ENDBRANCH   4   5
ENDBRANCH   3   4
ENDBRANCH   1   3
BRANCH   2  13
ATOM     13  C   UNL     1       3.461   8.667  16.550  1.00  0.00     0.027 C 
BRANCH  13  14
ATOM     14  C   UNL     1       2.888   8.536  17.970  1.00  0.00     0.004 C 
BRANCH  14  15
ATOM     15  C   UNL     1       1.459   9.099  18.069  1.00  0.00     0.000 C 
BRANCH  15  16
ATOM     16  C   UNL     1       0.404   7.995  18.245  1.00  0.00     0.000 C 
BRANCH  16  17
ATOM     17  C   UNL     1       0.938   6.791  19.039  1.00  0.00    -0.000 C 
BRANCH  17  18
ATOM     18  C   UNL     1       0.660   5.452  18.338  1.00  0.00    -0.000 C 
BRANCH  18  19
ATOM     19  C   UNL     1       1.412   4.281  18.987  1.00  0.00    -0.003 C 
ATOM     20  C   UNL     1       2.426   4.781  20.013  1.00  0.00     0.004 C 
ENDBRANCH  18  19
ENDBRANCH  17  18
ENDBRANCH  16  17
ENDBRANCH  15  16
ENDBRANCH  14  15
ENDBRANCH  13  14
ENDBRANCH   2  13
TORSDOF 15
ENDMDL
MODEL 6
REMARK VINA RESULT:    -6.134      2.666      6.075
REMARK INTER + INTRA:         -13.532
REMARK INTER:                 -11.139
REMARK INTRA:                  -2.393
REMARK UNBOUND:                -2.019
REMARK SMILES CCCCCCCCC=CCCCCCCCC(=O)[O-]
REMARK SMILES IDX 10 1 9 2 11 3 12 4 13 5 14 6 15 7 16 8 17 9 18 10 19 11
REMARK SMILES IDX 20 12 8 13 7 14 6 15 5 16 4 17 3 18 2 19 1 20
REMARK H PARENT
REMARK Flexibility Score: inf
ROOT
ATOM      1  C   UNL     1       6.122  11.479  18.014  1.00  0.00    -0.031 C 
ATOM      2  C   UNL     1       6.092  12.220  16.891  1.00  0.00    -0.031 C 
ENDROOT
BRANCH   1   3
ATOM      3  C   UNL     1       5.351  11.796  19.272  1.00  0.00     0.027 C 
BRANCH   3   4
ATOM      4  C   UNL     1       4.194  10.811  19.493  1.00  0.00     0.004 C 
BRANCH   4   5
ATOM      5  C   UNL     1       2.947  11.195  18.684  1.00  0.00     0.000 C 
BRANCH   5   6
ATOM      6  C   UNL     1       2.485  10.035  17.795  1.00  0.00     0.000 C 
BRANCH   6   7
ATOM      7  C   UNL     1       2.787   8.681  18.457  1.00  0.00     0.000 C 
BRANCH   7   8
ATOM      8  C   UNL     1       1.806   7.580  18.027  1.00  0.00     0.006 C 
BRANCH   8   9
ATOM      9  C   UNL     1       1.315   6.732  19.207  1.00  0.00     0.053 C 
BRANCH   9  10
ATOM     10  C   UNL     1       1.225   5.292  18.811  1.00  0.00     0.041 C 
ATOM     11  O   UNL     1       0.502   4.945  17.839  1.00  0.00    -0.550 OA
ATOM     12  O   UNL     1       1.975   4.336  19.485  1.00  0.00    -0.550 OA
ENDBRANCH   9  10
ENDBRANCH   8   9
ENDBRANCH   7   8
ENDBRANCH   6   7
ENDBRANCH   5   6
ENDBRANCH   4   5
ENDBRANCH   3   4
ENDBRANCH   1   3
BRANCH   2  13
ATOM     13  C   UNL     1       5.371  13.539  16.755  1.00  0.00     0.027 C 
BRANCH  13  14
ATOM     14  C   UNL     1       4.043  13.385  15.998  1.00  0.00     0.004 C 
BRANCH  14  15
ATOM     15  C   UNL     1       4.242  12.759  14.606  1.00  0.00     0.000 C 
BRANCH  15  16
ATOM     16  C   UNL     1       3.473  11.439  14.441  1.00  0.00     0.000 C 
BRANCH  16  17
ATOM     17  C   UNL     1       4.381  10.283  13.985  1.00  0.00    -0.000 C 
BRANCH  17  18
ATOM     18  C   UNL     1       4.840   9.398  15.155  1.00  0.00    -0.000 C 
BRANCH  18  19
ATOM     19  C   UNL     1       4.221   7.993  15.108  1.00  0.00    -0.003 C 
ATOM     20  C   UNL     1       4.121   7.485  13.672  1.00  0.00     0.004 C 
ENDBRANCH  18  19
ENDBRANCH  17  18
ENDBRANCH  16  17
ENDBRANCH  15  16
ENDBRANCH  14  15
ENDBRANCH  13  14
ENDBRANCH   2  13
TORSDOF 15
ENDMDL
MODEL 7
REMARK VINA RESULT:    -6.113      2.512      6.662
REMARK INTER + INTRA:         -13.492
REMARK INTER:                 -11.996
REMARK INTRA:                  -1.496
REMARK UNBOUND:                -2.019
REMARK SMILES CCCCCCCCC=CCCCCCCCC(=O)[O-]
REMARK SMILES IDX 10 1 9 2 11 3 12 4 13 5 14 6 15 7 16 8 17 9 18 10 19 11
REMARK SMILES IDX 20 12 8 13 7 14 6 15 5 16 4 17 3 18 2 19 1 20
REMARK H PARENT
REMARK Flexibility Score: inf
ROOT
ATOM      1  C   UNL     1       4.940  11.378  19.831  1.00  0.00    -0.031 C 
ATOM      2  C   UNL     1       6.141  11.515  19.238  1.00  0.00    -0.031 C 
ENDROOT
BRANCH   1   3
ATOM      3  C   UNL     1       3.633  11.216  19.094  1.00  0.00     0.027 C 
BRANCH   3   4
ATOM      4  C   UNL     1       3.488   9.808  18.499  1.00  0.00     0.004 C 
BRANCH   4   5
ATOM      5  C   UNL     1       2.071   9.550  17.966  1.00  0.00     0.000 C 
BRANCH   5   6
ATOM      6  C   UNL     1       1.719   8.060  18.032  1.00  0.00     0.000 C 
BRANCH   6   7
ATOM      7  C   UNL     1       0.236   7.860  18.378  1.00  0.00     0.000 C 
BRANCH   7   8
ATOM      8  C   UNL     1      -0.134   6.382  18.573  1.00  0.00     0.006 C 
BRANCH   8   9
ATOM      9  C   UNL     1       0.903   5.428  17.965  1.00  0.00     0.053 C 
BRANCH   9  10
ATOM     10  C   UNL     1       1.592   4.653  19.043  1.00  0.00     0.041 C 
ATOM     11  O   UNL     1       1.683   5.126  20.206  1.00  0.00    -0.550 OA
ATOM     12  O   UNL     1       2.094   3.384  18.776  1.00  0.00    -0.550 OA
ENDBRANCH   9  10
ENDBRANCH   8   9
ENDBRANCH   7   8
ENDBRANCH   6   7
ENDBRANCH   5   6
ENDBRANCH   4   5
ENDBRANCH   3   4
ENDBRANCH   1   3
BRANCH   2  13
ATOM     13  C   UNL     1       6.352  11.639  17.749  1.00  0.00     0.027 C 
BRANCH  13  14
ATOM     14  C   UNL     1       5.818  12.974  17.209  1.00  0.00     0.004 C 
BRANCH  14  15
ATOM     15  C   UNL     1       5.446  12.886  15.718  1.00  0.00     0.000 C 
BRANCH  15  16
ATOM     16  C   UNL     1       3.928  12.809  15.495  1.00  0.00     0.000 C 
BRANCH  16  17
ATOM     17  C   UNL     1       3.521  11.605  14.628  1.00  0.00    -0.000 C 
BRANCH  17  18
ATOM     18  C   UNL     1       4.317  10.336  14.970  1.00  0.00    -0.000 C 
BRANCH  18  19
ATOM     19  C   UNL     1       4.497   9.410  13.758  1.00  0.00    -0.003 C 
ATOM     20  C   UNL     1       4.694   7.962  14.199  1.00  0.00     0.004 C 
ENDBRANCH  18  19
ENDBRANCH  17  18
ENDBRANCH  16  17
ENDBRANCH  15  16
ENDBRANCH  14  15
ENDBRANCH  13  14
ENDBRANCH   2  13
TORSDOF 15
ENDMDL
MODEL 8
REMARK VINA RESULT:    -5.996      2.335      3.631
REMARK INTER + INTRA:         -13.273
REMARK INTER:                 -12.237
REMARK INTRA:                  -1.036
REMARK UNBOUND:                -2.019
REMARK SMILES CCCCCCCCC=CCCCCCCCC(=O)[O-]
REMARK SMILES IDX 10 1 9 2 11 3 12 4 13 5 14 6 15 7 16 8 17 9 18 10 19 11
REMARK SMILES IDX 20 12 8 13 7 14 6 15 5 16 4 17 3 18 2 19 1 20
REMARK H PARENT
REMARK Flexibility Score: inf
ROOT
ATOM      1  C   UNL     1       4.052  10.009  18.035  1.00  0.00    -0.031 C 
ATOM      2  C   UNL     1       3.385   8.923  17.600  1.00  0.00    -0.031 C 
ENDROOT
BRANCH   1   3
ATOM      3  C   UNL     1       3.745  10.748  19.314  1.00  0.00     0.027 C 
BRANCH   3   4
ATOM      4  C   UNL     1       5.025  11.096  20.089  1.00  0.00     0.004 C 
BRANCH   4   5
ATOM      5  C   UNL     1       6.167  11.522  19.156  1.00  0.00     0.000 C 
BRANCH   5   6
ATOM      6  C   UNL     1       5.733  12.674  18.242  1.00  0.00     0.000 C 
BRANCH   6   7
ATOM      7  C   UNL     1       6.206  12.440  16.799  1.00  0.00     0.000 C 
BRANCH   7   8
ATOM      8  C   UNL     1       5.352  13.190  15.767  1.00  0.00     0.006 C 
BRANCH   8   9
ATOM      9  C   UNL     1       3.853  12.899  15.916  1.00  0.00     0.053 C 
BRANCH   9  10
ATOM     10  C   UNL     1       3.391  11.976  14.834  1.00  0.00     0.041 C 
ATOM     11  O   UNL     1       2.360  12.249  14.163  1.00  0.00    -0.550 OA
ATOM     12  O   UNL     1       4.125  10.835  14.531  1.00  0.00    -0.550 OA
ENDBRANCH   9  10
ENDBRANCH   8   9
ENDBRANCH   7   8
ENDBRANCH   6   7
ENDBRANCH   5   6
ENDBRANCH   4   5
ENDBRANCH   3   4
ENDBRANCH   1   3
BRANCH   2  13
ATOM     13  C   UNL     1       2.161   8.346  18.267  1.00  0.00     0.027 C 
BRANCH  13  14
ATOM     14  C   UNL     1       0.913   9.200  18.000  1.00  0.00     0.004 C 
BRANCH  14  15
ATOM     15  C   UNL     1      -0.385   8.383  18.137  1.00  0.00     0.000 C 
BRANCH  15  16
ATOM     16  C   UNL     1      -0.141   6.991  18.739  1.00  0.00     0.000 C 
BRANCH  16  17
ATOM     17  C   UNL     1       0.045   5.908  17.661  1.00  0.00    -0.000 C 
BRANCH  17  18
ATOM     18  C   UNL     1       0.941   4.753  18.134  1.00  0.00    -0.000 C 
BRANCH  18  19
ATOM     19  C   UNL     1       1.252   4.827  19.637  1.00  0.00    -0.003 C 
ATOM     20  C   UNL     1       2.674   4.355  19.927  1.00  0.00     0.004 C 
ENDBRANCH  18  19
ENDBRANCH  17  18
ENDBRANCH  16  17
ENDBRANCH  15  16
ENDBRANCH  14  15
ENDBRANCH  13  14
ENDBRANCH   2  13
TORSDOF 15
ENDMDL
MODEL 9
REMARK VINA RESULT:    -5.817      2.488      7.167
REMARK INTER + INTRA:         -12.936
REMARK INTER:                 -10.957
REMARK INTRA:                  -1.979
REMARK UNBOUND:                -2.019
REMARK SMILES CCCCCCCCC=CCCCCCCCC(=O)[O-]
REMARK SMILES IDX 10 1 9 2 11 3 12 4 13 5 14 6 15 7 16 8 17 9 18 10 19 11
REMARK SMILES IDX 20 12 8 13 7 14 6 15 5 16 4 17 3 18 2 19 1 20
REMARK H PARENT
REMARK Flexibility Score: inf
ROOT
ATOM      1  C   UNL     1       2.876  10.645  17.961  1.00  0.00    -0.031 C 
ATOM      2  C   UNL     1       3.337  11.401  18.974  1.00  0.00    -0.031 C 
ENDROOT
BRANCH   1   3
ATOM      3  C   UNL     1       3.306   9.226  17.685  1.00  0.00     0.027 C 
BRANCH   3   4
ATOM      4  C   UNL     1       2.223   8.215  18.090  1.00  0.00     0.004 C 
BRANCH   4   5
ATOM      5  C   UNL     1       0.831   8.857  18.161  1.00  0.00     0.000 C 
BRANCH   5   6
ATOM      6  C   UNL     1      -0.221   7.845  18.627  1.00  0.00     0.000 C 
BRANCH   6   7
ATOM      7  C   UNL     1      -0.250   6.617  17.703  1.00  0.00     0.000 C 
BRANCH   7   8
ATOM      8  C   UNL     1      -0.181   5.292  18.477  1.00  0.00     0.006 C 
BRANCH   8   9
ATOM      9  C   UNL     1       1.151   4.558  18.276  1.00  0.00     0.053 C 
BRANCH   9  10
ATOM     10  C   UNL     1       1.992   4.658  19.509  1.00  0.00     0.041 C 
ATOM     11  O   UNL     1       1.715   5.505  20.399  1.00  0.00    -0.550 OA
ATOM     12  O   UNL     1       3.055   3.784  19.699  1.00  0.00    -0.550 OA
ENDBRANCH   9  10
ENDBRANCH   8   9
ENDBRANCH   7   8
ENDBRANCH   6   7
ENDBRANCH   5   6
ENDBRANCH   4   5
ENDBRANCH   3   4
ENDBRANCH   1   3
BRANCH   2  13
ATOM     13  C   UNL     1       4.434  10.986  19.922  1.00  0.00     0.027 C 
BRANCH  13  14
ATOM     14  C   UNL     1       5.811  11.473  19.445  1.00  0.00     0.004 C 
BRANCH  14  15
ATOM     15  C   UNL     1       5.696  12.495  18.300  1.00  0.00     0.000 C 
BRANCH  15  16
ATOM     16  C   UNL     1       6.228  11.946  16.967  1.00  0.00     0.000 C 
BRANCH  16  17
ATOM     17  C   UNL     1       5.461  12.500  15.754  1.00  0.00    -0.000 C 
BRANCH  17  18
ATOM     18  C   UNL     1       4.367  13.502  16.156  1.00  0.00    -0.000 C 
BRANCH  18  19
ATOM     19  C   UNL     1       3.074  13.316  15.348  1.00  0.00    -0.003 C 
ATOM     20  C   UNL     1       3.145  12.063  14.480  1.00  0.00     0.004 C 
ENDBRANCH  18  19
ENDBRANCH  17  18
ENDBRANCH  16  17
ENDBRANCH  15  16
ENDBRANCH  14  15
ENDBRANCH  13  14
ENDBRANCH   2  13
TORSDOF 15
ENDMDL
