MODEL 1
REMARK VINA RESULT:    -4.533      0.000      0.000
REMARK INTER + INTRA:          -7.097
REMARK INTER:                  -6.653
REMARK INTRA:                  -0.444
REMARK UNBOUND:                -0.444
REMARK SMILES O=C([O-])CCCCCCCC(=O)[O-]
REMARK SMILES IDX 7 1 6 2 5 3 4 4 2 5 1 6 3 7 8 8 9 9 10 10 11 11 12 12 13 13
REMARK H PARENT
REMARK Flexibility Score: inf
ROOT
ATOM      1  C   UNL     1      16.423 -12.782  22.428  1.00  0.00     0.000 C 
ENDROOT
BRANCH   1   2
ATOM      2  C   UNL     1      14.955 -12.750  21.959  1.00  0.00     0.000 C 
BRANCH   2   3
ATOM      3  C   UNL     1      13.977 -12.056  22.924  1.00  0.00     0.006 C 
BRANCH   3   4
ATOM      4  C   UNL     1      13.260 -10.859  22.287  1.00  0.00     0.053 C 
BRANCH   4   5
ATOM      5  C   UNL     1      14.202  -9.708  22.131  1.00  0.00     0.041 C 
ATOM      6  O   UNL     1      14.293  -9.107  21.029  1.00  0.00    -0.550 OA
ATOM      7  O   UNL     1      15.020  -9.329  23.190  1.00  0.00    -0.550 OA
ENDBRANCH   4   5
ENDBRANCH   3   4
ENDBRANCH   2   3
ENDBRANCH   1   2
BRANCH   1   8
ATOM      8  C   UNL     1      17.350 -11.764  21.741  1.00  0.00     0.000 C 
BRANCH   8   9
ATOM      9  C   UNL     1      18.601 -12.413  21.130  1.00  0.00     0.006 C 
BRANCH   9  10
ATOM     10  C   UNL     1      19.456 -13.080  22.212  1.00  0.00     0.053 C 
BRANCH  10  11
ATOM     11  C   UNL     1      20.911 -12.917  21.905  1.00  0.00     0.041 C 
ATOM     12  O   UNL     1      21.279 -12.548  20.759  1.00  0.00    -0.550 OA
ATOM     13  O   UNL     1      21.859 -13.124  22.899  1.00  0.00    -0.550 OA
ENDBRANCH  10  11
ENDBRANCH   9  10
ENDBRANCH   8   9
ENDBRANCH   1   8
TORSDOF 8
ENDMDL
MODEL 2
REMARK VINA RESULT:    -4.462      1.340      2.109
REMARK INTER + INTRA:          -6.992
REMARK INTER:                  -6.681
REMARK INTRA:                  -0.311
REMARK UNBOUND:                -0.444
REMARK SMILES O=C([O-])CCCCCCCC(=O)[O-]
REMARK SMILES IDX 7 1 6 2 5 3 4 4 2 5 1 6 3 7 8 8 9 9 10 10 11 11 12 12 13 13
REMARK H PARENT
REMARK Flexibility Score: inf
ROOT
ATOM      1  C   UNL     1      14.178 -12.379  22.227  1.00  0.00     0.000 C 
ENDROOT
BRANCH   1   2
ATOM      2  C   UNL     1      14.247 -11.307  21.120  1.00  0.00     0.000 C 
BRANCH   2   3
ATOM      3  C   UNL     1      13.235 -10.156  21.264  1.00  0.00     0.006 C 
BRANCH   3   4
ATOM      4  C   UNL     1      13.908  -8.796  21.488  1.00  0.00     0.053 C 
BRANCH   4   5
ATOM      5  C   UNL     1      15.101  -8.944  22.378  1.00  0.00     0.041 C 
ATOM      6  O   UNL     1      14.965  -9.363  23.557  1.00  0.00    -0.550 OA
ATOM      7  O   UNL     1      16.360  -8.572  21.921  1.00  0.00    -0.550 OA
ENDBRANCH   4   5
ENDBRANCH   3   4
ENDBRANCH   2   3
ENDBRANCH   1   2
BRANCH   1   8
ATOM      8  C   UNL     1      15.515 -13.071  22.549  1.00  0.00     0.000 C 
BRANCH   8   9
ATOM      9  C   UNL     1      16.720 -12.366  21.909  1.00  0.00     0.006 C 
BRANCH   9  10
ATOM     10  C   UNL     1      18.029 -13.064  22.291  1.00  0.00     0.053 C 
BRANCH  10  11
ATOM     11  C   UNL     1      19.148 -12.596  21.415  1.00  0.00     0.041 C 
ATOM     12  O   UNL     1      18.899 -12.001  20.333  1.00  0.00    -0.550 OA
ATOM     13  O   UNL     1      20.466 -12.773  21.816  1.00  0.00    -0.550 OA
ENDBRANCH  10  11
ENDBRANCH   9  10
ENDBRANCH   8   9
ENDBRANCH   1   8
TORSDOF 8
ENDMDL
MODEL 3
REMARK VINA RESULT:    -4.426      1.583      5.703
REMARK INTER + INTRA:          -6.940
REMARK INTER:                  -6.340
REMARK INTRA:                  -0.599
REMARK UNBOUND:                -0.444
REMARK SMILES O=C([O-])CCCCCCCC(=O)[O-]
REMARK SMILES IDX 7 1 6 2 5 3 4 4 2 5 1 6 3 7 8 8 9 9 10 10 11 11 12 12 13 13
REMARK H PARENT
REMARK Flexibility Score: inf
ROOT
ATOM      1  C   UNL     1      14.171 -12.357  22.364  1.00  0.00     0.000 C 
ENDROOT
BRANCH   1   2
ATOM      2  C   UNL     1      15.085 -12.579  23.586  1.00  0.00     0.000 C 
BRANCH   2   3
ATOM      3  C   UNL     1      16.585 -12.710  23.264  1.00  0.00     0.006 C 
BRANCH   3   4
ATOM      4  C   UNL     1      16.966 -12.061  21.928  1.00  0.00     0.053 C 
BRANCH   4   5
ATOM      5  C   UNL     1      18.359 -12.444  21.540  1.00  0.00     0.041 C 
ATOM      6  O   UNL     1      19.074 -13.119  22.327  1.00  0.00    -0.550 OA
ATOM      7  O   UNL     1      18.888 -12.013  20.329  1.00  0.00    -0.550 OA
ENDBRANCH   4   5
ENDBRANCH   3   4
ENDBRANCH   2   3
ENDBRANCH   1   2
BRANCH   1   8
ATOM      8  C   UNL     1      13.181 -11.186  22.495  1.00  0.00     0.000 C 
BRANCH   8   9
ATOM      9  C   UNL     1      12.945 -10.453  21.166  1.00  0.00     0.006 C 
BRANCH   9  10
ATOM     10  C   UNL     1      14.224  -9.759  20.689  1.00  0.00     0.053 C 
BRANCH  10  11
ATOM     11  C   UNL     1      14.532  -8.577  21.553  1.00  0.00     0.041 C 
ATOM     12  O   UNL     1      13.693  -7.646  21.675  1.00  0.00    -0.550 OA
ATOM     13  O   UNL     1      15.725  -8.526  22.263  1.00  0.00    -0.550 OA
ENDBRANCH  10  11
ENDBRANCH   9  10
ENDBRANCH   8   9
ENDBRANCH   1   8
TORSDOF 8
ENDMDL
MODEL 4
REMARK VINA RESULT:    -3.851     15.472     16.382
REMARK INTER + INTRA:          -6.095
REMARK INTER:                  -5.841
REMARK INTRA:                  -0.255
REMARK UNBOUND:                -0.444
REMARK SMILES O=C([O-])CCCCCCCC(=O)[O-]
REMARK SMILES IDX 7 1 6 2 5 3 4 4 2 5 1 6 3 7 8 8 9 9 10 10 11 11 12 12 13 13
REMARK H PARENT
REMARK Flexibility Score: inf
ROOT
ATOM      1  C   UNL     1      14.411  -8.211  38.686  1.00  0.00     0.000 C 
ENDROOT
BRANCH   1   2
ATOM      2  C   UNL     1      13.035  -7.517  38.738  1.00  0.00     0.000 C 
BRANCH   2   3
ATOM      3  C   UNL     1      13.080  -5.992  38.942  1.00  0.00     0.006 C 
BRANCH   3   4
ATOM      4  C   UNL     1      11.862  -5.275  38.347  1.00  0.00     0.053 C 
BRANCH   4   5
ATOM      5  C   UNL     1      12.163  -4.798  36.961  1.00  0.00     0.041 C 
ATOM      6  O   UNL     1      11.432  -5.147  35.997  1.00  0.00    -0.550 OA
ATOM      7  O   UNL     1      13.280  -4.007  36.725  1.00  0.00    -0.550 OA
ENDBRANCH   4   5
ENDBRANCH   3   4
ENDBRANCH   2   3
ENDBRANCH   1   2
BRANCH   1   8
ATOM      8  C   UNL     1      14.365  -9.748  38.636  1.00  0.00     0.000 C 
BRANCH   8   9
ATOM      9  C   UNL     1      15.741 -10.378  38.373  1.00  0.00     0.006 C 
BRANCH   9  10
ATOM     10  C   UNL     1      16.652  -9.407  37.616  1.00  0.00     0.053 C 
BRANCH  10  11
ATOM     11  C   UNL     1      17.800 -10.140  36.997  1.00  0.00     0.041 C 
ATOM     12  O   UNL     1      17.603 -10.934  36.039  1.00  0.00    -0.550 OA
ATOM     13  O   UNL     1      19.095  -9.908  37.443  1.00  0.00    -0.550 OA
ENDBRANCH  10  11
ENDBRANCH   9  10
ENDBRANCH   8   9
ENDBRANCH   1   8
TORSDOF 8
ENDMDL
MODEL 5
REMARK VINA RESULT:    -3.779     16.151     17.076
REMARK INTER + INTRA:          -5.990
REMARK INTER:                  -5.594
REMARK INTRA:                  -0.395
REMARK UNBOUND:                -0.444
REMARK SMILES O=C([O-])CCCCCCCC(=O)[O-]
REMARK SMILES IDX 7 1 6 2 5 3 4 4 2 5 1 6 3 7 8 8 9 9 10 10 11 11 12 12 13 13
REMARK H PARENT
REMARK Flexibility Score: inf
ROOT
ATOM      1  C   UNL     1      13.803  -6.520  39.013  1.00  0.00     0.000 C 
ENDROOT
BRANCH   1   2
ATOM      2  C   UNL     1      13.175  -5.375  38.194  1.00  0.00     0.000 C 
BRANCH   2   3
ATOM      3  C   UNL     1      11.832  -5.713  37.522  1.00  0.00     0.006 C 
BRANCH   3   4
ATOM      4  C   UNL     1      11.551  -4.851  36.285  1.00  0.00     0.053 C 
BRANCH   4   5
ATOM      5  C   UNL     1      11.611  -3.398  36.637  1.00  0.00     0.041 C 
ATOM      6  O   UNL     1      10.760  -2.899  37.419  1.00  0.00    -0.550 OA
ATOM      7  O   UNL     1      12.577  -2.581  36.060  1.00  0.00    -0.550 OA
ENDBRANCH   4   5
ENDBRANCH   3   4
ENDBRANCH   2   3
ENDBRANCH   1   2
BRANCH   1   8
ATOM      8  C   UNL     1      13.107  -7.885  38.867  1.00  0.00     0.000 C 
BRANCH   8   9
ATOM      9  C   UNL     1      14.100  -9.048  38.722  1.00  0.00     0.006 C 
BRANCH   9  10
ATOM     10  C   UNL     1      15.505  -8.532  38.401  1.00  0.00     0.053 C 
BRANCH  10  11
ATOM     11  C   UNL     1      16.461  -9.673  38.250  1.00  0.00     0.041 C 
ATOM     12  O   UNL     1      16.511 -10.577  39.125  1.00  0.00    -0.550 OA
ATOM     13  O   UNL     1      17.262  -9.765  37.118  1.00  0.00    -0.550 OA
ENDBRANCH  10  11
ENDBRANCH   9  10
ENDBRANCH   8   9
ENDBRANCH   1   8
TORSDOF 8
ENDMDL
MODEL 6
REMARK VINA RESULT:    -3.728     16.033     17.360
REMARK INTER + INTRA:          -5.916
REMARK INTER:                  -5.222
REMARK INTRA:                  -0.694
REMARK UNBOUND:                -0.444
REMARK SMILES O=C([O-])CCCCCCCC(=O)[O-]
REMARK SMILES IDX 7 1 6 2 5 3 4 4 2 5 1 6 3 7 8 8 9 9 10 10 11 11 12 12 13 13
REMARK H PARENT
REMARK Flexibility Score: inf
ROOT
ATOM      1  C   UNL     1       9.348  -5.770  33.911  1.00  0.00     0.000 C 
ENDROOT
BRANCH   1   2
ATOM      2  C   UNL     1       8.550  -4.466  34.114  1.00  0.00     0.000 C 
BRANCH   2   3
ATOM      3  C   UNL     1       7.446  -4.536  35.184  1.00  0.00     0.006 C 
BRANCH   3   4
ATOM      4  C   UNL     1       7.478  -3.346  36.151  1.00  0.00     0.053 C 
BRANCH   4   5
ATOM      5  C   UNL     1       8.480  -3.582  37.236  1.00  0.00     0.041 C 
ATOM      6  O   UNL     1       9.242  -2.651  37.610  1.00  0.00    -0.550 OA
ATOM      7  O   UNL     1       8.610  -4.845  37.802  1.00  0.00    -0.550 OA
ENDBRANCH   4   5
ENDBRANCH   3   4
ENDBRANCH   2   3
ENDBRANCH   1   2
BRANCH   1   8
ATOM      8  C   UNL     1      10.475  -6.011  34.931  1.00  0.00     0.000 C 
BRANCH   8   9
ATOM      9  C   UNL     1      11.538  -4.903  34.918  1.00  0.00     0.006 C 
BRANCH   9  10
ATOM     10  C   UNL     1      11.958  -4.531  36.343  1.00  0.00     0.053 C 
BRANCH  10  11
ATOM     11  C   UNL     1      13.029  -3.486  36.318  1.00  0.00     0.041 C 
ATOM     12  O   UNL     1      12.748  -2.299  36.006  1.00  0.00    -0.550 OA
ATOM     13  O   UNL     1      14.327  -3.811  36.688  1.00  0.00    -0.550 OA
ENDBRANCH  10  11
ENDBRANCH   9  10
ENDBRANCH   8   9
ENDBRANCH   1   8
TORSDOF 8
ENDMDL
MODEL 7
REMARK VINA RESULT:    -3.668     14.870     16.032
REMARK INTER + INTRA:          -5.827
REMARK INTER:                  -5.107
REMARK INTRA:                  -0.720
REMARK UNBOUND:                -0.444
REMARK SMILES O=C([O-])CCCCCCCC(=O)[O-]
REMARK SMILES IDX 7 1 6 2 5 3 4 4 2 5 1 6 3 7 8 8 9 9 10 10 11 11 12 12 13 13
REMARK H PARENT
REMARK Flexibility Score: inf
ROOT
ATOM      1  C   UNL     1       8.875  -5.763  32.993  1.00  0.00     0.000 C 
ENDROOT
BRANCH   1   2
ATOM      2  C   UNL     1       8.678  -4.552  33.927  1.00  0.00     0.000 C 
BRANCH   2   3
ATOM      3  C   UNL     1       9.704  -4.435  35.069  1.00  0.00     0.006 C 
BRANCH   3   4
ATOM      4  C   UNL     1      11.145  -4.298  34.562  1.00  0.00     0.053 C 
BRANCH   4   5
ATOM      5  C   UNL     1      12.029  -3.757  35.642  1.00  0.00     0.041 C 
ATOM      6  O   UNL     1      11.528  -3.317  36.710  1.00  0.00    -0.550 OA
ATOM      7  O   UNL     1      13.403  -3.692  35.448  1.00  0.00    -0.550 OA
ENDBRANCH   4   5
ENDBRANCH   3   4
ENDBRANCH   2   3
ENDBRANCH   1   2
BRANCH   1   8
ATOM      8  C   UNL     1       8.383  -7.108  33.555  1.00  0.00     0.000 C 
BRANCH   8   9
ATOM      9  C   UNL     1       9.356  -8.263  33.275  1.00  0.00     0.006 C 
BRANCH   9  10
ATOM     10  C   UNL     1      10.672  -8.067  34.033  1.00  0.00     0.053 C 
BRANCH  10  11
ATOM     11  C   UNL     1      10.465  -8.265  35.502  1.00  0.00     0.041 C 
ATOM     12  O   UNL     1      10.924  -7.430  36.325  1.00  0.00    -0.550 OA
ATOM     13  O   UNL     1       9.722  -9.346  35.960  1.00  0.00    -0.550 OA
ENDBRANCH  10  11
ENDBRANCH   9  10
ENDBRANCH   8   9
ENDBRANCH   1   8
TORSDOF 8
ENDMDL
