MODEL 1
REMARK VINA RESULT:    -1.489      0.000      0.000
REMARK INTER + INTRA:          -5.025
REMARK INTER:                  -2.751
REMARK INTRA:                  -2.274
REMARK UNBOUND:                -2.274
REMARK SMILES CCCCCCCCCCCCCCCCO
REMARK SMILES IDX 9 1 8 2 7 3 6 4 5 5 4 6 3 7 2 8 1 9 10 10 11 11 12 12 13 13
REMARK SMILES IDX 14 14 15 15 16 16 17 17
REMARK H PARENT 17 18
REMARK Flexibility Score: inf
ROOT
ATOM      1  C   UNL     1     176.091 179.128 197.587  1.00  0.00     0.000 C 
ENDROOT
BRANCH   1   2
ATOM      2  C   UNL     1     175.811 178.358 198.887  1.00  0.00    -0.000 C 
BRANCH   2   3
ATOM      3  C   UNL     1     174.746 177.263 198.712  1.00  0.00    -0.000 C 
BRANCH   3   4
ATOM      4  C   UNL     1     173.792 177.160 199.914  1.00  0.00    -0.000 C 
BRANCH   4   5
ATOM      5  C   UNL     1     172.329 177.518 199.574  1.00  0.00    -0.000 C 
BRANCH   5   6
ATOM      6  C   UNL     1     171.929 178.902 200.110  1.00  0.00    -0.000 C 
BRANCH   6   7
ATOM      7  C   UNL     1     172.035 179.969 199.011  1.00  0.00    -0.000 C 
BRANCH   7   8
ATOM      8  C   UNL     1     173.170 180.971 199.269  1.00  0.00    -0.003 C 
ATOM      9  C   UNL     1     173.486 181.834 198.046  1.00  0.00     0.004 C 
ENDBRANCH   7   8
ENDBRANCH   6   7
ENDBRANCH   5   6
ENDBRANCH   4   5
ENDBRANCH   3   4
ENDBRANCH   2   3
ENDBRANCH   1   2
BRANCH   1  10
ATOM     10  C   UNL     1     176.421 178.195 196.408  1.00  0.00     0.000 C 
BRANCH  10  11
ATOM     11  C   UNL     1     175.507 178.422 195.191  1.00  0.00     0.000 C 
BRANCH  11  12
ATOM     12  C   UNL     1     174.298 179.343 195.440  1.00  0.00     0.000 C 
BRANCH  12  13
ATOM     13  C   UNL     1     173.015 178.571 195.779  1.00  0.00     0.000 C 
BRANCH  13  14
ATOM     14  C   UNL     1     173.078 177.136 195.235  1.00  0.00     0.002 C 
BRANCH  14  15
ATOM     15  C   UNL     1     172.059 176.883 194.113  1.00  0.00     0.028 C 
BRANCH  15  16
ATOM     16  C   UNL     1     172.302 177.763 192.881  1.00  0.00     0.156 C 
BRANCH  16  17
ATOM     17  O   UNL     1     171.155 178.516 192.593  1.00  0.00    -0.396 OA
ATOM     18  H   UNL     1     171.435 179.469 192.584  1.00  0.00     0.210 HD
ENDBRANCH  16  17
ENDBRANCH  15  16
ENDBRANCH  14  15
ENDBRANCH  13  14
ENDBRANCH  12  13
ENDBRANCH  11  12
ENDBRANCH  10  11
ENDBRANCH   1  10
TORSDOF 15
ENDMDL
MODEL 2
REMARK VINA RESULT:    -1.454      1.329      2.896
REMARK INTER + INTRA:          -4.960
REMARK INTER:                  -2.570
REMARK INTRA:                  -2.390
REMARK UNBOUND:                -2.274
REMARK SMILES CCCCCCCCCCCCCCCCO
REMARK SMILES IDX 9 1 8 2 7 3 6 4 5 5 4 6 3 7 2 8 1 9 10 10 11 11 12 12 13 13
REMARK SMILES IDX 14 14 15 15 16 16 17 17
REMARK H PARENT 17 18
REMARK Flexibility Score: inf
ROOT
ATOM      1  C   UNL     1     175.524 181.297 198.678  1.00  0.00     0.000 C 
ENDROOT
BRANCH   1   2
ATOM      2  C   UNL     1     174.757 181.668 199.957  1.00  0.00    -0.000 C 
BRANCH   2   3
ATOM      3  C   UNL     1     173.260 181.909 199.704  1.00  0.00    -0.000 C 
BRANCH   3   4
ATOM      4  C   UNL     1     172.357 180.985 200.540  1.00  0.00    -0.000 C 
BRANCH   4   5
ATOM      5  C   UNL     1     171.509 180.015 199.689  1.00  0.00    -0.000 C 
BRANCH   5   6
ATOM      6  C   UNL     1     171.810 178.543 200.010  1.00  0.00    -0.000 C 
BRANCH   6   7
ATOM      7  C   UNL     1     173.148 178.403 200.749  1.00  0.00    -0.000 C 
BRANCH   7   8
ATOM      8  C   UNL     1     173.971 177.201 200.260  1.00  0.00    -0.003 C 
ATOM      9  C   UNL     1     175.405 177.578 199.889  1.00  0.00     0.004 C 
ENDBRANCH   7   8
ENDBRANCH   6   7
ENDBRANCH   5   6
ENDBRANCH   4   5
ENDBRANCH   3   4
ENDBRANCH   2   3
ENDBRANCH   1   2
BRANCH   1  10
ATOM     10  C   UNL     1     174.589 181.048 197.481  1.00  0.00     0.000 C 
BRANCH  10  11
ATOM     11  C   UNL     1     174.604 179.585 197.003  1.00  0.00     0.000 C 
BRANCH  11  12
ATOM     12  C   UNL     1     173.241 179.030 196.551  1.00  0.00     0.000 C 
BRANCH  12  13
ATOM     13  C   UNL     1     173.159 177.499 196.631  1.00  0.00     0.000 C 
BRANCH  13  14
ATOM     14  C   UNL     1     172.597 176.910 195.328  1.00  0.00     0.002 C 
BRANCH  14  15
ATOM     15  C   UNL     1     173.575 177.037 194.150  1.00  0.00     0.028 C 
BRANCH  15  16
ATOM     16  C   UNL     1     172.952 177.734 192.934  1.00  0.00     0.156 C 
BRANCH  16  17
ATOM     17  O   UNL     1     171.797 178.430 193.317  1.00  0.00    -0.396 OA
ATOM     18  H   UNL     1     172.075 179.083 194.012  1.00  0.00     0.210 HD
ENDBRANCH  16  17
ENDBRANCH  15  16
ENDBRANCH  14  15
ENDBRANCH  13  14
ENDBRANCH  12  13
ENDBRANCH  11  12
ENDBRANCH  10  11
ENDBRANCH   1  10
TORSDOF 15
ENDMDL
MODEL 3
REMARK VINA RESULT:    -1.426      1.408      2.296
REMARK INTER + INTRA:          -4.908
REMARK INTER:                  -2.889
REMARK INTRA:                  -2.019
REMARK UNBOUND:                -2.274
REMARK SMILES CCCCCCCCCCCCCCCCO
REMARK SMILES IDX 9 1 8 2 7 3 6 4 5 5 4 6 3 7 2 8 1 9 10 10 11 11 12 12 13 13
REMARK SMILES IDX 14 14 15 15 16 16 17 17
REMARK H PARENT 17 18
REMARK Flexibility Score: inf
ROOT
ATOM      1  C   UNL     1     175.948 180.410 198.368  1.00  0.00     0.000 C 
ENDROOT
BRANCH   1   2
ATOM      2  C   UNL     1     175.967 179.228 197.386  1.00  0.00    -0.000 C 
BRANCH   2   3
ATOM      3  C   UNL     1     175.541 177.904 198.040  1.00  0.00    -0.000 C 
BRANCH   3   4
ATOM      4  C   UNL     1     174.397 177.205 197.285  1.00  0.00    -0.000 C 
BRANCH   4   5
ATOM      5  C   UNL     1     173.031 177.315 197.995  1.00  0.00    -0.000 C 
BRANCH   5   6
ATOM      6  C   UNL     1     173.176 177.576 199.502  1.00  0.00    -0.000 C 
BRANCH   6   7
ATOM      7  C   UNL     1     172.076 178.521 200.005  1.00  0.00    -0.000 C 
BRANCH   7   8
ATOM      8  C   UNL     1     172.085 179.877 199.284  1.00  0.00    -0.003 C 
ATOM      9  C   UNL     1     171.134 180.891 199.919  1.00  0.00     0.004 C 
ENDBRANCH   7   8
ENDBRANCH   6   7
ENDBRANCH   5   6
ENDBRANCH   4   5
ENDBRANCH   3   4
ENDBRANCH   2   3
ENDBRANCH   1   2
BRANCH   1  10
ATOM     10  C   UNL     1     174.943 181.502 197.957  1.00  0.00     0.000 C 
BRANCH  10  11
ATOM     11  C   UNL     1     174.562 181.435 196.467  1.00  0.00     0.000 C 
BRANCH  11  12
ATOM     12  C   UNL     1     173.053 181.522 196.172  1.00  0.00     0.000 C 
BRANCH  12  13
ATOM     13  C   UNL     1     172.661 180.854 194.847  1.00  0.00     0.000 C 
BRANCH  13  14
ATOM     14  C   UNL     1     173.096 179.381 194.825  1.00  0.00     0.002 C 
BRANCH  14  15
ATOM     15  C   UNL     1     172.840 178.708 193.467  1.00  0.00     0.028 C 
BRANCH  15  16
ATOM     16  C   UNL     1     172.424 177.237 193.603  1.00  0.00     0.156 C 
BRANCH  16  17
ATOM     17  O   UNL     1     171.026 177.129 193.583  1.00  0.00    -0.396 OA
ATOM     18  H   UNL     1     170.815 176.237 193.201  1.00  0.00     0.210 HD
ENDBRANCH  16  17
ENDBRANCH  15  16
ENDBRANCH  14  15
ENDBRANCH  13  14
ENDBRANCH  12  13
ENDBRANCH  11  12
ENDBRANCH  10  11
ENDBRANCH   1  10
TORSDOF 15
ENDMDL
MODEL 4
REMARK VINA RESULT:    -1.389      1.263      4.622
REMARK INTER + INTRA:          -4.840
REMARK INTER:                  -2.638
REMARK INTRA:                  -2.203
REMARK UNBOUND:                -2.274
REMARK SMILES CCCCCCCCCCCCCCCCO
REMARK SMILES IDX 9 1 8 2 7 3 6 4 5 5 4 6 3 7 2 8 1 9 10 10 11 11 12 12 13 13
REMARK SMILES IDX 14 14 15 15 16 16 17 17
REMARK H PARENT 17 18
REMARK Flexibility Score: inf
ROOT
ATOM      1  C   UNL     1     171.499 179.983 199.653  1.00  0.00     0.000 C 
ENDROOT
BRANCH   1   2
ATOM      2  C   UNL     1     172.408 181.222 199.642  1.00  0.00    -0.000 C 
BRANCH   2   3
ATOM      3  C   UNL     1     173.256 181.326 198.363  1.00  0.00    -0.000 C 
BRANCH   3   4
ATOM      4  C   UNL     1     174.655 180.708 198.522  1.00  0.00    -0.000 C 
BRANCH   4   5
ATOM      5  C   UNL     1     175.362 180.425 197.179  1.00  0.00    -0.000 C 
BRANCH   5   6
ATOM      6  C   UNL     1     176.862 180.149 197.357  1.00  0.00    -0.000 C 
BRANCH   6   7
ATOM      7  C   UNL     1     177.093 178.860 198.159  1.00  0.00    -0.000 C 
BRANCH   7   8
ATOM      8  C   UNL     1     177.772 177.760 197.329  1.00  0.00    -0.003 C 
ATOM      9  C   UNL     1     176.958 177.363 196.097  1.00  0.00     0.004 C 
ENDBRANCH   7   8
ENDBRANCH   6   7
ENDBRANCH   5   6
ENDBRANCH   4   5
ENDBRANCH   3   4
ENDBRANCH   2   3
ENDBRANCH   1   2
BRANCH   1  10
ATOM     10  C   UNL     1     171.930 178.944 200.704  1.00  0.00     0.000 C 
BRANCH  10  11
ATOM     11  C   UNL     1     172.253 177.570 200.091  1.00  0.00     0.000 C 
BRANCH  11  12
ATOM     12  C   UNL     1     173.744 177.317 199.800  1.00  0.00     0.000 C 
BRANCH  12  13
ATOM     13  C   UNL     1     174.026 177.026 198.319  1.00  0.00     0.000 C 
BRANCH  13  14
ATOM     14  C   UNL     1     172.758 177.213 197.472  1.00  0.00     0.002 C 
BRANCH  14  15
ATOM     15  C   UNL     1     173.056 177.794 196.080  1.00  0.00     0.028 C 
BRANCH  15  16
ATOM     16  C   UNL     1     172.595 176.875 194.942  1.00  0.00     0.156 C 
BRANCH  16  17
ATOM     17  O   UNL     1     171.848 177.604 194.007  1.00  0.00    -0.396 OA
ATOM     18  H   UNL     1     170.891 177.449 194.222  1.00  0.00     0.210 HD
ENDBRANCH  16  17
ENDBRANCH  15  16
ENDBRANCH  14  15
ENDBRANCH  13  14
ENDBRANCH  12  13
ENDBRANCH  11  12
ENDBRANCH  10  11
ENDBRANCH   1  10
TORSDOF 15
ENDMDL
MODEL 5
REMARK VINA RESULT:    -1.380      1.692      2.763
REMARK INTER + INTRA:          -4.823
REMARK INTER:                  -3.304
REMARK INTRA:                  -1.519
REMARK UNBOUND:                -2.274
REMARK SMILES CCCCCCCCCCCCCCCCO
REMARK SMILES IDX 9 1 8 2 7 3 6 4 5 5 4 6 3 7 2 8 1 9 10 10 11 11 12 12 13 13
REMARK SMILES IDX 14 14 15 15 16 16 17 17
REMARK H PARENT 17 18
REMARK Flexibility Score: inf
ROOT
ATOM      1  C   UNL     1     173.862 178.115 196.806  1.00  0.00     0.000 C 
ENDROOT
BRANCH   1   2
ATOM      2  C   UNL     1     173.114 177.298 197.871  1.00  0.00    -0.000 C 
BRANCH   2   3
ATOM      3  C   UNL     1     173.917 177.141 199.173  1.00  0.00    -0.000 C 
BRANCH   3   4
ATOM      4  C   UNL     1     173.021 177.073 200.422  1.00  0.00    -0.000 C 
BRANCH   4   5
ATOM      5  C   UNL     1     171.609 177.656 200.202  1.00  0.00    -0.000 C 
BRANCH   5   6
ATOM      6  C   UNL     1     171.454 179.056 200.816  1.00  0.00    -0.000 C 
BRANCH   6   7
ATOM      7  C   UNL     1     171.387 180.132 199.723  1.00  0.00    -0.000 C 
BRANCH   7   8
ATOM      8  C   UNL     1     172.769 180.700 199.368  1.00  0.00    -0.003 C 
ATOM      9  C   UNL     1     172.755 181.530 198.084  1.00  0.00     0.004 C 
ENDBRANCH   7   8
ENDBRANCH   6   7
ENDBRANCH   5   6
ENDBRANCH   4   5
ENDBRANCH   3   4
ENDBRANCH   2   3
ENDBRANCH   1   2
BRANCH   1  10
ATOM     10  C   UNL     1     173.029 178.321 195.528  1.00  0.00     0.000 C 
BRANCH  10  11
ATOM     11  C   UNL     1     172.833 177.024 194.724  1.00  0.00     0.000 C 
BRANCH  11  12
ATOM     12  C   UNL     1     171.926 177.150 193.487  1.00  0.00     0.000 C 
BRANCH  12  13
ATOM     13  C   UNL     1     172.495 178.092 192.417  1.00  0.00     0.000 C 
BRANCH  13  14
ATOM     14  C   UNL     1     171.407 179.031 191.876  1.00  0.00     0.002 C 
BRANCH  14  15
ATOM     15  C   UNL     1     171.845 180.504 191.868  1.00  0.00     0.028 C 
BRANCH  15  16
ATOM     16  C   UNL     1     171.805 181.142 193.263  1.00  0.00     0.156 C 
BRANCH  16  17
ATOM     17  O   UNL     1     173.109 181.342 193.738  1.00  0.00    -0.396 OA
ATOM     18  H   UNL     1     173.218 182.321 193.866  1.00  0.00     0.210 HD
ENDBRANCH  16  17
ENDBRANCH  15  16
ENDBRANCH  14  15
ENDBRANCH  13  14
ENDBRANCH  12  13
ENDBRANCH  11  12
ENDBRANCH  10  11
ENDBRANCH   1  10
TORSDOF 15
ENDMDL
MODEL 6
REMARK VINA RESULT:    -1.374      2.288      5.493
REMARK INTER + INTRA:          -4.813
REMARK INTER:                  -3.157
REMARK INTRA:                  -1.656
REMARK UNBOUND:                -2.274
REMARK SMILES CCCCCCCCCCCCCCCCO
REMARK SMILES IDX 9 1 8 2 7 3 6 4 5 5 4 6 3 7 2 8 1 9 10 10 11 11 12 12 13 13
REMARK SMILES IDX 14 14 15 15 16 16 17 17
REMARK H PARENT 17 18
REMARK Flexibility Score: inf
ROOT
ATOM      1  C   UNL     1     173.164 178.659 195.825  1.00  0.00     0.000 C 
ENDROOT
BRANCH   1   2
ATOM      2  C   UNL     1     172.816 177.200 195.490  1.00  0.00    -0.000 C 
BRANCH   2   3
ATOM      3  C   UNL     1     172.989 176.875 193.997  1.00  0.00    -0.000 C 
BRANCH   3   4
ATOM      4  C   UNL     1     171.703 177.101 193.184  1.00  0.00    -0.000 C 
BRANCH   4   5
ATOM      5  C   UNL     1     171.937 177.848 191.853  1.00  0.00    -0.000 C 
BRANCH   5   6
ATOM      6  C   UNL     1     171.331 179.260 191.864  1.00  0.00    -0.000 C 
BRANCH   6   7
ATOM      7  C   UNL     1     172.251 180.248 192.594  1.00  0.00    -0.000 C 
BRANCH   7   8
ATOM      8  C   UNL     1     171.480 181.417 193.225  1.00  0.00    -0.003 C 
ATOM      9  C   UNL     1     172.162 181.968 194.477  1.00  0.00     0.004 C 
ENDBRANCH   7   8
ENDBRANCH   6   7
ENDBRANCH   5   6
ENDBRANCH   4   5
ENDBRANCH   3   4
ENDBRANCH   2   3
ENDBRANCH   1   2
BRANCH   1  10
ATOM     10  C   UNL     1     174.556 178.801 196.466  1.00  0.00     0.000 C 
BRANCH  10  11
ATOM     11  C   UNL     1     175.253 177.448 196.693  1.00  0.00     0.000 C 
BRANCH  11  12
ATOM     12  C   UNL     1     175.678 177.165 198.146  1.00  0.00     0.000 C 
BRANCH  12  13
ATOM     13  C   UNL     1     174.898 177.997 199.174  1.00  0.00     0.000 C 
BRANCH  13  14
ATOM     14  C   UNL     1     173.772 177.168 199.809  1.00  0.00     0.002 C 
BRANCH  14  15
ATOM     15  C   UNL     1     172.377 177.597 199.330  1.00  0.00     0.028 C 
BRANCH  15  16
ATOM     16  C   UNL     1     171.933 178.940 199.923  1.00  0.00     0.156 C 
BRANCH  16  17
ATOM     17  O   UNL     1     172.041 179.952 198.959  1.00  0.00    -0.396 OA
ATOM     18  H   UNL     1     172.672 179.620 198.267  1.00  0.00     0.210 HD
ENDBRANCH  16  17
ENDBRANCH  15  16
ENDBRANCH  14  15
ENDBRANCH  13  14
ENDBRANCH  12  13
ENDBRANCH  11  12
ENDBRANCH  10  11
ENDBRANCH   1  10
TORSDOF 15
ENDMDL
MODEL 7
REMARK VINA RESULT:    -1.338      2.286      5.570
REMARK INTER + INTRA:          -4.746
REMARK INTER:                  -3.198
REMARK INTRA:                  -1.548
REMARK UNBOUND:                -2.274
REMARK SMILES CCCCCCCCCCCCCCCCO
REMARK SMILES IDX 9 1 8 2 7 3 6 4 5 5 4 6 3 7 2 8 1 9 10 10 11 11 12 12 13 13
REMARK SMILES IDX 14 14 15 15 16 16 17 17
REMARK H PARENT 17 18
REMARK Flexibility Score: inf
ROOT
ATOM      1  C   UNL     1     174.581 180.187 196.401  1.00  0.00     0.000 C 
ENDROOT
BRANCH   1   2
ATOM      2  C   UNL     1     174.733 178.898 197.224  1.00  0.00    -0.000 C 
BRANCH   2   3
ATOM      3  C   UNL     1     174.578 177.627 196.373  1.00  0.00    -0.000 C 
BRANCH   3   4
ATOM      4  C   UNL     1     173.168 177.018 196.461  1.00  0.00    -0.000 C 
BRANCH   4   5
ATOM      5  C   UNL     1     172.411 177.016 195.115  1.00  0.00    -0.000 C 
BRANCH   5   6
ATOM      6  C   UNL     1     173.295 177.484 193.949  1.00  0.00    -0.000 C 
BRANCH   6   7
ATOM      7  C   UNL     1     172.669 178.688 193.232  1.00  0.00    -0.000 C 
BRANCH   7   8
ATOM      8  C   UNL     1     171.683 178.273 192.130  1.00  0.00    -0.003 C 
ATOM      9  C   UNL     1     172.153 177.046 191.348  1.00  0.00     0.004 C 
ENDBRANCH   7   8
ENDBRANCH   6   7
ENDBRANCH   5   6
ENDBRANCH   4   5
ENDBRANCH   3   4
ENDBRANCH   2   3
ENDBRANCH   1   2
BRANCH   1  10
ATOM     10  C   UNL     1     173.128 180.691 196.358  1.00  0.00     0.000 C 
BRANCH  10  11
ATOM     11  C   UNL     1     172.892 181.919 197.256  1.00  0.00     0.000 C 
BRANCH  11  12
ATOM     12  C   UNL     1     173.184 181.702 198.752  1.00  0.00     0.000 C 
BRANCH  12  13
ATOM     13  C   UNL     1     171.946 181.268 199.550  1.00  0.00     0.000 C 
BRANCH  13  14
ATOM     14  C   UNL     1     171.747 179.747 199.468  1.00  0.00     0.002 C 
BRANCH  14  15
ATOM     15  C   UNL     1     172.476 178.992 200.590  1.00  0.00     0.028 C 
BRANCH  15  16
ATOM     16  C   UNL     1     171.821 177.646 200.922  1.00  0.00     0.156 C 
BRANCH  16  17
ATOM     17  O   UNL     1     171.670 176.883 199.756  1.00  0.00    -0.396 OA
ATOM     18  H   UNL     1     172.278 177.277 199.077  1.00  0.00     0.210 HD
ENDBRANCH  16  17
ENDBRANCH  15  16
ENDBRANCH  14  15
ENDBRANCH  13  14
ENDBRANCH  12  13
ENDBRANCH  11  12
ENDBRANCH  10  11
ENDBRANCH   1  10
TORSDOF 15
ENDMDL
MODEL 8
REMARK VINA RESULT:    -1.316      2.294      4.739
REMARK INTER + INTRA:          -4.706
REMARK INTER:                  -2.055
REMARK INTRA:                  -2.650
REMARK UNBOUND:                -2.274
REMARK SMILES CCCCCCCCCCCCCCCCO
REMARK SMILES IDX 9 1 8 2 7 3 6 4 5 5 4 6 3 7 2 8 1 9 10 10 11 11 12 12 13 13
REMARK SMILES IDX 14 14 15 15 16 16 17 17
REMARK H PARENT 17 18
REMARK Flexibility Score: inf
ROOT
ATOM      1  C   UNL     1     176.967 180.312 195.688  1.00  0.00     0.000 C 
ENDROOT
BRANCH   1   2
ATOM      2  C   UNL     1     176.781 178.871 195.186  1.00  0.00    -0.000 C 
BRANCH   2   3
ATOM      3  C   UNL     1     176.838 177.835 196.320  1.00  0.00    -0.000 C 
BRANCH   3   4
ATOM      4  C   UNL     1     175.444 177.430 196.830  1.00  0.00    -0.000 C 
BRANCH   4   5
ATOM      5  C   UNL     1     174.423 177.177 195.700  1.00  0.00    -0.000 C 
BRANCH   5   6
ATOM      6  C   UNL     1     173.158 178.035 195.854  1.00  0.00    -0.000 C 
BRANCH   6   7
ATOM      7  C   UNL     1     173.017 179.021 194.686  1.00  0.00    -0.000 C 
BRANCH   7   8
ATOM      8  C   UNL     1     173.542 178.448 193.361  1.00  0.00    -0.003 C 
ATOM      9  C   UNL     1     174.199 179.508 192.477  1.00  0.00     0.004 C 
ENDBRANCH   7   8
ENDBRANCH   6   7
ENDBRANCH   5   6
ENDBRANCH   4   5
ENDBRANCH   3   4
ENDBRANCH   2   3
ENDBRANCH   1   2
BRANCH   1  10
ATOM     10  C   UNL     1     175.806 181.235 195.276  1.00  0.00     0.000 C 
BRANCH  10  11
ATOM     11  C   UNL     1     175.064 181.839 196.481  1.00  0.00     0.000 C 
BRANCH  11  12
ATOM     12  C   UNL     1     175.029 180.953 197.741  1.00  0.00     0.000 C 
BRANCH  12  13
ATOM     13  C   UNL     1     173.615 180.777 198.313  1.00  0.00     0.000 C 
BRANCH  13  14
ATOM     14  C   UNL     1     173.526 179.509 199.175  1.00  0.00     0.002 C 
BRANCH  14  15
ATOM     15  C   UNL     1     172.081 179.150 199.553  1.00  0.00     0.028 C 
BRANCH  15  16
ATOM     16  C   UNL     1     171.911 177.668 199.909  1.00  0.00     0.156 C 
BRANCH  16  17
ATOM     17  O   UNL     1     172.853 176.895 199.215  1.00  0.00    -0.396 OA
ATOM     18  H   UNL     1     172.556 175.950 199.287  1.00  0.00     0.210 HD
ENDBRANCH  16  17
ENDBRANCH  15  16
ENDBRANCH  14  15
ENDBRANCH  13  14
ENDBRANCH  12  13
ENDBRANCH  11  12
ENDBRANCH  10  11
ENDBRANCH   1  10
TORSDOF 15
ENDMDL
