MODEL 1
REMARK VINA RESULT:    -3.047      0.000      0.000
REMARK INTER + INTRA:          -4.102
REMARK INTER:                  -3.938
REMARK INTRA:                  -0.164
REMARK UNBOUND:                -0.164
REMARK SMILES CCCCCCC(=O)[O-]
REMARK SMILES IDX 5 1 6 2 7 3 8 4 9 5 4 6 3 7 2 8 1 9
REMARK H PARENT
REMARK Flexibility Score: inf
ROOT
ATOM      1  C   UNL     1      52.417  19.253  85.304  1.00  0.00     0.006 C 
ENDROOT
BRANCH   1   2
ATOM      2  C   UNL     1      51.314  18.188  85.272  1.00  0.00     0.053 C 
BRANCH   2   3
ATOM      3  C   UNL     1      49.982  18.757  85.653  1.00  0.00     0.041 C 
ATOM      4  O   UNL     1      49.835  19.343  86.759  1.00  0.00    -0.550 OA
ATOM      5  O   UNL     1      48.912  18.672  84.772  1.00  0.00    -0.550 OA
ENDBRANCH   2   3
ENDBRANCH   1   2
BRANCH   1   6
ATOM      6  C   UNL     1      53.807  18.658  85.035  1.00  0.00     0.000 C 
BRANCH   6   7
ATOM      7  C   UNL     1      54.309  17.863  86.246  1.00  0.00    -0.000 C 
BRANCH   7   8
ATOM      8  C   UNL     1      55.558  17.049  85.891  1.00  0.00    -0.003 C 
ATOM      9  C   UNL     1      56.004  17.320  84.456  1.00  0.00     0.004 C 
ENDBRANCH   7   8
ENDBRANCH   6   7
ENDBRANCH   1   6
TORSDOF 5
ENDMDL
MODEL 2
REMARK VINA RESULT:    -2.881     12.182     13.891
REMARK INTER + INTRA:          -3.887
REMARK INTER:                  -3.791
REMARK INTRA:                  -0.096
REMARK UNBOUND:                -0.164
REMARK SMILES CCCCCCC(=O)[O-]
REMARK SMILES IDX 5 1 6 2 7 3 8 4 9 5 4 6 3 7 2 8 1 9
REMARK H PARENT
REMARK Flexibility Score: inf
ROOT
ATOM      1  C   UNL     1      39.546  20.621  79.559  1.00  0.00     0.006 C 
ENDROOT
BRANCH   1   2
ATOM      2  C   UNL     1      39.271  19.258  80.206  1.00  0.00     0.053 C 
BRANCH   2   3
ATOM      3  C   UNL     1      37.805  18.964  80.279  1.00  0.00     0.041 C 
ATOM      4  O   UNL     1      37.382  17.791  80.096  1.00  0.00    -0.550 OA
ATOM      5  O   UNL     1      36.906  19.979  80.583  1.00  0.00    -0.550 OA
ENDBRANCH   2   3
ENDBRANCH   1   2
BRANCH   1   6
ATOM      6  C   UNL     1      40.719  20.569  78.570  1.00  0.00     0.000 C 
BRANCH   6   7
ATOM      7  C   UNL     1      42.023  20.188  79.281  1.00  0.00    -0.000 C 
BRANCH   7   8
ATOM      8  C   UNL     1      43.221  20.917  78.662  1.00  0.00    -0.003 C 
ATOM      9  C   UNL     1      44.337  19.939  78.306  1.00  0.00     0.004 C 
ENDBRANCH   7   8
ENDBRANCH   6   7
ENDBRANCH   1   6
TORSDOF 5
ENDMDL
MODEL 3
REMARK VINA RESULT:    -2.826     14.098     14.936
REMARK INTER + INTRA:          -3.816
REMARK INTER:                  -3.581
REMARK INTRA:                  -0.234
REMARK UNBOUND:                -0.164
REMARK SMILES CCCCCCC(=O)[O-]
REMARK SMILES IDX 5 1 6 2 7 3 8 4 9 5 4 6 3 7 2 8 1 9
REMARK H PARENT
REMARK Flexibility Score: inf
ROOT
ATOM      1  C   UNL     1      39.993  19.601  79.681  1.00  0.00     0.006 C 
ENDROOT
BRANCH   1   2
ATOM      2  C   UNL     1      38.685  20.284  80.100  1.00  0.00     0.053 C 
BRANCH   2   3
ATOM      3  C   UNL     1      37.762  19.334  80.799  1.00  0.00     0.041 C 
ATOM      4  O   UNL     1      37.376  19.572  81.974  1.00  0.00    -0.550 OA
ATOM      5  O   UNL     1      37.300  18.201  80.140  1.00  0.00    -0.550 OA
ENDBRANCH   2   3
ENDBRANCH   1   2
BRANCH   1   6
ATOM      6  C   UNL     1      40.867  20.508  78.803  1.00  0.00     0.000 C 
BRANCH   6   7
ATOM      7  C   UNL     1      40.379  21.960  78.856  1.00  0.00    -0.000 C 
BRANCH   7   8
ATOM      8  C   UNL     1      40.295  22.565  77.450  1.00  0.00    -0.003 C 
ATOM      9  C   UNL     1      40.835  21.597  76.400  1.00  0.00     0.004 C 
ENDBRANCH   7   8
ENDBRANCH   6   7
ENDBRANCH   1   6
TORSDOF 5
ENDMDL
MODEL 4
REMARK VINA RESULT:    -2.822      3.010      5.057
REMARK INTER + INTRA:          -3.811
REMARK INTER:                  -3.642
REMARK INTRA:                  -0.168
REMARK UNBOUND:                -0.164
REMARK SMILES CCCCCCC(=O)[O-]
REMARK SMILES IDX 5 1 6 2 7 3 8 4 9 5 4 6 3 7 2 8 1 9
REMARK H PARENT
REMARK Flexibility Score: inf
ROOT
ATOM      1  C   UNL     1      54.377  18.959  84.836  1.00  0.00     0.006 C 
ENDROOT
BRANCH   1   2
ATOM      2  C   UNL     1      55.336  17.764  84.894  1.00  0.00     0.053 C 
BRANCH   2   3
ATOM      3  C   UNL     1      55.364  17.140  86.255  1.00  0.00     0.041 C 
ATOM      4  O   UNL     1      55.629  15.916  86.387  1.00  0.00    -0.550 OA
ATOM      5  O   UNL     1      55.132  17.918  87.382  1.00  0.00    -0.550 OA
ENDBRANCH   2   3
ENDBRANCH   1   2
BRANCH   1   6
ATOM      6  C   UNL     1      52.911  18.522  84.708  1.00  0.00     0.000 C 
BRANCH   6   7
ATOM      7  C   UNL     1      52.039  19.202  85.770  1.00  0.00    -0.000 C 
BRANCH   7   8
ATOM      8  C   UNL     1      50.552  18.921  85.525  1.00  0.00    -0.003 C 
ATOM      9  C   UNL     1      49.696  19.436  86.678  1.00  0.00     0.004 C 
ENDBRANCH   7   8
ENDBRANCH   6   7
ENDBRANCH   1   6
TORSDOF 5
ENDMDL
MODEL 5
REMARK VINA RESULT:    -2.821     14.459     15.382
REMARK INTER + INTRA:          -3.809
REMARK INTER:                  -3.524
REMARK INTRA:                  -0.285
REMARK UNBOUND:                -0.164
REMARK SMILES CCCCCCC(=O)[O-]
REMARK SMILES IDX 5 1 6 2 7 3 8 4 9 5 4 6 3 7 2 8 1 9
REMARK H PARENT
REMARK Flexibility Score: inf
ROOT
ATOM      1  C   UNL     1      45.548  29.256  90.985  1.00  0.00     0.006 C 
ENDROOT
BRANCH   1   2
ATOM      2  C   UNL     1      44.999  29.359  92.413  1.00  0.00     0.053 C 
BRANCH   2   3
ATOM      3  C   UNL     1      43.889  30.359  92.511  1.00  0.00     0.041 C 
ATOM      4  O   UNL     1      42.743  30.082  92.067  1.00  0.00    -0.550 OA
ATOM      5  O   UNL     1      44.110  31.586  93.124  1.00  0.00    -0.550 OA
ENDBRANCH   2   3
ENDBRANCH   1   2
BRANCH   1   6
ATOM      6  C   UNL     1      47.000  29.742  90.883  1.00  0.00     0.000 C 
BRANCH   6   7
ATOM      7  C   UNL     1      47.059  31.262  90.690  1.00  0.00    -0.000 C 
BRANCH   7   8
ATOM      8  C   UNL     1      46.231  31.695  89.475  1.00  0.00    -0.003 C 
ATOM      9  C   UNL     1      46.939  31.340  88.170  1.00  0.00     0.004 C 
ENDBRANCH   7   8
ENDBRANCH   6   7
ENDBRANCH   1   6
TORSDOF 5
ENDMDL
MODEL 6
REMARK VINA RESULT:    -2.777     14.953     15.997
REMARK INTER + INTRA:          -3.753
REMARK INTER:                  -3.581
REMARK INTRA:                  -0.172
REMARK UNBOUND:                -0.164
REMARK SMILES CCCCCCC(=O)[O-]
REMARK SMILES IDX 5 1 6 2 7 3 8 4 9 5 4 6 3 7 2 8 1 9
REMARK H PARENT
REMARK Flexibility Score: inf
ROOT
ATOM      1  C   UNL     1      45.862  30.622  91.013  1.00  0.00     0.006 C 
ENDROOT
BRANCH   1   2
ATOM      2  C   UNL     1      47.097  31.313  90.422  1.00  0.00     0.053 C 
BRANCH   2   3
ATOM      3  C   UNL     1      46.904  31.654  88.977  1.00  0.00     0.041 C 
ATOM      4  O   UNL     1      46.046  31.040  88.289  1.00  0.00    -0.550 OA
ATOM      5  O   UNL     1      47.647  32.674  88.398  1.00  0.00    -0.550 OA
ENDBRANCH   2   3
ENDBRANCH   1   2
BRANCH   1   6
ATOM      6  C   UNL     1      44.821  31.628  91.524  1.00  0.00     0.000 C 
BRANCH   6   7
ATOM      7  C   UNL     1      44.148  31.122  92.805  1.00  0.00    -0.000 C 
BRANCH   7   8
ATOM      8  C   UNL     1      43.953  29.603  92.761  1.00  0.00    -0.003 C 
ATOM      9  C   UNL     1      42.653  29.233  92.053  1.00  0.00     0.004 C 
ENDBRANCH   7   8
ENDBRANCH   6   7
ENDBRANCH   1   6
TORSDOF 5
ENDMDL
MODEL 7
REMARK VINA RESULT:    -2.762     12.545     14.420
REMARK INTER + INTRA:          -3.734
REMARK INTER:                  -3.394
REMARK INTRA:                  -0.340
REMARK UNBOUND:                -0.164
REMARK SMILES CCCCCCC(=O)[O-]
REMARK SMILES IDX 5 1 6 2 7 3 8 4 9 5 4 6 3 7 2 8 1 9
REMARK H PARENT
REMARK Flexibility Score: inf
ROOT
ATOM      1  C   UNL     1      39.352  21.698  80.079  1.00  0.00     0.006 C 
ENDROOT
BRANCH   1   2
ATOM      2  C   UNL     1      37.935  21.113  80.124  1.00  0.00     0.053 C 
BRANCH   2   3
ATOM      3  C   UNL     1      37.913  19.757  80.759  1.00  0.00     0.041 C 
ATOM      4  O   UNL     1      38.411  18.767  80.160  1.00  0.00    -0.550 OA
ATOM      5  O   UNL     1      37.375  19.592  82.029  1.00  0.00    -0.550 OA
ENDBRANCH   2   3
ENDBRANCH   1   2
BRANCH   1   6
ATOM      6  C   UNL     1      39.840  21.930  78.643  1.00  0.00     0.000 C 
BRANCH   6   7
ATOM      7  C   UNL     1      40.659  20.736  78.140  1.00  0.00    -0.000 C 
BRANCH   7   8
ATOM      8  C   UNL     1      41.563  20.182  79.248  1.00  0.00    -0.003 C 
ATOM      9  C   UNL     1      42.958  20.797  79.180  1.00  0.00     0.004 C 
ENDBRANCH   7   8
ENDBRANCH   6   7
ENDBRANCH   1   6
TORSDOF 5
ENDMDL
MODEL 8
REMARK VINA RESULT:    -2.721     10.401     11.183
REMARK INTER + INTRA:          -3.680
REMARK INTER:                  -3.555
REMARK INTRA:                  -0.125
REMARK UNBOUND:                -0.164
REMARK SMILES CCCCCCC(=O)[O-]
REMARK SMILES IDX 5 1 6 2 7 3 8 4 9 5 4 6 3 7 2 8 1 9
REMARK H PARENT
REMARK Flexibility Score: inf
ROOT
ATOM      1  C   UNL     1      43.992  20.013  78.445  1.00  0.00     0.006 C 
ENDROOT
BRANCH   1   2
ATOM      2  C   UNL     1      43.456  21.243  79.189  1.00  0.00     0.053 C 
BRANCH   2   3
ATOM      3  C   UNL     1      42.193  20.935  79.932  1.00  0.00     0.041 C 
ATOM      4  O   UNL     1      41.489  19.943  79.605  1.00  0.00    -0.550 OA
ATOM      5  O   UNL     1      41.811  21.723  81.010  1.00  0.00    -0.550 OA
ENDBRANCH   2   3
ENDBRANCH   1   2
BRANCH   1   6
ATOM      6  C   UNL     1      45.441  20.204  77.974  1.00  0.00     0.000 C 
BRANCH   6   7
ATOM      7  C   UNL     1      46.168  18.858  77.872  1.00  0.00    -0.000 C 
BRANCH   7   8
ATOM      8  C   UNL     1      45.884  18.180  76.527  1.00  0.00    -0.003 C 
ATOM      9  C   UNL     1      45.894  16.660  76.662  1.00  0.00     0.004 C 
ENDBRANCH   7   8
ENDBRANCH   6   7
ENDBRANCH   1   6
TORSDOF 5
ENDMDL
