MODEL 1
REMARK VINA RESULT:    -3.649      0.000      0.000
REMARK INTER + INTRA:          -5.958
REMARK INTER:                  -5.249
REMARK INTRA:                  -0.709
REMARK UNBOUND:                -0.709
REMARK SMILES O=C(CO)[C@@H](O)[C@H](O)[C@H](O)CO
REMARK SMILES IDX 7 1 9 2 11 3 12 4 10 6 5 8 2 9 1 10 3 11 4 12 6 14 8 16
REMARK H PARENT 12 5 10 7 4 13 6 15 8 17
REMARK Flexibility Score: inf
ROOT
ATOM      1  C   UNL     1      55.623  19.399  52.074  1.00  0.00     0.181 C 
ENDROOT
BRANCH   1   2
ATOM      2  C   UNL     1      54.232  20.043  51.811  1.00  0.00     0.171 C 
BRANCH   2   3
ATOM      3  C   UNL     1      53.960  21.276  52.689  1.00  0.00     0.190 C 
BRANCH   3   4
ATOM      4  O   UNL     1      53.349  22.294  51.945  1.00  0.00    -0.394 OA
ATOM      5  H   UNL     1      54.082  22.770  51.476  1.00  0.00     0.210 HD
ENDBRANCH   3   4
ENDBRANCH   2   3
BRANCH   2   6
ATOM      6  O   UNL     1      54.074  20.387  50.456  1.00  0.00    -0.388 OA
ATOM      7  H   UNL     1      53.303  19.868  50.109  1.00  0.00     0.211 HD
ENDBRANCH   2   6
ENDBRANCH   1   2
BRANCH   1   8
ATOM      8  C   UNL     1      56.341  18.856  50.810  1.00  0.00     0.214 C 
BRANCH   8   9
ATOM      9  C   UNL     1      57.612  18.129  51.197  1.00  0.00     0.189 C 
ATOM     10  O   UNL     1      58.225  18.498  52.189  1.00  0.00    -0.294 OA
BRANCH   9  11
ATOM     11  C   UNL     1      58.144  16.983  50.372  1.00  0.00     0.234 C 
BRANCH  11  12
ATOM     12  O   UNL     1      57.811  17.134  49.017  1.00  0.00    -0.388 OA
ATOM     13  H   UNL     1      57.352  18.010  48.933  1.00  0.00     0.211 HD
ENDBRANCH  11  12
ENDBRANCH   9  11
ENDBRANCH   8   9
BRANCH   8  14
ATOM     14  O   UNL     1      55.481  18.008  50.090  1.00  0.00    -0.382 OA
ATOM     15  H   UNL     1      55.217  18.497  49.267  1.00  0.00     0.211 HD
ENDBRANCH   8  14
ENDBRANCH   1   8
BRANCH   1  16
ATOM     16  O   UNL     1      55.516  18.403  53.063  1.00  0.00    -0.387 OA
ATOM     17  H   UNL     1      56.262  18.532  53.706  1.00  0.00     0.211 HD
ENDBRANCH   1  16
TORSDOF 10
ENDMDL
MODEL 2
REMARK VINA RESULT:    -3.626     21.555     22.552
REMARK INTER + INTRA:          -5.926
REMARK INTER:                  -5.215
REMARK INTRA:                  -0.711
REMARK UNBOUND:                -0.709
REMARK SMILES O=C(CO)[C@@H](O)[C@H](O)[C@H](O)CO
REMARK SMILES IDX 7 1 9 2 11 3 12 4 10 6 5 8 2 9 1 10 3 11 4 12 6 14 8 16
REMARK H PARENT 12 5 10 7 4 13 6 15 8 17
REMARK Flexibility Score: inf
ROOT
ATOM      1  C   UNL     1      70.856  33.507  58.835  1.00  0.00     0.181 C 
ENDROOT
BRANCH   1   2
ATOM      2  C   UNL     1      70.373  34.972  59.030  1.00  0.00     0.171 C 
BRANCH   2   3
ATOM      3  C   UNL     1      69.144  35.324  58.175  1.00  0.00     0.190 C 
BRANCH   3   4
ATOM      4  O   UNL     1      68.172  35.980  58.943  1.00  0.00    -0.394 OA
ATOM      5  H   UNL     1      67.616  35.267  59.352  1.00  0.00     0.210 HD
ENDBRANCH   3   4
ENDBRANCH   2   3
BRANCH   2   6
ATOM      6  O   UNL     1      70.099  35.247  60.381  1.00  0.00    -0.388 OA
ATOM      7  H   UNL     1      69.282  35.809  60.408  1.00  0.00     0.211 HD
ENDBRANCH   2   6
ENDBRANCH   1   2
BRANCH   1   8
ATOM      8  C   UNL     1      71.310  32.791  60.134  1.00  0.00     0.214 C 
BRANCH   8   9
ATOM      9  C   UNL     1      71.919  31.443  59.807  1.00  0.00     0.189 C 
ATOM     10  O   UNL     1      71.480  30.811  58.856  1.00  0.00    -0.294 OA
BRANCH   9  11
ATOM     11  C   UNL     1      73.031  30.860  60.643  1.00  0.00     0.234 C 
BRANCH  11  12
ATOM     12  O   UNL     1      72.871  31.182  61.999  1.00  0.00    -0.388 OA
ATOM     13  H   UNL     1      73.342  30.477  62.516  1.00  0.00     0.211 HD
ENDBRANCH  11  12
ENDBRANCH   9  11
ENDBRANCH   8   9
BRANCH   8  14
ATOM     14  O   UNL     1      72.225  33.594  60.837  1.00  0.00    -0.382 OA
ATOM     15  H   UNL     1      73.086  33.098  60.859  1.00  0.00     0.211 HD
ENDBRANCH   8  14
ENDBRANCH   1   8
BRANCH   1  16
ATOM     16  O   UNL     1      71.861  33.456  57.850  1.00  0.00    -0.387 OA
ATOM     17  H   UNL     1      72.310  32.574  57.920  1.00  0.00     0.211 HD
ENDBRANCH   1  16
TORSDOF 10
ENDMDL
MODEL 3
REMARK VINA RESULT:    -3.474     21.098     22.320
REMARK INTER + INTRA:          -5.707
REMARK INTER:                  -4.769
REMARK INTRA:                  -0.938
REMARK UNBOUND:                -0.709
REMARK SMILES O=C(CO)[C@@H](O)[C@H](O)[C@H](O)CO
REMARK SMILES IDX 7 1 9 2 11 3 12 4 10 6 5 8 2 9 1 10 3 11 4 12 6 14 8 16
REMARK H PARENT 12 5 10 7 4 13 6 15 8 17
REMARK Flexibility Score: inf
ROOT
ATOM      1  C   UNL     1      70.869  33.080  58.773  1.00  0.00     0.181 C 
ENDROOT
BRANCH   1   2
ATOM      2  C   UNL     1      71.276  32.839  60.254  1.00  0.00     0.171 C 
BRANCH   2   3
ATOM      3  C   UNL     1      72.064  31.534  60.462  1.00  0.00     0.190 C 
BRANCH   3   4
ATOM      4  O   UNL     1      72.748  31.554  61.684  1.00  0.00    -0.394 OA
ATOM      5  H   UNL     1      73.599  32.036  61.516  1.00  0.00     0.210 HD
ENDBRANCH   3   4
ENDBRANCH   2   3
BRANCH   2   6
ATOM      6  O   UNL     1      72.014  33.920  60.766  1.00  0.00    -0.388 OA
ATOM      7  H   UNL     1      72.437  34.380  59.995  1.00  0.00     0.211 HD
ENDBRANCH   2   6
ENDBRANCH   1   2
BRANCH   1   8
ATOM      8  C   UNL     1      70.547  34.555  58.416  1.00  0.00     0.214 C 
BRANCH   8   9
ATOM      9  C   UNL     1      69.738  34.623  57.137  1.00  0.00     0.189 C 
ATOM     10  O   UNL     1      70.266  34.289  56.086  1.00  0.00    -0.294 OA
BRANCH   9  11
ATOM     11  C   UNL     1      68.312  35.117  57.135  1.00  0.00     0.234 C 
BRANCH  11  12
ATOM     12  O   UNL     1      67.476  34.264  57.871  1.00  0.00    -0.388 OA
ATOM     13  H   UNL     1      67.815  34.270  58.804  1.00  0.00     0.211 HD
ENDBRANCH  11  12
ENDBRANCH   9  11
ENDBRANCH   8   9
BRANCH   8  14
ATOM     14  O   UNL     1      69.858  35.172  59.475  1.00  0.00    -0.382 OA
ATOM     15  H   UNL     1      69.574  34.449  60.094  1.00  0.00     0.211 HD
ENDBRANCH   8  14
ENDBRANCH   1   8
BRANCH   1  16
ATOM     16  O   UNL     1      69.805  32.229  58.418  1.00  0.00    -0.387 OA
ATOM     17  H   UNL     1      69.060  32.394  59.053  1.00  0.00     0.211 HD
ENDBRANCH   1  16
TORSDOF 10
ENDMDL
MODEL 4
REMARK VINA RESULT:    -3.466     11.315     12.059
REMARK INTER + INTRA:          -5.694
REMARK INTER:                  -4.577
REMARK INTRA:                  -1.117
REMARK UNBOUND:                -0.709
REMARK SMILES O=C(CO)[C@@H](O)[C@H](O)[C@H](O)CO
REMARK SMILES IDX 7 1 9 2 11 3 12 4 10 6 5 8 2 9 1 10 3 11 4 12 6 14 8 16
REMARK H PARENT 12 5 10 7 4 13 6 15 8 17
REMARK Flexibility Score: inf
ROOT
ATOM      1  C   UNL     1      61.080  28.672  49.975  1.00  0.00     0.181 C 
ENDROOT
BRANCH   1   2
ATOM      2  C   UNL     1      59.607  28.626  49.475  1.00  0.00     0.171 C 
BRANCH   2   3
ATOM      3  C   UNL     1      58.922  27.274  49.732  1.00  0.00     0.190 C 
BRANCH   3   4
ATOM      4  O   UNL     1      59.538  26.254  48.994  1.00  0.00    -0.394 OA
ATOM      5  H   UNL     1      59.576  26.577  48.057  1.00  0.00     0.210 HD
ENDBRANCH   3   4
ENDBRANCH   2   3
BRANCH   2   6
ATOM      6  O   UNL     1      58.839  29.658  50.043  1.00  0.00    -0.388 OA
ATOM      7  H   UNL     1      59.295  29.937  50.879  1.00  0.00     0.211 HD
ENDBRANCH   2   6
ENDBRANCH   1   2
BRANCH   1   8
ATOM      8  C   UNL     1      61.572  30.073  50.426  1.00  0.00     0.214 C 
BRANCH   8   9
ATOM      9  C   UNL     1      63.083  30.091  50.532  1.00  0.00     0.189 C 
ATOM     10  O   UNL     1      63.623  29.404  51.388  1.00  0.00    -0.294 OA
BRANCH   9  11
ATOM     11  C   UNL     1      63.924  30.954  49.625  1.00  0.00     0.234 C 
BRANCH  11  12
ATOM     12  O   UNL     1      63.768  30.582  48.280  1.00  0.00    -0.388 OA
ATOM     13  H   UNL     1      64.663  30.662  47.858  1.00  0.00     0.211 HD
ENDBRANCH  11  12
ENDBRANCH   9  11
ENDBRANCH   8   9
BRANCH   8  14
ATOM     14  O   UNL     1      61.123  31.058  49.530  1.00  0.00    -0.382 OA
ATOM     15  H   UNL     1      61.932  31.487  49.144  1.00  0.00     0.211 HD
ENDBRANCH   8  14
ENDBRANCH   1   8
BRANCH   1  16
ATOM     16  O   UNL     1      61.938  28.122  49.005  1.00  0.00    -0.387 OA
ATOM     17  H   UNL     1      61.387  27.576  48.386  1.00  0.00     0.211 HD
ENDBRANCH   1  16
TORSDOF 10
ENDMDL
MODEL 5
REMARK VINA RESULT:    -3.446      1.301      4.685
REMARK INTER + INTRA:          -5.666
REMARK INTER:                  -4.738
REMARK INTRA:                  -0.928
REMARK UNBOUND:                -0.709
REMARK SMILES O=C(CO)[C@@H](O)[C@H](O)[C@H](O)CO
REMARK SMILES IDX 7 1 9 2 11 3 12 4 10 6 5 8 2 9 1 10 3 11 4 12 6 14 8 16
REMARK H PARENT 12 5 10 7 4 13 6 15 8 17
REMARK Flexibility Score: inf
ROOT
ATOM      1  C   UNL     1      55.961  19.321  52.003  1.00  0.00     0.181 C 
ENDROOT
BRANCH   1   2
ATOM      2  C   UNL     1      56.250  18.860  50.545  1.00  0.00     0.171 C 
BRANCH   2   3
ATOM      3  C   UNL     1      57.436  17.887  50.441  1.00  0.00     0.190 C 
BRANCH   3   4
ATOM      4  O   UNL     1      57.479  17.287  49.175  1.00  0.00    -0.394 OA
ATOM      5  H   UNL     1      58.401  16.938  49.067  1.00  0.00     0.210 HD
ENDBRANCH   3   4
ENDBRANCH   2   3
BRANCH   2   6
ATOM      6  O   UNL     1      55.112  18.280  49.956  1.00  0.00    -0.388 OA
ATOM      7  H   UNL     1      55.281  18.229  48.980  1.00  0.00     0.211 HD
ENDBRANCH   2   6
ENDBRANCH   1   2
BRANCH   1   8
ATOM      8  C   UNL     1      54.513  19.815  52.257  1.00  0.00     0.214 C 
BRANCH   8   9
ATOM      9  C   UNL     1      54.436  20.568  53.569  1.00  0.00     0.189 C 
ATOM     10  O   UNL     1      54.603  19.954  54.614  1.00  0.00    -0.294 OA
BRANCH   9  11
ATOM     11  C   UNL     1      54.133  22.045  53.610  1.00  0.00     0.234 C 
BRANCH  11  12
ATOM     12  O   UNL     1      55.140  22.789  52.974  1.00  0.00    -0.388 OA
ATOM     13  H   UNL     1      55.075  23.715  53.328  1.00  0.00     0.211 HD
ENDBRANCH  11  12
ENDBRANCH   9  11
ENDBRANCH   8   9
BRANCH   8  14
ATOM     14  O   UNL     1      54.081  20.624  51.191  1.00  0.00    -0.382 OA
ATOM     15  H   UNL     1      53.872  20.015  50.434  1.00  0.00     0.211 HD
ENDBRANCH   8  14
ENDBRANCH   1   8
BRANCH   1  16
ATOM     16  O   UNL     1      56.904  20.288  52.400  1.00  0.00    -0.387 OA
ATOM     17  H   UNL     1      56.492  20.837  53.117  1.00  0.00     0.211 HD
ENDBRANCH   1  16
TORSDOF 10
ENDMDL
MODEL 6
REMARK VINA RESULT:    -3.409     12.391     13.318
REMARK INTER + INTRA:          -5.613
REMARK INTER:                  -4.478
REMARK INTRA:                  -1.134
REMARK UNBOUND:                -0.709
REMARK SMILES O=C(CO)[C@@H](O)[C@H](O)[C@H](O)CO
REMARK SMILES IDX 7 1 9 2 11 3 12 4 10 6 5 8 2 9 1 10 3 11 4 12 6 14 8 16
REMARK H PARENT 12 5 10 7 4 13 6 15 8 17
REMARK Flexibility Score: inf
ROOT
ATOM      1  C   UNL     1      57.662  26.056  61.670  1.00  0.00     0.181 C 
ENDROOT
BRANCH   1   2
ATOM      2  C   UNL     1      56.249  26.377  62.237  1.00  0.00     0.171 C 
BRANCH   2   3
ATOM      3  C   UNL     1      55.705  27.739  61.772  1.00  0.00     0.190 C 
BRANCH   3   4
ATOM      4  O   UNL     1      56.145  28.766  62.617  1.00  0.00    -0.394 OA
ATOM      5  H   UNL     1      57.073  28.978  62.335  1.00  0.00     0.210 HD
ENDBRANCH   3   4
ENDBRANCH   2   3
BRANCH   2   6
ATOM      6  O   UNL     1      55.325  25.368  61.916  1.00  0.00    -0.388 OA
ATOM      7  H   UNL     1      55.542  25.050  61.001  1.00  0.00     0.211 HD
ENDBRANCH   2   6
ENDBRANCH   1   2
BRANCH   1   8
ATOM      8  C   UNL     1      58.253  24.695  62.124  1.00  0.00     0.214 C 
BRANCH   8   9
ATOM      9  C   UNL     1      59.767  24.742  62.091  1.00  0.00     0.189 C 
ATOM     10  O   UNL     1      60.332  24.839  61.011  1.00  0.00    -0.294 OA
BRANCH   9  11
ATOM     11  C   UNL     1      60.583  24.645  63.356  1.00  0.00     0.234 C 
BRANCH  11  12
ATOM     12  O   UNL     1      60.490  25.823  64.114  1.00  0.00    -0.388 OA
ATOM     13  H   UNL     1      59.737  26.347  63.733  1.00  0.00     0.211 HD
ENDBRANCH  11  12
ENDBRANCH   9  11
ENDBRANCH   8   9
BRANCH   8  14
ATOM     14  O   UNL     1      57.791  24.370  63.412  1.00  0.00    -0.382 OA
ATOM     15  H   UNL     1      56.867  24.726  63.485  1.00  0.00     0.211 HD
ENDBRANCH   8  14
ENDBRANCH   1   8
BRANCH   1  16
ATOM     16  O   UNL     1      58.548  27.113  61.950  1.00  0.00    -0.387 OA
ATOM     17  H   UNL     1      58.613  27.678  61.137  1.00  0.00     0.211 HD
ENDBRANCH   1  16
TORSDOF 10
ENDMDL
MODEL 7
REMARK VINA RESULT:    -3.404     12.608     13.547
REMARK INTER + INTRA:          -5.606
REMARK INTER:                  -4.520
REMARK INTRA:                  -1.086
REMARK UNBOUND:                -0.709
REMARK SMILES O=C(CO)[C@@H](O)[C@H](O)[C@H](O)CO
REMARK SMILES IDX 7 1 9 2 11 3 12 4 10 6 5 8 2 9 1 10 3 11 4 12 6 14 8 16
REMARK H PARENT 12 5 10 7 4 13 6 15 8 17
REMARK Flexibility Score: inf
ROOT
ATOM      1  C   UNL     1      58.086  27.226  61.287  1.00  0.00     0.181 C 
ENDROOT
BRANCH   1   2
ATOM      2  C   UNL     1      56.834  27.069  62.196  1.00  0.00     0.171 C 
BRANCH   2   3
ATOM      3  C   UNL     1      55.549  27.627  61.561  1.00  0.00     0.190 C 
BRANCH   3   4
ATOM      4  O   UNL     1      55.559  29.028  61.563  1.00  0.00    -0.394 OA
ATOM      5  H   UNL     1      56.485  29.297  61.799  1.00  0.00     0.210 HD
ENDBRANCH   3   4
ENDBRANCH   2   3
BRANCH   2   6
ATOM      6  O   UNL     1      56.632  25.728  62.565  1.00  0.00    -0.388 OA
ATOM      7  H   UNL     1      56.074  25.728  63.385  1.00  0.00     0.211 HD
ENDBRANCH   2   6
ENDBRANCH   1   2
BRANCH   1   8
ATOM      8  C   UNL     1      59.209  26.185  61.536  1.00  0.00     0.214 C 
BRANCH   8   9
ATOM      9  C   UNL     1      60.453  26.556  60.756  1.00  0.00     0.189 C 
ATOM     10  O   UNL     1      60.414  26.531  59.533  1.00  0.00    -0.294 OA
BRANCH   9  11
ATOM     11  C   UNL     1      61.737  26.927  61.455  1.00  0.00     0.234 C 
BRANCH  11  12
ATOM     12  O   UNL     1      61.615  28.153  62.127  1.00  0.00    -0.388 OA
ATOM     13  H   UNL     1      61.071  27.980  62.939  1.00  0.00     0.211 HD
ENDBRANCH  11  12
ENDBRANCH   9  11
ENDBRANCH   8   9
BRANCH   8  14
ATOM     14  O   UNL     1      59.490  26.094  62.910  1.00  0.00    -0.382 OA
ATOM     15  H   UNL     1      59.729  27.008  63.217  1.00  0.00     0.211 HD
ENDBRANCH   8  14
ENDBRANCH   1   8
BRANCH   1  16
ATOM     16  O   UNL     1      58.584  28.540  61.371  1.00  0.00    -0.387 OA
ATOM     17  H   UNL     1      59.201  28.681  60.606  1.00  0.00     0.211 HD
ENDBRANCH   1  16
TORSDOF 10
ENDMDL
MODEL 8
REMARK VINA RESULT:    -3.342     21.715     22.539
REMARK INTER + INTRA:          -5.517
REMARK INTER:                  -4.673
REMARK INTRA:                  -0.844
REMARK UNBOUND:                -0.709
REMARK SMILES O=C(CO)[C@@H](O)[C@H](O)[C@H](O)CO
REMARK SMILES IDX 7 1 9 2 11 3 12 4 10 6 5 8 2 9 1 10 3 11 4 12 6 14 8 16
REMARK H PARENT 12 5 10 7 4 13 6 15 8 17
REMARK Flexibility Score: inf
ROOT
ATOM      1  C   UNL     1      70.685  34.589  57.483  1.00  0.00     0.181 C 
ENDROOT
BRANCH   1   2
ATOM      2  C   UNL     1      69.825  35.878  57.347  1.00  0.00     0.171 C 
BRANCH   2   3
ATOM      3  C   UNL     1      68.355  35.672  57.749  1.00  0.00     0.190 C 
BRANCH   3   4
ATOM      4  O   UNL     1      68.141  36.065  59.077  1.00  0.00    -0.394 OA
ATOM      5  H   UNL     1      67.157  36.065  59.209  1.00  0.00     0.210 HD
ENDBRANCH   3   4
ENDBRANCH   2   3
BRANCH   2   6
ATOM      6  O   UNL     1      70.371  36.940  58.091  1.00  0.00    -0.388 OA
ATOM      7  H   UNL     1      71.358  36.849  58.054  1.00  0.00     0.211 HD
ENDBRANCH   2   6
ENDBRANCH   1   2
BRANCH   1   8
ATOM      8  C   UNL     1      70.474  33.799  58.802  1.00  0.00     0.214 C 
BRANCH   8   9
ATOM      9  C   UNL     1      71.307  32.535  58.797  1.00  0.00     0.189 C 
ATOM     10  O   UNL     1      71.803  32.157  57.745  1.00  0.00    -0.294 OA
BRANCH   9  11
ATOM     11  C   UNL     1      71.513  31.726  60.054  1.00  0.00     0.234 C 
BRANCH  11  12
ATOM     12  O   UNL     1      72.221  32.457  61.020  1.00  0.00    -0.388 OA
ATOM     13  H   UNL     1      72.548  33.280  60.571  1.00  0.00     0.211 HD
ENDBRANCH  11  12
ENDBRANCH   9  11
ENDBRANCH   8   9
BRANCH   8  14
ATOM     14  O   UNL     1      70.795  34.605  59.908  1.00  0.00    -0.382 OA
ATOM     15  H   UNL     1      71.466  34.105  60.443  1.00  0.00     0.211 HD
ENDBRANCH   8  14
ENDBRANCH   1   8
BRANCH   1  16
ATOM     16  O   UNL     1      72.045  34.892  57.286  1.00  0.00    -0.387 OA
ATOM     17  H   UNL     1      72.582  34.185  57.731  1.00  0.00     0.211 HD
ENDBRANCH   1  16
TORSDOF 10
ENDMDL
