MODEL 1
REMARK VINA RESULT:    10.204      0.000      0.000
REMARK INTER + INTRA:          21.309
REMARK INTER:                  22.134
REMARK INTRA:                  -0.825
REMARK UNBOUND:                -0.825
REMARK SMILES CCCCCCCCCCCCCCCCCCCCCC(=O)[O-]
REMARK SMILES IDX 12 1 11 2 10 3 9 4 8 5 7 6 6 7 5 8 4 9 3 10 2 11 1 12 13 13
REMARK SMILES IDX 14 14 15 15 16 16 17 17 18 18 19 19 20 20 21 21 22 22 23 23
REMARK SMILES IDX 24 24
REMARK H PARENT
REMARK Flexibility Score: inf
ROOT
ATOM      1  C   UNL     1      89.698  10.740 105.130  1.00  0.00     0.000 C 
ENDROOT
BRANCH   1   2
ATOM      2  C   UNL     1      90.323   9.338 105.239  1.00  0.00     0.000 C 
BRANCH   2   3
ATOM      3  C   UNL     1      90.941   9.069 106.622  1.00  0.00     0.000 C 
BRANCH   3   4
ATOM      4  C   UNL     1      91.199   7.574 106.877  1.00  0.00    -0.000 C 
BRANCH   4   5
ATOM      5  C   UNL     1      90.058   6.907 107.663  1.00  0.00    -0.000 C 
BRANCH   5   6
ATOM      6  C   UNL     1      90.233   7.030 109.184  1.00  0.00    -0.000 C 
BRANCH   6   7
ATOM      7  C   UNL     1      89.072   7.818 109.807  1.00  0.00    -0.000 C 
BRANCH   7   8
ATOM      8  C   UNL     1      87.987   6.909 110.410  1.00  0.00    -0.000 C 
BRANCH   8   9
ATOM      9  C   UNL     1      86.772   7.682 110.965  1.00  0.00    -0.000 C 
BRANCH   9  10
ATOM     10  C   UNL     1      86.989   8.129 112.421  1.00  0.00    -0.000 C 
BRANCH  10  11
ATOM     11  C   UNL     1      86.072   7.390 113.408  1.00  0.00    -0.003 C 
ATOM     12  C   UNL     1      86.818   6.877 114.638  1.00  0.00     0.004 C 
ENDBRANCH  10  11
ENDBRANCH   9  10
ENDBRANCH   8   9
ENDBRANCH   7   8
ENDBRANCH   6   7
ENDBRANCH   5   6
ENDBRANCH   4   5
ENDBRANCH   3   4
ENDBRANCH   2   3
ENDBRANCH   1   2
BRANCH   1  13
ATOM     13  C   UNL     1      89.114  11.229 106.466  1.00  0.00     0.000 C 
BRANCH  13  14
ATOM     14  C   UNL     1      89.434  12.710 106.742  1.00  0.00     0.000 C 
BRANCH  14  15
ATOM     15  C   UNL     1      88.420  13.663 106.090  1.00  0.00     0.000 C 
BRANCH  15  16
ATOM     16  C   UNL     1      87.687  14.537 107.121  1.00  0.00     0.000 C 
BRANCH  16  17
ATOM     17  C   UNL     1      86.203  14.164 107.270  1.00  0.00     0.000 C 
BRANCH  17  18
ATOM     18  C   UNL     1      85.257  15.384 107.337  1.00  0.00     0.000 C 
BRANCH  18  19
ATOM     19  C   UNL     1      83.835  15.027 107.801  1.00  0.00     0.000 C 
BRANCH  19  20
ATOM     20  C   UNL     1      83.462  13.555 107.511  1.00  0.00     0.006 C 
BRANCH  20  21
ATOM     21  C   UNL     1      83.142  12.786 108.801  1.00  0.00     0.053 C 
BRANCH  21  22
ATOM     22  C   UNL     1      83.295  13.656 110.013  1.00  0.00     0.041 C 
ATOM     23  O   UNL     1      82.282  14.059 110.644  1.00  0.00    -0.550 OA
ATOM     24  O   UNL     1      84.564  14.000 110.462  1.00  0.00    -0.550 OA
ENDBRANCH  21  22
ENDBRANCH  20  21
ENDBRANCH  19  20
ENDBRANCH  18  19
ENDBRANCH  17  18
ENDBRANCH  16  17
ENDBRANCH  15  16
ENDBRANCH  14  15
ENDBRANCH  13  14
ENDBRANCH   1  13
TORSDOF 20
ENDMDL
MODEL 2
REMARK VINA RESULT:    10.930      6.585      9.903
REMARK INTER + INTRA:          22.884
REMARK INTER:                  23.416
REMARK INTRA:                  -0.531
REMARK UNBOUND:                -0.825
REMARK SMILES CCCCCCCCCCCCCCCCCCCCCC(=O)[O-]
REMARK SMILES IDX 12 1 11 2 10 3 9 4 8 5 7 6 6 7 5 8 4 9 3 10 2 11 1 12 13 13
REMARK SMILES IDX 14 14 15 15 16 16 17 17 18 18 19 19 20 20 21 21 22 22 23 23
REMARK SMILES IDX 24 24
REMARK H PARENT
REMARK Flexibility Score: inf
ROOT
ATOM      1  C   UNL     1      86.308  19.015 108.346  1.00  0.00     0.000 C 
ENDROOT
BRANCH   1   2
ATOM      2  C   UNL     1      84.975  18.538 107.742  1.00  0.00     0.000 C 
BRANCH   2   3
ATOM      3  C   UNL     1      84.609  17.106 108.168  1.00  0.00     0.000 C 
BRANCH   3   4
ATOM      4  C   UNL     1      84.898  16.068 107.071  1.00  0.00    -0.000 C 
BRANCH   4   5
ATOM      5  C   UNL     1      83.617  15.568 106.383  1.00  0.00    -0.000 C 
BRANCH   5   6
ATOM      6  C   UNL     1      82.798  14.620 107.271  1.00  0.00    -0.000 C 
BRANCH   6   7
ATOM      7  C   UNL     1      83.231  13.162 107.061  1.00  0.00    -0.000 C 
BRANCH   7   8
ATOM      8  C   UNL     1      83.944  12.567 108.288  1.00  0.00    -0.000 C 
BRANCH   8   9
ATOM      9  C   UNL     1      84.703  13.615 109.130  1.00  0.00    -0.000 C 
BRANCH   9  10
ATOM     10  C   UNL     1      84.034  13.854 110.494  1.00  0.00    -0.000 C 
BRANCH  10  11
ATOM     11  C   UNL     1      82.592  13.327 110.546  1.00  0.00    -0.003 C 
ATOM     12  C   UNL     1      81.790  13.910 111.707  1.00  0.00     0.004 C 
ENDBRANCH  10  11
ENDBRANCH   9  10
ENDBRANCH   8   9
ENDBRANCH   7   8
ENDBRANCH   6   7
ENDBRANCH   5   6
ENDBRANCH   4   5
ENDBRANCH   3   4
ENDBRANCH   2   3
ENDBRANCH   1   2
BRANCH   1  13
ATOM     13  C   UNL     1      86.112  20.088 109.430  1.00  0.00     0.000 C 
BRANCH  13  14
ATOM     14  C   UNL     1      87.292  21.075 109.503  1.00  0.00     0.000 C 
BRANCH  14  15
ATOM     15  C   UNL     1      88.231  20.785 110.683  1.00  0.00     0.000 C 
BRANCH  15  16
ATOM     16  C   UNL     1      88.243  21.920 111.719  1.00  0.00     0.000 C 
BRANCH  16  17
ATOM     17  C   UNL     1      89.435  22.876 111.542  1.00  0.00     0.000 C 
BRANCH  17  18
ATOM     18  C   UNL     1      90.303  23.031 112.812  1.00  0.00     0.000 C 
BRANCH  18  19
ATOM     19  C   UNL     1      90.319  21.773 113.695  1.00  0.00     0.000 C 
BRANCH  19  20
ATOM     20  C   UNL     1      90.894  20.536 112.966  1.00  0.00     0.006 C 
BRANCH  20  21
ATOM     21  C   UNL     1      92.030  20.921 112.007  1.00  0.00     0.053 C 
BRANCH  21  22
ATOM     22  C   UNL     1      92.876  19.735 111.652  1.00  0.00     0.041 C 
ATOM     23  O   UNL     1      92.909  18.724 112.403  1.00  0.00    -0.550 OA
ATOM     24  O   UNL     1      93.609  19.737 110.473  1.00  0.00    -0.550 OA
ENDBRANCH  21  22
ENDBRANCH  20  21
ENDBRANCH  19  20
ENDBRANCH  18  19
ENDBRANCH  17  18
ENDBRANCH  16  17
ENDBRANCH  15  16
ENDBRANCH  14  15
ENDBRANCH  13  14
ENDBRANCH   1  13
TORSDOF 20
ENDMDL
MODEL 3
REMARK VINA RESULT:    10.949      6.220      9.690
REMARK INTER + INTRA:          22.925
REMARK INTER:                  22.722
REMARK INTRA:                   0.203
REMARK UNBOUND:                -0.825
REMARK SMILES CCCCCCCCCCCCCCCCCCCCCC(=O)[O-]
REMARK SMILES IDX 12 1 11 2 10 3 9 4 8 5 7 6 6 7 5 8 4 9 3 10 2 11 1 12 13 13
REMARK SMILES IDX 14 14 15 15 16 16 17 17 18 18 19 19 20 20 21 21 22 22 23 23
REMARK SMILES IDX 24 24
REMARK H PARENT
REMARK Flexibility Score: inf
ROOT
ATOM      1  C   UNL     1      86.104  18.639 108.109  1.00  0.00     0.000 C 
ENDROOT
BRANCH   1   2
ATOM      2  C   UNL     1      84.650  18.278 107.756  1.00  0.00     0.000 C 
BRANCH   2   3
ATOM      3  C   UNL     1      84.307  16.813 108.081  1.00  0.00     0.000 C 
BRANCH   3   4
ATOM      4  C   UNL     1      84.736  15.843 106.968  1.00  0.00    -0.000 C 
BRANCH   4   5
ATOM      5  C   UNL     1      83.535  15.178 106.274  1.00  0.00    -0.000 C 
BRANCH   5   6
ATOM      6  C   UNL     1      82.791  14.194 107.190  1.00  0.00    -0.000 C 
BRANCH   6   7
ATOM      7  C   UNL     1      83.542  12.858 107.285  1.00  0.00    -0.000 C 
BRANCH   7   8
ATOM      8  C   UNL     1      84.695  12.891 108.303  1.00  0.00    -0.000 C 
BRANCH   8   9
ATOM      9  C   UNL     1      84.424  13.811 109.512  1.00  0.00    -0.000 C 
BRANCH   9  10
ATOM     10  C   UNL     1      82.920  13.967 109.795  1.00  0.00    -0.000 C 
BRANCH  10  11
ATOM     11  C   UNL     1      82.458  13.142 111.005  1.00  0.00    -0.003 C 
ATOM     12  C   UNL     1      81.551  13.930 111.947  1.00  0.00     0.004 C 
ENDBRANCH  10  11
ENDBRANCH   9  10
ENDBRANCH   8   9
ENDBRANCH   7   8
ENDBRANCH   6   7
ENDBRANCH   5   6
ENDBRANCH   4   5
ENDBRANCH   3   4
ENDBRANCH   2   3
ENDBRANCH   1   2
BRANCH   1  13
ATOM     13  C   UNL     1      86.196  19.634 109.278  1.00  0.00     0.000 C 
BRANCH  13  14
ATOM     14  C   UNL     1      86.231  21.099 108.805  1.00  0.00     0.000 C 
BRANCH  14  15
ATOM     15  C   UNL     1      87.457  21.859 109.331  1.00  0.00     0.000 C 
BRANCH  15  16
ATOM     16  C   UNL     1      88.189  21.094 110.446  1.00  0.00     0.000 C 
BRANCH  16  17
ATOM     17  C   UNL     1      88.129  21.815 111.803  1.00  0.00     0.000 C 
BRANCH  17  18
ATOM     18  C   UNL     1      89.015  23.080 111.876  1.00  0.00     0.000 C 
BRANCH  18  19
ATOM     19  C   UNL     1      90.487  22.772 112.197  1.00  0.00     0.000 C 
BRANCH  19  20
ATOM     20  C   UNL     1      90.684  22.192 113.616  1.00  0.00     0.006 C 
BRANCH  20  21
ATOM     21  C   UNL     1      91.837  21.179 113.659  1.00  0.00     0.053 C 
BRANCH  21  22
ATOM     22  C   UNL     1      91.639  20.077 112.663  1.00  0.00     0.041 C 
ATOM     23  O   UNL     1      90.544  19.455 112.604  1.00  0.00    -0.550 OA
ATOM     24  O   UNL     1      92.659  19.753 111.777  1.00  0.00    -0.550 OA
ENDBRANCH  21  22
ENDBRANCH  20  21
ENDBRANCH  19  20
ENDBRANCH  18  19
ENDBRANCH  17  18
ENDBRANCH  16  17
ENDBRANCH  15  16
ENDBRANCH  14  15
ENDBRANCH  13  14
ENDBRANCH   1  13
TORSDOF 20
ENDMDL
MODEL 4
REMARK VINA RESULT:    11.013      5.801     10.269
REMARK INTER + INTRA:          23.063
REMARK INTER:                  22.931
REMARK INTRA:                   0.132
REMARK UNBOUND:                -0.825
REMARK SMILES CCCCCCCCCCCCCCCCCCCCCC(=O)[O-]
REMARK SMILES IDX 12 1 11 2 10 3 9 4 8 5 7 6 6 7 5 8 4 9 3 10 2 11 1 12 13 13
REMARK SMILES IDX 14 14 15 15 16 16 17 17 18 18 19 19 20 20 21 21 22 22 23 23
REMARK SMILES IDX 24 24
REMARK H PARENT
REMARK Flexibility Score: inf
ROOT
ATOM      1  C   UNL     1      85.194  19.329 107.617  1.00  0.00     0.000 C 
ENDROOT
BRANCH   1   2
ATOM      2  C   UNL     1      85.794  19.307 109.034  1.00  0.00     0.000 C 
BRANCH   2   3
ATOM      3  C   UNL     1      87.183  19.967 109.100  1.00  0.00     0.000 C 
BRANCH   3   4
ATOM      4  C   UNL     1      87.217  21.186 110.037  1.00  0.00    -0.000 C 
BRANCH   4   5
ATOM      5  C   UNL     1      88.613  21.432 110.630  1.00  0.00    -0.000 C 
BRANCH   5   6
ATOM      6  C   UNL     1      88.562  22.106 112.010  1.00  0.00    -0.000 C 
BRANCH   6   7
ATOM      7  C   UNL     1      89.691  23.136 112.159  1.00  0.00    -0.000 C 
BRANCH   7   8
ATOM      8  C   UNL     1      90.807  22.668 113.108  1.00  0.00    -0.000 C 
BRANCH   8   9
ATOM      9  C   UNL     1      90.554  21.272 113.717  1.00  0.00    -0.000 C 
BRANCH   9  10
ATOM     10  C   UNL     1      90.956  20.141 112.755  1.00  0.00    -0.000 C 
BRANCH  10  11
ATOM     11  C   UNL     1      92.184  20.497 111.904  1.00  0.00    -0.003 C 
ATOM     12  C   UNL     1      93.138  19.320 111.720  1.00  0.00     0.004 C 
ENDBRANCH  10  11
ENDBRANCH   9  10
ENDBRANCH   8   9
ENDBRANCH   7   8
ENDBRANCH   6   7
ENDBRANCH   5   6
ENDBRANCH   4   5
ENDBRANCH   3   4
ENDBRANCH   2   3
ENDBRANCH   1   2
BRANCH   1  13
ATOM     13  C   UNL     1      84.183  18.192 107.390  1.00  0.00     0.000 C 
BRANCH  13  14
ATOM     14  C   UNL     1      84.597  16.885 108.091  1.00  0.00     0.000 C 
BRANCH  14  15
ATOM     15  C   UNL     1      84.936  15.764 107.097  1.00  0.00     0.000 C 
BRANCH  15  16
ATOM     16  C   UNL     1      83.696  15.245 106.350  1.00  0.00     0.000 C 
BRANCH  16  17
ATOM     17  C   UNL     1      82.790  14.371 107.233  1.00  0.00     0.000 C 
BRANCH  17  18
ATOM     18  C   UNL     1      83.252  12.900 107.335  1.00  0.00     0.000 C 
BRANCH  18  19
ATOM     19  C   UNL     1      84.344  12.678 108.395  1.00  0.00     0.000 C 
BRANCH  19  20
ATOM     20  C   UNL     1      84.514  13.886 109.343  1.00  0.00     0.006 C 
BRANCH  20  21
ATOM     21  C   UNL     1      84.089  13.544 110.779  1.00  0.00     0.053 C 
BRANCH  21  22
ATOM     22  C   UNL     1      82.601  13.612 110.944  1.00  0.00     0.041 C 
ATOM     23  O   UNL     1      81.910  14.374 110.216  1.00  0.00    -0.550 OA
ATOM     24  O   UNL     1      81.972  12.810 111.887  1.00  0.00    -0.550 OA
ENDBRANCH  21  22
ENDBRANCH  20  21
ENDBRANCH  19  20
ENDBRANCH  18  19
ENDBRANCH  17  18
ENDBRANCH  16  17
ENDBRANCH  15  16
ENDBRANCH  14  15
ENDBRANCH  13  14
ENDBRANCH   1  13
TORSDOF 20
ENDMDL
MODEL 5
REMARK VINA RESULT:    11.101      6.124     10.465
REMARK INTER + INTRA:          23.256
REMARK INTER:                  22.415
REMARK INTRA:                   0.841
REMARK UNBOUND:                -0.825
REMARK SMILES CCCCCCCCCCCCCCCCCCCCCC(=O)[O-]
REMARK SMILES IDX 12 1 11 2 10 3 9 4 8 5 7 6 6 7 5 8 4 9 3 10 2 11 1 12 13 13
REMARK SMILES IDX 14 14 15 15 16 16 17 17 18 18 19 19 20 20 21 21 22 22 23 23
REMARK SMILES IDX 24 24
REMARK H PARENT
REMARK Flexibility Score: inf
ROOT
ATOM      1  C   UNL     1      86.131  19.972 109.120  1.00  0.00     0.000 C 
ENDROOT
BRANCH   1   2
ATOM      2  C   UNL     1      86.543  21.405 108.741  1.00  0.00     0.000 C 
BRANCH   2   3
ATOM      3  C   UNL     1      87.799  21.880 109.492  1.00  0.00     0.000 C 
BRANCH   3   4
ATOM      4  C   UNL     1      88.043  21.098 110.793  1.00  0.00    -0.000 C 
BRANCH   4   5
ATOM      5  C   UNL     1      88.494  22.006 111.949  1.00  0.00    -0.000 C 
BRANCH   5   6
ATOM      6  C   UNL     1      89.810  22.740 111.649  1.00  0.00    -0.000 C 
BRANCH   6   7
ATOM      7  C   UNL     1      90.592  23.014 112.941  1.00  0.00    -0.000 C 
BRANCH   7   8
ATOM      8  C   UNL     1      90.820  21.746 113.783  1.00  0.00    -0.000 C 
BRANCH   8   9
ATOM      9  C   UNL     1      90.195  20.476 113.168  1.00  0.00    -0.000 C 
BRANCH   9  10
ATOM     10  C   UNL     1      91.260  19.534 112.580  1.00  0.00    -0.000 C 
BRANCH  10  11
ATOM     11  C   UNL     1      92.555  20.269 112.204  1.00  0.00    -0.003 C 
ATOM     12  C   UNL     1      93.405  19.494 111.200  1.00  0.00     0.004 C 
ENDBRANCH  10  11
ENDBRANCH   9  10
ENDBRANCH   8   9
ENDBRANCH   7   8
ENDBRANCH   6   7
ENDBRANCH   5   6
ENDBRANCH   4   5
ENDBRANCH   3   4
ENDBRANCH   2   3
ENDBRANCH   1   2
BRANCH   1  13
ATOM     13  C   UNL     1      85.272  19.301 108.034  1.00  0.00     0.000 C 
BRANCH  13  14
ATOM     14  C   UNL     1      85.464  17.773 107.992  1.00  0.00     0.000 C 
BRANCH  14  15
ATOM     15  C   UNL     1      84.274  17.048 107.347  1.00  0.00     0.000 C 
BRANCH  15  16
ATOM     16  C   UNL     1      84.479  15.526 107.277  1.00  0.00     0.000 C 
BRANCH  16  17
ATOM     17  C   UNL     1      83.236  14.779 106.766  1.00  0.00     0.000 C 
BRANCH  17  18
ATOM     18  C   UNL     1      83.244  13.266 107.083  1.00  0.00     0.000 C 
BRANCH  18  19
ATOM     19  C   UNL     1      84.361  12.855 108.057  1.00  0.00     0.000 C 
BRANCH  19  20
ATOM     20  C   UNL     1      84.109  13.348 109.500  1.00  0.00     0.006 C 
BRANCH  20  21
ATOM     21  C   UNL     1      82.644  13.755 109.713  1.00  0.00     0.053 C 
BRANCH  21  22
ATOM     22  C   UNL     1      82.281  13.767 111.168  1.00  0.00     0.041 C 
ATOM     23  O   UNL     1      83.021  13.201 112.017  1.00  0.00    -0.550 OA
ATOM     24  O   UNL     1      81.136  14.429 111.590  1.00  0.00    -0.550 OA
ENDBRANCH  21  22
ENDBRANCH  20  21
ENDBRANCH  19  20
ENDBRANCH  18  19
ENDBRANCH  17  18
ENDBRANCH  16  17
ENDBRANCH  15  16
ENDBRANCH  14  15
ENDBRANCH  13  14
ENDBRANCH   1  13
TORSDOF 20
ENDMDL
MODEL 6
REMARK VINA RESULT:    11.106      6.309     10.535
REMARK INTER + INTRA:          23.266
REMARK INTER:                  24.772
REMARK INTRA:                  -1.506
REMARK UNBOUND:                -0.825
REMARK SMILES CCCCCCCCCCCCCCCCCCCCCC(=O)[O-]
REMARK SMILES IDX 12 1 11 2 10 3 9 4 8 5 7 6 6 7 5 8 4 9 3 10 2 11 1 12 13 13
REMARK SMILES IDX 14 14 15 15 16 16 17 17 18 18 19 19 20 20 21 21 22 22 23 23
REMARK SMILES IDX 24 24
REMARK H PARENT
REMARK Flexibility Score: inf
ROOT
ATOM      1  C   UNL     1      86.179  20.000 109.801  1.00  0.00     0.000 C 
ENDROOT
BRANCH   1   2
ATOM      2  C   UNL     1      87.045  21.233 109.489  1.00  0.00     0.000 C 
BRANCH   2   3
ATOM      3  C   UNL     1      88.380  21.232 110.254  1.00  0.00     0.000 C 
BRANCH   3   4
ATOM      4  C   UNL     1      88.277  21.917 111.628  1.00  0.00    -0.000 C 
BRANCH   4   5
ATOM      5  C   UNL     1      89.077  23.228 111.691  1.00  0.00    -0.000 C 
BRANCH   5   6
ATOM      6  C   UNL     1      90.545  23.009 112.087  1.00  0.00    -0.000 C 
BRANCH   6   7
ATOM      7  C   UNL     1      90.675  22.765 113.597  1.00  0.00    -0.000 C 
BRANCH   7   8
ATOM      8  C   UNL     1      91.259  21.382 113.931  1.00  0.00    -0.000 C 
BRANCH   8   9
ATOM      9  C   UNL     1      90.432  20.209 113.362  1.00  0.00    -0.000 C 
BRANCH   9  10
ATOM     10  C   UNL     1      91.126  19.542 112.162  1.00  0.00    -0.000 C 
BRANCH  10  11
ATOM     11  C   UNL     1      92.654  19.495 112.314  1.00  0.00    -0.003 C 
ATOM     12  C   UNL     1      93.388  19.936 111.050  1.00  0.00     0.004 C 
ENDBRANCH  10  11
ENDBRANCH   9  10
ENDBRANCH   8   9
ENDBRANCH   7   8
ENDBRANCH   6   7
ENDBRANCH   5   6
ENDBRANCH   4   5
ENDBRANCH   3   4
ENDBRANCH   2   3
ENDBRANCH   1   2
BRANCH   1  13
ATOM     13  C   UNL     1      86.235  18.944 108.684  1.00  0.00     0.000 C 
BRANCH  13  14
ATOM     14  C   UNL     1      85.104  19.115 107.654  1.00  0.00     0.000 C 
BRANCH  14  15
ATOM     15  C   UNL     1      84.174  17.894 107.593  1.00  0.00     0.000 C 
BRANCH  15  16
ATOM     16  C   UNL     1      84.893  16.587 107.965  1.00  0.00     0.000 C 
BRANCH  16  17
ATOM     17  C   UNL     1      84.759  15.503 106.883  1.00  0.00     0.000 C 
BRANCH  17  18
ATOM     18  C   UNL     1      83.300  15.232 106.451  1.00  0.00     0.000 C 
BRANCH  18  19
ATOM     19  C   UNL     1      82.700  13.969 107.092  1.00  0.00     0.000 C 
BRANCH  19  20
ATOM     20  C   UNL     1      83.774  12.933 107.495  1.00  0.00     0.006 C 
BRANCH  20  21
ATOM     21  C   UNL     1      83.552  12.410 108.921  1.00  0.00     0.053 C 
BRANCH  21  22
ATOM     22  C   UNL     1      83.664  13.509 109.934  1.00  0.00     0.041 C 
ATOM     23  O   UNL     1      84.756  14.116 110.103  1.00  0.00    -0.550 OA
ATOM     24  O   UNL     1      82.551  13.884 110.675  1.00  0.00    -0.550 OA
ENDBRANCH  21  22
ENDBRANCH  20  21
ENDBRANCH  19  20
ENDBRANCH  18  19
ENDBRANCH  17  18
ENDBRANCH  16  17
ENDBRANCH  15  16
ENDBRANCH  14  15
ENDBRANCH  13  14
ENDBRANCH   1  13
TORSDOF 20
ENDMDL
MODEL 7
REMARK VINA RESULT:    11.165      2.444      7.664
REMARK INTER + INTRA:          23.395
REMARK INTER:                  24.952
REMARK INTRA:                  -1.557
REMARK UNBOUND:                -0.825
REMARK SMILES CCCCCCCCCCCCCCCCCCCCCC(=O)[O-]
REMARK SMILES IDX 12 1 11 2 10 3 9 4 8 5 7 6 6 7 5 8 4 9 3 10 2 11 1 12 13 13
REMARK SMILES IDX 14 14 15 15 16 16 17 17 18 18 19 19 20 20 21 21 22 22 23 23
REMARK SMILES IDX 24 24
REMARK H PARENT
REMARK Flexibility Score: inf
ROOT
ATOM      1  C   UNL     1      88.364  14.099 106.249  1.00  0.00     0.000 C 
ENDROOT
BRANCH   1   2
ATOM      2  C   UNL     1      87.864  13.614 107.621  1.00  0.00     0.000 C 
BRANCH   2   3
ATOM      3  C   UNL     1      86.507  14.226 108.009  1.00  0.00     0.000 C 
BRANCH   3   4
ATOM      4  C   UNL     1      85.942  15.155 106.921  1.00  0.00    -0.000 C 
BRANCH   4   5
ATOM      5  C   UNL     1      84.716  15.947 107.404  1.00  0.00    -0.000 C 
BRANCH   5   6
ATOM      6  C   UNL     1      83.513  15.813 106.458  1.00  0.00    -0.000 C 
BRANCH   6   7
ATOM      7  C   UNL     1      83.000  14.367 106.425  1.00  0.00    -0.000 C 
BRANCH   7   8
ATOM      8  C   UNL     1      82.597  13.843 107.814  1.00  0.00    -0.000 C 
BRANCH   8   9
ATOM      9  C   UNL     1      83.541  12.750 108.360  1.00  0.00    -0.000 C 
BRANCH   9  10
ATOM     10  C   UNL     1      83.985  13.038 109.804  1.00  0.00    -0.000 C 
BRANCH  10  11
ATOM     11  C   UNL     1      83.055  14.029 110.521  1.00  0.00    -0.003 C 
ATOM     12  C   UNL     1      82.011  13.336 111.394  1.00  0.00     0.004 C 
ENDBRANCH  10  11
ENDBRANCH   9  10
ENDBRANCH   8   9
ENDBRANCH   7   8
ENDBRANCH   6   7
ENDBRANCH   5   6
ENDBRANCH   4   5
ENDBRANCH   3   4
ENDBRANCH   2   3
ENDBRANCH   1   2
BRANCH   1  13
ATOM     13  C   UNL     1      89.430  13.167 105.648  1.00  0.00     0.000 C 
BRANCH  13  14
ATOM     14  C   UNL     1      89.330  11.729 106.190  1.00  0.00     0.000 C 
BRANCH  14  15
ATOM     15  C   UNL     1      89.219  10.684 105.070  1.00  0.00     0.000 C 
BRANCH  15  16
ATOM     16  C   UNL     1      89.745   9.305 105.497  1.00  0.00     0.000 C 
BRANCH  16  17
ATOM     17  C   UNL     1      90.356   9.310 106.908  1.00  0.00     0.000 C 
BRANCH  17  18
ATOM     18  C   UNL     1      91.144   8.025 107.251  1.00  0.00     0.000 C 
BRANCH  18  19
ATOM     19  C   UNL     1      90.574   7.267 108.461  1.00  0.00     0.000 C 
BRANCH  19  20
ATOM     20  C   UNL     1      89.192   7.799 108.905  1.00  0.00     0.006 C 
BRANCH  20  21
ATOM     21  C   UNL     1      89.009   7.701 110.427  1.00  0.00     0.053 C 
BRANCH  21  22
ATOM     22  C   UNL     1      87.586   7.407 110.792  1.00  0.00     0.041 C 
ATOM     23  O   UNL     1      87.304   6.884 111.904  1.00  0.00    -0.550 OA
ATOM     24  O   UNL     1      86.563   7.737 109.912  1.00  0.00    -0.550 OA
ENDBRANCH  21  22
ENDBRANCH  20  21
ENDBRANCH  19  20
ENDBRANCH  18  19
ENDBRANCH  17  18
ENDBRANCH  16  17
ENDBRANCH  15  16
ENDBRANCH  14  15
ENDBRANCH  13  14
ENDBRANCH   1  13
TORSDOF 20
ENDMDL
