MODEL 1
REMARK VINA RESULT:    -1.451      0.000      0.000
REMARK INTER + INTRA:          -1.679
REMARK INTER:                  -1.578
REMARK INTRA:                  -0.100
REMARK UNBOUND:                -0.100
REMARK SMILES Cc1ccc(C(C)C)cc1O
REMARK SMILES IDX 1 1 2 2 10 3 9 4 5 5 4 6 3 7 11 8 6 10 7 11 8 12
REMARK H PARENT 11 9
REMARK Flexibility Score: inf
ROOT
ATOM      1  C   UNL     1      15.559  94.207   8.808  1.00  0.00     0.048 C 
ATOM      2  C   UNL     1      16.405  95.450   8.779  1.00  0.00    -0.009 A 
ATOM      3  C   UNL     1      15.951  96.657   9.358  1.00  0.00     0.118 A 
ATOM      4  C   UNL     1      16.762  97.797   9.315  1.00  0.00     0.050 A 
ATOM      5  C   UNL     1      18.027  97.761   8.701  1.00  0.00    -0.042 A 
ATOM      6  C   UNL     1      18.470  96.558   8.129  1.00  0.00     0.004 A 
ATOM      7  C   UNL     1      17.668  95.416   8.168  1.00  0.00     0.007 A 
ENDROOT
BRANCH   3   8
ATOM      8  O   UNL     1      14.705  96.755   9.981  1.00  0.00    -0.508 OA
ATOM      9  H   UNL     1      13.968  96.074   9.851  1.00  0.00     0.293 HD
ENDBRANCH   3   8
BRANCH   5  10
ATOM     10  C   UNL     1      18.910  98.995   8.653  1.00  0.00     0.013 C 
ATOM     11  C   UNL     1      19.658  99.192   9.976  1.00  0.00     0.012 C 
ATOM     12  C   UNL     1      18.097 100.242   8.286  1.00  0.00     0.012 C 
ENDBRANCH   5  10
TORSDOF 2
ENDMDL
MODEL 2
REMARK VINA RESULT:    -1.251      1.466      2.068
REMARK INTER + INTRA:          -1.461
REMARK INTER:                  -1.333
REMARK INTRA:                  -0.128
REMARK UNBOUND:                -0.100
REMARK SMILES Cc1ccc(C(C)C)cc1O
REMARK SMILES IDX 1 1 2 2 10 3 9 4 5 5 4 6 3 7 11 8 6 10 7 11 8 12
REMARK H PARENT 11 9
REMARK Flexibility Score: inf
ROOT
ATOM      1  C   UNL     1      15.384  94.171   8.987  1.00  0.00     0.048 C 
ATOM      2  C   UNL     1      16.294  95.363   8.892  1.00  0.00    -0.009 A 
ATOM      3  C   UNL     1      17.594  95.250   8.347  1.00  0.00     0.118 A 
ATOM      4  C   UNL     1      18.417  96.379   8.272  1.00  0.00     0.050 A 
ATOM      5  C   UNL     1      17.971  97.631   8.733  1.00  0.00    -0.042 A 
ATOM      6  C   UNL     1      16.679  97.735   9.273  1.00  0.00     0.004 A 
ATOM      7  C   UNL     1      15.851  96.613   9.351  1.00  0.00     0.007 A 
ENDROOT
BRANCH   3   8
ATOM      8  O   UNL     1      18.093  94.035   7.874  1.00  0.00    -0.508 OA
ATOM      9  H   UNL     1      18.590  93.947   6.997  1.00  0.00     0.293 HD
ENDBRANCH   3   8
BRANCH   5  10
ATOM     10  C   UNL     1      18.860  98.858   8.654  1.00  0.00     0.013 C 
ATOM     11  C   UNL     1      19.608  99.086   9.972  1.00  0.00     0.012 C 
ATOM     12  C   UNL     1      18.053 100.100   8.256  1.00  0.00     0.012 C 
ENDBRANCH   5  10
TORSDOF 2
ENDMDL
MODEL 3
REMARK VINA RESULT:    -0.498      1.357      3.989
REMARK INTER + INTRA:          -0.642
REMARK INTER:                  -0.515
REMARK INTRA:                  -0.127
REMARK UNBOUND:                -0.100
REMARK SMILES Cc1ccc(C(C)C)cc1O
REMARK SMILES IDX 1 1 2 2 10 3 9 4 5 5 4 6 3 7 11 8 6 10 7 11 8 12
REMARK H PARENT 11 9
REMARK Flexibility Score: inf
ROOT
ATOM      1  C   UNL     1      17.649  99.764   8.716  1.00  0.00     0.048 C 
ATOM      2  C   UNL     1      17.648  98.264   8.618  1.00  0.00    -0.009 A 
ATOM      3  C   UNL     1      16.546  97.502   9.070  1.00  0.00     0.118 A 
ATOM      4  C   UNL     1      16.577  96.107   8.965  1.00  0.00     0.050 A 
ATOM      5  C   UNL     1      17.690  95.446   8.415  1.00  0.00    -0.042 A 
ATOM      6  C   UNL     1      18.780  96.211   7.969  1.00  0.00     0.004 A 
ATOM      7  C   UNL     1      18.758  97.604   8.070  1.00  0.00     0.007 A 
ENDROOT
BRANCH   3   8
ATOM      8  O   UNL     1      15.413  98.099   9.625  1.00  0.00    -0.508 OA
ATOM      9  H   UNL     1      14.715  98.579   9.072  1.00  0.00     0.293 HD
ENDBRANCH   3   8
BRANCH   5  10
ATOM     10  C   UNL     1      17.727  93.934   8.299  1.00  0.00     0.013 C 
ATOM     11  C   UNL     1      18.040  93.282   9.651  1.00  0.00     0.012 C 
ATOM     12  C   UNL     1      18.728  93.487   7.226  1.00  0.00     0.012 C 
ENDBRANCH   5  10
TORSDOF 2
ENDMDL
MODEL 4
REMARK VINA RESULT:    -0.479      1.169      4.047
REMARK INTER + INTRA:          -0.622
REMARK INTER:                  -0.497
REMARK INTRA:                  -0.125
REMARK UNBOUND:                -0.100
REMARK SMILES Cc1ccc(C(C)C)cc1O
REMARK SMILES IDX 1 1 2 2 10 3 9 4 5 5 4 6 3 7 11 8 6 10 7 11 8 12
REMARK H PARENT 11 9
REMARK Flexibility Score: inf
ROOT
ATOM      1  C   UNL     1      17.752 100.000   8.619  1.00  0.00     0.048 C 
ATOM      2  C   UNL     1      17.692  98.498   8.637  1.00  0.00    -0.009 A 
ATOM      3  C   UNL     1      16.523  97.817   9.047  1.00  0.00     0.118 A 
ATOM      4  C   UNL     1      16.500  96.418   9.053  1.00  0.00     0.050 A 
ATOM      5  C   UNL     1      17.625  95.674   8.656  1.00  0.00    -0.042 A 
ATOM      6  C   UNL     1      18.782  96.358   8.250  1.00  0.00     0.004 A 
ATOM      7  C   UNL     1      18.815  97.754   8.241  1.00  0.00     0.007 A 
ENDROOT
BRANCH   3   8
ATOM      8  O   UNL     1      15.375  98.500   9.453  1.00  0.00    -0.508 OA
ATOM      9  H   UNL     1      15.103  99.397   9.072  1.00  0.00     0.293 HD
ENDBRANCH   3   8
BRANCH   5  10
ATOM     10  C   UNL     1      17.603  94.156   8.660  1.00  0.00     0.013 C 
ATOM     11  C   UNL     1      18.429  93.589   7.500  1.00  0.00     0.012 C 
ATOM     12  C   UNL     1      16.165  93.625   8.625  1.00  0.00     0.012 C 
ENDBRANCH   5  10
TORSDOF 2
ENDMDL
MODEL 5
REMARK VINA RESULT:    -0.346      1.994      4.160
REMARK INTER + INTRA:          -0.477
REMARK INTER:                  -0.377
REMARK INTRA:                  -0.100
REMARK UNBOUND:                -0.100
REMARK SMILES Cc1ccc(C(C)C)cc1O
REMARK SMILES IDX 1 1 2 2 10 3 9 4 5 5 4 6 3 7 11 8 6 10 7 11 8 12
REMARK H PARENT 11 9
REMARK Flexibility Score: inf
ROOT
ATOM      1  C   UNL     1      15.647  98.927   9.338  1.00  0.00     0.048 C 
ATOM      2  C   UNL     1      16.283  97.582   9.123  1.00  0.00    -0.009 A 
ATOM      3  C   UNL     1      17.620  97.468   8.677  1.00  0.00     0.118 A 
ATOM      4  C   UNL     1      18.182  96.200   8.486  1.00  0.00     0.050 A 
ATOM      5  C   UNL     1      17.436  95.034   8.730  1.00  0.00    -0.042 A 
ATOM      6  C   UNL     1      16.110  95.157   9.172  1.00  0.00     0.004 A 
ATOM      7  C   UNL     1      15.540  96.417   9.366  1.00  0.00     0.007 A 
ENDROOT
BRANCH   3   8
ATOM      8  O   UNL     1      18.410  98.589   8.418  1.00  0.00    -0.508 OA
ATOM      9  H   UNL     1      19.396  98.530   8.197  1.00  0.00     0.293 HD
ENDBRANCH   3   8
BRANCH   5  10
ATOM     10  C   UNL     1      18.043  93.658   8.524  1.00  0.00     0.013 C 
ATOM     11  C   UNL     1      18.920  93.256   9.716  1.00  0.00     0.012 C 
ATOM     12  C   UNL     1      18.832  93.593   7.211  1.00  0.00     0.012 C 
ENDBRANCH   5  10
TORSDOF 2
ENDMDL
MODEL 6
REMARK VINA RESULT:     0.444      2.365      3.642
REMARK INTER + INTRA:           0.382
REMARK INTER:                   0.508
REMARK INTRA:                  -0.126
REMARK UNBOUND:                -0.100
REMARK SMILES Cc1ccc(C(C)C)cc1O
REMARK SMILES IDX 1 1 2 2 10 3 9 4 5 5 4 6 3 7 11 8 6 10 7 11 8 12
REMARK H PARENT 11 9
REMARK Flexibility Score: inf
ROOT
ATOM      1  C   UNL     1      19.045  93.991   7.440  1.00  0.00     0.048 C 
ATOM      2  C   UNL     1      18.029  94.863   8.124  1.00  0.00    -0.009 A 
ATOM      3  C   UNL     1      18.159  96.270   8.133  1.00  0.00     0.118 A 
ATOM      4  C   UNL     1      17.195  97.053   8.779  1.00  0.00     0.050 A 
ATOM      5  C   UNL     1      16.095  96.460   9.424  1.00  0.00    -0.042 A 
ATOM      6  C   UNL     1      15.973  95.061   9.409  1.00  0.00     0.004 A 
ATOM      7  C   UNL     1      16.929  94.272   8.767  1.00  0.00     0.007 A 
ENDROOT
BRANCH   3   8
ATOM      8  O   UNL     1      19.229  96.917   7.513  1.00  0.00    -0.508 OA
ATOM      9  H   UNL     1      20.161  96.525   7.470  1.00  0.00     0.293 HD
ENDBRANCH   3   8
BRANCH   5  10
ATOM     10  C   UNL     1      15.047  97.305  10.125  1.00  0.00     0.013 C 
ATOM     11  C   UNL     1      13.680  96.612  10.114  1.00  0.00     0.012 C 
ATOM     12  C   UNL     1      14.962  98.705   9.504  1.00  0.00     0.012 C 
ENDBRANCH   5  10
TORSDOF 2
ENDMDL
MODEL 7
REMARK VINA RESULT:     0.957      2.031      4.703
REMARK INTER + INTRA:           0.940
REMARK INTER:                   1.068
REMARK INTRA:                  -0.128
REMARK UNBOUND:                -0.100
REMARK SMILES Cc1ccc(C(C)C)cc1O
REMARK SMILES IDX 1 1 2 2 10 3 9 4 5 5 4 6 3 7 11 8 6 10 7 11 8 12
REMARK H PARENT 11 9
REMARK Flexibility Score: inf
ROOT
ATOM      1  C   UNL     1      18.341  99.980   8.665  1.00  0.00     0.048 C 
ATOM      2  C   UNL     1      17.950  98.531   8.595  1.00  0.00    -0.009 A 
ATOM      3  C   UNL     1      18.817  97.565   8.035  1.00  0.00     0.118 A 
ATOM      4  C   UNL     1      18.422  96.223   7.984  1.00  0.00     0.050 A 
ATOM      5  C   UNL     1      17.171  95.817   8.483  1.00  0.00    -0.042 A 
ATOM      6  C   UNL     1      16.317  96.783   9.038  1.00  0.00     0.004 A 
ATOM      7  C   UNL     1      16.702  98.124   9.093  1.00  0.00     0.007 A 
ENDROOT
BRANCH   3   8
ATOM      8  O   UNL     1      20.070  97.906   7.523  1.00  0.00    -0.508 OA
ATOM      9  H   UNL     1      20.429  97.538   6.652  1.00  0.00     0.293 HD
ENDBRANCH   3   8
BRANCH   5  10
ATOM     10  C   UNL     1      16.740  94.363   8.430  1.00  0.00     0.013 C 
ATOM     11  C   UNL     1      15.398  94.159   9.143  1.00  0.00     0.012 C 
ATOM     12  C   UNL     1      17.821  93.446   9.015  1.00  0.00     0.012 C 
ENDBRANCH   5  10
TORSDOF 2
ENDMDL
