MODEL 1
REMARK VINA RESULT:    -9.415      0.000      0.000
REMARK INTER + INTRA:          -8.506
REMARK INTER:                  -9.415
REMARK INTRA:                   0.908
REMARK UNBOUND:                 0.908
REMARK SMILES C[C@@H]1O[C@@H](O[C@@H]2CC[C@@]3(C)[C@H](CC[C@]4(C)[C@@H]3C=C[C@@]35OC[C@]6(CCC(C)(C)C[C@@H]63)[C@@H](O)C[C@@]45C)[C@]2(C)CO)[C@@H](O)[C@@H](O[C@H]2O[C@H](CO)[C@H](O)[C@@H](O)[C@@H]2O)[C@@H]1O
REMARK SMILES IDX 1 1 2 2 54 3 41 4 39 5 4 6 3 7 55 8 42 10 43 11 52 12 44 13
REMARK SMILES IDX 50 14 45 15 48 16 53 17 51 19 46 21 47 22 49 24 5 26 6 27
REMARK SMILES IDX 7 28 35 29 8 30 11 31 36 32 9 33 12 34 10 35 16 36 13 37
REMARK SMILES IDX 14 38 17 39 15 40 33 41 18 42 19 43 32 44 34 45 29 46 20 47
REMARK SMILES IDX 30 48 22 49 28 50 21 51 23 52 25 53 24 54 26 55 27 56 37 57
REMARK SMILES IDX 38 58 31 60 40 62
REMARK H PARENT 55 9 53 18 51 20 47 23 49 25 38 59 31 61 40 63
REMARK Flexibility Score: inf
ROOT
ATOM      1  C   UNL     1     -18.723  27.920 -10.851  1.00  0.00     0.041 C 
ATOM      2  C   UNL     1     -22.153  27.574  -9.782  1.00  0.00     0.150 C 
ATOM      3  C   UNL     1     -21.712  26.935  -8.125  1.00  0.00     0.175 C 
ATOM      4  C   UNL     1     -19.831  27.239  -8.538  1.00  0.00     0.186 C 
ATOM      5  C   UNL     1     -20.446  29.281 -10.658  1.00  0.00     0.202 C 
ATOM      6  C   UNL     1     -22.438  29.859  -9.354  1.00  0.00     0.282 C 
ATOM      7  O   UNL     1     -23.051  28.966  -9.640  1.00  0.00    -0.344 OA
ENDROOT
BRANCH   3   8
ATOM      8  O   UNL     1     -21.628  25.551  -7.646  1.00  0.00    -0.388 OA
ATOM      9  H   UNL     1     -20.669  25.785  -7.615  1.00  0.00     0.211 HD
ENDBRANCH   3   8
BRANCH   4  10
ATOM     10  O   UNL     1     -17.939  27.333  -8.272  1.00  0.00    -0.341 OA
BRANCH  10  11
ATOM     11  C   UNL     1     -16.221  27.678  -7.772  1.00  0.00     0.282 C 
ATOM     12  C   UNL     1     -16.003  29.881  -8.422  1.00  0.00     0.202 C 
ATOM     13  O   UNL     1     -14.757  28.936  -7.646  1.00  0.00    -0.341 OA
ATOM     14  C   UNL     1     -16.415  31.758  -5.676  1.00  0.00     0.179 C 
ATOM     15  C   UNL     1     -14.568  30.251  -6.865  1.00  0.00     0.178 C 
ATOM     16  C   UNL     1     -14.939  30.527  -5.004  1.00  0.00     0.177 C 
BRANCH  12  17
ATOM     17  O   UNL     1     -17.466  30.285  -8.594  1.00  0.00    -0.385 OA
ATOM     18  H   UNL     1     -17.293  29.919  -9.950  1.00  0.00     0.211 HD
ENDBRANCH  12  17
BRANCH  14  19
ATOM     19  O   UNL     1     -14.919  33.190  -5.743  1.00  0.00    -0.387 OA
ATOM     20  H   UNL     1     -15.146  34.194  -4.913  1.00  0.00     0.211 HD
ENDBRANCH  14  19
BRANCH  15  21
ATOM     21  C   UNL     1     -12.811  31.590  -8.441  1.00  0.00     0.191 C 
BRANCH  21  22
ATOM     22  O   UNL     1     -13.511  32.876  -8.404  1.00  0.00    -0.394 OA
ATOM     23  H   UNL     1     -13.179  33.496  -9.213  1.00  0.00     0.210 HD
ENDBRANCH  21  22
ENDBRANCH  15  21
BRANCH  16  24
ATOM     24  O   UNL     1     -15.311  28.531  -4.577  1.00  0.00    -0.387 OA
ATOM     25  H   UNL     1     -15.155  27.398  -3.741  1.00  0.00     0.211 HD
ENDBRANCH  16  24
ENDBRANCH  10  11
ENDBRANCH   4  10
BRANCH   6  26
ATOM     26  O   UNL     1     -22.569  28.738  -7.051  1.00  0.00    -0.346 OA
BRANCH  26  27
ATOM     27  C   UNL     1     -23.952  27.621  -6.079  1.00  0.00     0.130 C 
ATOM     28  C   UNL     1     -25.785  26.166  -4.982  1.00  0.00     0.033 C 
ATOM     29  C   UNL     1     -22.105  29.429  -5.319  1.00  0.00     0.020 C 
ATOM     30  C   UNL     1     -27.721  27.952  -4.182  1.00  0.00     0.010 C 
ATOM     31  C   UNL     1     -24.090  28.292  -4.187  1.00  0.00     0.006 C 
ATOM     32  C   UNL     1     -20.337  31.546  -5.256  1.00  0.00     0.017 C 
ATOM     33  C   UNL     1     -26.085  28.742  -5.148  1.00  0.00    -0.022 C 
ATOM     34  C   UNL     1     -25.091  29.061  -1.863  1.00  0.00     0.005 C 
ATOM     35  C   UNL     1     -26.128  30.455  -3.888  1.00  0.00     0.012 C 
ATOM     36  C   UNL     1     -26.793  28.126  -7.786  1.00  0.00     0.024 C 
ATOM     37  C   UNL     1     -25.892  26.974  -2.628  1.00  0.00     0.008 C 
ATOM     38  C   UNL     1     -25.804  28.430  -5.244  1.00  0.00    -0.017 C 
ATOM     39  C   UNL     1     -26.149  27.699 -10.285  1.00  0.00    -0.024 C 
ATOM     40  C   UNL     1     -27.283  28.699  -7.215  1.00  0.00     0.013 C 
ATOM     41  C   UNL     1     -24.025  24.834  -6.260  1.00  0.00     0.009 C 
ATOM     42  C   UNL     1     -25.311  25.845 -10.874  1.00  0.00     0.005 C 
ATOM     43  C   UNL     1     -24.709  24.517  -8.515  1.00  0.00     0.096 C 
ATOM     44  C   UNL     1     -22.637  21.609  -5.889  1.00  0.00     0.043 C 
ATOM     45  C   UNL     1     -23.951  23.075  -5.036  1.00  0.00     0.015 C 
ATOM     46  C   UNL     1     -24.657  23.220  -9.395  1.00  0.00     0.037 C 
ATOM     47  O   UNL     1     -26.001  23.585  -7.858  1.00  0.00    -0.369 OA
ATOM     48  C   UNL     1     -23.443  21.655  -7.132  1.00  0.00     0.124 C 
ATOM     49  C   UNL     1     -24.664  21.644  -8.379  1.00  0.00     0.026 C 
ATOM     50  C   UNL     1     -23.070  22.043  -9.505  1.00  0.00     0.014 C 
ATOM     51  C   UNL     1     -25.897  21.919  -7.538  1.00  0.00     0.171 C 
ATOM     52  C   UNL     1     -24.880  19.900  -9.406  1.00  0.00     0.013 C 
ATOM     53  C   UNL     1     -22.809  22.257 -10.847  1.00  0.00    -0.035 C 
ATOM     54  C   UNL     1     -23.855  20.493 -10.599  1.00  0.00     0.007 C 
ATOM     55  C   UNL     1     -22.213  24.002  -9.817  1.00  0.00     0.011 C 
ATOM     56  C   UNL     1     -22.047  21.311 -12.125  1.00  0.00     0.011 C 
BRANCH  29  57
ATOM     57  C   UNL     1     -20.628  29.584  -7.162  1.00  0.00     0.165 C 
BRANCH  57  58
ATOM     58  O   UNL     1     -18.369  28.924  -5.736  1.00  0.00    -0.396 OA
ATOM     59  H   UNL     1     -17.533  29.870  -4.648  1.00  0.00     0.210 HD
ENDBRANCH  57  58
ENDBRANCH  29  57
BRANCH  48  60
ATOM     60  O   UNL     1     -21.902  22.327  -7.294  1.00  0.00    -0.392 OA
ATOM     61  H   UNL     1     -20.727  22.094  -7.504  1.00  0.00     0.210 HD
ENDBRANCH  48  60
ENDBRANCH  26  27
ENDBRANCH   6  26
BRANCH   5  62
ATOM     62  O   UNL     1     -19.118  30.159 -11.411  1.00  0.00    -0.385 OA
ATOM     63  H   UNL     1     -18.891  31.491 -11.738  1.00  0.00     0.211 HD
ENDBRANCH   5  62
TORSDOF 14
ENDMDL
MODEL 2
REMARK VINA RESULT:    -8.741      2.040      3.085
REMARK INTER + INTRA:          -7.833
REMARK INTER:                  -9.925
REMARK INTRA:                   2.093
REMARK UNBOUND:                 0.908
REMARK SMILES C[C@@H]1O[C@@H](O[C@@H]2CC[C@@]3(C)[C@H](CC[C@]4(C)[C@@H]3C=C[C@@]35OC[C@]6(CCC(C)(C)C[C@@H]63)[C@@H](O)C[C@@]45C)[C@]2(C)CO)[C@@H](O)[C@@H](O[C@H]2O[C@H](CO)[C@H](O)[C@@H](O)[C@@H]2O)[C@@H]1O
REMARK SMILES IDX 1 1 2 2 54 3 41 4 39 5 4 6 3 7 55 8 42 10 43 11 52 12 44 13
REMARK SMILES IDX 50 14 45 15 48 16 53 17 51 19 46 21 47 22 49 24 5 26 6 27
REMARK SMILES IDX 7 28 35 29 8 30 11 31 36 32 9 33 12 34 10 35 16 36 13 37
REMARK SMILES IDX 14 38 17 39 15 40 33 41 18 42 19 43 32 44 34 45 29 46 20 47
REMARK SMILES IDX 30 48 22 49 28 50 21 51 23 52 25 53 24 54 26 55 27 56 37 57
REMARK SMILES IDX 38 58 31 60 40 62
REMARK H PARENT 55 9 53 18 51 20 47 23 49 25 38 59 31 61 40 63
REMARK Flexibility Score: inf
ROOT
ATOM      1  C   UNL     1     -19.135  29.448  -7.197  1.00  0.00     0.041 C 
ATOM      2  C   UNL     1     -22.451  28.068  -6.845  1.00  0.00     0.150 C 
ATOM      3  C   UNL     1     -22.056  27.168  -5.302  1.00  0.00     0.175 C 
ATOM      4  C   UNL     1     -20.289  27.991  -5.305  1.00  0.00     0.186 C 
ATOM      5  C   UNL     1     -21.168  30.284  -7.040  1.00  0.00     0.202 C 
ATOM      6  C   UNL     1     -23.383  30.051  -6.018  1.00  0.00     0.282 C 
ATOM      7  O   UNL     1     -23.697  29.136  -6.584  1.00  0.00    -0.344 OA
ENDROOT
BRANCH   3   8
ATOM      8  O   UNL     1     -21.665  25.768  -5.107  1.00  0.00    -0.388 OA
ATOM      9  H   UNL     1     -22.644  25.650  -5.152  1.00  0.00     0.211 HD
ENDBRANCH   3   8
BRANCH   4  10
ATOM     10  O   UNL     1     -18.536  28.454  -4.695  1.00  0.00    -0.341 OA
BRANCH  10  11
ATOM     11  C   UNL     1     -17.003  29.234  -4.094  1.00  0.00     0.282 C 
ATOM     12  C   UNL     1     -15.436  28.260  -5.479  1.00  0.00     0.202 C 
ATOM     13  O   UNL     1     -15.084  29.436  -4.239  1.00  0.00    -0.341 OA
ATOM     14  C   UNL     1     -14.757  30.475  -7.900  1.00  0.00     0.179 C 
ATOM     15  C   UNL     1     -14.169  29.990  -5.348  1.00  0.00     0.178 C 
ATOM     16  C   UNL     1     -14.395  31.651  -6.278  1.00  0.00     0.177 C 
BRANCH  12  17
ATOM     17  O   UNL     1     -16.326  27.714  -6.595  1.00  0.00    -0.385 OA
ATOM     18  H   UNL     1     -16.884  29.014  -6.634  1.00  0.00     0.211 HD
ENDBRANCH  12  17
BRANCH  14  19
ATOM     19  O   UNL     1     -12.695  30.468  -8.108  1.00  0.00    -0.387 OA
ATOM     20  H   UNL     1     -12.103  31.309  -7.278  1.00  0.00     0.211 HD
ENDBRANCH  14  19
BRANCH  15  21
ATOM     21  C   UNL     1     -11.875  28.605  -4.925  1.00  0.00     0.191 C 
BRANCH  21  22
ATOM     22  O   UNL     1     -11.192  29.654  -4.166  1.00  0.00    -0.394 OA
ATOM     23  H   UNL     1     -11.800  30.536  -4.132  1.00  0.00     0.210 HD
ENDBRANCH  21  22
ENDBRANCH  15  21
BRANCH  16  24
ATOM     24  O   UNL     1     -15.942  32.342  -5.081  1.00  0.00    -0.387 OA
ATOM     25  H   UNL     1     -16.626  32.367  -3.840  1.00  0.00     0.211 HD
ENDBRANCH  16  24
ENDBRANCH  10  11
ENDBRANCH   4  10
BRANCH   6  26
ATOM     26  O   UNL     1     -23.485  28.407  -4.052  1.00  0.00    -0.346 OA
BRANCH  26  27
ATOM     27  C   UNL     1     -24.583  26.761  -3.617  1.00  0.00     0.130 C 
ATOM     28  C   UNL     1     -26.048  24.670  -3.211  1.00  0.00     0.033 C 
ATOM     29  C   UNL     1     -23.155  28.522  -2.162  1.00  0.00     0.020 C 
ATOM     30  C   UNL     1     -28.309  25.623  -1.963  1.00  0.00     0.010 C 
ATOM     31  C   UNL     1     -24.835  26.678  -1.622  1.00  0.00     0.006 C 
ATOM     32  C   UNL     1     -21.879  30.795  -1.258  1.00  0.00     0.017 C 
ATOM     33  C   UNL     1     -26.894  27.020  -2.490  1.00  0.00    -0.022 C 
ATOM     34  C   UNL     1     -25.944  26.357   0.757  1.00  0.00     0.005 C 
ATOM     35  C   UNL     1     -27.284  28.131  -0.718  1.00  0.00     0.012 C 
ATOM     36  C   UNL     1     -27.491  27.243  -5.217  1.00  0.00     0.024 C 
ATOM     37  C   UNL     1     -26.292  24.556  -0.734  1.00  0.00     0.008 C 
ATOM     38  C   UNL     1     -26.553  26.826  -2.670  1.00  0.00    -0.017 C 
ATOM     39  C   UNL     1     -26.806  27.867  -7.663  1.00  0.00    -0.024 C 
ATOM     40  C   UNL     1     -28.083  27.464  -4.514  1.00  0.00     0.013 C 
ATOM     41  C   UNL     1     -24.062  24.266  -4.759  1.00  0.00     0.009 C 
ATOM     42  C   UNL     1     -25.599  26.553  -8.805  1.00  0.00     0.005 C 
ATOM     43  C   UNL     1     -24.694  24.632  -7.022  1.00  0.00     0.096 C 
ATOM     44  C   UNL     1     -22.012  21.475  -5.445  1.00  0.00     0.043 C 
ATOM     45  C   UNL     1     -23.597  22.243  -4.221  1.00  0.00     0.015 C 
ATOM     46  C   UNL     1     -24.379  23.768  -8.292  1.00  0.00     0.037 C 
ATOM     47  O   UNL     1     -25.748  23.285  -6.811  1.00  0.00    -0.369 OA
ATOM     48  C   UNL     1     -22.826  21.789  -6.643  1.00  0.00     0.124 C 
ATOM     49  C   UNL     1     -24.035  21.969  -7.890  1.00  0.00     0.026 C 
ATOM     50  C   UNL     1     -22.579  23.057  -8.705  1.00  0.00     0.014 C 
ATOM     51  C   UNL     1     -25.286  21.672  -7.084  1.00  0.00     0.171 C 
ATOM     52  C   UNL     1     -23.887  20.695  -9.470  1.00  0.00     0.013 C 
ATOM     53  C   UNL     1     -22.388  23.779  -9.870  1.00  0.00    -0.035 C 
ATOM     54  C   UNL     1     -23.030  21.868 -10.316  1.00  0.00     0.007 C 
ATOM     55  C   UNL     1     -22.164  25.132  -8.263  1.00  0.00     0.011 C 
ATOM     56  C   UNL     1     -21.459  23.522 -11.347  1.00  0.00     0.011 C 
BRANCH  29  57
ATOM     57  C   UNL     1     -21.771  29.616  -3.740  1.00  0.00     0.165 C 
BRANCH  57  58
ATOM     58  O   UNL     1     -23.066  32.039  -3.583  1.00  0.00    -0.396 OA
ATOM     59  H   UNL     1     -22.387  33.559  -3.502  1.00  0.00     0.210 HD
ENDBRANCH  57  58
ENDBRANCH  29  57
BRANCH  48  60
ATOM     60  O   UNL     1     -21.468  22.776  -6.465  1.00  0.00    -0.392 OA
ATOM     61  H   UNL     1     -20.324  22.979  -6.828  1.00  0.00     0.210 HD
ENDBRANCH  48  60
ENDBRANCH  26  27
ENDBRANCH   6  26
BRANCH   5  62
ATOM     62  O   UNL     1     -20.042  31.602  -7.350  1.00  0.00    -0.385 OA
ATOM     63  H   UNL     1     -19.082  32.263  -6.592  1.00  0.00     0.211 HD
ENDBRANCH   5  62
TORSDOF 14
ENDMDL
MODEL 3
REMARK VINA RESULT:    -8.583      2.551      5.280
REMARK INTER + INTRA:          -7.675
REMARK INTER:                  -8.949
REMARK INTRA:                   1.274
REMARK UNBOUND:                 0.908
REMARK SMILES C[C@@H]1O[C@@H](O[C@@H]2CC[C@@]3(C)[C@H](CC[C@]4(C)[C@@H]3C=C[C@@]35OC[C@]6(CCC(C)(C)C[C@@H]63)[C@@H](O)C[C@@]45C)[C@]2(C)CO)[C@@H](O)[C@@H](O[C@H]2O[C@H](CO)[C@H](O)[C@@H](O)[C@@H]2O)[C@@H]1O
REMARK SMILES IDX 1 1 2 2 54 3 41 4 39 5 4 6 3 7 55 8 42 10 43 11 52 12 44 13
REMARK SMILES IDX 50 14 45 15 48 16 53 17 51 19 46 21 47 22 49 24 5 26 6 27
REMARK SMILES IDX 7 28 35 29 8 30 11 31 36 32 9 33 12 34 10 35 16 36 13 37
REMARK SMILES IDX 14 38 17 39 15 40 33 41 18 42 19 43 32 44 34 45 29 46 20 47
REMARK SMILES IDX 30 48 22 49 28 50 21 51 23 52 25 53 24 54 26 55 27 56 37 57
REMARK SMILES IDX 38 58 31 60 40 62
REMARK H PARENT 55 9 53 18 51 20 47 23 49 25 38 59 31 61 40 63
REMARK Flexibility Score: inf
ROOT
ATOM      1  C   UNL     1     -18.397  26.296  -9.798  1.00  0.00     0.041 C 
ATOM      2  C   UNL     1     -21.461  24.557  -9.014  1.00  0.00     0.150 C 
ATOM      3  C   UNL     1     -22.163  25.951  -8.058  1.00  0.00     0.175 C 
ATOM      4  C   UNL     1     -20.624  27.037  -8.562  1.00  0.00     0.186 C 
ATOM      5  C   UNL     1     -20.004  25.352 -10.974  1.00  0.00     0.202 C 
ATOM      6  C   UNL     1     -22.408  24.902 -11.128  1.00  0.00     0.282 C 
ATOM      7  O   UNL     1     -22.463  24.169 -10.282  1.00  0.00    -0.344 OA
ENDROOT
BRANCH   3   8
ATOM      8  O   UNL     1     -22.158  26.191  -6.611  1.00  0.00    -0.388 OA
ATOM      9  H   UNL     1     -22.459  27.081  -6.915  1.00  0.00     0.211 HD
ENDBRANCH   3   8
BRANCH   4  10
ATOM     10  O   UNL     1     -19.502  28.579  -8.714  1.00  0.00    -0.341 OA
BRANCH  10  11
ATOM     11  C   UNL     1     -18.723  30.226  -8.723  1.00  0.00     0.282 C 
ATOM     12  C   UNL     1     -16.896  29.860  -7.360  1.00  0.00     0.202 C 
ATOM     13  O   UNL     1     -17.280  31.375  -8.137  1.00  0.00    -0.341 OA
ATOM     14  C   UNL     1     -14.254  29.396  -9.369  1.00  0.00     0.179 C 
ATOM     15  C   UNL     1     -15.761  31.364  -8.393  1.00  0.00     0.178 C 
ATOM     16  C   UNL     1     -14.900  31.184 -10.097  1.00  0.00     0.177 C 
BRANCH  12  17
ATOM     17  O   UNL     1     -16.828  28.333  -7.360  1.00  0.00    -0.385 OA
ATOM     18  H   UNL     1     -17.600  28.409  -6.176  1.00  0.00     0.211 HD
ENDBRANCH  12  17
BRANCH  14  19
ATOM     19  O   UNL     1     -12.716  30.512  -8.542  1.00  0.00    -0.387 OA
ATOM     20  H   UNL     1     -11.526  30.107  -8.951  1.00  0.00     0.211 HD
ENDBRANCH  14  19
BRANCH  15  21
ATOM     21  C   UNL     1     -14.807  32.558  -6.152  1.00  0.00     0.191 C 
BRANCH  21  22
ATOM     22  O   UNL     1     -16.106  32.992  -5.636  1.00  0.00    -0.394 OA
ATOM     23  H   UNL     1     -16.750  33.265  -6.450  1.00  0.00     0.210 HD
ENDBRANCH  21  22
ENDBRANCH  15  21
BRANCH  16  24
ATOM     24  O   UNL     1     -16.641  31.325 -11.216  1.00  0.00    -0.387 OA
ATOM     25  H   UNL     1     -17.427  30.938 -12.331  1.00  0.00     0.211 HD
ENDBRANCH  16  24
ENDBRANCH  10  11
ENDBRANCH   4  10
BRANCH   6  26
ATOM     26  O   UNL     1     -23.858  26.283  -9.526  1.00  0.00    -0.346 OA
BRANCH  26  27
ATOM     27  C   UNL     1     -25.311  25.855  -8.181  1.00  0.00     0.130 C 
ATOM     28  C   UNL     1     -27.106  25.159  -6.455  1.00  0.00     0.033 C 
ATOM     29  C   UNL     1     -24.891  27.848  -9.944  1.00  0.00     0.020 C 
ATOM     30  C   UNL     1     -29.287  24.419  -7.963  1.00  0.00     0.010 C 
ATOM     31  C   UNL     1     -26.866  27.089  -8.516  1.00  0.00     0.006 C 
ATOM     32  C   UNL     1     -24.076  29.333 -12.122  1.00  0.00     0.017 C 
ATOM     33  C   UNL     1     -27.612  25.012  -9.001  1.00  0.00    -0.022 C 
ATOM     34  C   UNL     1     -29.332  27.994  -8.824  1.00  0.00     0.005 C 
ATOM     35  C   UNL     1     -28.820  25.959 -10.473  1.00  0.00     0.012 C 
ATOM     36  C   UNL     1     -26.111  22.657  -8.794  1.00  0.00     0.024 C 
ATOM     37  C   UNL     1     -28.991  26.740  -6.850  1.00  0.00     0.008 C 
ATOM     38  C   UNL     1     -27.301  25.130  -8.726  1.00  0.00    -0.017 C 
ATOM     39  C   UNL     1     -23.819  21.397  -8.832  1.00  0.00    -0.024 C 
ATOM     40  C   UNL     1     -26.945  22.729  -9.233  1.00  0.00     0.013 C 
ATOM     41  C   UNL     1     -24.778  25.479  -5.465  1.00  0.00     0.009 C 
ATOM     42  C   UNL     1     -22.526  21.476  -7.156  1.00  0.00     0.005 C 
ATOM     43  C   UNL     1     -23.582  23.424  -5.490  1.00  0.00     0.096 C 
ATOM     44  C   UNL     1     -23.571  26.515  -2.313  1.00  0.00     0.043 C 
ATOM     45  C   UNL     1     -25.314  26.240  -3.533  1.00  0.00     0.015 C 
ATOM     46  C   UNL     1     -22.708  22.771  -4.364  1.00  0.00     0.037 C 
ATOM     47  O   UNL     1     -24.780  22.862  -4.386  1.00  0.00    -0.369 OA
ATOM     48  C   UNL     1     -23.240  25.084  -2.517  1.00  0.00     0.124 C 
ATOM     49  C   UNL     1     -23.181  23.344  -2.642  1.00  0.00     0.026 C 
ATOM     50  C   UNL     1     -21.356  23.770  -3.319  1.00  0.00     0.014 C 
ATOM     51  C   UNL     1     -24.666  23.036  -2.699  1.00  0.00     0.171 C 
ATOM     52  C   UNL     1     -22.310  22.364  -1.086  1.00  0.00     0.013 C 
ATOM     53  C   UNL     1     -20.256  23.063  -3.771  1.00  0.00    -0.035 C 
ATOM     54  C   UNL     1     -20.857  22.342  -1.931  1.00  0.00     0.007 C 
ATOM     55  C   UNL     1     -20.869  24.323  -5.351  1.00  0.00     0.011 C 
ATOM     56  C   UNL     1     -18.670  22.683  -3.099  1.00  0.00     0.011 C 
BRANCH  29  57
ATOM     57  C   UNL     1     -22.595  27.684 -10.494  1.00  0.00     0.165 C 
BRANCH  57  58
ATOM     58  O   UNL     1     -21.975  30.270  -9.784  1.00  0.00    -0.396 OA
ATOM     59  H   UNL     1     -22.845  31.655 -10.105  1.00  0.00     0.210 HD
ENDBRANCH  57  58
ENDBRANCH  29  57
BRANCH  48  60
ATOM     60  O   UNL     1     -22.185  26.146  -3.298  1.00  0.00    -0.392 OA
ATOM     61  H   UNL     1     -21.623  26.408  -4.346  1.00  0.00     0.210 HD
ENDBRANCH  48  60
ENDBRANCH  26  27
ENDBRANCH   6  26
BRANCH   5  62
ATOM     62  O   UNL     1     -18.733  25.872 -12.076  1.00  0.00    -0.385 OA
ATOM     63  H   UNL     1     -18.715  26.450 -13.341  1.00  0.00     0.211 HD
ENDBRANCH   5  62
TORSDOF 14
ENDMDL
MODEL 4
REMARK VINA RESULT:    -8.553      2.571      5.367
REMARK INTER + INTRA:          -7.645
REMARK INTER:                  -8.922
REMARK INTRA:                   1.277
REMARK UNBOUND:                 0.908
REMARK SMILES C[C@@H]1O[C@@H](O[C@@H]2CC[C@@]3(C)[C@H](CC[C@]4(C)[C@@H]3C=C[C@@]35OC[C@]6(CCC(C)(C)C[C@@H]63)[C@@H](O)C[C@@]45C)[C@]2(C)CO)[C@@H](O)[C@@H](O[C@H]2O[C@H](CO)[C@H](O)[C@@H](O)[C@@H]2O)[C@@H]1O
REMARK SMILES IDX 1 1 2 2 54 3 41 4 39 5 4 6 3 7 55 8 42 10 43 11 52 12 44 13
REMARK SMILES IDX 50 14 45 15 48 16 53 17 51 19 46 21 47 22 49 24 5 26 6 27
REMARK SMILES IDX 7 28 35 29 8 30 11 31 36 32 9 33 12 34 10 35 16 36 13 37
REMARK SMILES IDX 14 38 17 39 15 40 33 41 18 42 19 43 32 44 34 45 29 46 20 47
REMARK SMILES IDX 30 48 22 49 28 50 21 51 23 52 25 53 24 54 26 55 27 56 37 57
REMARK SMILES IDX 38 58 31 60 40 62
REMARK H PARENT 55 9 53 18 51 20 47 23 49 25 38 59 31 61 40 63
REMARK Flexibility Score: inf
ROOT
ATOM      1  C   UNL     1     -18.522  26.266  -9.540  1.00  0.00     0.041 C 
ATOM      2  C   UNL     1     -21.619  24.439  -9.226  1.00  0.00     0.150 C 
ATOM      3  C   UNL     1     -22.417  25.711  -8.179  1.00  0.00     0.175 C 
ATOM      4  C   UNL     1     -20.855  26.852  -8.421  1.00  0.00     0.186 C 
ATOM      5  C   UNL     1     -20.013  25.460 -10.950  1.00  0.00     0.202 C 
ATOM      6  C   UNL     1     -22.389  25.024 -11.359  1.00  0.00     0.282 C 
ATOM      7  O   UNL     1     -22.505  24.198 -10.611  1.00  0.00    -0.344 OA
ENDROOT
BRANCH   3   8
ATOM      8  O   UNL     1     -22.537  25.781  -6.719  1.00  0.00    -0.388 OA
ATOM      9  H   UNL     1     -23.360  25.273  -6.918  1.00  0.00     0.211 HD
ENDBRANCH   3   8
BRANCH   4  10
ATOM     10  O   UNL     1     -19.744  28.404  -8.298  1.00  0.00    -0.341 OA
BRANCH  10  11
ATOM     11  C   UNL     1     -18.921  29.985  -7.921  1.00  0.00     0.282 C 
ATOM     12  C   UNL     1     -19.489  30.264  -5.702  1.00  0.00     0.202 C 
ATOM     13  O   UNL     1     -18.503  31.365  -6.629  1.00  0.00    -0.341 OA
ATOM     14  C   UNL     1     -16.847  29.287  -3.885  1.00  0.00     0.179 C 
ATOM     15  C   UNL     1     -17.683  31.366  -5.325  1.00  0.00     0.178 C 
ATOM     16  C   UNL     1     -15.923  30.641  -5.091  1.00  0.00     0.177 C 
BRANCH  12  17
ATOM     17  O   UNL     1     -19.931  28.849  -5.329  1.00  0.00    -0.385 OA
ATOM     18  H   UNL     1     -20.619  29.465  -4.257  1.00  0.00     0.211 HD
ENDBRANCH  12  17
BRANCH  14  19
ATOM     19  O   UNL     1     -16.610  30.729  -2.415  1.00  0.00    -0.387 OA
ATOM     20  H   UNL     1     -17.026  31.920  -2.809  1.00  0.00     0.211 HD
ENDBRANCH  14  19
BRANCH  15  21
ATOM     21  C   UNL     1     -18.877  33.353  -3.915  1.00  0.00     0.191 C 
BRANCH  21  22
ATOM     22  O   UNL     1     -19.597  33.941  -5.046  1.00  0.00    -0.394 OA
ATOM     23  H   UNL     1     -19.107  34.841  -5.364  1.00  0.00     0.210 HD
ENDBRANCH  21  22
ENDBRANCH  15  21
BRANCH  16  24
ATOM     24  O   UNL     1     -15.601  30.248  -7.103  1.00  0.00    -0.387 OA
ATOM     25  H   UNL     1     -15.999  29.645  -8.322  1.00  0.00     0.211 HD
ENDBRANCH  16  24
ENDBRANCH  10  11
ENDBRANCH   4  10
BRANCH   6  26
ATOM     26  O   UNL     1     -23.986  26.206  -9.738  1.00  0.00    -0.346 OA
BRANCH  26  27
ATOM     27  C   UNL     1     -25.529  25.618  -8.564  1.00  0.00     0.130 C 
ATOM     28  C   UNL     1     -27.432  24.719  -7.062  1.00  0.00     0.033 C 
ATOM     29  C   UNL     1     -25.056  27.752 -10.138  1.00  0.00     0.020 C 
ATOM     30  C   UNL     1     -29.431  23.997  -8.810  1.00  0.00     0.010 C 
ATOM     31  C   UNL     1     -27.108  26.804  -8.953  1.00  0.00     0.006 C 
ATOM     32  C   UNL     1     -24.127  29.427 -12.125  1.00  0.00     0.017 C 
ATOM     33  C   UNL     1     -27.703  24.737  -9.647  1.00  0.00    -0.022 C 
ATOM     34  C   UNL     1     -29.579  27.621  -9.422  1.00  0.00     0.005 C 
ATOM     35  C   UNL     1     -28.823  25.737 -11.154  1.00  0.00     0.012 C 
ATOM     36  C   UNL     1     -26.110  22.442  -9.468  1.00  0.00     0.024 C 
ATOM     37  C   UNL     1     -29.351  26.241  -7.517  1.00  0.00     0.008 C 
ATOM     38  C   UNL     1     -27.424  24.848  -9.338  1.00  0.00    -0.017 C 
ATOM     39  C   UNL     1     -23.764  21.289  -9.383  1.00  0.00    -0.024 C 
ATOM     40  C   UNL     1     -26.905  22.509  -9.975  1.00  0.00     0.013 C 
ATOM     41  C   UNL     1     -25.219  25.067  -5.843  1.00  0.00     0.009 C 
ATOM     42  C   UNL     1     -22.629  21.301  -7.595  1.00  0.00     0.005 C 
ATOM     43  C   UNL     1     -23.924  23.073  -5.902  1.00  0.00     0.096 C 
ATOM     44  C   UNL     1     -24.347  25.919  -2.530  1.00  0.00     0.043 C 
ATOM     45  C   UNL     1     -25.960  25.659  -3.920  1.00  0.00     0.015 C 
ATOM     46  C   UNL     1     -23.120  22.378  -4.748  1.00  0.00     0.037 C 
ATOM     47  O   UNL     1     -25.184  22.380  -4.953  1.00  0.00    -0.369 OA
ATOM     48  C   UNL     1     -23.929  24.524  -2.802  1.00  0.00     0.124 C 
ATOM     49  C   UNL     1     -23.771  22.802  -3.041  1.00  0.00     0.026 C 
ATOM     50  C   UNL     1     -21.918  23.355  -3.518  1.00  0.00     0.014 C 
ATOM     51  C   UNL     1     -25.228  22.434  -3.254  1.00  0.00     0.171 C 
ATOM     52  C   UNL     1     -22.993  21.749  -1.484  1.00  0.00     0.013 C 
ATOM     53  C   UNL     1     -20.748  22.732  -3.914  1.00  0.00    -0.035 C 
ATOM     54  C   UNL     1     -21.472  21.853  -2.192  1.00  0.00     0.007 C 
ATOM     55  C   UNL     1     -21.282  24.077  -5.453  1.00  0.00     0.011 C 
ATOM     56  C   UNL     1     -19.210  22.373  -3.129  1.00  0.00     0.011 C 
BRANCH  29  57
ATOM     57  C   UNL     1     -22.714  27.729 -10.486  1.00  0.00     0.165 C 
BRANCH  57  58
ATOM     58  O   UNL     1     -22.246  30.140  -9.246  1.00  0.00    -0.396 OA
ATOM     59  H   UNL     1     -22.200  30.457  -7.610  1.00  0.00     0.210 HD
ENDBRANCH  57  58
ENDBRANCH  29  57
BRANCH  48  60
ATOM     60  O   UNL     1     -22.863  25.685  -3.408  1.00  0.00    -0.392 OA
ATOM     61  H   UNL     1     -22.033  26.527  -3.121  1.00  0.00     0.210 HD
ENDBRANCH  48  60
ENDBRANCH  26  27
ENDBRANCH   6  26
BRANCH   5  62
ATOM     62  O   UNL     1     -18.659  26.108 -11.872  1.00  0.00    -0.385 OA
ATOM     63  H   UNL     1     -17.798  27.188 -11.712  1.00  0.00     0.211 HD
ENDBRANCH   5  62
TORSDOF 14
ENDMDL
MODEL 5
REMARK VINA RESULT:    -8.508      3.054     10.095
REMARK INTER + INTRA:          -7.600
REMARK INTER:                  -9.061
REMARK INTRA:                   1.461
REMARK UNBOUND:                 0.908
REMARK SMILES C[C@@H]1O[C@@H](O[C@@H]2CC[C@@]3(C)[C@H](CC[C@]4(C)[C@@H]3C=C[C@@]35OC[C@]6(CCC(C)(C)C[C@@H]63)[C@@H](O)C[C@@]45C)[C@]2(C)CO)[C@@H](O)[C@@H](O[C@H]2O[C@H](CO)[C@H](O)[C@@H](O)[C@@H]2O)[C@@H]1O
REMARK SMILES IDX 1 1 2 2 54 3 41 4 39 5 4 6 3 7 55 8 42 10 43 11 52 12 44 13
REMARK SMILES IDX 50 14 45 15 48 16 53 17 51 19 46 21 47 22 49 24 5 26 6 27
REMARK SMILES IDX 7 28 35 29 8 30 11 31 36 32 9 33 12 34 10 35 16 36 13 37
REMARK SMILES IDX 14 38 17 39 15 40 33 41 18 42 19 43 32 44 34 45 29 46 20 47
REMARK SMILES IDX 30 48 22 49 28 50 21 51 23 52 25 53 24 54 26 55 27 56 37 57
REMARK SMILES IDX 38 58 31 60 40 62
REMARK H PARENT 55 9 53 18 51 20 47 23 49 25 38 59 31 61 40 63
REMARK Flexibility Score: inf
ROOT
ATOM      1  C   UNL     1     -21.745  24.659 -10.293  1.00  0.00     0.041 C 
ATOM      2  C   UNL     1     -19.803  27.657 -10.807  1.00  0.00     0.150 C 
ATOM      3  C   UNL     1     -19.547  27.957  -9.020  1.00  0.00     0.175 C 
ATOM      4  C   UNL     1     -20.438  26.266  -8.636  1.00  0.00     0.186 C 
ATOM      5  C   UNL     1     -19.890  25.155 -11.375  1.00  0.00     0.202 C 
ATOM      6  C   UNL     1     -17.846  26.506 -11.384  1.00  0.00     0.282 C 
ATOM      7  O   UNL     1     -18.338  27.494 -11.576  1.00  0.00    -0.344 OA
ENDROOT
BRANCH   3   8
ATOM      8  O   UNL     1     -20.287  28.828  -8.101  1.00  0.00    -0.388 OA
ATOM      9  H   UNL     1     -19.482  28.670  -7.551  1.00  0.00     0.211 HD
ENDBRANCH   3   8
BRANCH   4  10
ATOM     10  O   UNL     1     -21.110  24.796  -7.613  1.00  0.00    -0.341 OA
BRANCH  10  11
ATOM     11  C   UNL     1     -22.065  23.578  -6.651  1.00  0.00     0.282 C 
ATOM     12  C   UNL     1     -21.311  24.010  -4.513  1.00  0.00     0.202 C 
ATOM     13  O   UNL     1     -22.506  22.808  -4.932  1.00  0.00    -0.341 OA
ATOM     14  C   UNL     1     -23.627  25.922  -3.026  1.00  0.00     0.179 C 
ATOM     15  C   UNL     1     -23.184  23.376  -3.670  1.00  0.00     0.178 C 
ATOM     16  C   UNL     1     -24.817  24.380  -3.616  1.00  0.00     0.177 C 
BRANCH  12  17
ATOM     17  O   UNL     1     -20.675  25.387  -4.696  1.00  0.00    -0.385 OA
ATOM     18  H   UNL     1     -20.797  25.137  -6.084  1.00  0.00     0.211 HD
ENDBRANCH  12  17
BRANCH  14  19
ATOM     19  O   UNL     1     -23.877  25.130  -1.128  1.00  0.00    -0.387 OA
ATOM     20  H   UNL     1     -24.615  24.033  -1.134  1.00  0.00     0.211 HD
ENDBRANCH  14  19
BRANCH  15  21
ATOM     21  C   UNL     1     -22.088  21.853  -1.711  1.00  0.00     0.191 C 
BRANCH  21  22
ATOM     22  O   UNL     1     -21.637  22.968  -0.875  1.00  0.00    -0.394 OA
ATOM     23  H   UNL     1     -21.346  23.795  -1.493  1.00  0.00     0.210 HD
ENDBRANCH  21  22
ENDBRANCH  15  21
BRANCH  16  24
ATOM     24  O   UNL     1     -25.294  24.092  -5.615  1.00  0.00    -0.387 OA
ATOM     25  H   UNL     1     -25.729  23.253  -6.672  1.00  0.00     0.211 HD
ENDBRANCH  16  24
ENDBRANCH  10  11
ENDBRANCH   4  10
BRANCH   6  26
ATOM     26  O   UNL     1     -17.306  27.639  -9.147  1.00  0.00    -0.346 OA
BRANCH  26  27
ATOM     27  C   UNL     1     -16.615  29.461  -8.596  1.00  0.00     0.130 C 
ATOM     28  C   UNL     1     -15.881  31.846  -7.919  1.00  0.00     0.033 C 
ATOM     29  C   UNL     1     -15.459  27.127  -9.282  1.00  0.00     0.020 C 
ATOM     30  C   UNL     1     -14.814  32.935 -10.211  1.00  0.00     0.010 C 
ATOM     31  C   UNL     1     -14.634  29.519  -8.947  1.00  0.00     0.006 C 
ATOM     32  C   UNL     1     -14.930  24.655 -10.387  1.00  0.00     0.017 C 
ATOM     33  C   UNL     1     -15.555  31.021 -10.362  1.00  0.00    -0.022 C 
ATOM     34  C   UNL     1     -12.239  30.361  -9.688  1.00  0.00     0.005 C 
ATOM     35  C   UNL     1     -13.989  30.486 -11.699  1.00  0.00     0.012 C 
ATOM     36  C   UNL     1     -18.285  31.619 -10.545  1.00  0.00     0.024 C 
ATOM     37  C   UNL     1     -13.420  31.870  -8.304  1.00  0.00     0.008 C 
ATOM     38  C   UNL     1     -15.700  30.887  -9.979  1.00  0.00    -0.017 C 
ATOM     39  C   UNL     1     -20.796  30.936 -10.290  1.00  0.00    -0.024 C 
ATOM     40  C   UNL     1     -17.629  31.886 -11.173  1.00  0.00     0.013 C 
ATOM     41  C   UNL     1     -17.334  30.672  -6.183  1.00  0.00     0.009 C 
ATOM     42  C   UNL     1     -21.705  30.889  -8.377  1.00  0.00     0.005 C 
ATOM     43  C   UNL     1     -19.630  31.167  -6.559  1.00  0.00     0.096 C 
ATOM     44  C   UNL     1     -17.549  30.809  -2.662  1.00  0.00     0.043 C 
ATOM     45  C   UNL     1     -16.472  31.478  -4.393  1.00  0.00     0.015 C 
ATOM     46  C   UNL     1     -20.741  31.563  -5.527  1.00  0.00     0.037 C 
ATOM     47  O   UNL     1     -19.207  32.795  -6.184  1.00  0.00    -0.369 OA
ATOM     48  C   UNL     1     -18.785  31.377  -3.250  1.00  0.00     0.124 C 
ATOM     49  C   UNL     1     -20.050  32.342  -3.968  1.00  0.00     0.026 C 
ATOM     50  C   UNL     1     -21.025  30.612  -3.815  1.00  0.00     0.014 C 
ATOM     51  C   UNL     1     -19.213  33.434  -4.609  1.00  0.00     0.171 C 
ATOM     52  C   UNL     1     -21.402  33.149  -2.678  1.00  0.00     0.013 C 
ATOM     53  C   UNL     1     -22.291  30.136  -4.108  1.00  0.00    -0.035 C 
ATOM     54  C   UNL     1     -22.424  31.844  -2.954  1.00  0.00     0.007 C 
ATOM     55  C   UNL     1     -20.924  28.985  -5.235  1.00  0.00     0.011 C 
ATOM     56  C   UNL     1     -23.702  29.700  -3.144  1.00  0.00     0.011 C 
BRANCH  29  57
ATOM     57  C   UNL     1     -17.188  25.523  -9.078  1.00  0.00     0.165 C 
BRANCH  57  58
ATOM     58  O   UNL     1     -17.900  26.236  -6.518  1.00  0.00    -0.396 OA
ATOM     59  H   UNL     1     -19.071  25.547  -5.552  1.00  0.00     0.210 HD
ENDBRANCH  57  58
ENDBRANCH  29  57
BRANCH  48  60
ATOM     60  O   UNL     1     -18.763  29.689  -3.208  1.00  0.00    -0.392 OA
ATOM     61  H   UNL     1     -18.454  28.678  -3.810  1.00  0.00     0.210 HD
ENDBRANCH  48  60
ENDBRANCH  26  27
ENDBRANCH   6  26
BRANCH   5  62
ATOM     62  O   UNL     1     -20.310  23.478 -11.718  1.00  0.00    -0.385 OA
ATOM     63  H   UNL     1     -21.073  22.844 -12.691  1.00  0.00     0.211 HD
ENDBRANCH   5  62
TORSDOF 14
ENDMDL
MODEL 6
REMARK VINA RESULT:    -8.427      1.571      2.505
REMARK INTER + INTRA:          -7.519
REMARK INTER:                  -9.004
REMARK INTRA:                   1.485
REMARK UNBOUND:                 0.908
REMARK SMILES C[C@@H]1O[C@@H](O[C@@H]2CC[C@@]3(C)[C@H](CC[C@]4(C)[C@@H]3C=C[C@@]35OC[C@]6(CCC(C)(C)C[C@@H]63)[C@@H](O)C[C@@]45C)[C@]2(C)CO)[C@@H](O)[C@@H](O[C@H]2O[C@H](CO)[C@H](O)[C@@H](O)[C@@H]2O)[C@@H]1O
REMARK SMILES IDX 1 1 2 2 54 3 41 4 39 5 4 6 3 7 55 8 42 10 43 11 52 12 44 13
REMARK SMILES IDX 50 14 45 15 48 16 53 17 51 19 46 21 47 22 49 24 5 26 6 27
REMARK SMILES IDX 7 28 35 29 8 30 11 31 36 32 9 33 12 34 10 35 16 36 13 37
REMARK SMILES IDX 14 38 17 39 15 40 33 41 18 42 19 43 32 44 34 45 29 46 20 47
REMARK SMILES IDX 30 48 22 49 28 50 21 51 23 52 25 53 24 54 26 55 27 56 37 57
REMARK SMILES IDX 38 58 31 60 40 62
REMARK H PARENT 55 9 53 18 51 20 47 23 49 25 38 59 31 61 40 63
REMARK Flexibility Score: inf
ROOT
ATOM      1  C   UNL     1     -18.664  27.701 -10.904  1.00  0.00     0.041 C 
ATOM      2  C   UNL     1     -22.044  27.412  -9.674  1.00  0.00     0.150 C 
ATOM      3  C   UNL     1     -21.531  26.872  -8.002  1.00  0.00     0.175 C 
ATOM      4  C   UNL     1     -19.670  27.156  -8.511  1.00  0.00     0.186 C 
ATOM      5  C   UNL     1     -20.383  29.067 -10.719  1.00  0.00     0.202 C 
ATOM      6  C   UNL     1     -22.322  29.717  -9.369  1.00  0.00     0.282 C 
ATOM      7  O   UNL     1     -22.942  28.807  -9.576  1.00  0.00    -0.344 OA
ENDROOT
BRANCH   3   8
ATOM      8  O   UNL     1     -21.420  25.519  -7.447  1.00  0.00    -0.388 OA
ATOM      9  H   UNL     1     -22.011  25.324  -8.214  1.00  0.00     0.211 HD
ENDBRANCH   3   8
BRANCH   4  10
ATOM     10  O   UNL     1     -17.769  27.269  -8.331  1.00  0.00    -0.341 OA
BRANCH  10  11
ATOM     11  C   UNL     1     -15.997  27.691  -8.342  1.00  0.00     0.282 C 
ATOM     12  C   UNL     1     -15.389  27.113  -6.192  1.00  0.00     0.202 C 
ATOM     13  O   UNL     1     -14.307  27.757  -7.401  1.00  0.00    -0.341 OA
ATOM     14  C   UNL     1     -13.931  24.100  -6.365  1.00  0.00     0.179 C 
ATOM     15  C   UNL     1     -13.384  26.666  -6.825  1.00  0.00     0.178 C 
ATOM     16  C   UNL     1     -12.793  25.085  -7.735  1.00  0.00     0.177 C 
BRANCH  12  17
ATOM     17  O   UNL     1     -16.563  26.226  -5.781  1.00  0.00    -0.385 OA
ATOM     18  H   UNL     1     -17.336  27.409  -5.846  1.00  0.00     0.211 HD
ENDBRANCH  12  17
BRANCH  14  19
ATOM     19  O   UNL     1     -12.243  24.222  -5.168  1.00  0.00    -0.387 OA
ATOM     20  H   UNL     1     -11.125  24.079  -5.860  1.00  0.00     0.211 HD
ENDBRANCH  14  19
BRANCH  15  21
ATOM     21  C   UNL     1     -12.167  27.980  -4.788  1.00  0.00     0.191 C 
BRANCH  21  22
ATOM     22  O   UNL     1     -13.027  29.164  -4.824  1.00  0.00    -0.394 OA
ATOM     23  H   UNL     1     -12.742  29.800  -5.639  1.00  0.00     0.210 HD
ENDBRANCH  21  22
ENDBRANCH  15  21
BRANCH  16  24
ATOM     24  O   UNL     1     -13.561  25.622  -9.586  1.00  0.00    -0.387 OA
ATOM     25  H   UNL     1     -14.448  26.394 -10.378  1.00  0.00     0.211 HD
ENDBRANCH  16  24
ENDBRANCH  10  11
ENDBRANCH   4  10
BRANCH   6  26
ATOM     26  O   UNL     1     -22.350  28.733  -7.000  1.00  0.00    -0.346 OA
BRANCH  26  27
ATOM     27  C   UNL     1     -23.666  27.630  -5.925  1.00  0.00     0.130 C 
ATOM     28  C   UNL     1     -25.425  26.194  -4.689  1.00  0.00     0.033 C 
ATOM     29  C   UNL     1     -21.740  29.410  -5.309  1.00  0.00     0.020 C 
ATOM     30  C   UNL     1     -27.266  28.001  -3.730  1.00  0.00     0.010 C 
ATOM     31  C   UNL     1     -23.643  28.294  -4.025  1.00  0.00     0.006 C 
ATOM     32  C   UNL     1     -19.944  31.503  -5.381  1.00  0.00     0.017 C 
ATOM     33  C   UNL     1     -25.702  28.775  -4.822  1.00  0.00    -0.022 C 
ATOM     34  C   UNL     1     -24.444  29.066  -1.626  1.00  0.00     0.005 C 
ATOM     35  C   UNL     1     -25.622  30.483  -3.556  1.00  0.00     0.012 C 
ATOM     36  C   UNL     1     -26.628  28.179  -7.397  1.00  0.00     0.024 C 
ATOM     37  C   UNL     1     -25.332  26.993  -2.331  1.00  0.00     0.008 C 
ATOM     38  C   UNL     1     -25.434  28.459  -4.941  1.00  0.00    -0.017 C 
ATOM     39  C   UNL     1     -26.192  27.756  -9.941  1.00  0.00    -0.024 C 
ATOM     40  C   UNL     1     -27.062  28.756  -6.786  1.00  0.00     0.013 C 
ATOM     41  C   UNL     1     -23.791  24.845  -6.108  1.00  0.00     0.009 C 
ATOM     42  C   UNL     1     -25.428  25.893 -10.601  1.00  0.00     0.005 C 
ATOM     43  C   UNL     1     -24.657  24.547  -8.303  1.00  0.00     0.096 C 
ATOM     44  C   UNL     1     -22.420  21.601  -5.861  1.00  0.00     0.043 C 
ATOM     45  C   UNL     1     -23.642  23.079  -4.900  1.00  0.00     0.015 C 
ATOM     46  C   UNL     1     -24.693  23.253  -9.188  1.00  0.00     0.037 C 
ATOM     47  O   UNL     1     -25.904  23.629  -7.547  1.00  0.00    -0.369 OA
ATOM     48  C   UNL     1     -23.322  21.662  -7.035  1.00  0.00     0.124 C 
ATOM     49  C   UNL     1     -24.640  21.673  -8.180  1.00  0.00     0.026 C 
ATOM     50  C   UNL     1     -23.136  22.056  -9.429  1.00  0.00     0.014 C 
ATOM     51  C   UNL     1     -25.798  21.961  -7.242  1.00  0.00     0.171 C 
ATOM     52  C   UNL     1     -24.960  19.937  -9.192  1.00  0.00     0.013 C 
ATOM     53  C   UNL     1     -22.980  22.273 -10.787  1.00  0.00    -0.035 C 
ATOM     54  C   UNL     1     -24.027  20.522 -10.462  1.00  0.00     0.007 C 
ATOM     55  C   UNL     1     -22.281  24.006  -9.802  1.00  0.00     0.011 C 
ATOM     56  C   UNL     1     -22.336  21.322 -12.125  1.00  0.00     0.011 C 
BRANCH  29  57
ATOM     57  C   UNL     1     -20.413  29.554  -7.264  1.00  0.00     0.165 C 
BRANCH  57  58
ATOM     58  O   UNL     1     -18.009  29.230  -5.966  1.00  0.00    -0.396 OA
ATOM     59  H   UNL     1     -17.020  27.888  -5.963  1.00  0.00     0.210 HD
ENDBRANCH  57  58
ENDBRANCH  29  57
BRANCH  48  60
ATOM     60  O   UNL     1     -21.791  22.315  -7.317  1.00  0.00    -0.392 OA
ATOM     61  H   UNL     1     -20.898  23.005  -6.861  1.00  0.00     0.210 HD
ENDBRANCH  48  60
ENDBRANCH  26  27
ENDBRANCH   6  26
BRANCH   5  62
ATOM     62  O   UNL     1     -19.091  29.903 -11.577  1.00  0.00    -0.385 OA
ATOM     63  H   UNL     1     -18.705  29.992 -12.910  1.00  0.00     0.211 HD
ENDBRANCH   5  62
TORSDOF 14
ENDMDL
MODEL 7
REMARK VINA RESULT:    -8.328      3.563      7.741
REMARK INTER + INTRA:          -7.420
REMARK INTER:                  -9.517
REMARK INTRA:                   2.097
REMARK UNBOUND:                 0.908
REMARK SMILES C[C@@H]1O[C@@H](O[C@@H]2CC[C@@]3(C)[C@H](CC[C@]4(C)[C@@H]3C=C[C@@]35OC[C@]6(CCC(C)(C)C[C@@H]63)[C@@H](O)C[C@@]45C)[C@]2(C)CO)[C@@H](O)[C@@H](O[C@H]2O[C@H](CO)[C@H](O)[C@@H](O)[C@@H]2O)[C@@H]1O
REMARK SMILES IDX 1 1 2 2 54 3 41 4 39 5 4 6 3 7 55 8 42 10 43 11 52 12 44 13
REMARK SMILES IDX 50 14 45 15 48 16 53 17 51 19 46 21 47 22 49 24 5 26 6 27
REMARK SMILES IDX 7 28 35 29 8 30 11 31 36 32 9 33 12 34 10 35 16 36 13 37
REMARK SMILES IDX 14 38 17 39 15 40 33 41 18 42 19 43 32 44 34 45 29 46 20 47
REMARK SMILES IDX 30 48 22 49 28 50 21 51 23 52 25 53 24 54 26 55 27 56 37 57
REMARK SMILES IDX 38 58 31 60 40 62
REMARK H PARENT 55 9 53 18 51 20 47 23 49 25 38 59 31 61 40 63
REMARK Flexibility Score: inf
ROOT
ATOM      1  C   UNL     1     -19.738  24.105  -3.063  1.00  0.00     0.041 C 
ATOM      2  C   UNL     1     -23.277  23.442  -3.306  1.00  0.00     0.150 C 
ATOM      3  C   UNL     1     -23.672  25.085  -4.010  1.00  0.00     0.175 C 
ATOM      4  C   UNL     1     -21.765  25.484  -4.078  1.00  0.00     0.186 C 
ATOM      5  C   UNL     1     -20.979  22.582  -4.061  1.00  0.00     0.202 C 
ATOM      6  C   UNL     1     -23.081  22.129  -5.236  1.00  0.00     0.282 C 
ATOM      7  O   UNL     1     -23.758  22.241  -4.350  1.00  0.00    -0.344 OA
ENDROOT
BRANCH   3   8
ATOM      8  O   UNL     1     -24.145  26.302  -3.341  1.00  0.00    -0.388 OA
ATOM      9  H   UNL     1     -24.895  26.168  -3.968  1.00  0.00     0.211 HD
ENDBRANCH   3   8
BRANCH   4  10
ATOM     10  O   UNL     1     -20.157  26.446  -4.460  1.00  0.00    -0.341 OA
BRANCH  10  11
ATOM     11  C   UNL     1     -18.840  27.564  -5.042  1.00  0.00     0.282 C 
ATOM     12  C   UNL     1     -20.082  29.329  -5.857  1.00  0.00     0.202 C 
ATOM     13  O   UNL     1     -18.339  29.247  -5.854  1.00  0.00    -0.341 OA
ATOM     14  C   UNL     1     -20.064  31.711  -3.500  1.00  0.00     0.179 C 
ATOM     15  C   UNL     1     -18.500  30.714  -5.412  1.00  0.00     0.178 C 
ATOM     16  C   UNL     1     -18.056  31.435  -3.692  1.00  0.00     0.177 C 
BRANCH  12  17
ATOM     17  O   UNL     1     -21.437  29.064  -5.202  1.00  0.00    -0.385 OA
ATOM     18  H   UNL     1     -21.573  30.473  -5.171  1.00  0.00     0.211 HD
ENDBRANCH  12  17
BRANCH  14  19
ATOM     19  O   UNL     1     -19.716  33.492  -4.501  1.00  0.00    -0.387 OA
ATOM     20  H   UNL     1     -20.782  34.272  -4.524  1.00  0.00     0.211 HD
ENDBRANCH  14  19
BRANCH  15  21
ATOM     21  C   UNL     1     -18.607  32.008  -7.794  1.00  0.00     0.191 C 
BRANCH  21  22
ATOM     22  O   UNL     1     -19.207  33.241  -7.281  1.00  0.00    -0.394 OA
ATOM     23  H   UNL     1     -19.940  33.007  -6.533  1.00  0.00     0.210 HD
ENDBRANCH  21  22
ENDBRANCH  15  21
BRANCH  16  24
ATOM     24  O   UNL     1     -17.133  29.715  -2.988  1.00  0.00    -0.387 OA
ATOM     25  H   UNL     1     -17.018  28.682  -2.024  1.00  0.00     0.211 HD
ENDBRANCH  16  24
ENDBRANCH  10  11
ENDBRANCH   4  10
BRANCH   6  26
ATOM     26  O   UNL     1     -24.353  24.224  -5.993  1.00  0.00    -0.346 OA
BRANCH  26  27
ATOM     27  C   UNL     1     -26.221  24.949  -5.696  1.00  0.00     0.130 C 
ATOM     28  C   UNL     1     -28.634  25.748  -5.224  1.00  0.00     0.033 C 
ATOM     29  C   UNL     1     -24.241  25.479  -7.444  1.00  0.00     0.020 C 
ATOM     30  C   UNL     1     -30.118  24.805  -7.342  1.00  0.00     0.010 C 
ATOM     31  C   UNL     1     -26.710  26.100  -7.273  1.00  0.00     0.006 C 
ATOM     32  C   UNL     1     -22.037  25.281  -9.093  1.00  0.00     0.017 C 
ATOM     33  C   UNL     1     -28.116  24.332  -7.341  1.00  0.00    -0.022 C 
ATOM     34  C   UNL     1     -28.083  27.206  -9.245  1.00  0.00     0.005 C 
ATOM     35  C   UNL     1     -28.032  24.546  -9.456  1.00  0.00     0.012 C 
ATOM     36  C   UNL     1     -28.163  22.223  -5.500  1.00  0.00     0.024 C 
ATOM     37  C   UNL     1     -29.191  27.217  -7.157  1.00  0.00     0.008 C 
ATOM     38  C   UNL     1     -27.921  24.509  -7.000  1.00  0.00    -0.017 C 
ATOM     39  C   UNL     1     -26.964  20.680  -3.761  1.00  0.00    -0.024 C 
ATOM     40  C   UNL     1     -28.612  22.224  -6.332  1.00  0.00     0.013 C 
ATOM     41  C   UNL     1     -27.039  26.034  -3.255  1.00  0.00     0.009 C 
ATOM     42  C   UNL     1     -26.562  21.383  -1.804  1.00  0.00     0.005 C 
ATOM     43  C   UNL     1     -27.090  24.105  -1.866  1.00  0.00     0.096 C 
ATOM     44  C   UNL     1     -26.812  28.341  -0.593  1.00  0.00     0.043 C 
ATOM     45  C   UNL     1     -27.838  27.834  -2.407  1.00  0.00     0.015 C 
ATOM     46  C   UNL     1     -27.158  24.010  -0.302  1.00  0.00     0.037 C 
ATOM     47  O   UNL     1     -28.729  24.533  -1.551  1.00  0.00    -0.369 OA
ATOM     48  C   UNL     1     -27.168  27.007  -0.054  1.00  0.00     0.124 C 
ATOM     49  C   UNL     1     -27.918  25.529   0.493  1.00  0.00     0.026 C 
ATOM     50  C   UNL     1     -26.019  25.089   0.904  1.00  0.00     0.014 C 
ATOM     51  C   UNL     1     -29.209  25.581  -0.303  1.00  0.00     0.171 C 
ATOM     52  C   UNL     1     -28.315  25.410   2.485  1.00  0.00     0.013 C 
ATOM     53  C   UNL     1     -25.325  24.026   1.456  1.00  0.00    -0.035 C 
ATOM     54  C   UNL     1     -26.859  24.601   2.713  1.00  0.00     0.007 C 
ATOM     55  C   UNL     1     -24.581  24.298  -0.503  1.00  0.00     0.011 C 
ATOM     56  C   UNL     1     -24.527  23.739   3.002  1.00  0.00     0.011 C 
BRANCH  29  57
ATOM     57  C   UNL     1     -22.308  24.530  -6.461  1.00  0.00     0.165 C 
BRANCH  57  58
ATOM     58  O   UNL     1     -22.277  22.292  -8.061  1.00  0.00    -0.396 OA
ATOM     59  H   UNL     1     -21.187  21.907  -9.261  1.00  0.00     0.210 HD
ENDBRANCH  57  58
ENDBRANCH  29  57
BRANCH  48  60
ATOM     60  O   UNL     1     -25.523  27.191  -0.387  1.00  0.00    -0.392 OA
ATOM     61  H   UNL     1     -24.704  27.685  -1.140  1.00  0.00     0.210 HD
ENDBRANCH  48  60
ENDBRANCH  26  27
ENDBRANCH   6  26
BRANCH   5  62
ATOM     62  O   UNL     1     -19.284  22.154  -4.274  1.00  0.00    -0.385 OA
ATOM     63  H   UNL     1     -18.378  22.250  -5.325  1.00  0.00     0.211 HD
ENDBRANCH   5  62
TORSDOF 14
ENDMDL
MODEL 8
REMARK VINA RESULT:    -8.156      3.440      6.412
REMARK INTER + INTRA:          -7.248
REMARK INTER:                  -8.504
REMARK INTRA:                   1.256
REMARK UNBOUND:                 0.908
REMARK SMILES C[C@@H]1O[C@@H](O[C@@H]2CC[C@@]3(C)[C@H](CC[C@]4(C)[C@@H]3C=C[C@@]35OC[C@]6(CCC(C)(C)C[C@@H]63)[C@@H](O)C[C@@]45C)[C@]2(C)CO)[C@@H](O)[C@@H](O[C@H]2O[C@H](CO)[C@H](O)[C@@H](O)[C@@H]2O)[C@@H]1O
REMARK SMILES IDX 1 1 2 2 54 3 41 4 39 5 4 6 3 7 55 8 42 10 43 11 52 12 44 13
REMARK SMILES IDX 50 14 45 15 48 16 53 17 51 19 46 21 47 22 49 24 5 26 6 27
REMARK SMILES IDX 7 28 35 29 8 30 11 31 36 32 9 33 12 34 10 35 16 36 13 37
REMARK SMILES IDX 14 38 17 39 15 40 33 41 18 42 19 43 32 44 34 45 29 46 20 47
REMARK SMILES IDX 30 48 22 49 28 50 21 51 23 52 25 53 24 54 26 55 27 56 37 57
REMARK SMILES IDX 38 58 31 60 40 62
REMARK H PARENT 55 9 53 18 51 20 47 23 49 25 38 59 31 61 40 63
REMARK Flexibility Score: inf
ROOT
ATOM      1  C   UNL     1     -25.391  30.483  -5.048  1.00  0.00     0.041 C 
ATOM      2  C   UNL     1     -26.813  27.278  -5.903  1.00  0.00     0.150 C 
ATOM      3  C   UNL     1     -25.769  26.351  -4.720  1.00  0.00     0.175 C 
ATOM      4  C   UNL     1     -25.055  28.042  -4.065  1.00  0.00     0.186 C 
ATOM      5  C   UNL     1     -27.419  29.621  -5.045  1.00  0.00     0.202 C 
ATOM      6  C   UNL     1     -28.768  27.612  -4.659  1.00  0.00     0.282 C 
ATOM      7  O   UNL     1     -28.421  27.042  -5.558  1.00  0.00    -0.344 OA
ENDROOT
BRANCH   3   8
ATOM      8  O   UNL     1     -24.510  25.632  -4.943  1.00  0.00    -0.388 OA
ATOM      9  H   UNL     1     -25.038  24.900  -4.544  1.00  0.00     0.211 HD
ENDBRANCH   3   8
BRANCH   4  10
ATOM     10  O   UNL     1     -24.048  29.252  -2.978  1.00  0.00    -0.341 OA
BRANCH  10  11
ATOM     11  C   UNL     1     -22.823  30.344  -2.185  1.00  0.00     0.282 C 
ATOM     12  C   UNL     1     -20.849  29.422  -2.944  1.00  0.00     0.202 C 
ATOM     13  O   UNL     1     -20.968  30.816  -1.902  1.00  0.00    -0.341 OA
ATOM     14  C   UNL     1     -19.805  31.313  -5.506  1.00  0.00     0.179 C 
ATOM     15  C   UNL     1     -19.860  31.327  -2.843  1.00  0.00     0.178 C 
ATOM     16  C   UNL     1     -20.015  32.769  -4.098  1.00  0.00     0.177 C 
BRANCH  12  17
ATOM     17  O   UNL     1     -21.347  28.578  -4.117  1.00  0.00    -0.385 OA
ATOM     18  H   UNL     1     -21.128  29.737  -4.900  1.00  0.00     0.211 HD
ENDBRANCH  12  17
BRANCH  14  19
ATOM     19  O   UNL     1     -17.774  31.594  -5.209  1.00  0.00    -0.387 OA
ATOM     20  H   UNL     1     -17.064  30.533  -5.553  1.00  0.00     0.211 HD
ENDBRANCH  14  19
BRANCH  15  21
ATOM     21  C   UNL     1     -17.620  30.397  -1.628  1.00  0.00     0.191 C 
BRANCH  21  22
ATOM     22  O   UNL     1     -17.028  29.794  -2.823  1.00  0.00    -0.394 OA
ATOM     23  H   UNL     1     -16.263  30.434  -3.216  1.00  0.00     0.210 HD
ENDBRANCH  21  22
ENDBRANCH  15  21
BRANCH  16  24
ATOM     24  O   UNL     1     -21.890  33.387  -3.461  1.00  0.00    -0.387 OA
ATOM     25  H   UNL     1     -22.978  33.298  -2.557  1.00  0.00     0.211 HD
ENDBRANCH  16  24
ENDBRANCH  10  11
ENDBRANCH   4  10
BRANCH   6  26
ATOM     26  O   UNL     1     -27.536  25.715  -3.450  1.00  0.00    -0.346 OA
BRANCH  26  27
ATOM     27  C   UNL     1     -27.142  23.772  -3.866  1.00  0.00     0.130 C 
ATOM     28  C   UNL     1     -26.682  21.321  -4.548  1.00  0.00     0.033 C 
ATOM     29  C   UNL     1     -27.468  25.194  -1.601  1.00  0.00     0.020 C 
ATOM     30  C   UNL     1     -28.991  19.965  -3.912  1.00  0.00     0.010 C 
ATOM     31  C   UNL     1     -27.341  22.709  -2.168  1.00  0.00     0.006 C 
ATOM     32  C   UNL     1     -28.243  27.085   0.253  1.00  0.00     0.017 C 
ATOM     33  C   UNL     1     -28.984  21.989  -3.542  1.00  0.00    -0.022 C 
ATOM     34  C   UNL     1     -27.982  20.784  -0.472  1.00  0.00     0.005 C 
ATOM     35  C   UNL     1     -30.125  21.702  -1.770  1.00  0.00     0.012 C 
ATOM     36  C   UNL     1     -29.446  22.913  -6.145  1.00  0.00     0.024 C 
ATOM     37  C   UNL     1     -26.874  20.039  -2.421  1.00  0.00     0.008 C 
ATOM     38  C   UNL     1     -28.600  22.158  -3.645  1.00  0.00    -0.017 C 
ATOM     39  C   UNL     1     -29.313  24.791  -7.961  1.00  0.00    -0.024 C 
ATOM     40  C   UNL     1     -30.046  22.380  -5.646  1.00  0.00     0.013 C 
ATOM     41  C   UNL     1     -24.944  22.982  -5.399  1.00  0.00     0.009 C 
ATOM     42  C   UNL     1     -27.484  25.199  -8.948  1.00  0.00     0.005 C 
ATOM     43  C   UNL     1     -25.552  23.779  -7.555  1.00  0.00     0.096 C 
ATOM     44  C   UNL     1     -21.488  22.782  -6.093  1.00  0.00     0.043 C 
ATOM     45  C   UNL     1     -23.194  21.747  -5.304  1.00  0.00     0.015 C 
ATOM     46  C   UNL     1     -24.661  23.964  -8.832  1.00  0.00     0.037 C 
ATOM     47  O   UNL     1     -25.331  22.152  -8.078  1.00  0.00    -0.369 OA
ATOM     48  C   UNL     1     -22.231  22.976  -7.361  1.00  0.00     0.124 C 
ATOM     49  C   UNL     1     -23.150  22.853  -8.840  1.00  0.00     0.026 C 
ATOM     50  C   UNL     1     -22.881  24.827  -8.801  1.00  0.00     0.014 C 
ATOM     51  C   UNL     1     -23.843  21.523  -8.607  1.00  0.00     0.171 C 
ATOM     52  C   UNL     1     -22.069  22.800 -10.564  1.00  0.00     0.013 C 
ATOM     53  C   UNL     1     -23.216  25.908  -9.596  1.00  0.00    -0.035 C 
ATOM     54  C   UNL     1     -22.276  24.460 -10.728  1.00  0.00     0.007 C 
ATOM     55  C   UNL     1     -24.096  26.238  -7.704  1.00  0.00     0.011 C 
ATOM     56  C   UNL     1     -22.323  26.962 -10.692  1.00  0.00     0.011 C 
BRANCH  29  57
ATOM     57  C   UNL     1     -27.221  27.451  -2.274  1.00  0.00     0.165 C 
BRANCH  57  58
ATOM     58  O   UNL     1     -25.207  28.031  -0.491  1.00  0.00    -0.396 OA
ATOM     59  H   UNL     1     -23.665  27.401  -0.449  1.00  0.00     0.210 HD
ENDBRANCH  57  58
ENDBRANCH  29  57
BRANCH  48  60
ATOM     60  O   UNL     1     -21.998  24.399  -6.483  1.00  0.00    -0.392 OA
ATOM     61  H   UNL     1     -22.024  25.615  -6.524  1.00  0.00     0.210 HD
ENDBRANCH  48  60
ENDBRANCH  26  27
ENDBRANCH   6  26
BRANCH   5  62
ATOM     62  O   UNL     1     -27.534  31.330  -4.636  1.00  0.00    -0.385 OA
ATOM     63  H   UNL     1     -28.375  32.370  -5.018  1.00  0.00     0.211 HD
ENDBRANCH   5  62
TORSDOF 14
ENDMDL
MODEL 9
REMARK VINA RESULT:    -8.092      2.396      4.778
REMARK INTER + INTRA:          -7.183
REMARK INTER:                  -8.244
REMARK INTRA:                   1.060
REMARK UNBOUND:                 0.908
REMARK SMILES C[C@@H]1O[C@@H](O[C@@H]2CC[C@@]3(C)[C@H](CC[C@]4(C)[C@@H]3C=C[C@@]35OC[C@]6(CCC(C)(C)C[C@@H]63)[C@@H](O)C[C@@]45C)[C@]2(C)CO)[C@@H](O)[C@@H](O[C@H]2O[C@H](CO)[C@H](O)[C@@H](O)[C@@H]2O)[C@@H]1O
REMARK SMILES IDX 1 1 2 2 54 3 41 4 39 5 4 6 3 7 55 8 42 10 43 11 52 12 44 13
REMARK SMILES IDX 50 14 45 15 48 16 53 17 51 19 46 21 47 22 49 24 5 26 6 27
REMARK SMILES IDX 7 28 35 29 8 30 11 31 36 32 9 33 12 34 10 35 16 36 13 37
REMARK SMILES IDX 14 38 17 39 15 40 33 41 18 42 19 43 32 44 34 45 29 46 20 47
REMARK SMILES IDX 30 48 22 49 28 50 21 51 23 52 25 53 24 54 26 55 27 56 37 57
REMARK SMILES IDX 38 58 31 60 40 62
REMARK H PARENT 55 9 53 18 51 20 47 23 49 25 38 59 31 61 40 63
REMARK Flexibility Score: inf
ROOT
ATOM      1  C   UNL     1     -19.989  31.485  -8.629  1.00  0.00     0.041 C 
ATOM      2  C   UNL     1     -21.873  29.125  -6.653  1.00  0.00     0.150 C 
ATOM      3  C   UNL     1     -21.117  27.658  -7.442  1.00  0.00     0.175 C 
ATOM      4  C   UNL     1     -19.931  28.840  -8.441  1.00  0.00     0.186 C 
ATOM      5  C   UNL     1     -20.234  31.093  -6.474  1.00  0.00     0.202 C 
ATOM      6  C   UNL     1     -20.539  29.384  -4.745  1.00  0.00     0.282 C 
ATOM      7  O   UNL     1     -21.590  29.106  -5.015  1.00  0.00    -0.344 OA
ENDROOT
BRANCH   3   8
ATOM      8  O   UNL     1     -21.610  26.829  -8.547  1.00  0.00    -0.388 OA
ATOM      9  H   UNL     1     -21.773  26.205  -7.799  1.00  0.00     0.211 HD
ENDBRANCH   3   8
BRANCH   4  10
ATOM     10  O   UNL     1     -18.516  29.371  -9.614  1.00  0.00    -0.341 OA
BRANCH  10  11
ATOM     11  C   UNL     1     -16.956  29.828 -10.437  1.00  0.00     0.282 C 
ATOM     12  C   UNL     1     -16.012  31.221  -8.859  1.00  0.00     0.202 C 
ATOM     13  O   UNL     1     -15.283  30.799 -10.388  1.00  0.00    -0.341 OA
ATOM     14  C   UNL     1     -13.751  29.407  -7.178  1.00  0.00     0.179 C 
ATOM     15  C   UNL     1     -14.031  30.686  -9.497  1.00  0.00     0.178 C 
ATOM     16  C   UNL     1     -13.084  29.073  -9.072  1.00  0.00     0.177 C 
BRANCH  12  17
ATOM     17  O   UNL     1     -16.829  30.861  -7.619  1.00  0.00    -0.385 OA
ATOM     18  H   UNL     1     -17.230  29.718  -8.351  1.00  0.00     0.211 HD
ENDBRANCH  12  17
BRANCH  14  19
ATOM     19  O   UNL     1     -12.073  30.612  -7.011  1.00  0.00    -0.387 OA
ATOM     20  H   UNL     1     -12.193  31.738  -7.692  1.00  0.00     0.211 HD
ENDBRANCH  14  19
BRANCH  15  21
ATOM     21  C   UNL     1     -13.077  33.225  -9.548  1.00  0.00     0.191 C 
BRANCH  21  22
ATOM     22  O   UNL     1     -14.086  33.757 -10.465  1.00  0.00    -0.394 OA
ATOM     23  H   UNL     1     -14.047  34.829 -10.471  1.00  0.00     0.210 HD
ENDBRANCH  21  22
ENDBRANCH  15  21
BRANCH  16  24
ATOM     24  O   UNL     1     -14.142  27.869 -10.390  1.00  0.00    -0.387 OA
ATOM     25  H   UNL     1     -15.092  27.714 -11.430  1.00  0.00     0.211 HD
ENDBRANCH  16  24
ENDBRANCH  10  11
ENDBRANCH   4  10
BRANCH   6  26
ATOM     26  O   UNL     1     -20.103  26.982  -5.530  1.00  0.00    -0.346 OA
BRANCH  26  27
ATOM     27  C   UNL     1     -21.080  25.216  -5.346  1.00  0.00     0.130 C 
ATOM     28  C   UNL     1     -22.464  23.046  -5.107  1.00  0.00     0.033 C 
ATOM     29  C   UNL     1     -18.515  25.998  -5.079  1.00  0.00     0.020 C 
ATOM     30  C   UNL     1     -22.478  22.510  -2.408  1.00  0.00     0.010 C 
ATOM     31  C   UNL     1     -19.828  23.887  -4.499  1.00  0.00     0.006 C 
ATOM     32  C   UNL     1     -16.226  27.469  -4.624  1.00  0.00     0.017 C 
ATOM     33  C   UNL     1     -21.487  24.213  -3.000  1.00  0.00    -0.022 C 
ATOM     34  C   UNL     1     -18.886  21.950  -2.964  1.00  0.00     0.005 C 
ATOM     35  C   UNL     1     -19.995  23.899  -1.517  1.00  0.00     0.012 C 
ATOM     36  C   UNL     1     -23.691  25.902  -3.358  1.00  0.00     0.024 C 
ATOM     37  C   UNL     1     -20.875  21.403  -4.117  1.00  0.00     0.008 C 
ATOM     38  C   UNL     1     -21.500  24.251  -3.429  1.00  0.00    -0.017 C 
ATOM     39  C   UNL     1     -24.802  28.015  -4.428  1.00  0.00    -0.024 C 
ATOM     40  C   UNL     1     -23.437  25.512  -2.535  1.00  0.00     0.013 C 
ATOM     41  C   UNL     1     -22.603  24.121  -7.416  1.00  0.00     0.009 C 
ATOM     42  C   UNL     1     -25.459  27.975  -6.441  1.00  0.00     0.005 C 
ATOM     43  C   UNL     1     -24.437  25.631  -7.513  1.00  0.00     0.096 C 
ATOM     44  C   UNL     1     -23.045  22.867 -10.687  1.00  0.00     0.043 C 
ATOM     45  C   UNL     1     -22.764  22.355  -8.622  1.00  0.00     0.015 C 
ATOM     46  C   UNL     1     -25.514  25.813  -8.639  1.00  0.00     0.037 C 
ATOM     47  O   UNL     1     -25.428  24.239  -7.290  1.00  0.00    -0.369 OA
ATOM     48  C   UNL     1     -24.241  23.651 -10.297  1.00  0.00     0.124 C 
ATOM     49  C   UNL     1     -25.751  24.273  -9.682  1.00  0.00     0.026 C 
ATOM     50  C   UNL     1     -25.067  25.924 -10.563  1.00  0.00     0.014 C 
ATOM     51  C   UNL     1     -26.008  23.278  -8.566  1.00  0.00     0.171 C 
ATOM     52  C   UNL     1     -27.311  24.293 -10.990  1.00  0.00     0.013 C 
ATOM     53  C   UNL     1     -25.503  27.224 -10.750  1.00  0.00    -0.035 C 
ATOM     54  C   UNL     1     -26.957  25.892 -11.366  1.00  0.00     0.007 C 
ATOM     55  C   UNL     1     -23.681  27.332  -9.687  1.00  0.00     0.011 C 
ATOM     56  C   UNL     1     -26.134  28.131 -12.125  1.00  0.00     0.011 C 
BRANCH  29  57
ATOM     57  C   UNL     1     -18.416  28.100  -6.164  1.00  0.00     0.165 C 
BRANCH  57  58
ATOM     58  O   UNL     1     -16.515  27.349  -8.006  1.00  0.00    -0.396 OA
ATOM     59  H   UNL     1     -16.477  25.962  -8.930  1.00  0.00     0.210 HD
ENDBRANCH  57  58
ENDBRANCH  29  57
BRANCH  48  60
ATOM     60  O   UNL     1     -22.942  24.600 -10.809  1.00  0.00    -0.392 OA
ATOM     61  H   UNL     1     -22.542  25.735 -10.989  1.00  0.00     0.210 HD
ENDBRANCH  48  60
ENDBRANCH  26  27
ENDBRANCH   6  26
BRANCH   5  62
ATOM     62  O   UNL     1     -19.250  32.541  -6.674  1.00  0.00    -0.385 OA
ATOM     63  H   UNL     1     -18.022  32.961  -6.177  1.00  0.00     0.211 HD
ENDBRANCH   5  62
TORSDOF 14
ENDMDL
