MODEL 1
REMARK VINA RESULT:    -3.998      0.000      0.000
REMARK INTER + INTRA:          -6.326
REMARK INTER:                  -6.101
REMARK INTRA:                  -0.225
REMARK UNBOUND:                -0.225
REMARK SMILES O=C([O-])CCCCCCCCC(=O)[O-]
REMARK SMILES IDX 7 1 6 2 5 3 4 4 2 5 1 6 3 7 8 8 9 9 10 10 11 11 12 12 13 13
REMARK SMILES IDX 14 14
REMARK H PARENT
REMARK Flexibility Score: inf
ROOT
ATOM      1  C   UNL     1      44.163  12.407 -34.498  1.00  0.00     0.000 C 
ENDROOT
BRANCH   1   2
ATOM      2  C   UNL     1      44.203  12.369 -32.962  1.00  0.00     0.000 C 
BRANCH   2   3
ATOM      3  C   UNL     1      45.584  12.729 -32.396  1.00  0.00     0.006 C 
BRANCH   3   4
ATOM      4  C   UNL     1      45.603  12.766 -30.861  1.00  0.00     0.053 C 
BRANCH   4   5
ATOM      5  C   UNL     1      46.358  11.593 -30.321  1.00  0.00     0.041 C 
ATOM      6  O   UNL     1      47.056  10.880 -31.088  1.00  0.00    -0.550 OA
ATOM      7  O   UNL     1      46.251  11.256 -28.977  1.00  0.00    -0.550 OA
ENDBRANCH   4   5
ENDBRANCH   3   4
ENDBRANCH   2   3
ENDBRANCH   1   2
BRANCH   1   8
ATOM      8  C   UNL     1      42.817  11.890 -35.024  1.00  0.00     0.000 C 
BRANCH   8   9
ATOM      9  C   UNL     1      42.245  12.767 -36.150  1.00  0.00     0.000 C 
BRANCH   9  10
ATOM     10  C   UNL     1      40.707  12.804 -36.149  1.00  0.00     0.006 C 
BRANCH  10  11
ATOM     11  C   UNL     1      40.161  14.178 -35.738  1.00  0.00     0.053 C 
BRANCH  11  12
ATOM     12  C   UNL     1      38.664  14.221 -35.798  1.00  0.00     0.041 C 
ATOM     13  O   UNL     1      38.015  14.892 -34.953  1.00  0.00    -0.550 OA
ATOM     14  O   UNL     1      37.985  13.490 -36.765  1.00  0.00    -0.550 OA
ENDBRANCH  11  12
ENDBRANCH  10  11
ENDBRANCH   9  10
ENDBRANCH   8   9
ENDBRANCH   1   8
TORSDOF 9
ENDMDL
MODEL 2
REMARK VINA RESULT:    -3.986      0.396      7.910
REMARK INTER + INTRA:          -6.309
REMARK INTER:                  -6.081
REMARK INTRA:                  -0.227
REMARK UNBOUND:                -0.225
REMARK SMILES O=C([O-])CCCCCCCCC(=O)[O-]
REMARK SMILES IDX 7 1 6 2 5 3 4 4 2 5 1 6 3 7 8 8 9 9 10 10 11 11 12 12 13 13
REMARK SMILES IDX 14 14
REMARK H PARENT
REMARK Flexibility Score: inf
ROOT
ATOM      1  C   UNL     1      42.629  11.916 -35.345  1.00  0.00     0.000 C 
ENDROOT
BRANCH   1   2
ATOM      2  C   UNL     1      42.123  13.161 -36.090  1.00  0.00     0.000 C 
BRANCH   2   3
ATOM      3  C   UNL     1      40.600  13.153 -36.292  1.00  0.00     0.006 C 
BRANCH   3   4
ATOM      4  C   UNL     1      39.912  14.367 -35.652  1.00  0.00     0.053 C 
BRANCH   4   5
ATOM      5  C   UNL     1      38.429  14.169 -35.621  1.00  0.00     0.041 C 
ATOM      6  O   UNL     1      37.844  13.609 -36.584  1.00  0.00    -0.550 OA
ATOM      7  O   UNL     1      37.686  14.649 -34.549  1.00  0.00    -0.550 OA
ENDBRANCH   4   5
ENDBRANCH   3   4
ENDBRANCH   2   3
ENDBRANCH   1   2
BRANCH   1   8
ATOM      8  C   UNL     1      44.065  12.124 -34.842  1.00  0.00     0.000 C 
BRANCH   8   9
ATOM      9  C   UNL     1      44.135  12.337 -33.322  1.00  0.00     0.000 C 
BRANCH   9  10
ATOM     10  C   UNL     1      45.552  12.695 -32.839  1.00  0.00     0.006 C 
BRANCH  10  11
ATOM     11  C   UNL     1      45.616  12.877 -31.317  1.00  0.00     0.053 C 
BRANCH  11  12
ATOM     12  C   UNL     1      46.257  11.702 -30.644  1.00  0.00     0.041 C 
ATOM     13  O   UNL     1      46.927  10.875 -31.317  1.00  0.00    -0.550 OA
ATOM     14  O   UNL     1      46.085  11.502 -29.280  1.00  0.00    -0.550 OA
ENDBRANCH  11  12
ENDBRANCH  10  11
ENDBRANCH   9  10
ENDBRANCH   8   9
ENDBRANCH   1   8
TORSDOF 9
ENDMDL
MODEL 3
REMARK VINA RESULT:    -3.607      1.385      7.899
REMARK INTER + INTRA:          -5.730
REMARK INTER:                  -5.429
REMARK INTRA:                  -0.300
REMARK UNBOUND:                -0.225
REMARK SMILES O=C([O-])CCCCCCCCC(=O)[O-]
REMARK SMILES IDX 7 1 6 2 5 3 4 4 2 5 1 6 3 7 8 8 9 9 10 10 11 11 12 12 13 13
REMARK SMILES IDX 14 14
REMARK H PARENT
REMARK Flexibility Score: inf
ROOT
ATOM      1  C   UNL     1      43.789  12.020 -33.798  1.00  0.00     0.000 C 
ENDROOT
BRANCH   1   2
ATOM      2  C   UNL     1      43.407  12.010 -35.286  1.00  0.00     0.000 C 
BRANCH   2   3
ATOM      3  C   UNL     1      41.887  12.043 -35.509  1.00  0.00     0.006 C 
BRANCH   3   4
ATOM      4  C   UNL     1      41.458  13.136 -36.497  1.00  0.00     0.053 C 
BRANCH   4   5
ATOM      5  C   UNL     1      40.699  14.212 -35.788  1.00  0.00     0.041 C 
ATOM      6  O   UNL     1      39.449  14.130 -35.664  1.00  0.00    -0.550 OA
ATOM      7  O   UNL     1      41.366  15.333 -35.307  1.00  0.00    -0.550 OA
ENDBRANCH   4   5
ENDBRANCH   3   4
ENDBRANCH   2   3
ENDBRANCH   1   2
BRANCH   1   8
ATOM      8  C   UNL     1      45.130  12.736 -33.581  1.00  0.00     0.000 C 
BRANCH   8   9
ATOM      9  C   UNL     1      45.455  12.946 -32.093  1.00  0.00     0.000 C 
BRANCH   9  10
ATOM     10  C   UNL     1      46.676  12.131 -31.633  1.00  0.00     0.006 C 
BRANCH  10  11
ATOM     11  C   UNL     1      46.273  10.883 -30.837  1.00  0.00     0.053 C 
BRANCH  11  12
ATOM     12  C   UNL     1      46.573  11.035 -29.377  1.00  0.00     0.041 C 
ATOM     13  O   UNL     1      47.749  10.885 -28.953  1.00  0.00    -0.550 OA
ATOM     14  O   UNL     1      45.547  11.307 -28.480  1.00  0.00    -0.550 OA
ENDBRANCH  11  12
ENDBRANCH  10  11
ENDBRANCH   9  10
ENDBRANCH   8   9
ENDBRANCH   1   8
TORSDOF 9
ENDMDL
MODEL 4
REMARK VINA RESULT:    -3.606     20.088     21.282
REMARK INTER + INTRA:          -5.728
REMARK INTER:                  -5.288
REMARK INTRA:                  -0.440
REMARK UNBOUND:                -0.225
REMARK SMILES O=C([O-])CCCCCCCCC(=O)[O-]
REMARK SMILES IDX 7 1 6 2 5 3 4 4 2 5 1 6 3 7 8 8 9 9 10 10 11 11 12 12 13 13
REMARK SMILES IDX 14 14
REMARK H PARENT
REMARK Flexibility Score: inf
ROOT
ATOM      1  C   UNL     1      56.207  27.674 -32.347  1.00  0.00     0.000 C 
ENDROOT
BRANCH   1   2
ATOM      2  C   UNL     1      56.339  29.201 -32.442  1.00  0.00     0.000 C 
BRANCH   2   3
ATOM      3  C   UNL     1      55.667  29.929 -31.268  1.00  0.00     0.006 C 
BRANCH   3   4
ATOM      4  C   UNL     1      56.674  30.679 -30.384  1.00  0.00     0.053 C 
BRANCH   4   5
ATOM      5  C   UNL     1      56.821  29.992 -29.063  1.00  0.00     0.041 C 
ATOM      6  O   UNL     1      56.840  28.735 -29.001  1.00  0.00    -0.550 OA
ATOM      7  O   UNL     1      56.886  30.740 -27.894  1.00  0.00    -0.550 OA
ENDBRANCH   4   5
ENDBRANCH   3   4
ENDBRANCH   2   3
ENDBRANCH   1   2
BRANCH   1   8
ATOM      8  C   UNL     1      56.240  27.032 -33.742  1.00  0.00     0.000 C 
BRANCH   8   9
ATOM      9  C   UNL     1      56.672  28.020 -34.837  1.00  0.00     0.000 C 
BRANCH   9  10
ATOM     10  C   UNL     1      55.643  28.128 -35.977  1.00  0.00     0.006 C 
BRANCH  10  11
ATOM     11  C   UNL     1      55.791  29.433 -36.769  1.00  0.00     0.053 C 
BRANCH  11  12
ATOM     12  C   UNL     1      55.012  29.396 -38.049  1.00  0.00     0.041 C 
ATOM     13  O   UNL     1      55.024  30.386 -38.827  1.00  0.00    -0.550 OA
ATOM     14  O   UNL     1      54.244  28.282 -38.364  1.00  0.00    -0.550 OA
ENDBRANCH  11  12
ENDBRANCH  10  11
ENDBRANCH   9  10
ENDBRANCH   8   9
ENDBRANCH   1   8
TORSDOF 9
ENDMDL
MODEL 5
REMARK VINA RESULT:    -3.551      1.334      1.978
REMARK INTER + INTRA:          -5.645
REMARK INTER:                  -5.788
REMARK INTRA:                   0.143
REMARK UNBOUND:                -0.225
REMARK SMILES O=C([O-])CCCCCCCCC(=O)[O-]
REMARK SMILES IDX 7 1 6 2 5 3 4 4 2 5 1 6 3 7 8 8 9 9 10 10 11 11 12 12 13 13
REMARK SMILES IDX 14 14
REMARK H PARENT
REMARK Flexibility Score: inf
ROOT
ATOM      1  C   UNL     1      44.151  12.361 -33.282  1.00  0.00     0.000 C 
ENDROOT
BRANCH   1   2
ATOM      2  C   UNL     1      45.161  13.031 -32.337  1.00  0.00     0.000 C 
BRANCH   2   3
ATOM      3  C   UNL     1      46.524  12.322 -32.326  1.00  0.00     0.006 C 
BRANCH   3   4
ATOM      4  C   UNL     1      46.547  11.100 -31.398  1.00  0.00     0.053 C 
BRANCH   4   5
ATOM      5  C   UNL     1      46.409  11.527 -29.971  1.00  0.00     0.041 C 
ATOM      6  O   UNL     1      45.616  12.454 -29.660  1.00  0.00    -0.550 OA
ATOM      7  O   UNL     1      47.194  10.934 -28.989  1.00  0.00    -0.550 OA
ENDBRANCH   4   5
ENDBRANCH   3   4
ENDBRANCH   2   3
ENDBRANCH   1   2
BRANCH   1   8
ATOM      8  C   UNL     1      44.689  12.319 -34.719  1.00  0.00     0.000 C 
BRANCH   8   9
ATOM      9  C   UNL     1      43.666  11.756 -35.718  1.00  0.00     0.000 C 
BRANCH   9  10
ATOM     10  C   UNL     1      42.212  12.035 -35.298  1.00  0.00     0.006 C 
BRANCH  10  11
ATOM     11  C   UNL     1      41.440  12.819 -36.367  1.00  0.00     0.053 C 
BRANCH  11  12
ATOM     12  C   UNL     1      40.740  14.009 -35.785  1.00  0.00     0.041 C 
ATOM     13  O   UNL     1      39.491  13.994 -35.627  1.00  0.00    -0.550 OA
ATOM     14  O   UNL     1      41.463  15.148 -35.452  1.00  0.00    -0.550 OA
ENDBRANCH  11  12
ENDBRANCH  10  11
ENDBRANCH   9  10
ENDBRANCH   8   9
ENDBRANCH   1   8
TORSDOF 9
ENDMDL
MODEL 6
REMARK VINA RESULT:    -3.401     19.489     20.817
REMARK INTER + INTRA:          -5.415
REMARK INTER:                  -4.639
REMARK INTRA:                  -0.777
REMARK UNBOUND:                -0.225
REMARK SMILES O=C([O-])CCCCCCCCC(=O)[O-]
REMARK SMILES IDX 7 1 6 2 5 3 4 4 2 5 1 6 3 7 8 8 9 9 10 10 11 11 12 12 13 13
REMARK SMILES IDX 14 14
REMARK H PARENT
REMARK Flexibility Score: inf
ROOT
ATOM      1  C   UNL     1      56.498  28.768 -32.676  1.00  0.00     0.000 C 
ENDROOT
BRANCH   1   2
ATOM      2  C   UNL     1      57.124  27.382 -32.895  1.00  0.00     0.000 C 
BRANCH   2   3
ATOM      3  C   UNL     1      56.865  26.831 -34.305  1.00  0.00     0.006 C 
BRANCH   3   4
ATOM      4  C   UNL     1      55.369  26.682 -34.615  1.00  0.00     0.053 C 
BRANCH   4   5
ATOM      5  C   UNL     1      55.164  25.723 -35.745  1.00  0.00     0.041 C 
ATOM      6  O   UNL     1      55.132  24.484 -35.528  1.00  0.00    -0.550 OA
ATOM      7  O   UNL     1      55.059  26.196 -37.048  1.00  0.00    -0.550 OA
ENDBRANCH   4   5
ENDBRANCH   3   4
ENDBRANCH   2   3
ENDBRANCH   1   2
BRANCH   1   8
ATOM      8  C   UNL     1      57.087  29.796 -33.653  1.00  0.00     0.000 C 
BRANCH   8   9
ATOM      9  C   UNL     1      56.042  30.809 -34.148  1.00  0.00     0.000 C 
BRANCH   9  10
ATOM     10  C   UNL     1      56.119  31.045 -35.666  1.00  0.00     0.006 C 
BRANCH  10  11
ATOM     11  C   UNL     1      55.828  29.769 -36.467  1.00  0.00     0.053 C 
BRANCH  11  12
ATOM     12  C   UNL     1      54.853  30.021 -37.577  1.00  0.00     0.041 C 
ATOM     13  O   UNL     1      54.029  30.970 -37.493  1.00  0.00    -0.550 OA
ATOM     14  O   UNL     1      54.831  29.185 -38.686  1.00  0.00    -0.550 OA
ENDBRANCH  11  12
ENDBRANCH  10  11
ENDBRANCH   9  10
ENDBRANCH   8   9
ENDBRANCH   1   8
TORSDOF 9
ENDMDL
MODEL 7
REMARK VINA RESULT:    -3.267     20.043     20.945
REMARK INTER + INTRA:          -5.212
REMARK INTER:                  -4.758
REMARK INTRA:                  -0.453
REMARK UNBOUND:                -0.225
REMARK SMILES O=C([O-])CCCCCCCCC(=O)[O-]
REMARK SMILES IDX 7 1 6 2 5 3 4 4 2 5 1 6 3 7 8 8 9 9 10 10 11 11 12 12 13 13
REMARK SMILES IDX 14 14
REMARK H PARENT
REMARK Flexibility Score: inf
ROOT
ATOM      1  C   UNL     1      56.920  26.643 -33.911  1.00  0.00     0.000 C 
ENDROOT
BRANCH   1   2
ATOM      2  C   UNL     1      57.125  27.822 -32.946  1.00  0.00     0.000 C 
BRANCH   2   3
ATOM      3  C   UNL     1      56.440  27.604 -31.589  1.00  0.00     0.006 C 
BRANCH   3   4
ATOM      4  C   UNL     1      57.087  28.421 -30.462  1.00  0.00     0.053 C 
BRANCH   4   5
ATOM      5  C   UNL     1      56.336  29.696 -30.246  1.00  0.00     0.041 C 
ATOM      6  O   UNL     1      55.463  30.067 -31.073  1.00  0.00    -0.550 OA
ATOM      7  O   UNL     1      56.636  30.503 -29.154  1.00  0.00    -0.550 OA
ENDBRANCH   4   5
ENDBRANCH   3   4
ENDBRANCH   2   3
ENDBRANCH   1   2
BRANCH   1   8
ATOM      8  C   UNL     1      56.076  27.066 -35.122  1.00  0.00     0.000 C 
BRANCH   8   9
ATOM      9  C   UNL     1      55.806  28.579 -35.156  1.00  0.00     0.000 C 
BRANCH   9  10
ATOM     10  C   UNL     1      56.489  29.275 -36.345  1.00  0.00     0.006 C 
BRANCH  10  11
ATOM     11  C   UNL     1      55.983  28.748 -37.695  1.00  0.00     0.053 C 
BRANCH  11  12
ATOM     12  C   UNL     1      54.586  29.209 -37.981  1.00  0.00     0.041 C 
ATOM     13  O   UNL     1      53.760  28.428 -38.522  1.00  0.00    -0.550 OA
ATOM     14  O   UNL     1      54.208  30.512 -37.683  1.00  0.00    -0.550 OA
ENDBRANCH  11  12
ENDBRANCH  10  11
ENDBRANCH   9  10
ENDBRANCH   8   9
ENDBRANCH   1   8
TORSDOF 9
ENDMDL
MODEL 8
REMARK VINA RESULT:    -3.167     20.229     22.266
REMARK INTER + INTRA:          -5.058
REMARK INTER:                  -4.567
REMARK INTRA:                  -0.491
REMARK UNBOUND:                -0.225
REMARK SMILES O=C([O-])CCCCCCCCC(=O)[O-]
REMARK SMILES IDX 7 1 6 2 5 3 4 4 2 5 1 6 3 7 8 8 9 9 10 10 11 11 12 12 13 13
REMARK SMILES IDX 14 14
REMARK H PARENT
REMARK Flexibility Score: inf
ROOT
ATOM      1  C   UNL     1      55.998  27.417 -33.650  1.00  0.00     0.000 C 
ENDROOT
BRANCH   1   2
ATOM      2  C   UNL     1      57.116  27.336 -34.701  1.00  0.00     0.000 C 
BRANCH   2   3
ATOM      3  C   UNL     1      57.026  28.454 -35.751  1.00  0.00     0.006 C 
BRANCH   3   4
ATOM      4  C   UNL     1      55.628  29.083 -35.825  1.00  0.00     0.053 C 
BRANCH   4   5
ATOM      5  C   UNL     1      55.205  29.249 -37.250  1.00  0.00     0.041 C 
ATOM      6  O   UNL     1      55.209  30.389 -37.785  1.00  0.00    -0.550 OA
ATOM      7  O   UNL     1      54.760  28.150 -37.976  1.00  0.00    -0.550 OA
ENDBRANCH   4   5
ENDBRANCH   3   4
ENDBRANCH   2   3
ENDBRANCH   1   2
BRANCH   1   8
ATOM      8  C   UNL     1      56.534  27.970 -32.322  1.00  0.00     0.000 C 
BRANCH   8   9
ATOM      9  C   UNL     1      56.512  29.506 -32.269  1.00  0.00     0.000 C 
BRANCH   9  10
ATOM     10  C   UNL     1      55.647  30.047 -31.117  1.00  0.00     0.006 C 
BRANCH  10  11
ATOM     11  C   UNL     1      56.448  30.943 -30.162  1.00  0.00     0.053 C 
BRANCH  11  12
ATOM     12  C   UNL     1      56.774  30.237 -28.881  1.00  0.00     0.041 C 
ATOM     13  O   UNL     1      56.794  30.872 -27.795  1.00  0.00    -0.550 OA
ATOM     14  O   UNL     1      57.091  28.884 -28.894  1.00  0.00    -0.550 OA
ENDBRANCH  11  12
ENDBRANCH  10  11
ENDBRANCH   9  10
ENDBRANCH   8   9
ENDBRANCH   1   8
TORSDOF 9
ENDMDL
MODEL 9
REMARK VINA RESULT:    -2.898     19.804     21.658
REMARK INTER + INTRA:          -4.648
REMARK INTER:                  -4.275
REMARK INTRA:                  -0.373
REMARK UNBOUND:                -0.225
REMARK SMILES O=C([O-])CCCCCCCCC(=O)[O-]
REMARK SMILES IDX 7 1 6 2 5 3 4 4 2 5 1 6 3 7 8 8 9 9 10 10 11 11 12 12 13 13
REMARK SMILES IDX 14 14
REMARK H PARENT
REMARK Flexibility Score: inf
ROOT
ATOM      1  C   UNL     1      55.337  31.124 -36.578  1.00  0.00     0.000 C 
ENDROOT
BRANCH   1   2
ATOM      2  C   UNL     1      54.494  30.544 -37.724  1.00  0.00     0.000 C 
BRANCH   2   3
ATOM      3  C   UNL     1      55.216  29.420 -38.482  1.00  0.00     0.006 C 
BRANCH   3   4
ATOM      4  C   UNL     1      54.286  28.249 -38.829  1.00  0.00     0.053 C 
BRANCH   4   5
ATOM      5  C   UNL     1      54.626  27.051 -38.000  1.00  0.00     0.041 C 
ATOM      6  O   UNL     1      54.498  25.893 -38.476  1.00  0.00    -0.550 OA
ATOM      7  O   UNL     1      55.037  27.211 -36.682  1.00  0.00    -0.550 OA
ENDBRANCH   4   5
ENDBRANCH   3   4
ENDBRANCH   2   3
ENDBRANCH   1   2
BRANCH   1   8
ATOM      8  C   UNL     1      56.374  30.102 -36.090  1.00  0.00     0.000 C 
BRANCH   8   9
ATOM      9  C   UNL     1      57.093  30.554 -34.809  1.00  0.00     0.000 C 
BRANCH   9  10
ATOM     10  C   UNL     1      56.343  30.139 -33.531  1.00  0.00     0.006 C 
BRANCH  10  11
ATOM     11  C   UNL     1      56.721  28.725 -33.071  1.00  0.00     0.053 C 
BRANCH  11  12
ATOM     12  C   UNL     1      56.321  28.479 -31.648  1.00  0.00     0.041 C 
ATOM     13  O   UNL     1      56.453  27.334 -31.141  1.00  0.00    -0.550 OA
ATOM     14  O   UNL     1      55.768  29.506 -30.893  1.00  0.00    -0.550 OA
ENDBRANCH  11  12
ENDBRANCH  10  11
ENDBRANCH   9  10
ENDBRANCH   8   9
ENDBRANCH   1   8
TORSDOF 9
ENDMDL
