MODEL 1
REMARK VINA RESULT:    -5.271      0.000      0.000
REMARK INTER + INTRA:          -9.796
REMARK INTER:                  -8.044
REMARK INTRA:                  -1.752
REMARK UNBOUND:                -1.752
REMARK SMILES OC[C@@H]1O[C@H](O[C@]2(CO)O[C@@H](CO)[C@@H](O)[C@@H]2O)[C@H](O)[C@H](O)[C@H]1O
REMARK SMILES IDX 6 1 5 2 3 3 22 4 4 5 20 6 18 7 2 8 1 9 23 11 21 13 19 15
REMARK SMILES IDX 7 17 16 18 10 19 14 20 11 21 8 22 9 23 17 25 15 27 12 29
REMARK SMILES IDX 13 30
REMARK H PARENT 1 10 23 12 21 14 19 16 9 24 17 26 15 28 13 31
REMARK Flexibility Score: inf
ROOT
ATOM      1  O   UNL     1      99.853  81.017  78.741  1.00  0.00    -0.313 OA
ENDROOT
BRANCH   1   2
ATOM      2  C   UNL     1     101.031  80.632  78.040  1.00  0.00     0.285 C 
ATOM      3  C   UNL     1     101.735  78.803  79.444  1.00  0.00     0.178 C 
ATOM      4  C   UNL     1     101.443  77.757  78.340  1.00  0.00     0.177 C 
ATOM      5  O   UNL     1     102.010  80.109  78.935  1.00  0.00    -0.341 OA
ATOM      6  C   UNL     1     100.354  78.244  77.378  1.00  0.00     0.179 C 
ATOM      7  C   UNL     1     100.712  79.652  76.880  1.00  0.00     0.202 C 
BRANCH   3   8
ATOM      8  C   UNL     1     100.708  78.810  80.597  1.00  0.00     0.191 C 
BRANCH   8   9
ATOM      9  O   UNL     1     100.809  80.002  81.325  1.00  0.00    -0.394 OA
ATOM     10  H   UNL     1     100.480  80.722  80.726  1.00  0.00     0.210 HD
ENDBRANCH   8   9
ENDBRANCH   3   8
BRANCH   4  11
ATOM     11  O   UNL     1     102.630  77.510  77.628  1.00  0.00    -0.387 OA
ATOM     12  H   UNL     1     103.338  78.074  78.037  1.00  0.00     0.211 HD
ENDBRANCH   4  11
BRANCH   6  13
ATOM     13  O   UNL     1      99.105  78.233  78.025  1.00  0.00    -0.387 OA
ATOM     14  H   UNL     1      99.099  77.454  78.641  1.00  0.00     0.211 HD
ENDBRANCH   6  13
BRANCH   7  15
ATOM     15  O   UNL     1      99.725  80.154  76.015  1.00  0.00    -0.385 OA
ATOM     16  H   UNL     1      99.018  79.465  75.921  1.00  0.00     0.211 HD
ENDBRANCH   7  15
ENDBRANCH   1   2
BRANCH   1  17
ATOM     17  C   UNL     1      99.766  82.413  79.067  1.00  0.00     0.224 C 
ATOM     18  C   UNL     1      98.787  83.187  78.129  1.00  0.00     0.208 C 
ATOM     19  O   UNL     1      99.250  82.487  80.385  1.00  0.00    -0.337 OA
ATOM     20  C   UNL     1      97.750  83.764  79.076  1.00  0.00     0.180 C 
ATOM     21  C   UNL     1      97.900  82.868  80.298  1.00  0.00     0.179 C 
BRANCH  17  22
ATOM     22  C   UNL     1     101.147  83.127  79.105  1.00  0.00     0.225 C 
BRANCH  22  23
ATOM     23  O   UNL     1     101.810  82.847  80.304  1.00  0.00    -0.391 OA
ATOM     24  H   UNL     1     102.115  83.720  80.664  1.00  0.00     0.210 HD
ENDBRANCH  22  23
ENDBRANCH  17  22
BRANCH  18  25
ATOM     25  O   UNL     1      98.153  82.328  77.218  1.00  0.00    -0.385 OA
ATOM     26  H   UNL     1      98.870  81.900  76.680  1.00  0.00     0.211 HD
ENDBRANCH  18  25
BRANCH  20  27
ATOM     27  O   UNL     1      98.000  85.123  79.353  1.00  0.00    -0.387 OA
ATOM     28  H   UNL     1      97.510  85.370  80.179  1.00  0.00     0.211 HD
ENDBRANCH  20  27
BRANCH  21  29
ATOM     29  C   UNL     1      97.424  83.499  81.614  1.00  0.00     0.191 C 
BRANCH  29  30
ATOM     30  O   UNL     1      96.263  84.259  81.411  1.00  0.00    -0.394 OA
ATOM     31  H   UNL     1      96.269  84.520  80.454  1.00  0.00     0.210 HD
ENDBRANCH  29  30
ENDBRANCH  21  29
ENDBRANCH   1  17
TORSDOF 13
ENDMDL
MODEL 2
REMARK VINA RESULT:    -5.196      1.568      5.778
REMARK INTER + INTRA:          -9.682
REMARK INTER:                  -7.976
REMARK INTRA:                  -1.706
REMARK UNBOUND:                -1.752
REMARK SMILES OC[C@@H]1O[C@H](O[C@]2(CO)O[C@@H](CO)[C@@H](O)[C@@H]2O)[C@H](O)[C@H](O)[C@H]1O
REMARK SMILES IDX 6 1 5 2 3 3 22 4 4 5 20 6 18 7 2 8 1 9 23 11 21 13 19 15
REMARK SMILES IDX 7 17 16 18 10 19 14 20 11 21 8 22 9 23 17 25 15 27 12 29
REMARK SMILES IDX 13 30
REMARK H PARENT 1 10 23 12 21 14 19 16 9 24 17 26 15 28 13 31
REMARK Flexibility Score: inf
ROOT
ATOM      1  O   UNL     1      99.742  80.630  79.035  1.00  0.00    -0.313 OA
ENDROOT
BRANCH   1   2
ATOM      2  C   UNL     1      98.404  81.109  79.123  1.00  0.00     0.285 C 
ATOM      3  C   UNL     1      98.604  82.440  81.124  1.00  0.00     0.178 C 
ATOM      4  C   UNL     1      98.404  83.762  80.342  1.00  0.00     0.177 C 
ATOM      5  O   UNL     1      98.022  81.304  80.483  1.00  0.00    -0.341 OA
ATOM      6  C   UNL     1      98.853  83.627  78.883  1.00  0.00     0.179 C 
ATOM      7  C   UNL     1      98.196  82.384  78.265  1.00  0.00     0.202 C 
BRANCH   3   8
ATOM      8  C   UNL     1     100.056  82.193  81.586  1.00  0.00     0.191 C 
BRANCH   8   9
ATOM      9  O   UNL     1     100.230  80.845  81.929  1.00  0.00    -0.394 OA
ATOM     10  H   UNL     1     100.758  80.840  82.770  1.00  0.00     0.210 HD
ENDBRANCH   8   9
ENDBRANCH   3   8
BRANCH   4  11
ATOM     11  O   UNL     1      97.042  84.111  80.389  1.00  0.00    -0.387 OA
ATOM     12  H   UNL     1      96.880  84.755  79.651  1.00  0.00     0.211 HD
ENDBRANCH   4  11
BRANCH   6  13
ATOM     13  O   UNL     1     100.256  83.548  78.822  1.00  0.00    -0.387 OA
ATOM     14  H   UNL     1     100.502  83.405  77.871  1.00  0.00     0.211 HD
ENDBRANCH   6  13
BRANCH   7  15
ATOM     15  O   UNL     1      98.602  82.202  76.932  1.00  0.00    -0.385 OA
ATOM     16  H   UNL     1      99.202  82.952  76.687  1.00  0.00     0.211 HD
ENDBRANCH   7  15
ENDBRANCH   1   2
BRANCH   1  17
ATOM     17  C   UNL     1      99.872  79.208  78.880  1.00  0.00     0.224 C 
ATOM     18  C   UNL     1     100.216  78.793  77.415  1.00  0.00     0.208 C 
ATOM     19  O   UNL     1     100.954  78.810  79.706  1.00  0.00    -0.337 OA
ATOM     20  C   UNL     1     101.535  78.053  77.542  1.00  0.00     0.180 C 
ATOM     21  C   UNL     1     102.061  78.564  78.876  1.00  0.00     0.179 C 
BRANCH  17  22
ATOM     22  C   UNL     1      98.633  78.416  79.384  1.00  0.00     0.225 C 
BRANCH  22  23
ATOM     23  O   UNL     1      98.628  78.351  80.781  1.00  0.00    -0.391 OA
ATOM     24  H   UNL     1      99.168  79.120  81.098  1.00  0.00     0.210 HD
ENDBRANCH  22  23
ENDBRANCH  17  22
BRANCH  18  25
ATOM     25  O   UNL     1     100.392  79.912  76.588  1.00  0.00    -0.385 OA
ATOM     26  H   UNL     1      99.862  80.651  76.986  1.00  0.00     0.211 HD
ENDBRANCH  18  25
BRANCH  20  27
ATOM     27  O   UNL     1     101.350  76.655  77.521  1.00  0.00    -0.387 OA
ATOM     28  H   UNL     1     101.257  76.337  78.455  1.00  0.00     0.211 HD
ENDBRANCH  20  27
BRANCH  21  29
ATOM     29  C   UNL     1     103.065  77.631  79.566  1.00  0.00     0.191 C 
BRANCH  29  30
ATOM     30  O   UNL     1     103.806  76.909  78.620  1.00  0.00    -0.394 OA
ATOM     31  H   UNL     1     103.200  76.763  77.849  1.00  0.00     0.210 HD
ENDBRANCH  29  30
ENDBRANCH  21  29
ENDBRANCH   1  17
TORSDOF 13
ENDMDL
MODEL 3
REMARK VINA RESULT:    -5.185      2.343      4.973
REMARK INTER + INTRA:          -9.665
REMARK INTER:                  -8.138
REMARK INTRA:                  -1.527
REMARK UNBOUND:                -1.752
REMARK SMILES OC[C@@H]1O[C@H](O[C@]2(CO)O[C@@H](CO)[C@@H](O)[C@@H]2O)[C@H](O)[C@H](O)[C@H]1O
REMARK SMILES IDX 6 1 5 2 3 3 22 4 4 5 20 6 18 7 2 8 1 9 23 11 21 13 19 15
REMARK SMILES IDX 7 17 16 18 10 19 14 20 11 21 8 22 9 23 17 25 15 27 12 29
REMARK SMILES IDX 13 30
REMARK H PARENT 1 10 23 12 21 14 19 16 9 24 17 26 15 28 13 31
REMARK Flexibility Score: inf
ROOT
ATOM      1  O   UNL     1      99.089  81.105  79.442  1.00  0.00    -0.313 OA
ENDROOT
BRANCH   1   2
ATOM      2  C   UNL     1      99.784  81.024  78.202  1.00  0.00     0.285 C 
ATOM      3  C   UNL     1      99.205  83.181  77.294  1.00  0.00     0.178 C 
ATOM      4  C   UNL     1     100.663  83.692  77.406  1.00  0.00     0.177 C 
ATOM      5  O   UNL     1      99.105  81.760  77.187  1.00  0.00    -0.341 OA
ATOM      6  C   UNL     1     101.427  82.973  78.522  1.00  0.00     0.179 C 
ATOM      7  C   UNL     1     101.267  81.456  78.348  1.00  0.00     0.202 C 
BRANCH   3   8
ATOM      8  C   UNL     1      98.244  83.775  78.346  1.00  0.00     0.191 C 
BRANCH   8   9
ATOM      9  O   UNL     1      98.576  85.113  78.600  1.00  0.00    -0.394 OA
ATOM     10  H   UNL     1      98.963  85.133  79.515  1.00  0.00     0.210 HD
ENDBRANCH   8   9
ENDBRANCH   3   8
BRANCH   4  11
ATOM     11  O   UNL     1     101.310  83.481  76.175  1.00  0.00    -0.387 OA
ATOM     12  H   UNL     1     102.083  84.103  76.142  1.00  0.00     0.211 HD
ENDBRANCH   4  11
BRANCH   6  13
ATOM     13  O   UNL     1     100.950  83.397  79.776  1.00  0.00    -0.387 OA
ATOM     14  H   UNL     1     100.223  82.775  80.041  1.00  0.00     0.211 HD
ENDBRANCH   6  13
BRANCH   7  15
ATOM     15  O   UNL     1     101.929  80.752  79.368  1.00  0.00    -0.385 OA
ATOM     16  H   UNL     1     102.491  80.053  78.947  1.00  0.00     0.211 HD
ENDBRANCH   7  15
ENDBRANCH   1   2
BRANCH   1  17
ATOM     17  C   UNL     1      98.791  79.843  80.058  1.00  0.00     0.224 C 
ATOM     18  C   UNL     1      99.528  79.653  81.422  1.00  0.00     0.208 C 
ATOM     19  O   UNL     1      97.398  79.840  80.317  1.00  0.00    -0.337 OA
ATOM     20  C   UNL     1      98.404  79.453  82.422  1.00  0.00     0.180 C 
ATOM     21  C   UNL     1      97.215  80.062  81.693  1.00  0.00     0.179 C 
BRANCH  17  22
ATOM     22  C   UNL     1      99.059  78.624  79.132  1.00  0.00     0.225 C 
BRANCH  22  23
ATOM     23  O   UNL     1      97.854  78.020  78.757  1.00  0.00    -0.391 OA
ATOM     24  H   UNL     1      97.137  78.506  79.241  1.00  0.00     0.210 HD
ENDBRANCH  22  23
ENDBRANCH  17  22
BRANCH  18  25
ATOM     25  O   UNL     1     100.264  80.794  81.776  1.00  0.00    -0.385 OA
ATOM     26  H   UNL     1     100.111  81.468  81.064  1.00  0.00     0.211 HD
ENDBRANCH  18  25
BRANCH  20  27
ATOM     27  O   UNL     1      98.222  78.089  82.732  1.00  0.00    -0.387 OA
ATOM     28  H   UNL     1      97.444  77.752  82.218  1.00  0.00     0.211 HD
ENDBRANCH  20  27
BRANCH  21  29
ATOM     29  C   UNL     1      95.847  79.540  82.154  1.00  0.00     0.191 C 
BRANCH  29  30
ATOM     30  O   UNL     1      95.458  78.426  81.399  1.00  0.00    -0.394 OA
ATOM     31  H   UNL     1      94.727  78.737  80.805  1.00  0.00     0.210 HD
ENDBRANCH  29  30
ENDBRANCH  21  29
ENDBRANCH   1  17
TORSDOF 13
ENDMDL
MODEL 4
REMARK VINA RESULT:    -5.068      2.525      4.646
REMARK INTER + INTRA:          -9.486
REMARK INTER:                  -7.861
REMARK INTRA:                  -1.625
REMARK UNBOUND:                -1.752
REMARK SMILES OC[C@@H]1O[C@H](O[C@]2(CO)O[C@@H](CO)[C@@H](O)[C@@H]2O)[C@H](O)[C@H](O)[C@H]1O
REMARK SMILES IDX 6 1 5 2 3 3 22 4 4 5 20 6 18 7 2 8 1 9 23 11 21 13 19 15
REMARK SMILES IDX 7 17 16 18 10 19 14 20 11 21 8 22 9 23 17 25 15 27 12 29
REMARK SMILES IDX 13 30
REMARK H PARENT 1 10 23 12 21 14 19 16 9 24 17 26 15 28 13 31
REMARK Flexibility Score: inf
ROOT
ATOM      1  O   UNL     1      99.349  80.506  80.372  1.00  0.00    -0.313 OA
ENDROOT
BRANCH   1   2
ATOM      2  C   UNL     1      99.040  80.559  78.983  1.00  0.00     0.285 C 
ATOM      3  C   UNL     1     100.319  82.511  78.378  1.00  0.00     0.178 C 
ATOM      4  C   UNL     1     101.311  81.678  77.528  1.00  0.00     0.177 C 
ATOM      5  O   UNL     1      99.033  81.905  78.512  1.00  0.00    -0.341 OA
ATOM      6  C   UNL     1     101.402  80.232  78.025  1.00  0.00     0.179 C 
ATOM      7  C   UNL     1      99.986  79.651  78.153  1.00  0.00     0.202 C 
BRANCH   3   8
ATOM      8  C   UNL     1     100.898  83.001  79.723  1.00  0.00     0.191 C 
BRANCH   8   9
ATOM      9  O   UNL     1     102.270  83.254  79.593  1.00  0.00    -0.394 OA
ATOM     10  H   UNL     1     102.362  84.238  79.491  1.00  0.00     0.210 HD
ENDBRANCH   8   9
ENDBRANCH   3   8
BRANCH   4  11
ATOM     11  O   UNL     1     100.879  81.694  76.189  1.00  0.00    -0.387 OA
ATOM     12  H   UNL     1     100.804  82.646  75.918  1.00  0.00     0.211 HD
ENDBRANCH   4  11
BRANCH   6  13
ATOM     13  O   UNL     1     102.084  80.192  79.255  1.00  0.00    -0.387 OA
ATOM     14  H   UNL     1     101.773  79.383  79.738  1.00  0.00     0.211 HD
ENDBRANCH   6  13
BRANCH   7  15
ATOM     15  O   UNL     1     100.017  78.332  78.635  1.00  0.00    -0.385 OA
ATOM     16  H   UNL     1     100.740  78.267  79.311  1.00  0.00     0.211 HD
ENDBRANCH   7  15
ENDBRANCH   1   2
BRANCH   1  17
ATOM     17  C   UNL     1      98.470  79.690  81.162  1.00  0.00     0.224 C 
ATOM     18  C   UNL     1      99.192  78.446  81.770  1.00  0.00     0.208 C 
ATOM     19  O   UNL     1      98.026  80.500  82.237  1.00  0.00    -0.337 OA
ATOM     20  C   UNL     1      99.013  78.613  83.268  1.00  0.00     0.180 C 
ATOM     21  C   UNL     1      98.724  80.103  83.391  1.00  0.00     0.179 C 
BRANCH  17  22
ATOM     22  C   UNL     1      97.189  79.246  80.401  1.00  0.00     0.225 C 
BRANCH  22  23
ATOM     23  O   UNL     1      97.336  77.943  79.915  1.00  0.00    -0.391 OA
ATOM     24  H   UNL     1      97.884  77.456  80.584  1.00  0.00     0.210 HD
ENDBRANCH  22  23
ENDBRANCH  17  22
BRANCH  18  25
ATOM     25  O   UNL     1     100.562  78.443  81.466  1.00  0.00    -0.385 OA
ATOM     26  H   UNL     1     100.841  79.392  81.383  1.00  0.00     0.211 HD
ENDBRANCH  18  25
BRANCH  20  27
ATOM     27  O   UNL     1      97.967  77.806  83.759  1.00  0.00    -0.387 OA
ATOM     28  H   UNL     1      97.129  78.336  83.749  1.00  0.00     0.211 HD
ENDBRANCH  20  27
BRANCH  21  29
ATOM     29  C   UNL     1      97.956  80.502  84.659  1.00  0.00     0.191 C 
BRANCH  29  30
ATOM     30  O   UNL     1      96.581  80.280  84.499  1.00  0.00    -0.394 OA
ATOM     31  H   UNL     1      96.253  81.003  83.905  1.00  0.00     0.210 HD
ENDBRANCH  29  30
ENDBRANCH  21  29
ENDBRANCH   1  17
TORSDOF 13
ENDMDL
MODEL 5
REMARK VINA RESULT:    -4.989      2.187      4.580
REMARK INTER + INTRA:          -9.366
REMARK INTER:                  -7.835
REMARK INTRA:                  -1.531
REMARK UNBOUND:                -1.752
REMARK SMILES OC[C@@H]1O[C@H](O[C@]2(CO)O[C@@H](CO)[C@@H](O)[C@@H]2O)[C@H](O)[C@H](O)[C@H]1O
REMARK SMILES IDX 6 1 5 2 3 3 22 4 4 5 20 6 18 7 2 8 1 9 23 11 21 13 19 15
REMARK SMILES IDX 7 17 16 18 10 19 14 20 11 21 8 22 9 23 17 25 15 27 12 29
REMARK SMILES IDX 13 30
REMARK H PARENT 1 10 23 12 21 14 19 16 9 24 17 26 15 28 13 31
REMARK Flexibility Score: inf
ROOT
ATOM      1  O   UNL     1     100.231  81.079  79.766  1.00  0.00    -0.313 OA
ENDROOT
BRANCH   1   2
ATOM      2  C   UNL     1      99.020  81.491  80.391  1.00  0.00     0.285 C 
ATOM      3  C   UNL     1      97.887  79.364  80.472  1.00  0.00     0.178 C 
ATOM      4  C   UNL     1      97.976  79.302  82.017  1.00  0.00     0.177 C 
ATOM      5  O   UNL     1      97.922  80.694  79.951  1.00  0.00    -0.341 OA
ATOM      6  C   UNL     1      99.174  80.098  82.544  1.00  0.00     0.179 C 
ATOM      7  C   UNL     1      99.151  81.508  81.937  1.00  0.00     0.202 C 
BRANCH   3   8
ATOM      8  C   UNL     1      98.854  78.406  79.744  1.00  0.00     0.191 C 
BRANCH   8   9
ATOM      9  O   UNL     1      98.802  78.628  78.362  1.00  0.00    -0.394 OA
ATOM     10  H   UNL     1      97.845  78.556  78.105  1.00  0.00     0.210 HD
ENDBRANCH   8   9
ENDBRANCH   3   8
BRANCH   4  11
ATOM     11  O   UNL     1      96.786  79.821  82.558  1.00  0.00    -0.387 OA
ATOM     12  H   UNL     1      96.521  79.224  83.306  1.00  0.00     0.211 HD
ENDBRANCH   4  11
BRANCH   6  13
ATOM     13  O   UNL     1     100.369  79.425  82.230  1.00  0.00    -0.387 OA
ATOM     14  H   UNL     1     100.494  78.713  82.910  1.00  0.00     0.211 HD
ENDBRANCH   6  13
BRANCH   7  15
ATOM     15  O   UNL     1     100.251  82.268  82.370  1.00  0.00    -0.385 OA
ATOM     16  H   UNL     1     100.040  82.632  83.268  1.00  0.00     0.211 HD
ENDBRANCH   7  15
ENDBRANCH   1   2
BRANCH   1  17
ATOM     17  C   UNL     1     100.683  81.924  78.697  1.00  0.00     0.224 C 
ATOM     18  C   UNL     1     101.497  81.142  77.618  1.00  0.00     0.208 C 
ATOM     19  O   UNL     1      99.520  82.439  78.071  1.00  0.00    -0.337 OA
ATOM     20  C   UNL     1     100.716  81.363  76.336  1.00  0.00     0.180 C 
ATOM     21  C   UNL     1      99.339  81.743  76.863  1.00  0.00     0.179 C 
BRANCH  17  22
ATOM     22  C   UNL     1     101.491  83.160  79.184  1.00  0.00     0.225 C 
BRANCH  22  23
ATOM     23  O   UNL     1     102.117  82.886  80.404  1.00  0.00    -0.391 OA
ATOM     24  H   UNL     1     101.391  82.789  81.074  1.00  0.00     0.210 HD
ENDBRANCH  22  23
ENDBRANCH  17  22
BRANCH  18  25
ATOM     25  O   UNL     1     101.544  79.769  77.900  1.00  0.00    -0.385 OA
ATOM     26  H   UNL     1     100.972  79.316  77.226  1.00  0.00     0.211 HD
ENDBRANCH  18  25
BRANCH  20  27
ATOM     27  O   UNL     1     101.299  82.369  75.539  1.00  0.00    -0.387 OA
ATOM     28  H   UNL     1     100.599  82.745  74.946  1.00  0.00     0.211 HD
ENDBRANCH  20  27
BRANCH  21  29
ATOM     29  C   UNL     1      98.484  82.560  75.884  1.00  0.00     0.191 C 
BRANCH  29  30
ATOM     30  O   UNL     1      98.252  81.840  74.703  1.00  0.00    -0.394 OA
ATOM     31  H   UNL     1      98.579  82.414  73.963  1.00  0.00     0.210 HD
ENDBRANCH  29  30
ENDBRANCH  21  29
ENDBRANCH   1  17
TORSDOF 13
ENDMDL
MODEL 6
REMARK VINA RESULT:    -4.938      2.071      3.922
REMARK INTER + INTRA:          -9.288
REMARK INTER:                  -7.650
REMARK INTRA:                  -1.638
REMARK UNBOUND:                -1.752
REMARK SMILES OC[C@@H]1O[C@H](O[C@]2(CO)O[C@@H](CO)[C@@H](O)[C@@H]2O)[C@H](O)[C@H](O)[C@H]1O
REMARK SMILES IDX 6 1 5 2 3 3 22 4 4 5 20 6 18 7 2 8 1 9 23 11 21 13 19 15
REMARK SMILES IDX 7 17 16 18 10 19 14 20 11 21 8 22 9 23 17 25 15 27 12 29
REMARK SMILES IDX 13 30
REMARK H PARENT 1 10 23 12 21 14 19 16 9 24 17 26 15 28 13 31
REMARK Flexibility Score: inf
ROOT
ATOM      1  O   UNL     1     100.901  80.872  78.767  1.00  0.00    -0.313 OA
ENDROOT
BRANCH   1   2
ATOM      2  C   UNL     1      99.865  80.351  77.941  1.00  0.00     0.285 C 
ATOM      3  C   UNL     1      99.528  82.255  76.500  1.00  0.00     0.178 C 
ATOM      4  C   UNL     1     100.086  81.503  75.267  1.00  0.00     0.177 C 
ATOM      5  O   UNL     1      98.992  81.389  77.502  1.00  0.00    -0.341 OA
ATOM      6  C   UNL     1     101.077  80.408  75.676  1.00  0.00     0.179 C 
ATOM      7  C   UNL     1     100.437  79.526  76.758  1.00  0.00     0.202 C 
BRANCH   3   8
ATOM      8  C   UNL     1     100.483  83.323  77.075  1.00  0.00     0.191 C 
BRANCH   8   9
ATOM      9  O   UNL     1      99.980  83.818  78.285  1.00  0.00    -0.394 OA
ATOM     10  H   UNL     1      99.206  83.242  78.520  1.00  0.00     0.210 HD
ENDBRANCH   8   9
ENDBRANCH   3   8
BRANCH   4  11
ATOM     11  O   UNL     1      99.011  80.931  74.563  1.00  0.00    -0.387 OA
ATOM     12  H   UNL     1      99.381  80.187  74.020  1.00  0.00     0.211 HD
ENDBRANCH   4  11
BRANCH   6  13
ATOM     13  O   UNL     1     102.272  80.993  76.134  1.00  0.00    -0.387 OA
ATOM     14  H   UNL     1     102.123  81.271  77.075  1.00  0.00     0.211 HD
ENDBRANCH   6  13
BRANCH   7  15
ATOM     15  O   UNL     1     101.322  78.522  77.188  1.00  0.00    -0.385 OA
ATOM     16  H   UNL     1     102.007  78.943  77.769  1.00  0.00     0.211 HD
ENDBRANCH   7  15
ENDBRANCH   1   2
BRANCH   1  17
ATOM     17  C   UNL     1     100.777  80.570  80.165  1.00  0.00     0.224 C 
ATOM     18  C   UNL     1     101.249  81.746  81.078  1.00  0.00     0.208 C 
ATOM     19  O   UNL     1      99.397  80.360  80.411  1.00  0.00    -0.337 OA
ATOM     20  C   UNL     1     100.022  82.085  81.903  1.00  0.00     0.180 C 
ATOM     21  C   UNL     1      98.897  81.502  81.058  1.00  0.00     0.179 C 
BRANCH  17  22
ATOM     22  C   UNL     1     101.492  79.252  80.579  1.00  0.00     0.225 C 
BRANCH  22  23
ATOM     23  O   UNL     1     102.708  79.122  79.900  1.00  0.00    -0.391 OA
ATOM     24  H   UNL     1     102.480  78.941  78.952  1.00  0.00     0.210 HD
ENDBRANCH  22  23
ENDBRANCH  17  22
BRANCH  18  25
ATOM     25  O   UNL     1     101.624  82.868  80.323  1.00  0.00    -0.385 OA
ATOM     26  H   UNL     1     100.796  83.388  80.150  1.00  0.00     0.211 HD
ENDBRANCH  18  25
BRANCH  20  27
ATOM     27  O   UNL     1     100.092  81.522  83.194  1.00  0.00    -0.387 OA
ATOM     28  H   UNL     1     100.936  81.008  83.266  1.00  0.00     0.211 HD
ENDBRANCH  20  27
BRANCH  21  29
ATOM     29  C   UNL     1      97.617  81.173  81.840  1.00  0.00     0.191 C 
BRANCH  29  30
ATOM     30  O   UNL     1      97.713  79.912  82.446  1.00  0.00    -0.394 OA
ATOM     31  H   UNL     1      96.903  79.816  83.009  1.00  0.00     0.210 HD
ENDBRANCH  29  30
ENDBRANCH  21  29
ENDBRANCH   1  17
TORSDOF 13
ENDMDL
MODEL 7
REMARK VINA RESULT:    -4.923      2.296      5.142
REMARK INTER + INTRA:          -9.264
REMARK INTER:                  -7.467
REMARK INTRA:                  -1.798
REMARK UNBOUND:                -1.752
REMARK SMILES OC[C@@H]1O[C@H](O[C@]2(CO)O[C@@H](CO)[C@@H](O)[C@@H]2O)[C@H](O)[C@H](O)[C@H]1O
REMARK SMILES IDX 6 1 5 2 3 3 22 4 4 5 20 6 18 7 2 8 1 9 23 11 21 13 19 15
REMARK SMILES IDX 7 17 16 18 10 19 14 20 11 21 8 22 9 23 17 25 15 27 12 29
REMARK SMILES IDX 13 30
REMARK H PARENT 1 10 23 12 21 14 19 16 9 24 17 26 15 28 13 31
REMARK Flexibility Score: inf
ROOT
ATOM      1  O   UNL     1     100.137  81.761  77.268  1.00  0.00    -0.313 OA
ENDROOT
BRANCH   1   2
ATOM      2  C   UNL     1     100.019  83.117  76.848  1.00  0.00     0.285 C 
ATOM      3  C   UNL     1     100.937  82.914  74.628  1.00  0.00     0.178 C 
ATOM      4  C   UNL     1      99.567  83.203  73.965  1.00  0.00     0.177 C 
ATOM      5  O   UNL     1     101.062  83.463  75.940  1.00  0.00    -0.341 OA
ATOM      6  C   UNL     1      98.404  82.797  74.876  1.00  0.00     0.179 C 
ATOM      7  C   UNL     1      98.612  83.415  76.266  1.00  0.00     0.202 C 
BRANCH   3   8
ATOM      8  C   UNL     1     101.378  81.437  74.548  1.00  0.00     0.191 C 
BRANCH   8   9
ATOM      9  O   UNL     1     102.335  81.166  75.535  1.00  0.00    -0.394 OA
ATOM     10  H   UNL     1     102.369  81.970  76.116  1.00  0.00     0.210 HD
ENDBRANCH   8   9
ENDBRANCH   3   8
BRANCH   4  11
ATOM     11  O   UNL     1      99.487  84.577  73.677  1.00  0.00    -0.387 OA
ATOM     12  H   UNL     1      99.248  84.660  72.717  1.00  0.00     0.211 HD
ENDBRANCH   4  11
BRANCH   6  13
ATOM     13  O   UNL     1      98.320  81.394  74.946  1.00  0.00    -0.387 OA
ATOM     14  H   UNL     1      99.190  81.064  75.290  1.00  0.00     0.211 HD
ENDBRANCH   6  13
BRANCH   7  15
ATOM     15  O   UNL     1      97.582  83.045  77.148  1.00  0.00    -0.385 OA
ATOM     16  H   UNL     1      96.721  83.106  76.660  1.00  0.00     0.211 HD
ENDBRANCH   7  15
ENDBRANCH   1   2
BRANCH   1  17
ATOM     17  C   UNL     1     100.626  81.577  78.605  1.00  0.00     0.224 C 
ATOM     18  C   UNL     1      99.535  81.016  79.571  1.00  0.00     0.208 C 
ATOM     19  O   UNL     1     101.667  80.618  78.525  1.00  0.00    -0.337 OA
ATOM     20  C   UNL     1     100.127  79.713  80.076  1.00  0.00     0.180 C 
ATOM     21  C   UNL     1     101.163  79.397  79.006  1.00  0.00     0.179 C 
BRANCH  17  22
ATOM     22  C   UNL     1     101.269  82.857  79.210  1.00  0.00     0.225 C 
BRANCH  22  23
ATOM     23  O   UNL     1     101.764  82.597  80.492  1.00  0.00    -0.391 OA
ATOM     24  H   UNL     1     101.917  81.618  80.538  1.00  0.00     0.210 HD
ENDBRANCH  22  23
ENDBRANCH  17  22
BRANCH  18  25
ATOM     25  O   UNL     1      98.335  80.749  78.897  1.00  0.00    -0.385 OA
ATOM     26  H   UNL     1      98.178  79.771  78.963  1.00  0.00     0.211 HD
ENDBRANCH  18  25
BRANCH  20  27
ATOM     27  O   UNL     1     100.687  79.860  81.361  1.00  0.00    -0.387 OA
ATOM     28  H   UNL     1     100.866  80.822  81.517  1.00  0.00     0.211 HD
ENDBRANCH  20  27
BRANCH  21  29
ATOM     29  C   UNL     1     102.303  78.481  79.473  1.00  0.00     0.191 C 
BRANCH  29  30
ATOM     30  O   UNL     1     103.159  79.158  80.352  1.00  0.00    -0.394 OA
ATOM     31  H   UNL     1     102.592  79.468  81.105  1.00  0.00     0.210 HD
ENDBRANCH  29  30
ENDBRANCH  21  29
ENDBRANCH   1  17
TORSDOF 13
ENDMDL
MODEL 8
REMARK VINA RESULT:    -4.885      2.468      4.190
REMARK INTER + INTRA:          -9.207
REMARK INTER:                  -7.447
REMARK INTRA:                  -1.759
REMARK UNBOUND:                -1.752
REMARK SMILES OC[C@@H]1O[C@H](O[C@]2(CO)O[C@@H](CO)[C@@H](O)[C@@H]2O)[C@H](O)[C@H](O)[C@H]1O
REMARK SMILES IDX 6 1 5 2 3 3 22 4 4 5 20 6 18 7 2 8 1 9 23 11 21 13 19 15
REMARK SMILES IDX 7 17 16 18 10 19 14 20 11 21 8 22 9 23 17 25 15 27 12 29
REMARK SMILES IDX 13 30
REMARK H PARENT 1 10 23 12 21 14 19 16 9 24 17 26 15 28 13 31
REMARK Flexibility Score: inf
ROOT
ATOM      1  O   UNL     1     100.012  79.618  80.408  1.00  0.00    -0.313 OA
ENDROOT
BRANCH   1   2
ATOM      2  C   UNL     1     100.553  80.609  79.540  1.00  0.00     0.285 C 
ATOM      3  C   UNL     1     102.069  79.227  78.274  1.00  0.00     0.178 C 
ATOM      4  C   UNL     1     101.236  79.386  76.978  1.00  0.00     0.177 C 
ATOM      5  O   UNL     1     101.902  80.305  79.196  1.00  0.00    -0.341 OA
ATOM      6  C   UNL     1      99.760  79.660  77.288  1.00  0.00     0.179 C 
ATOM      7  C   UNL     1      99.661  80.821  78.288  1.00  0.00     0.202 C 
BRANCH   3   8
ATOM      8  C   UNL     1     101.944  77.840  78.940  1.00  0.00     0.191 C 
BRANCH   8   9
ATOM      9  O   UNL     1     101.696  76.860  77.969  1.00  0.00    -0.394 OA
ATOM     10  H   UNL     1     101.919  75.990  78.391  1.00  0.00     0.210 HD
ENDBRANCH   8   9
ENDBRANCH   3   8
BRANCH   4  11
ATOM     11  O   UNL     1     101.769  80.450  76.228  1.00  0.00    -0.387 OA
ATOM     12  H   UNL     1     101.919  80.110  75.307  1.00  0.00     0.211 HD
ENDBRANCH   4  11
BRANCH   6  13
ATOM     13  O   UNL     1      99.155  78.495  77.795  1.00  0.00    -0.387 OA
ATOM     14  H   UNL     1      99.406  78.425  78.753  1.00  0.00     0.211 HD
ENDBRANCH   6  13
BRANCH   7  15
ATOM     15  O   UNL     1      98.324  81.090  78.626  1.00  0.00    -0.385 OA
ATOM     16  H   UNL     1      98.319  81.649  79.445  1.00  0.00     0.211 HD
ENDBRANCH   7  15
ENDBRANCH   1   2
BRANCH   1  17
ATOM     17  C   UNL     1      99.632  80.089  81.710  1.00  0.00     0.224 C 
ATOM     18  C   UNL     1      98.099  79.946  81.975  1.00  0.00     0.208 C 
ATOM     19  O   UNL     1     100.310  79.272  82.648  1.00  0.00    -0.337 OA
ATOM     20  C   UNL     1      98.021  79.053  83.200  1.00  0.00     0.180 C 
ATOM     21  C   UNL     1      99.379  78.365  83.182  1.00  0.00     0.179 C 
BRANCH  17  22
ATOM     22  C   UNL     1     100.090  81.547  81.998  1.00  0.00     0.225 C 
BRANCH  22  23
ATOM     23  O   UNL     1      99.940  81.847  83.356  1.00  0.00    -0.391 OA
ATOM     24  H   UNL     1      99.778  80.983  83.816  1.00  0.00     0.210 HD
ENDBRANCH  22  23
ENDBRANCH  17  22
BRANCH  18  25
ATOM     25  O   UNL     1      97.445  79.319  80.904  1.00  0.00    -0.385 OA
ATOM     26  H   UNL     1      96.911  78.575  81.287  1.00  0.00     0.211 HD
ENDBRANCH  18  25
BRANCH  20  27
ATOM     27  O   UNL     1      97.796  79.801  84.374  1.00  0.00    -0.387 OA
ATOM     28  H   UNL     1      98.237  80.683  84.273  1.00  0.00     0.211 HD
ENDBRANCH  20  27
BRANCH  21  29
ATOM     29  C   UNL     1      99.846  77.840  84.546  1.00  0.00     0.191 C 
BRANCH  29  30
ATOM     30  O   UNL     1     100.394  78.874  85.318  1.00  0.00    -0.394 OA
ATOM     31  H   UNL     1     100.116  79.720  84.881  1.00  0.00     0.210 HD
ENDBRANCH  29  30
ENDBRANCH  21  29
ENDBRANCH   1  17
TORSDOF 13
ENDMDL
MODEL 9
REMARK VINA RESULT:    -4.872      1.952      4.132
REMARK INTER + INTRA:          -9.187
REMARK INTER:                  -7.952
REMARK INTRA:                  -1.235
REMARK UNBOUND:                -1.752
REMARK SMILES OC[C@@H]1O[C@H](O[C@]2(CO)O[C@@H](CO)[C@@H](O)[C@@H]2O)[C@H](O)[C@H](O)[C@H]1O
REMARK SMILES IDX 6 1 5 2 3 3 22 4 4 5 20 6 18 7 2 8 1 9 23 11 21 13 19 15
REMARK SMILES IDX 7 17 16 18 10 19 14 20 11 21 8 22 9 23 17 25 15 27 12 29
REMARK SMILES IDX 13 30
REMARK H PARENT 1 10 23 12 21 14 19 16 9 24 17 26 15 28 13 31
REMARK Flexibility Score: inf
ROOT
ATOM      1  O   UNL     1      99.712  81.694  78.769  1.00  0.00    -0.313 OA
ENDROOT
BRANCH   1   2
ATOM      2  C   UNL     1      99.546  81.644  80.182  1.00  0.00     0.285 C 
ATOM      3  C   UNL     1      99.144  79.280  80.439  1.00  0.00     0.178 C 
ATOM      4  C   UNL     1     100.489  79.066  81.177  1.00  0.00     0.177 C 
ATOM      5  O   UNL     1      98.637  80.610  80.553  1.00  0.00    -0.341 OA
ATOM      6  C   UNL     1     101.527  80.118  80.773  1.00  0.00     0.179 C 
ATOM      7  C   UNL     1     100.909  81.517  80.913  1.00  0.00     0.202 C 
BRANCH   3   8
ATOM      8  C   UNL     1      99.128  78.751  78.988  1.00  0.00     0.191 C 
BRANCH   8   9
ATOM      9  O   UNL     1      97.939  78.053  78.743  1.00  0.00    -0.394 OA
ATOM     10  H   UNL     1      97.245  78.481  79.310  1.00  0.00     0.210 HD
ENDBRANCH   8   9
ENDBRANCH   3   8
BRANCH   4  11
ATOM     11  O   UNL     1     100.258  79.134  82.562  1.00  0.00    -0.387 OA
ATOM     12  H   UNL     1     101.146  79.126  83.007  1.00  0.00     0.211 HD
ENDBRANCH   4  11
BRANCH   6  13
ATOM     13  O   UNL     1     101.961  79.880  79.456  1.00  0.00    -0.387 OA
ATOM     14  H   UNL     1     102.636  79.153  79.496  1.00  0.00     0.211 HD
ENDBRANCH   6  13
BRANCH   7  15
ATOM     15  O   UNL     1     101.817  82.517  80.525  1.00  0.00    -0.385 OA
ATOM     16  H   UNL     1     101.422  83.397  80.754  1.00  0.00     0.211 HD
ENDBRANCH   7  15
ENDBRANCH   1   2
BRANCH   1  17
ATOM     17  C   UNL     1      99.242  82.897  78.142  1.00  0.00     0.224 C 
ATOM     18  C   UNL     1     100.388  83.699  77.447  1.00  0.00     0.208 C 
ATOM     19  O   UNL     1      98.324  82.497  77.139  1.00  0.00    -0.337 OA
ATOM     20  C   UNL     1      99.954  83.773  75.994  1.00  0.00     0.180 C 
ATOM     21  C   UNL     1      98.968  82.618  75.895  1.00  0.00     0.179 C 
BRANCH  17  22
ATOM     22  C   UNL     1      98.448  83.826  79.104  1.00  0.00     0.225 C 
BRANCH  22  23
ATOM     23  O   UNL     1      98.380  85.123  78.586  1.00  0.00    -0.391 OA
ATOM     24  H   UNL     1      97.432  85.405  78.665  1.00  0.00     0.210 HD
ENDBRANCH  22  23
ENDBRANCH  17  22
BRANCH  18  25
ATOM     25  O   UNL     1     101.615  83.023  77.529  1.00  0.00    -0.385 OA
ATOM     26  H   UNL     1     101.970  83.179  78.442  1.00  0.00     0.211 HD
ENDBRANCH  18  25
BRANCH  20  27
ATOM     27  O   UNL     1      99.375  85.022  75.689  1.00  0.00    -0.387 OA
ATOM     28  H   UNL     1      99.962  85.736  76.046  1.00  0.00     0.211 HD
ENDBRANCH  20  27
BRANCH  21  29
ATOM     29  C   UNL     1      97.943  82.749  74.759  1.00  0.00     0.191 C 
BRANCH  29  30
ATOM     30  O   UNL     1      97.643  81.494  74.211  1.00  0.00    -0.394 OA
ATOM     31  H   UNL     1      97.470  80.893  74.981  1.00  0.00     0.210 HD
ENDBRANCH  29  30
ENDBRANCH  21  29
ENDBRANCH   1  17
TORSDOF 13
ENDMDL
