MODEL 1
REMARK VINA RESULT:    -7.321      0.000      0.000
REMARK INTER + INTRA:          -8.870
REMARK INTER:                  -8.605
REMARK INTRA:                  -0.264
REMARK UNBOUND:                -0.264
REMARK SMILES O=c1cc(-c2ccc(O)c(O)c2)oc2cc(O)cc(O)c12
REMARK SMILES IDX 4 1 3 2 2 3 1 4 21 5 19 6 18 7 16 8 15 9 14 10 13 11 5 12
REMARK SMILES IDX 6 13 7 14 8 15 12 16 10 17 9 18 11 20 20 22 17 24
REMARK H PARENT 9 19 11 21 20 23 17 25
REMARK Flexibility Score: inf
ROOT
ATOM      1  C   UNL     1      18.295 -11.317  19.029  1.00  0.00     0.138 A 
ATOM      2  C   UNL     1      17.725 -10.120  18.574  1.00  0.00     0.100 A 
ATOM      3  C   UNL     1      17.829  -8.965  19.352  1.00  0.00     0.197 A 
ATOM      4  O   UNL     1      17.260  -7.921  18.942  1.00  0.00    -0.289 OA
ATOM      5  C   UNL     1      18.540  -9.003  20.576  1.00  0.00     0.107 A 
ATOM      6  C   UNL     1      18.741  -7.881  21.435  1.00  0.00     0.134 A 
ATOM      7  C   UNL     1      19.377  -8.063  22.670  1.00  0.00     0.093 A 
ATOM      8  C   UNL     1      19.870  -9.313  23.050  1.00  0.00     0.123 A 
ATOM      9  C   UNL     1      19.724 -10.403  22.195  1.00  0.00     0.094 A 
ATOM     10  C   UNL     1      19.064 -10.262  20.973  1.00  0.00     0.146 A 
ATOM     11  O   UNL     1      18.930 -11.333  20.197  1.00  0.00    -0.456 OA
ENDROOT
BRANCH   1  12
ATOM     12  C   UNL     1      18.218 -12.573  18.242  1.00  0.00     0.021 A 
ATOM     13  C   UNL     1      17.107 -13.432  18.326  1.00  0.00     0.016 A 
ATOM     14  C   UNL     1      17.068 -14.612  17.581  1.00  0.00     0.051 A 
ATOM     15  C   UNL     1      18.131 -14.966  16.745  1.00  0.00     0.157 A 
ATOM     16  C   UNL     1      19.292 -12.936  17.412  1.00  0.00     0.062 A 
ATOM     17  C   UNL     1      19.260 -14.118  16.661  1.00  0.00     0.158 A 
BRANCH  15  18
ATOM     18  O   UNL     1      18.027 -16.158  16.025  1.00  0.00    -0.504 OA
ATOM     19  H   UNL     1      18.775 -16.552  15.473  1.00  0.00     0.293 HD
ENDBRANCH  15  18
BRANCH  17  20
ATOM     20  O   UNL     1      20.361 -14.406  15.852  1.00  0.00    -0.504 OA
ATOM     21  H   UNL     1      20.554 -13.943  14.974  1.00  0.00     0.293 HD
ENDBRANCH  17  20
ENDBRANCH   1  12
BRANCH   6  22
ATOM     22  O   UNL     1      18.359  -6.573  21.119  1.00  0.00    -0.507 OA
ATOM     23  H   UNL     1      18.723  -5.742  21.555  1.00  0.00     0.293 HD
ENDBRANCH   6  22
BRANCH   8  24
ATOM     24  O   UNL     1      20.516  -9.480  24.273  1.00  0.00    -0.508 OA
ATOM     25  H   UNL     1      21.481  -9.782  24.327  1.00  0.00     0.293 HD
ENDBRANCH   8  24
TORSDOF 5
ENDMDL
MODEL 2
REMARK VINA RESULT:    -7.053      1.327      1.946
REMARK INTER + INTRA:          -8.555
REMARK INTER:                  -8.286
REMARK INTRA:                  -0.268
REMARK UNBOUND:                -0.264
REMARK SMILES O=c1cc(-c2ccc(O)c(O)c2)oc2cc(O)cc(O)c12
REMARK SMILES IDX 4 1 3 2 2 3 1 4 21 5 19 6 18 7 16 8 15 9 14 10 13 11 5 12
REMARK SMILES IDX 6 13 7 14 8 15 12 16 10 17 9 18 11 20 20 22 17 24
REMARK H PARENT 9 19 11 21 20 23 17 25
REMARK Flexibility Score: inf
ROOT
ATOM      1  C   UNL     1      18.587 -11.407  17.739  1.00  0.00     0.138 A 
ATOM      2  C   UNL     1      17.621 -10.408  17.558  1.00  0.00     0.100 A 
ATOM      3  C   UNL     1      17.419  -9.452  18.555  1.00  0.00     0.197 A 
ATOM      4  O   UNL     1      16.507  -8.602  18.385  1.00  0.00    -0.289 OA
ATOM      5  C   UNL     1      18.215  -9.477  19.726  1.00  0.00     0.107 A 
ATOM      6  C   UNL     1      18.122  -8.535  20.793  1.00  0.00     0.134 A 
ATOM      7  C   UNL     1      18.895  -8.721  21.946  1.00  0.00     0.093 A 
ATOM      8  C   UNL     1      19.799  -9.781  22.046  1.00  0.00     0.123 A 
ATOM      9  C   UNL     1      19.934 -10.677  20.988  1.00  0.00     0.094 A 
ATOM     10  C   UNL     1      19.152 -10.539  19.839  1.00  0.00     0.146 A 
ATOM     11  O   UNL     1      19.299 -11.427  18.861  1.00  0.00    -0.456 OA
ENDROOT
BRANCH   1  12
ATOM     12  C   UNL     1      18.846 -12.446  16.710  1.00  0.00     0.021 A 
ATOM     13  C   UNL     1      19.553 -12.157  15.530  1.00  0.00     0.016 A 
ATOM     14  C   UNL     1      19.772 -13.152  14.575  1.00  0.00     0.051 A 
ATOM     15  C   UNL     1      19.288 -14.449  14.770  1.00  0.00     0.157 A 
ATOM     16  C   UNL     1      18.346 -13.745  16.899  1.00  0.00     0.062 A 
ATOM     17  C   UNL     1      18.563 -14.750  15.947  1.00  0.00     0.158 A 
BRANCH  15  18
ATOM     18  O   UNL     1      19.543 -15.399  13.778  1.00  0.00    -0.504 OA
ATOM     19  H   UNL     1      19.510 -15.204  12.788  1.00  0.00     0.293 HD
ENDBRANCH  15  18
BRANCH  17  20
ATOM     20  O   UNL     1      18.044 -16.019  16.210  1.00  0.00    -0.504 OA
ATOM     21  H   UNL     1      18.086 -16.792  15.561  1.00  0.00     0.293 HD
ENDBRANCH  17  20
ENDBRANCH   1  12
BRANCH   6  22
ATOM     22  O   UNL     1      17.311  -7.396  20.765  1.00  0.00    -0.507 OA
ATOM     23  H   UNL     1      17.338  -6.649  21.440  1.00  0.00     0.293 HD
ENDBRANCH   6  22
BRANCH   8  24
ATOM     24  O   UNL     1      20.575  -9.948  23.191  1.00  0.00    -0.508 OA
ATOM     25  H   UNL     1      20.842 -10.868  23.521  1.00  0.00     0.293 HD
ENDBRANCH   8  24
TORSDOF 5
ENDMDL
MODEL 3
REMARK VINA RESULT:    -7.025      1.703      7.370
REMARK INTER + INTRA:          -8.522
REMARK INTER:                  -8.259
REMARK INTRA:                  -0.263
REMARK UNBOUND:                -0.264
REMARK SMILES O=c1cc(-c2ccc(O)c(O)c2)oc2cc(O)cc(O)c12
REMARK SMILES IDX 4 1 3 2 2 3 1 4 21 5 19 6 18 7 16 8 15 9 14 10 13 11 5 12
REMARK SMILES IDX 6 13 7 14 8 15 12 16 10 17 9 18 11 20 20 22 17 24
REMARK H PARENT 9 19 11 21 20 23 17 25
REMARK Flexibility Score: inf
ROOT
ATOM      1  C   UNL     1      18.349 -11.429  18.196  1.00  0.00     0.138 A 
ATOM      2  C   UNL     1      17.642 -12.557  18.636  1.00  0.00     0.100 A 
ATOM      3  C   UNL     1      17.650 -13.721  17.866  1.00  0.00     0.197 A 
ATOM      4  O   UNL     1      16.962 -14.697  18.261  1.00  0.00    -0.289 OA
ATOM      5  C   UNL     1      18.401 -13.767  16.666  1.00  0.00     0.107 A 
ATOM      6  C   UNL     1      18.510 -14.909  15.818  1.00  0.00     0.134 A 
ATOM      7  C   UNL     1      19.201 -14.803  14.604  1.00  0.00     0.093 A 
ATOM      8  C   UNL     1      19.835 -13.615  14.236  1.00  0.00     0.123 A 
ATOM      9  C   UNL     1      19.776 -12.509  15.081  1.00  0.00     0.094 A 
ATOM     10  C   UNL     1      19.066 -12.572  16.282  1.00  0.00     0.146 A 
ATOM     11  O   UNL     1      19.019 -11.488  17.049  1.00  0.00    -0.456 OA
ENDROOT
BRANCH   1  12
ATOM     12  C   UNL     1      18.378 -10.166  18.976  1.00  0.00     0.021 A 
ATOM     13  C   UNL     1      17.483  -9.114  18.713  1.00  0.00     0.016 A 
ATOM     14  C   UNL     1      17.541  -7.934  19.456  1.00  0.00     0.051 A 
ATOM     15  C   UNL     1      18.492  -7.772  20.469  1.00  0.00     0.157 A 
ATOM     16  C   UNL     1      19.342  -9.998  19.983  1.00  0.00     0.062 A 
ATOM     17  C   UNL     1      19.407  -8.818  20.735  1.00  0.00     0.158 A 
BRANCH  15  18
ATOM     18  O   UNL     1      18.495  -6.568  21.177  1.00  0.00    -0.504 OA
ATOM     19  H   UNL     1      17.787  -5.855  21.082  1.00  0.00     0.293 HD
ENDBRANCH  15  18
BRANCH  17  20
ATOM     20  O   UNL     1      20.387  -8.728  21.725  1.00  0.00    -0.504 OA
ATOM     21  H   UNL     1      20.237  -8.978  22.693  1.00  0.00     0.293 HD
ENDBRANCH  17  20
ENDBRANCH   1  12
BRANCH   6  22
ATOM     22  O   UNL     1      17.984 -16.168  16.126  1.00  0.00    -0.507 OA
ATOM     23  H   UNL     1      18.250 -16.729  16.919  1.00  0.00     0.293 HD
ENDBRANCH   6  22
BRANCH   8  24
ATOM     24  O   UNL     1      20.533 -13.524  13.034  1.00  0.00    -0.508 OA
ATOM     25  H   UNL     1      21.335 -12.912  12.931  1.00  0.00     0.293 HD
ENDBRANCH   8  24
TORSDOF 5
ENDMDL
MODEL 4
REMARK VINA RESULT:    -6.993      1.906      3.602
REMARK INTER + INTRA:          -8.484
REMARK INTER:                  -8.166
REMARK INTRA:                  -0.319
REMARK UNBOUND:                -0.264
REMARK SMILES O=c1cc(-c2ccc(O)c(O)c2)oc2cc(O)cc(O)c12
REMARK SMILES IDX 4 1 3 2 2 3 1 4 21 5 19 6 18 7 16 8 15 9 14 10 13 11 5 12
REMARK SMILES IDX 6 13 7 14 8 15 12 16 10 17 9 18 11 20 20 22 17 24
REMARK H PARENT 9 19 11 21 20 23 17 25
REMARK Flexibility Score: inf
ROOT
ATOM      1  C   UNL     1      18.961 -12.329  18.528  1.00  0.00     0.138 A 
ATOM      2  C   UNL     1      19.313 -11.981  19.839  1.00  0.00     0.100 A 
ATOM      3  C   UNL     1      18.882 -10.764  20.371  1.00  0.00     0.197 A 
ATOM      4  O   UNL     1      19.261 -10.457  21.530  1.00  0.00    -0.289 OA
ATOM      5  C   UNL     1      18.063  -9.908  19.595  1.00  0.00     0.107 A 
ATOM      6  C   UNL     1      17.536  -8.660  20.045  1.00  0.00     0.134 A 
ATOM      7  C   UNL     1      16.819  -7.853  19.152  1.00  0.00     0.093 A 
ATOM      8  C   UNL     1      16.560  -8.275  17.846  1.00  0.00     0.123 A 
ATOM      9  C   UNL     1      17.027  -9.514  17.414  1.00  0.00     0.094 A 
ATOM     10  C   UNL     1      17.775 -10.327  18.269  1.00  0.00     0.146 A 
ATOM     11  O   UNL     1      18.217 -11.493  17.810  1.00  0.00    -0.456 OA
ENDROOT
BRANCH   1  12
ATOM     12  C   UNL     1      19.388 -13.611  17.913  1.00  0.00     0.021 A 
ATOM     13  C   UNL     1      20.210 -14.523  18.600  1.00  0.00     0.016 A 
ATOM     14  C   UNL     1      20.604 -15.716  17.993  1.00  0.00     0.051 A 
ATOM     15  C   UNL     1      20.198 -16.024  16.691  1.00  0.00     0.157 A 
ATOM     16  C   UNL     1      18.992 -13.914  16.600  1.00  0.00     0.062 A 
ATOM     17  C   UNL     1      19.383 -15.110  15.983  1.00  0.00     0.158 A 
BRANCH  15  18
ATOM     18  O   UNL     1      20.625 -17.236  16.142  1.00  0.00    -0.504 OA
ATOM     19  H   UNL     1      20.999 -18.001  16.684  1.00  0.00     0.293 HD
ENDBRANCH  15  18
BRANCH  17  20
ATOM     20  O   UNL     1      18.941 -15.345  14.680  1.00  0.00    -0.504 OA
ATOM     21  H   UNL     1      18.090 -14.961  14.293  1.00  0.00     0.293 HD
ENDBRANCH  17  20
ENDBRANCH   1  12
BRANCH   6  22
ATOM     22  O   UNL     1      17.667  -8.178  21.351  1.00  0.00    -0.507 OA
ATOM     23  H   UNL     1      18.532  -8.122  21.863  1.00  0.00     0.293 HD
ENDBRANCH   6  22
BRANCH   8  24
ATOM     24  O   UNL     1      15.832  -7.472  16.971  1.00  0.00    -0.508 OA
ATOM     25  H   UNL     1      15.468  -6.570  17.257  1.00  0.00     0.293 HD
ENDBRANCH   8  24
TORSDOF 5
ENDMDL
MODEL 5
REMARK VINA RESULT:    -6.989      1.416      7.186
REMARK INTER + INTRA:          -8.479
REMARK INTER:                  -8.210
REMARK INTRA:                  -0.269
REMARK UNBOUND:                -0.264
REMARK SMILES O=c1cc(-c2ccc(O)c(O)c2)oc2cc(O)cc(O)c12
REMARK SMILES IDX 4 1 3 2 2 3 1 4 21 5 19 6 18 7 16 8 15 9 14 10 13 11 5 12
REMARK SMILES IDX 6 13 7 14 8 15 12 16 10 17 9 18 11 20 20 22 17 24
REMARK H PARENT 9 19 11 21 20 23 17 25
REMARK Flexibility Score: inf
ROOT
ATOM      1  C   UNL     1      18.679 -11.726  19.541  1.00  0.00     0.138 A 
ATOM      2  C   UNL     1      17.682 -12.696  19.714  1.00  0.00     0.100 A 
ATOM      3  C   UNL     1      17.431 -13.619  18.697  1.00  0.00     0.197 A 
ATOM      4  O   UNL     1      16.493 -14.440  18.861  1.00  0.00    -0.289 OA
ATOM      5  C   UNL     1      18.210 -13.591  17.514  1.00  0.00     0.107 A 
ATOM      6  C   UNL     1      18.067 -14.503  16.426  1.00  0.00     0.134 A 
ATOM      7  C   UNL     1      18.828 -14.315  15.265  1.00  0.00     0.093 A 
ATOM      8  C   UNL     1      19.767 -13.285  15.176  1.00  0.00     0.123 A 
ATOM      9  C   UNL     1      19.949 -12.420  16.254  1.00  0.00     0.094 A 
ATOM     10  C   UNL     1      19.181 -12.560  17.412  1.00  0.00     0.146 A 
ATOM     11  O   UNL     1      19.375 -11.702  18.408  1.00  0.00    -0.456 OA
ENDROOT
BRANCH   1  12
ATOM     12  C   UNL     1      18.991 -10.723  20.591  1.00  0.00     0.021 A 
ATOM     13  C   UNL     1      19.686 -11.071  21.762  1.00  0.00     0.016 A 
ATOM     14  C   UNL     1      19.955 -10.109  22.737  1.00  0.00     0.051 A 
ATOM     15  C   UNL     1      19.533  -8.786  22.572  1.00  0.00     0.157 A 
ATOM     16  C   UNL     1      18.554  -9.398  20.432  1.00  0.00     0.062 A 
ATOM     17  C   UNL     1      18.821  -8.425  21.404  1.00  0.00     0.158 A 
BRANCH  15  18
ATOM     18  O   UNL     1      19.837  -7.871  23.583  1.00  0.00    -0.504 OA
ATOM     19  H   UNL     1      20.424  -8.081  24.377  1.00  0.00     0.293 HD
ENDBRANCH  15  18
BRANCH  17  20
ATOM     20  O   UNL     1      18.364  -7.127  21.170  1.00  0.00    -0.504 OA
ATOM     21  H   UNL     1      17.388  -6.876  21.096  1.00  0.00     0.293 HD
ENDBRANCH  17  20
ENDBRANCH   1  12
BRANCH   6  22
ATOM     22  O   UNL     1      17.217 -15.613  16.439  1.00  0.00    -0.507 OA
ATOM     23  H   UNL     1      16.948 -16.147  15.628  1.00  0.00     0.293 HD
ENDBRANCH   6  22
BRANCH   8  24
ATOM     24  O   UNL     1      20.530 -13.116  14.023  1.00  0.00    -0.508 OA
ATOM     25  H   UNL     1      20.622 -12.211  13.576  1.00  0.00     0.293 HD
ENDBRANCH   8  24
TORSDOF 5
ENDMDL
MODEL 6
REMARK VINA RESULT:    -6.592      1.931      7.061
REMARK INTER + INTRA:          -8.012
REMARK INTER:                  -7.710
REMARK INTRA:                  -0.302
REMARK UNBOUND:                -0.264
REMARK SMILES O=c1cc(-c2ccc(O)c(O)c2)oc2cc(O)cc(O)c12
REMARK SMILES IDX 4 1 3 2 2 3 1 4 21 5 19 6 18 7 16 8 15 9 14 10 13 11 5 12
REMARK SMILES IDX 6 13 7 14 8 15 12 16 10 17 9 18 11 20 20 22 17 24
REMARK H PARENT 9 19 11 21 20 23 17 25
REMARK Flexibility Score: inf
ROOT
ATOM      1  C   UNL     1      19.232 -11.589  18.042  1.00  0.00     0.138 A 
ATOM      2  C   UNL     1      19.065 -11.155  16.719  1.00  0.00     0.100 A 
ATOM      3  C   UNL     1      19.225 -12.061  15.669  1.00  0.00     0.197 A 
ATOM      4  O   UNL     1      19.123 -11.628  14.493  1.00  0.00    -0.289 OA
ATOM      5  C   UNL     1      19.520 -13.418  15.948  1.00  0.00     0.107 A 
ATOM      6  C   UNL     1      19.671 -14.437  14.961  1.00  0.00     0.134 A 
ATOM      7  C   UNL     1      20.061 -15.724  15.353  1.00  0.00     0.093 A 
ATOM      8  C   UNL     1      20.247 -16.042  16.700  1.00  0.00     0.123 A 
ATOM      9  C   UNL     1      20.052 -15.067  17.675  1.00  0.00     0.094 A 
ATOM     10  C   UNL     1      19.697 -13.766  17.314  1.00  0.00     0.146 A 
ATOM     11  O   UNL     1      19.540 -12.861  18.275  1.00  0.00    -0.456 OA
ENDROOT
BRANCH   1  12
ATOM     12  C   UNL     1      19.070 -10.670  19.197  1.00  0.00     0.021 A 
ATOM     13  C   UNL     1      18.132  -9.623  19.182  1.00  0.00     0.016 A 
ATOM     14  C   UNL     1      18.010  -8.768  20.279  1.00  0.00     0.051 A 
ATOM     15  C   UNL     1      18.819  -8.931  21.407  1.00  0.00     0.157 A 
ATOM     16  C   UNL     1      19.893 -10.826  20.324  1.00  0.00     0.062 A 
ATOM     17  C   UNL     1      19.776  -9.973  21.430  1.00  0.00     0.158 A 
BRANCH  15  18
ATOM     18  O   UNL     1      18.645  -8.044  22.472  1.00  0.00    -0.504 OA
ATOM     19  H   UNL     1      17.863  -7.411  22.557  1.00  0.00     0.293 HD
ENDBRANCH  15  18
BRANCH  17  20
ATOM     20  O   UNL     1      20.623 -10.196  22.517  1.00  0.00    -0.504 OA
ATOM     21  H   UNL     1      20.299 -10.374  23.458  1.00  0.00     0.293 HD
ENDBRANCH  17  20
ENDBRANCH   1  12
BRANCH   6  22
ATOM     22  O   UNL     1      19.432 -14.248  13.596  1.00  0.00    -0.507 OA
ATOM     23  H   UNL     1      18.606 -13.826  13.205  1.00  0.00     0.293 HD
ENDBRANCH   6  22
BRANCH   8  24
ATOM     24  O   UNL     1      20.619 -17.330  17.081  1.00  0.00    -0.508 OA
ATOM     25  H   UNL     1      21.286 -17.491  17.826  1.00  0.00     0.293 HD
ENDBRANCH   8  24
TORSDOF 5
ENDMDL
MODEL 7
REMARK VINA RESULT:    -6.582      1.587      3.242
REMARK INTER + INTRA:          -8.001
REMARK INTER:                  -7.737
REMARK INTRA:                  -0.264
REMARK UNBOUND:                -0.264
REMARK SMILES O=c1cc(-c2ccc(O)c(O)c2)oc2cc(O)cc(O)c12
REMARK SMILES IDX 4 1 3 2 2 3 1 4 21 5 19 6 18 7 16 8 15 9 14 10 13 11 5 12
REMARK SMILES IDX 6 13 7 14 8 15 12 16 10 17 9 18 11 20 20 22 17 24
REMARK H PARENT 9 19 11 21 20 23 17 25
REMARK Flexibility Score: inf
ROOT
ATOM      1  C   UNL     1      19.794 -12.137  18.485  1.00  0.00     0.138 A 
ATOM      2  C   UNL     1      20.662 -12.552  19.504  1.00  0.00     0.100 A 
ATOM      3  C   UNL     1      20.755 -11.805  20.680  1.00  0.00     0.197 A 
ATOM      4  O   UNL     1      21.584 -12.173  21.552  1.00  0.00    -0.289 OA
ATOM      5  C   UNL     1      19.945 -10.656  20.849  1.00  0.00     0.107 A 
ATOM      6  C   UNL     1      19.929  -9.837  22.018  1.00  0.00     0.134 A 
ATOM      7  C   UNL     1      19.158  -8.668  22.030  1.00  0.00     0.093 A 
ATOM      8  C   UNL     1      18.358  -8.320  20.940  1.00  0.00     0.123 A 
ATOM      9  C   UNL     1      18.328  -9.140  19.814  1.00  0.00     0.094 A 
ATOM     10  C   UNL     1      19.112 -10.294  19.757  1.00  0.00     0.146 A 
ATOM     11  O   UNL     1      19.067 -11.037  18.656  1.00  0.00    -0.456 OA
ENDROOT
BRANCH   1  12
ATOM     12  C   UNL     1      19.653 -12.895  17.216  1.00  0.00     0.021 A 
ATOM     13  C   UNL     1      20.086 -12.367  15.987  1.00  0.00     0.016 A 
ATOM     14  C   UNL     1      19.931 -13.099  14.809  1.00  0.00     0.051 A 
ATOM     15  C   UNL     1      19.336 -14.364  14.825  1.00  0.00     0.157 A 
ATOM     16  C   UNL     1      19.043 -14.161  17.231  1.00  0.00     0.062 A 
ATOM     17  C   UNL     1      18.884 -14.902  16.053  1.00  0.00     0.158 A 
BRANCH  15  18
ATOM     18  O   UNL     1      19.213 -15.045  13.612  1.00  0.00    -0.504 OA
ATOM     19  H   UNL     1      19.907 -15.682  13.249  1.00  0.00     0.293 HD
ENDBRANCH  15  18
BRANCH  17  20
ATOM     20  O   UNL     1      18.277 -16.156  16.149  1.00  0.00    -0.504 OA
ATOM     21  H   UNL     1      18.729 -17.023  15.895  1.00  0.00     0.293 HD
ENDBRANCH  17  20
ENDBRANCH   1  12
BRANCH   6  22
ATOM     22  O   UNL     1      20.628 -10.134  23.193  1.00  0.00    -0.507 OA
ATOM     23  H   UNL     1      21.281 -10.892  23.302  1.00  0.00     0.293 HD
ENDBRANCH   6  22
BRANCH   8  24
ATOM     24  O   UNL     1      17.582  -7.163  20.968  1.00  0.00    -0.508 OA
ATOM     25  H   UNL     1      17.348  -6.660  20.120  1.00  0.00     0.293 HD
ENDBRANCH   8  24
TORSDOF 5
ENDMDL
MODEL 8
REMARK VINA RESULT:    -6.543      1.610      2.682
REMARK INTER + INTRA:          -7.955
REMARK INTER:                  -7.652
REMARK INTRA:                  -0.303
REMARK UNBOUND:                -0.264
REMARK SMILES O=c1cc(-c2ccc(O)c(O)c2)oc2cc(O)cc(O)c12
REMARK SMILES IDX 4 1 3 2 2 3 1 4 21 5 19 6 18 7 16 8 15 9 14 10 13 11 5 12
REMARK SMILES IDX 6 13 7 14 8 15 12 16 10 17 9 18 11 20 20 22 17 24
REMARK H PARENT 9 19 11 21 20 23 17 25
REMARK Flexibility Score: inf
ROOT
ATOM      1  C   UNL     1      19.274 -11.448  18.983  1.00  0.00     0.138 A 
ATOM      2  C   UNL     1      19.125 -11.840  20.321  1.00  0.00     0.100 A 
ATOM      3  C   UNL     1      19.287 -10.899  21.339  1.00  0.00     0.197 A 
ATOM      4  O   UNL     1      19.202 -11.294  22.530  1.00  0.00    -0.289 OA
ATOM      5  C   UNL     1      19.564  -9.549  21.013  1.00  0.00     0.107 A 
ATOM      6  C   UNL     1      19.715  -8.497  21.965  1.00  0.00     0.134 A 
ATOM      7  C   UNL     1      20.087  -7.219  21.527  1.00  0.00     0.093 A 
ATOM      8  C   UNL     1      20.256  -6.943  20.168  1.00  0.00     0.123 A 
ATOM      9  C   UNL     1      20.061  -7.951  19.227  1.00  0.00     0.094 A 
ATOM     10  C   UNL     1      19.724  -9.244  19.635  1.00  0.00     0.146 A 
ATOM     11  O   UNL     1      19.565 -10.181  18.705  1.00  0.00    -0.456 OA
ENDROOT
BRANCH   1  12
ATOM     12  C   UNL     1      19.109 -12.405  17.861  1.00  0.00     0.021 A 
ATOM     13  C   UNL     1      18.189 -13.466  17.923  1.00  0.00     0.016 A 
ATOM     14  C   UNL     1      18.063 -14.358  16.856  1.00  0.00     0.051 A 
ATOM     15  C   UNL     1      18.854 -14.218  15.711  1.00  0.00     0.157 A 
ATOM     16  C   UNL     1      19.913 -12.274  16.716  1.00  0.00     0.062 A 
ATOM     17  C   UNL     1      19.793 -13.163  15.640  1.00  0.00     0.158 A 
BRANCH  15  18
ATOM     18  O   UNL     1      18.677 -15.142  14.678  1.00  0.00    -0.504 OA
ATOM     19  H   UNL     1      18.078 -15.951  14.741  1.00  0.00     0.293 HD
ENDBRANCH  15  18
BRANCH  17  20
ATOM     20  O   UNL     1      20.620 -12.962  14.533  1.00  0.00    -0.504 OA
ATOM     21  H   UNL     1      20.499 -13.429  13.646  1.00  0.00     0.293 HD
ENDBRANCH  17  20
ENDBRANCH   1  12
BRANCH   6  22
ATOM     22  O   UNL     1      19.493  -8.643  23.337  1.00  0.00    -0.507 OA
ATOM     23  H   UNL     1      19.007  -9.414  23.767  1.00  0.00     0.293 HD
ENDBRANCH   6  22
BRANCH   8  24
ATOM     24  O   UNL     1      20.610  -5.665  19.741  1.00  0.00    -0.508 OA
ATOM     25  H   UNL     1      20.819  -4.924  20.401  1.00  0.00     0.293 HD
ENDBRANCH   8  24
TORSDOF 5
ENDMDL
MODEL 9
REMARK VINA RESULT:    -6.501      2.203      7.698
REMARK INTER + INTRA:          -7.905
REMARK INTER:                  -7.593
REMARK INTRA:                  -0.313
REMARK UNBOUND:                -0.264
REMARK SMILES O=c1cc(-c2ccc(O)c(O)c2)oc2cc(O)cc(O)c12
REMARK SMILES IDX 4 1 3 2 2 3 1 4 21 5 19 6 18 7 16 8 15 9 14 10 13 11 5 12
REMARK SMILES IDX 6 13 7 14 8 15 12 16 10 17 9 18 11 20 20 22 17 24
REMARK H PARENT 9 19 11 21 20 23 17 25
REMARK Flexibility Score: inf
ROOT
ATOM      1  C   UNL     1      19.002 -12.268  17.728  1.00  0.00     0.138 A 
ATOM      2  C   UNL     1      19.256 -13.476  18.390  1.00  0.00     0.100 A 
ATOM      3  C   UNL     1      19.597 -14.611  17.653  1.00  0.00     0.197 A 
ATOM      4  O   UNL     1      19.765 -15.693  18.272  1.00  0.00    -0.289 OA
ATOM      5  C   UNL     1      19.719 -14.524  16.244  1.00  0.00     0.107 A 
ATOM      6  C   UNL     1      20.093 -15.606  15.392  1.00  0.00     0.134 A 
ATOM      7  C   UNL     1      20.083 -15.425  14.003  1.00  0.00     0.093 A 
ATOM      8  C   UNL     1      19.769 -14.187  13.439  1.00  0.00     0.123 A 
ATOM      9  C   UNL     1      19.451 -13.111  14.265  1.00  0.00     0.094 A 
ATOM     10  C   UNL     1      19.419 -13.268  15.652  1.00  0.00     0.146 A 
ATOM     11  O   UNL     1      19.092 -12.221  16.402  1.00  0.00    -0.456 OA
ENDROOT
BRANCH   1  12
ATOM     12  C   UNL     1      18.640 -11.030  18.463  1.00  0.00     0.021 A 
ATOM     13  C   UNL     1      18.903 -10.881  19.836  1.00  0.00     0.016 A 
ATOM     14  C   UNL     1      18.541  -9.709  20.503  1.00  0.00     0.051 A 
ATOM     15  C   UNL     1      17.905  -8.666  19.823  1.00  0.00     0.157 A 
ATOM     16  C   UNL     1      17.987  -9.988  17.783  1.00  0.00     0.062 A 
ATOM     17  C   UNL     1      17.622  -8.808  18.444  1.00  0.00     0.158 A 
BRANCH  15  18
ATOM     18  O   UNL     1      17.572  -7.520  20.548  1.00  0.00    -0.504 OA
ATOM     19  H   UNL     1      16.638  -7.303  20.865  1.00  0.00     0.293 HD
ENDBRANCH  15  18
BRANCH  17  20
ATOM     20  O   UNL     1      16.986  -7.813  17.698  1.00  0.00    -0.504 OA
ATOM     21  H   UNL     1      17.363  -6.886  17.555  1.00  0.00     0.293 HD
ENDBRANCH  17  20
ENDBRANCH   1  12
BRANCH   6  22
ATOM     22  O   UNL     1      20.502 -16.862  15.853  1.00  0.00    -0.507 OA
ATOM     23  H   UNL     1      19.925 -17.504  16.371  1.00  0.00     0.293 HD
ENDBRANCH   6  22
BRANCH   8  24
ATOM     24  O   UNL     1      19.777 -14.012  12.057  1.00  0.00    -0.508 OA
ATOM     25  H   UNL     1      19.479 -13.143  11.630  1.00  0.00     0.293 HD
ENDBRANCH   8  24
TORSDOF 5
ENDMDL
