MODEL 1
REMARK VINA RESULT:    -3.782      0.000      0.000
REMARK INTER + INTRA:          -9.059
REMARK INTER:                  -7.320
REMARK INTRA:                  -1.738
REMARK UNBOUND:                -1.738
REMARK SMILES CCCCCCCCCCCCCCCCCC(=O)[O-]
REMARK SMILES IDX 10 1 11 2 12 3 13 4 14 5 15 6 16 7 17 8 18 9 19 10 20 11
REMARK SMILES IDX 9 12 8 13 7 14 6 15 5 16 4 17 3 18 2 19 1 20
REMARK H PARENT
REMARK Flexibility Score: inf
ROOT
ATOM      1  C   UNL     1     -94.376 148.273 239.414  1.00  0.00     0.000 C 
ENDROOT
BRANCH   1   2
ATOM      2  C   UNL     1     -95.782 148.236 238.797  1.00  0.00     0.000 C 
BRANCH   2   3
ATOM      3  C   UNL     1     -95.789 148.656 237.317  1.00  0.00     0.000 C 
BRANCH   3   4
ATOM      4  C   UNL     1     -94.738 149.734 236.995  1.00  0.00     0.000 C 
BRANCH   4   5
ATOM      5  C   UNL     1     -95.295 151.000 236.317  1.00  0.00     0.000 C 
BRANCH   5   6
ATOM      6  C   UNL     1     -96.828 150.999 236.213  1.00  0.00     0.000 C 
BRANCH   6   7
ATOM      7  C   UNL     1     -97.435 152.122 237.062  1.00  0.00     0.006 C 
BRANCH   7   8
ATOM      8  C   UNL     1     -96.413 153.233 237.318  1.00  0.00     0.053 C 
BRANCH   8   9
ATOM      9  C   UNL     1     -97.089 154.566 237.367  1.00  0.00     0.041 C 
ATOM     10  O   UNL     1     -98.279 154.659 237.768  1.00  0.00    -0.550 OA
ATOM     11  O   UNL     1     -96.389 155.714 237.015  1.00  0.00    -0.550 OA
ENDBRANCH   8   9
ENDBRANCH   7   8
ENDBRANCH   6   7
ENDBRANCH   5   6
ENDBRANCH   4   5
ENDBRANCH   3   4
ENDBRANCH   2   3
ENDBRANCH   1   2
BRANCH   1  12
ATOM     12  C   UNL     1     -93.779 146.867 239.605  1.00  0.00     0.000 C 
BRANCH  12  13
ATOM     13  C   UNL     1     -92.951 146.745 240.894  1.00  0.00    -0.000 C 
BRANCH  13  14
ATOM     14  C   UNL     1     -93.664 147.347 242.114  1.00  0.00    -0.000 C 
BRANCH  14  15
ATOM     15  C   UNL     1     -94.763 146.404 242.627  1.00  0.00    -0.000 C 
BRANCH  15  16
ATOM     16  C   UNL     1     -96.110 147.117 242.826  1.00  0.00    -0.000 C 
BRANCH  16  17
ATOM     17  C   UNL     1     -96.009 148.637 242.632  1.00  0.00    -0.000 C 
BRANCH  17  18
ATOM     18  C   UNL     1     -97.150 149.361 243.358  1.00  0.00    -0.000 C 
BRANCH  18  19
ATOM     19  C   UNL     1     -98.480 149.169 242.622  1.00  0.00    -0.003 C 
ATOM     20  C   UNL     1     -98.370 149.600 241.163  1.00  0.00     0.004 C 
ENDBRANCH  18  19
ENDBRANCH  17  18
ENDBRANCH  16  17
ENDBRANCH  15  16
ENDBRANCH  14  15
ENDBRANCH  13  14
ENDBRANCH  12  13
ENDBRANCH   1  12
TORSDOF 16
ENDMDL
MODEL 2
REMARK VINA RESULT:    -3.754      2.794      6.619
REMARK INTER + INTRA:          -9.004
REMARK INTER:                  -6.315
REMARK INTRA:                  -2.689
REMARK UNBOUND:                -1.738
REMARK SMILES CCCCCCCCCCCCCCCCCC(=O)[O-]
REMARK SMILES IDX 10 1 11 2 12 3 13 4 14 5 15 6 16 7 17 8 18 9 19 10 20 11
REMARK SMILES IDX 9 12 8 13 7 14 6 15 5 16 4 17 3 18 2 19 1 20
REMARK H PARENT
REMARK Flexibility Score: inf
ROOT
ATOM      1  C   UNL     1     -96.591 147.159 239.044  1.00  0.00     0.000 C 
ENDROOT
BRANCH   1   2
ATOM      2  C   UNL     1     -95.112 146.856 238.757  1.00  0.00     0.000 C 
BRANCH   2   3
ATOM      3  C   UNL     1     -94.160 147.828 239.477  1.00  0.00     0.000 C 
BRANCH   3   4
ATOM      4  C   UNL     1     -93.254 147.128 240.505  1.00  0.00     0.000 C 
BRANCH   4   5
ATOM      5  C   UNL     1     -93.616 147.398 241.978  1.00  0.00     0.000 C 
BRANCH   5   6
ATOM      6  C   UNL     1     -94.619 146.381 242.544  1.00  0.00     0.000 C 
BRANCH   6   7
ATOM      7  C   UNL     1     -95.989 147.032 242.771  1.00  0.00     0.006 C 
BRANCH   7   8
ATOM      8  C   UNL     1     -95.879 148.559 242.778  1.00  0.00     0.053 C 
BRANCH   8   9
ATOM      9  C   UNL     1     -97.064 149.166 243.458  1.00  0.00     0.041 C 
ATOM     10  O   UNL     1     -97.864 149.892 242.810  1.00  0.00    -0.550 OA
ATOM     11  O   UNL     1     -97.314 148.892 244.797  1.00  0.00    -0.550 OA
ENDBRANCH   8   9
ENDBRANCH   7   8
ENDBRANCH   6   7
ENDBRANCH   5   6
ENDBRANCH   4   5
ENDBRANCH   3   4
ENDBRANCH   2   3
ENDBRANCH   1   2
BRANCH   1  12
ATOM     12  C   UNL     1     -96.830 148.636 239.405  1.00  0.00     0.000 C 
BRANCH  12  13
ATOM     13  C   UNL     1     -98.319 149.019 239.373  1.00  0.00    -0.000 C 
BRANCH  13  14
ATOM     14  C   UNL     1     -98.539 150.507 239.059  1.00  0.00    -0.000 C 
BRANCH  14  15
ATOM     15  C   UNL     1     -98.158 150.823 237.605  1.00  0.00    -0.000 C 
BRANCH  15  16
ATOM     16  C   UNL     1     -97.463 152.186 237.457  1.00  0.00    -0.000 C 
BRANCH  16  17
ATOM     17  C   UNL     1     -96.130 152.091 236.700  1.00  0.00    -0.000 C 
BRANCH  17  18
ATOM     18  C   UNL     1     -95.251 150.973 237.274  1.00  0.00    -0.000 C 
BRANCH  18  19
ATOM     19  C   UNL     1     -94.668 150.102 236.155  1.00  0.00    -0.003 C 
ATOM     20  C   UNL     1     -95.636 148.991 235.759  1.00  0.00     0.004 C 
ENDBRANCH  18  19
ENDBRANCH  17  18
ENDBRANCH  16  17
ENDBRANCH  15  16
ENDBRANCH  14  15
ENDBRANCH  13  14
ENDBRANCH  12  13
ENDBRANCH   1  12
TORSDOF 16
ENDMDL
MODEL 3
REMARK VINA RESULT:    -3.753      2.557      4.412
REMARK INTER + INTRA:          -9.001
REMARK INTER:                  -6.036
REMARK INTRA:                  -2.966
REMARK UNBOUND:                -1.738
REMARK SMILES CCCCCCCCCCCCCCCCCC(=O)[O-]
REMARK SMILES IDX 10 1 11 2 12 3 13 4 14 5 15 6 16 7 17 8 18 9 19 10 20 11
REMARK SMILES IDX 9 12 8 13 7 14 6 15 5 16 4 17 3 18 2 19 1 20
REMARK H PARENT
REMARK Flexibility Score: inf
ROOT
ATOM      1  C   UNL     1     -94.097 147.351 241.976  1.00  0.00     0.000 C 
ENDROOT
BRANCH   1   2
ATOM      2  C   UNL     1     -92.826 147.174 241.131  1.00  0.00     0.000 C 
BRANCH   2   3
ATOM      3  C   UNL     1     -92.464 145.694 240.913  1.00  0.00     0.000 C 
BRANCH   3   4
ATOM      4  C   UNL     1     -92.315 145.327 239.426  1.00  0.00     0.000 C 
BRANCH   4   5
ATOM      5  C   UNL     1     -93.632 145.316 238.627  1.00  0.00     0.000 C 
BRANCH   5   6
ATOM      6  C   UNL     1     -93.683 146.405 237.543  1.00  0.00     0.000 C 
BRANCH   6   7
ATOM      7  C   UNL     1     -94.982 147.214 237.640  1.00  0.00     0.006 C 
BRANCH   7   8
ATOM      8  C   UNL     1     -94.738 148.566 238.318  1.00  0.00     0.053 C 
BRANCH   8   9
ATOM      9  C   UNL     1     -95.499 149.646 237.619  1.00  0.00     0.041 C 
ATOM     10  O   UNL     1     -94.895 150.646 237.149  1.00  0.00    -0.550 OA
ATOM     11  O   UNL     1     -96.872 149.528 237.444  1.00  0.00    -0.550 OA
ENDBRANCH   8   9
ENDBRANCH   7   8
ENDBRANCH   6   7
ENDBRANCH   5   6
ENDBRANCH   4   5
ENDBRANCH   3   4
ENDBRANCH   2   3
ENDBRANCH   1   2
BRANCH   1  12
ATOM     12  C   UNL     1     -94.607 146.022 242.560  1.00  0.00     0.000 C 
BRANCH  12  13
ATOM     13  C   UNL     1     -96.074 145.740 242.197  1.00  0.00    -0.000 C 
BRANCH  13  14
ATOM     14  C   UNL     1     -96.418 146.155 240.759  1.00  0.00    -0.000 C 
BRANCH  14  15
ATOM     15  C   UNL     1     -97.696 147.007 240.725  1.00  0.00    -0.000 C 
BRANCH  15  16
ATOM     16  C   UNL     1     -97.418 148.502 240.947  1.00  0.00    -0.000 C 
BRANCH  16  17
ATOM     17  C   UNL     1     -97.990 149.020 242.275  1.00  0.00    -0.000 C 
BRANCH  17  18
ATOM     18  C   UNL     1     -96.876 149.231 243.307  1.00  0.00    -0.000 C 
BRANCH  18  19
ATOM     19  C   UNL     1     -97.323 148.776 244.701  1.00  0.00    -0.003 C 
ATOM     20  C   UNL     1     -98.105 147.468 244.629  1.00  0.00     0.004 C 
ENDBRANCH  18  19
ENDBRANCH  17  18
ENDBRANCH  16  17
ENDBRANCH  15  16
ENDBRANCH  14  15
ENDBRANCH  13  14
ENDBRANCH  12  13
ENDBRANCH   1  12
TORSDOF 16
ENDMDL
MODEL 4
REMARK VINA RESULT:    -3.721      1.924      4.334
REMARK INTER + INTRA:          -8.940
REMARK INTER:                  -6.824
REMARK INTRA:                  -2.116
REMARK UNBOUND:                -1.738
REMARK SMILES CCCCCCCCCCCCCCCCCC(=O)[O-]
REMARK SMILES IDX 10 1 11 2 12 3 13 4 14 5 15 6 16 7 17 8 18 9 19 10 20 11
REMARK SMILES IDX 9 12 8 13 7 14 6 15 5 16 4 17 3 18 2 19 1 20
REMARK H PARENT
REMARK Flexibility Score: inf
ROOT
ATOM      1  C   UNL     1     -96.207 147.382 241.644  1.00  0.00     0.000 C 
ENDROOT
BRANCH   1   2
ATOM      2  C   UNL     1     -96.811 147.848 240.311  1.00  0.00     0.000 C 
BRANCH   2   3
ATOM      3  C   UNL     1     -96.450 146.917 239.141  1.00  0.00     0.000 C 
BRANCH   3   4
ATOM      4  C   UNL     1     -95.866 147.670 237.933  1.00  0.00     0.000 C 
BRANCH   4   5
ATOM      5  C   UNL     1     -94.832 148.756 238.285  1.00  0.00     0.000 C 
BRANCH   5   6
ATOM      6  C   UNL     1     -94.763 149.880 237.239  1.00  0.00     0.000 C 
BRANCH   6   7
ATOM      7  C   UNL     1     -96.125 150.566 237.081  1.00  0.00     0.006 C 
BRANCH   7   8
ATOM      8  C   UNL     1     -95.959 152.064 236.811  1.00  0.00     0.053 C 
BRANCH   8   9
ATOM      9  C   UNL     1     -96.997 152.848 237.548  1.00  0.00     0.041 C 
ATOM     10  O   UNL     1     -97.900 152.254 238.194  1.00  0.00    -0.550 OA
ATOM     11  O   UNL     1     -96.940 154.236 237.562  1.00  0.00    -0.550 OA
ENDBRANCH   8   9
ENDBRANCH   7   8
ENDBRANCH   6   7
ENDBRANCH   5   6
ENDBRANCH   4   5
ENDBRANCH   3   4
ENDBRANCH   2   3
ENDBRANCH   1   2
BRANCH   1  12
ATOM     12  C   UNL     1     -95.005 148.239 242.078  1.00  0.00     0.000 C 
BRANCH  12  13
ATOM     13  C   UNL     1     -93.677 147.465 242.032  1.00  0.00    -0.000 C 
BRANCH  13  14
ATOM     14  C   UNL     1     -93.844 145.983 242.400  1.00  0.00    -0.000 C 
BRANCH  14  15
ATOM     15  C   UNL     1     -93.033 145.088 241.450  1.00  0.00    -0.000 C 
BRANCH  15  16
ATOM     16  C   UNL     1     -92.601 145.820 240.170  1.00  0.00    -0.000 C 
BRANCH  16  17
ATOM     17  C   UNL     1     -93.264 145.248 238.908  1.00  0.00    -0.000 C 
BRANCH  17  18
ATOM     18  C   UNL     1     -92.259 145.156 237.753  1.00  0.00    -0.000 C 
BRANCH  18  19
ATOM     19  C   UNL     1     -92.743 145.955 236.538  1.00  0.00    -0.003 C 
ATOM     20  C   UNL     1     -91.617 146.162 235.530  1.00  0.00     0.004 C 
ENDBRANCH  18  19
ENDBRANCH  17  18
ENDBRANCH  16  17
ENDBRANCH  15  16
ENDBRANCH  14  15
ENDBRANCH  13  14
ENDBRANCH  12  13
ENDBRANCH   1  12
TORSDOF 16
ENDMDL
MODEL 5
REMARK VINA RESULT:    -3.713      1.439      2.168
REMARK INTER + INTRA:          -8.925
REMARK INTER:                  -6.612
REMARK INTRA:                  -2.313
REMARK UNBOUND:                -1.738
REMARK SMILES CCCCCCCCCCCCCCCCCC(=O)[O-]
REMARK SMILES IDX 10 1 11 2 12 3 13 4 14 5 15 6 16 7 17 8 18 9 19 10 20 11
REMARK SMILES IDX 9 12 8 13 7 14 6 15 5 16 4 17 3 18 2 19 1 20
REMARK H PARENT
REMARK Flexibility Score: inf
ROOT
ATOM      1  C   UNL     1     -93.451 147.459 240.405  1.00  0.00     0.000 C 
ENDROOT
BRANCH   1   2
ATOM      2  C   UNL     1     -94.364 148.022 239.305  1.00  0.00     0.000 C 
BRANCH   2   3
ATOM      3  C   UNL     1     -95.276 146.948 238.688  1.00  0.00     0.000 C 
BRANCH   3   4
ATOM      4  C   UNL     1     -96.626 147.511 238.209  1.00  0.00     0.000 C 
BRANCH   4   5
ATOM      5  C   UNL     1     -97.146 148.718 239.012  1.00  0.00     0.000 C 
BRANCH   5   6
ATOM      6  C   UNL     1     -97.433 149.945 238.132  1.00  0.00     0.000 C 
BRANCH   6   7
ATOM      7  C   UNL     1     -96.593 149.908 236.850  1.00  0.00     0.006 C 
BRANCH   7   8
ATOM      8  C   UNL     1     -95.563 151.042 236.834  1.00  0.00     0.053 C 
BRANCH   8   9
ATOM      9  C   UNL     1     -96.234 152.355 236.585  1.00  0.00     0.041 C 
ATOM     10  O   UNL     1     -96.801 152.579 235.483  1.00  0.00    -0.550 OA
ATOM     11  O   UNL     1     -96.273 153.316 237.587  1.00  0.00    -0.550 OA
ENDBRANCH   8   9
ENDBRANCH   7   8
ENDBRANCH   6   7
ENDBRANCH   5   6
ENDBRANCH   4   5
ENDBRANCH   3   4
ENDBRANCH   2   3
ENDBRANCH   1   2
BRANCH   1  12
ATOM     12  C   UNL     1     -93.203 145.949 240.249  1.00  0.00     0.000 C 
BRANCH  12  13
ATOM     13  C   UNL     1     -92.906 145.255 241.589  1.00  0.00    -0.000 C 
BRANCH  13  14
ATOM     14  C   UNL     1     -93.695 145.864 242.758  1.00  0.00    -0.000 C 
BRANCH  14  15
ATOM     15  C   UNL     1     -95.080 145.209 242.884  1.00  0.00    -0.000 C 
BRANCH  15  16
ATOM     16  C   UNL     1     -96.163 146.198 243.342  1.00  0.00    -0.000 C 
BRANCH  16  17
ATOM     17  C   UNL     1     -96.478 147.264 242.282  1.00  0.00    -0.000 C 
BRANCH  17  18
ATOM     18  C   UNL     1     -96.043 148.656 242.755  1.00  0.00    -0.000 C 
BRANCH  18  19
ATOM     19  C   UNL     1     -97.217 149.418 243.378  1.00  0.00    -0.003 C 
ATOM     20  C   UNL     1     -98.338 149.627 242.364  1.00  0.00     0.004 C 
ENDBRANCH  18  19
ENDBRANCH  17  18
ENDBRANCH  16  17
ENDBRANCH  15  16
ENDBRANCH  14  15
ENDBRANCH  13  14
ENDBRANCH  12  13
ENDBRANCH   1  12
TORSDOF 16
ENDMDL
MODEL 6
REMARK VINA RESULT:    -3.702      3.499      6.597
REMARK INTER + INTRA:          -8.902
REMARK INTER:                  -7.085
REMARK INTRA:                  -1.817
REMARK UNBOUND:                -1.738
REMARK SMILES CCCCCCCCCCCCCCCCCC(=O)[O-]
REMARK SMILES IDX 10 1 11 2 12 3 13 4 14 5 15 6 16 7 17 8 18 9 19 10 20 11
REMARK SMILES IDX 9 12 8 13 7 14 6 15 5 16 4 17 3 18 2 19 1 20
REMARK H PARENT
REMARK Flexibility Score: inf
ROOT
ATOM      1  C   UNL     1     -93.233 144.947 241.577  1.00  0.00     0.000 C 
ENDROOT
BRANCH   1   2
ATOM      2  C   UNL     1     -93.689 146.017 242.581  1.00  0.00     0.000 C 
BRANCH   2   3
ATOM      3  C   UNL     1     -93.548 147.445 242.026  1.00  0.00     0.000 C 
BRANCH   3   4
ATOM      4  C   UNL     1     -94.881 148.214 242.005  1.00  0.00     0.000 C 
BRANCH   4   5
ATOM      5  C   UNL     1     -96.139 147.332 242.116  1.00  0.00     0.000 C 
BRANCH   5   6
ATOM      6  C   UNL     1     -97.424 148.146 242.335  1.00  0.00     0.000 C 
BRANCH   6   7
ATOM      7  C   UNL     1     -97.225 149.201 243.430  1.00  0.00     0.006 C 
BRANCH   7   8
ATOM      8  C   UNL     1     -97.295 148.569 244.823  1.00  0.00     0.053 C 
BRANCH   8   9
ATOM      9  C   UNL     1     -98.328 149.255 245.658  1.00  0.00     0.041 C 
ATOM     10  O   UNL     1     -99.498 149.409 245.220  1.00  0.00    -0.550 OA
ATOM     11  O   UNL     1     -98.012 149.682 246.942  1.00  0.00    -0.550 OA
ENDBRANCH   8   9
ENDBRANCH   7   8
ENDBRANCH   6   7
ENDBRANCH   5   6
ENDBRANCH   4   5
ENDBRANCH   3   4
ENDBRANCH   2   3
ENDBRANCH   1   2
BRANCH   1  12
ATOM     12  C   UNL     1     -92.022 145.400 240.743  1.00  0.00     0.000 C 
BRANCH  12  13
ATOM     13  C   UNL     1     -92.283 145.323 239.229  1.00  0.00    -0.000 C 
BRANCH  13  14
ATOM     14  C   UNL     1     -93.769 145.481 238.877  1.00  0.00    -0.000 C 
BRANCH  14  15
ATOM     15  C   UNL     1     -93.984 146.671 237.929  1.00  0.00    -0.000 C 
BRANCH  15  16
ATOM     16  C   UNL     1     -95.055 147.648 238.438  1.00  0.00    -0.000 C 
BRANCH  16  17
ATOM     17  C   UNL     1     -94.737 149.110 238.090  1.00  0.00    -0.000 C 
BRANCH  17  18
ATOM     18  C   UNL     1     -94.315 149.244 236.622  1.00  0.00    -0.000 C 
BRANCH  18  19
ATOM     19  C   UNL     1     -94.873 150.531 236.004  1.00  0.00    -0.003 C 
ATOM     20  C   UNL     1     -95.644 151.348 237.036  1.00  0.00     0.004 C 
ENDBRANCH  18  19
ENDBRANCH  17  18
ENDBRANCH  16  17
ENDBRANCH  15  16
ENDBRANCH  14  15
ENDBRANCH  13  14
ENDBRANCH  12  13
ENDBRANCH   1  12
TORSDOF 16
ENDMDL
MODEL 7
REMARK VINA RESULT:    -3.698      2.151      3.530
REMARK INTER + INTRA:          -8.894
REMARK INTER:                  -6.455
REMARK INTRA:                  -2.439
REMARK UNBOUND:                -1.738
REMARK SMILES CCCCCCCCCCCCCCCCCC(=O)[O-]
REMARK SMILES IDX 10 1 11 2 12 3 13 4 14 5 15 6 16 7 17 8 18 9 19 10 20 11
REMARK SMILES IDX 9 12 8 13 7 14 6 15 5 16 4 17 3 18 2 19 1 20
REMARK H PARENT
REMARK Flexibility Score: inf
ROOT
ATOM      1  C   UNL     1     -91.974 145.515 240.856  1.00  0.00     0.000 C 
ENDROOT
BRANCH   1   2
ATOM      2  C   UNL     1     -92.104 145.233 239.351  1.00  0.00     0.000 C 
BRANCH   2   3
ATOM      3  C   UNL     1     -93.479 145.636 238.792  1.00  0.00     0.000 C 
BRANCH   3   4
ATOM      4  C   UNL     1     -93.447 145.943 237.284  1.00  0.00     0.000 C 
BRANCH   4   5
ATOM      5  C   UNL     1     -94.163 147.243 236.873  1.00  0.00     0.000 C 
BRANCH   5   6
ATOM      6  C   UNL     1     -95.134 147.759 237.947  1.00  0.00     0.000 C 
BRANCH   6   7
ATOM      7  C   UNL     1     -95.156 149.292 237.975  1.00  0.00     0.006 C 
BRANCH   7   8
ATOM      8  C   UNL     1     -94.615 149.874 236.666  1.00  0.00     0.053 C 
BRANCH   8   9
ATOM      9  C   UNL     1     -95.418 151.065 236.251  1.00  0.00     0.041 C 
ATOM     10  O   UNL     1     -95.861 151.154 235.076  1.00  0.00    -0.550 OA
ATOM     11  O   UNL     1     -95.717 152.057 237.176  1.00  0.00    -0.550 OA
ENDBRANCH   8   9
ENDBRANCH   7   8
ENDBRANCH   6   7
ENDBRANCH   5   6
ENDBRANCH   4   5
ENDBRANCH   3   4
ENDBRANCH   2   3
ENDBRANCH   1   2
BRANCH   1  12
ATOM     12  C   UNL     1     -93.167 144.974 241.662  1.00  0.00     0.000 C 
BRANCH  12  13
ATOM     13  C   UNL     1     -93.862 146.062 242.497  1.00  0.00    -0.000 C 
BRANCH  13  14
ATOM     14  C   UNL     1     -93.509 147.482 242.028  1.00  0.00    -0.000 C 
BRANCH  14  15
ATOM     15  C   UNL     1     -94.762 148.226 241.541  1.00  0.00    -0.000 C 
BRANCH  15  16
ATOM     16  C   UNL     1     -95.721 148.584 242.688  1.00  0.00    -0.000 C 
BRANCH  16  17
ATOM     17  C   UNL     1     -97.196 148.390 242.307  1.00  0.00    -0.000 C 
BRANCH  17  18
ATOM     18  C   UNL     1     -97.326 147.747 240.921  1.00  0.00    -0.000 C 
BRANCH  18  19
ATOM     19  C   UNL     1     -97.797 146.293 241.030  1.00  0.00    -0.003 C 
ATOM     20  C   UNL     1     -96.831 145.346 240.325  1.00  0.00     0.004 C 
ENDBRANCH  18  19
ENDBRANCH  17  18
ENDBRANCH  16  17
ENDBRANCH  15  16
ENDBRANCH  14  15
ENDBRANCH  13  14
ENDBRANCH  12  13
ENDBRANCH   1  12
TORSDOF 16
ENDMDL
MODEL 8
REMARK VINA RESULT:    -3.695      2.426      6.306
REMARK INTER + INTRA:          -8.890
REMARK INTER:                  -6.888
REMARK INTRA:                  -2.002
REMARK UNBOUND:                -1.738
REMARK SMILES CCCCCCCCCCCCCCCCCC(=O)[O-]
REMARK SMILES IDX 10 1 11 2 12 3 13 4 14 5 15 6 16 7 17 8 18 9 19 10 20 11
REMARK SMILES IDX 9 12 8 13 7 14 6 15 5 16 4 17 3 18 2 19 1 20
REMARK H PARENT
REMARK Flexibility Score: inf
ROOT
ATOM      1  C   UNL     1     -93.125 147.067 240.378  1.00  0.00     0.000 C 
ENDROOT
BRANCH   1   2
ATOM      2  C   UNL     1     -92.662 145.632 240.673  1.00  0.00     0.000 C 
BRANCH   2   3
ATOM      3  C   UNL     1     -93.334 145.040 241.924  1.00  0.00     0.000 C 
BRANCH   3   4
ATOM      4  C   UNL     1     -94.019 146.106 242.798  1.00  0.00     0.000 C 
BRANCH   4   5
ATOM      5  C   UNL     1     -95.505 145.839 243.100  1.00  0.00     0.000 C 
BRANCH   5   6
ATOM      6  C   UNL     1     -96.448 146.815 242.380  1.00  0.00     0.000 C 
BRANCH   6   7
ATOM      7  C   UNL     1     -95.870 148.235 242.379  1.00  0.00     0.006 C 
BRANCH   7   8
ATOM      8  C   UNL     1     -96.598 149.126 243.390  1.00  0.00     0.053 C 
BRANCH   8   9
ATOM      9  C   UNL     1     -97.995 149.402 242.933  1.00  0.00     0.041 C 
ATOM     10  O   UNL     1     -98.974 149.082 243.658  1.00  0.00    -0.550 OA
ATOM     11  O   UNL     1     -98.216 150.056 241.728  1.00  0.00    -0.550 OA
ENDBRANCH   8   9
ENDBRANCH   7   8
ENDBRANCH   6   7
ENDBRANCH   5   6
ENDBRANCH   4   5
ENDBRANCH   3   4
ENDBRANCH   2   3
ENDBRANCH   1   2
BRANCH   1  12
ATOM     12  C   UNL     1     -94.111 147.137 239.199  1.00  0.00     0.000 C 
BRANCH  12  13
ATOM     13  C   UNL     1     -94.673 148.552 238.980  1.00  0.00    -0.000 C 
BRANCH  13  14
ATOM     14  C   UNL     1     -96.118 148.540 238.459  1.00  0.00    -0.000 C 
BRANCH  14  15
ATOM     15  C   UNL     1     -96.171 148.956 236.981  1.00  0.00    -0.000 C 
BRANCH  15  16
ATOM     16  C   UNL     1     -95.106 150.004 236.621  1.00  0.00    -0.000 C 
BRANCH  16  17
ATOM     17  C   UNL     1     -95.716 151.301 236.070  1.00  0.00    -0.000 C 
BRANCH  17  18
ATOM     18  C   UNL     1     -95.979 152.307 237.197  1.00  0.00    -0.000 C 
BRANCH  18  19
ATOM     19  C   UNL     1     -97.460 152.696 237.254  1.00  0.00    -0.003 C 
ATOM     20  C   UNL     1     -98.230 151.799 238.218  1.00  0.00     0.004 C 
ENDBRANCH  18  19
ENDBRANCH  17  18
ENDBRANCH  16  17
ENDBRANCH  15  16
ENDBRANCH  14  15
ENDBRANCH  13  14
ENDBRANCH  12  13
ENDBRANCH   1  12
TORSDOF 16
ENDMDL
MODEL 9
REMARK VINA RESULT:    -3.658      2.720      4.261
REMARK INTER + INTRA:          -8.819
REMARK INTER:                  -6.238
REMARK INTRA:                  -2.581
REMARK UNBOUND:                -1.738
REMARK SMILES CCCCCCCCCCCCCCCCCC(=O)[O-]
REMARK SMILES IDX 10 1 11 2 12 3 13 4 14 5 15 6 16 7 17 8 18 9 19 10 20 11
REMARK SMILES IDX 9 12 8 13 7 14 6 15 5 16 4 17 3 18 2 19 1 20
REMARK H PARENT
REMARK Flexibility Score: inf
ROOT
ATOM      1  C   UNL     1     -93.769 146.012 242.368  1.00  0.00     0.000 C 
ENDROOT
BRANCH   1   2
ATOM      2  C   UNL     1     -92.894 146.607 241.255  1.00  0.00     0.000 C 
BRANCH   2   3
ATOM      3  C   UNL     1     -92.272 145.527 240.352  1.00  0.00     0.000 C 
BRANCH   3   4
ATOM      4  C   UNL     1     -92.869 145.515 238.933  1.00  0.00     0.000 C 
BRANCH   4   5
ATOM      5  C   UNL     1     -94.275 146.133 238.816  1.00  0.00     0.000 C 
BRANCH   5   6
ATOM      6  C   UNL     1     -94.342 147.279 237.795  1.00  0.00     0.000 C 
BRANCH   6   7
ATOM      7  C   UNL     1     -94.724 148.599 238.476  1.00  0.00     0.006 C 
BRANCH   7   8
ATOM      8  C   UNL     1     -94.840 149.733 237.453  1.00  0.00     0.053 C 
BRANCH   8   9
ATOM      9  C   UNL     1     -95.780 149.352 236.354  1.00  0.00     0.041 C 
ATOM     10  O   UNL     1     -97.010 149.225 236.587  1.00  0.00    -0.550 OA
ATOM     11  O   UNL     1     -95.303 149.185 235.059  1.00  0.00    -0.550 OA
ENDBRANCH   8   9
ENDBRANCH   7   8
ENDBRANCH   6   7
ENDBRANCH   5   6
ENDBRANCH   4   5
ENDBRANCH   3   4
ENDBRANCH   2   3
ENDBRANCH   1   2
BRANCH   1  12
ATOM     12  C   UNL     1     -95.137 146.710 242.479  1.00  0.00     0.000 C 
BRANCH  12  13
ATOM     13  C   UNL     1     -95.075 148.199 242.102  1.00  0.00    -0.000 C 
BRANCH  13  14
ATOM     14  C   UNL     1     -95.927 149.079 243.028  1.00  0.00    -0.000 C 
BRANCH  14  15
ATOM     15  C   UNL     1     -96.981 148.240 243.766  1.00  0.00    -0.000 C 
BRANCH  15  16
ATOM     16  C   UNL     1     -98.415 148.568 243.324  1.00  0.00    -0.000 C 
BRANCH  16  17
ATOM     17  C   UNL     1     -98.475 149.732 242.324  1.00  0.00    -0.000 C 
BRANCH  17  18
ATOM     18  C   UNL     1     -99.137 149.296 241.011  1.00  0.00    -0.000 C 
BRANCH  18  19
ATOM     19  C   UNL     1     -98.084 148.934 239.958  1.00  0.00    -0.003 C 
ATOM     20  C   UNL     1     -97.936 147.422 239.822  1.00  0.00     0.004 C 
ENDBRANCH  18  19
ENDBRANCH  17  18
ENDBRANCH  16  17
ENDBRANCH  15  16
ENDBRANCH  14  15
ENDBRANCH  13  14
ENDBRANCH  12  13
ENDBRANCH   1  12
TORSDOF 16
ENDMDL
