MODEL 1
REMARK VINA RESULT:    -5.319      0.000      0.000
REMARK INTER + INTRA:          -5.319
REMARK INTER:                  -5.319
REMARK INTRA:                   0.000
REMARK UNBOUND:                 0.000
REMARK SMILES CC1=CC(=O)[C@@H]2C[C@H]1C2(C)C
REMARK SMILES IDX 1 1 2 2 3 3 4 4 5 5 6 6 7 7 8 8 9 9 10 10 11 11
REMARK H PARENT
REMARK Flexibility Score: inf
ROOT
ATOM      1  C   UNL     1      18.668   9.127 -25.132  1.00  0.00     0.040 C 
ATOM      2  C   UNL     1      19.663  10.199 -25.445  1.00  0.00    -0.066 C 
ATOM      3  C   UNL     1      20.980  10.056 -25.128  1.00  0.00     0.047 C 
ATOM      4  C   UNL     1      21.883  11.186 -25.522  1.00  0.00     0.159 C 
ATOM      5  O   UNL     1      23.125  11.156 -25.321  1.00  0.00    -0.295 OA
ATOM      6  C   UNL     1      21.190  12.377 -26.185  1.00  0.00     0.067 C 
ATOM      7  C   UNL     1      19.948  12.630 -25.302  1.00  0.00     0.021 C 
ATOM      8  C   UNL     1      19.247  11.523 -26.121  1.00  0.00     0.022 C 
ATOM      9  C   UNL     1      20.230  11.840 -27.284  1.00  0.00    -0.019 C 
ATOM     10  C   UNL     1      19.704  12.968 -28.210  1.00  0.00     0.012 C 
ATOM     11  C   UNL     1      20.715  10.664 -28.179  1.00  0.00     0.012 C 
ENDROOT
TORSDOF 0
ENDMDL
MODEL 2
REMARK VINA RESULT:    -5.053      1.994      3.349
REMARK INTER + INTRA:          -5.053
REMARK INTER:                  -5.053
REMARK INTRA:                   0.000
REMARK UNBOUND:                 0.000
REMARK SMILES CC1=CC(=O)[C@@H]2C[C@H]1C2(C)C
REMARK SMILES IDX 1 1 2 2 3 3 4 4 5 5 6 6 7 7 8 8 9 9 10 10 11 11
REMARK H PARENT
REMARK Flexibility Score: inf
ROOT
ATOM      1  C   UNL     1      20.247  13.012 -26.867  1.00  0.00     0.040 C 
ATOM      2  C   UNL     1      20.510  11.667 -26.268  1.00  0.00    -0.066 C 
ATOM      3  C   UNL     1      19.529  10.972 -25.629  1.00  0.00     0.047 C 
ATOM      4  C   UNL     1      19.909   9.622 -25.100  1.00  0.00     0.159 C 
ATOM      5  O   UNL     1      19.081   8.867 -24.526  1.00  0.00    -0.295 OA
ATOM      6  C   UNL     1      21.371   9.226 -25.307  1.00  0.00     0.067 C 
ATOM      7  C   UNL     1      22.165  10.486 -24.896  1.00  0.00     0.021 C 
ATOM      8  C   UNL     1      21.906  11.010 -26.327  1.00  0.00     0.022 C 
ATOM      9  C   UNL     1      21.762   9.529 -26.781  1.00  0.00    -0.019 C 
ATOM     10  C   UNL     1      23.122   8.896 -27.173  1.00  0.00     0.012 C 
ATOM     11  C   UNL     1      20.732   9.200 -27.900  1.00  0.00     0.012 C 
ENDROOT
TORSDOF 0
ENDMDL
MODEL 3
REMARK VINA RESULT:    -5.003      1.647      2.711
REMARK INTER + INTRA:          -5.003
REMARK INTER:                  -5.003
REMARK INTRA:                   0.000
REMARK UNBOUND:                 0.000
REMARK SMILES CC1=CC(=O)[C@@H]2C[C@H]1C2(C)C
REMARK SMILES IDX 1 1 2 2 3 3 4 4 5 5 6 6 7 7 8 8 9 9 10 10 11 11
REMARK H PARENT
REMARK Flexibility Score: inf
ROOT
ATOM      1  C   UNL     1      18.577  11.896 -29.068  1.00  0.00     0.040 C 
ATOM      2  C   UNL     1      19.375  11.669 -27.824  1.00  0.00    -0.066 C 
ATOM      3  C   UNL     1      19.046  10.686 -26.940  1.00  0.00     0.047 C 
ATOM      4  C   UNL     1      19.941  10.539 -25.747  1.00  0.00     0.159 C 
ATOM      5  O   UNL     1      19.766   9.644 -24.881  1.00  0.00    -0.295 OA
ATOM      6  C   UNL     1      21.082  11.553 -25.657  1.00  0.00     0.067 C 
ATOM      7  C   UNL     1      20.411  12.907 -25.977  1.00  0.00     0.021 C 
ATOM      8  C   UNL     1      20.595  12.547 -27.469  1.00  0.00     0.022 C 
ATOM      9  C   UNL     1      21.782  11.635 -27.044  1.00  0.00    -0.019 C 
ATOM     10  C   UNL     1      23.125  12.406 -26.982  1.00  0.00     0.012 C 
ATOM     11  C   UNL     1      22.014  10.316 -27.833  1.00  0.00     0.012 C 
ENDROOT
TORSDOF 0
ENDMDL
MODEL 4
REMARK VINA RESULT:    -4.973      1.643      3.496
REMARK INTER + INTRA:          -4.973
REMARK INTER:                  -4.973
REMARK INTRA:                   0.000
REMARK UNBOUND:                 0.000
REMARK SMILES CC1=CC(=O)[C@@H]2C[C@H]1C2(C)C
REMARK SMILES IDX 1 1 2 2 3 3 4 4 5 5 6 6 7 7 8 8 9 9 10 10 11 11
REMARK H PARENT
REMARK Flexibility Score: inf
ROOT
ATOM      1  C   UNL     1      20.592  10.859 -29.564  1.00  0.00     0.040 C 
ATOM      2  C   UNL     1      20.996  11.204 -28.166  1.00  0.00    -0.066 C 
ATOM      3  C   UNL     1      20.246  12.044 -27.399  1.00  0.00     0.047 C 
ATOM      4  C   UNL     1      20.740  12.286 -26.005  1.00  0.00     0.159 C 
ATOM      5  O   UNL     1      20.115  13.010 -25.186  1.00  0.00    -0.295 OA
ATOM      6  C   UNL     1      22.054  11.592 -25.645  1.00  0.00     0.067 C 
ATOM      7  C   UNL     1      22.967  11.860 -26.862  1.00  0.00     0.021 C 
ATOM      8  C   UNL     1      22.287  10.643 -27.531  1.00  0.00     0.022 C 
ATOM      9  C   UNL     1      21.971  10.108 -26.104  1.00  0.00    -0.019 C 
ATOM     10  C   UNL     1      23.125   9.248 -25.529  1.00  0.00     0.012 C 
ATOM     11  C   UNL     1      20.637   9.341 -25.885  1.00  0.00     0.012 C 
ENDROOT
TORSDOF 0
ENDMDL
MODEL 5
REMARK VINA RESULT:    -4.968     13.178     14.385
REMARK INTER + INTRA:          -4.968
REMARK INTER:                  -4.968
REMARK INTRA:                   0.000
REMARK UNBOUND:                 0.000
REMARK SMILES CC1=CC(=O)[C@@H]2C[C@H]1C2(C)C
REMARK SMILES IDX 1 1 2 2 3 3 4 4 5 5 6 6 7 7 8 8 9 9 10 10 11 11
REMARK H PARENT
REMARK Flexibility Score: inf
ROOT
ATOM      1  C   UNL     1      10.115  18.820 -17.421  1.00  0.00     0.040 C 
ATOM      2  C   UNL     1      10.463  19.040 -18.859  1.00  0.00    -0.066 C 
ATOM      3  C   UNL     1      10.885  18.015 -19.651  1.00  0.00     0.047 C 
ATOM      4  C   UNL     1      11.173  18.357 -21.081  1.00  0.00     0.159 C 
ATOM      5  O   UNL     1      11.530  17.491 -21.921  1.00  0.00    -0.295 OA
ATOM      6  C   UNL     1      11.002  19.832 -21.449  1.00  0.00     0.067 C 
ATOM      7  C   UNL     1      11.703  20.591 -20.300  1.00  0.00     0.021 C 
ATOM      8  C   UNL     1      10.383  20.438 -19.510  1.00  0.00     0.022 C 
ATOM      9  C   UNL     1       9.645  20.330 -20.876  1.00  0.00    -0.019 C 
ATOM     10  C   UNL     1       9.241  21.717 -21.439  1.00  0.00     0.012 C 
ATOM     11  C   UNL     1       8.412  19.388 -20.973  1.00  0.00     0.012 C 
ENDROOT
TORSDOF 0
ENDMDL
MODEL 6
REMARK VINA RESULT:    -4.867      1.851      3.001
REMARK INTER + INTRA:          -4.867
REMARK INTER:                  -4.867
REMARK INTRA:                   0.000
REMARK UNBOUND:                 0.000
REMARK SMILES CC1=CC(=O)[C@@H]2C[C@H]1C2(C)C
REMARK SMILES IDX 1 1 2 2 3 3 4 4 5 5 6 6 7 7 8 8 9 9 10 10 11 11
REMARK H PARENT
REMARK Flexibility Score: inf
ROOT
ATOM      1  C   UNL     1      22.935   9.783 -25.256  1.00  0.00     0.040 C 
ATOM      2  C   UNL     1      21.537  10.037 -25.722  1.00  0.00    -0.066 C 
ATOM      3  C   UNL     1      20.464   9.546 -25.042  1.00  0.00     0.047 C 
ATOM      4  C   UNL     1      19.114   9.896 -25.591  1.00  0.00     0.159 C 
ATOM      5  O   UNL     1      18.046   9.537 -25.031  1.00  0.00    -0.295 OA
ATOM      6  C   UNL     1      19.125  10.721 -26.879  1.00  0.00     0.067 C 
ATOM      7  C   UNL     1      20.181  10.023 -27.765  1.00  0.00     0.021 C 
ATOM      8  C   UNL     1      21.241  10.848 -27.002  1.00  0.00     0.022 C 
ATOM      9  C   UNL     1      20.130  11.895 -26.705  1.00  0.00    -0.019 C 
ATOM     10  C   UNL     1      20.001  12.953 -27.831  1.00  0.00     0.012 C 
ATOM     11  C   UNL     1      20.166  12.640 -25.341  1.00  0.00     0.012 C 
ENDROOT
TORSDOF 0
ENDMDL
MODEL 7
REMARK VINA RESULT:    -4.836     12.697     14.137
REMARK INTER + INTRA:          -4.836
REMARK INTER:                  -4.836
REMARK INTRA:                   0.000
REMARK UNBOUND:                 0.000
REMARK SMILES CC1=CC(=O)[C@@H]2C[C@H]1C2(C)C
REMARK SMILES IDX 1 1 2 2 3 3 4 4 5 5 6 6 7 7 8 8 9 9 10 10 11 11
REMARK H PARENT
REMARK Flexibility Score: inf
ROOT
ATOM      1  C   UNL     1      10.002  21.347 -20.981  1.00  0.00     0.040 C 
ATOM      2  C   UNL     1      10.546  20.017 -20.568  1.00  0.00    -0.066 C 
ATOM      3  C   UNL     1      11.882  19.827 -20.377  1.00  0.00     0.047 C 
ATOM      4  C   UNL     1      12.300  18.458 -19.933  1.00  0.00     0.159 C 
ATOM      5  O   UNL     1      13.499  18.168 -19.685  1.00  0.00    -0.295 OA
ATOM      6  C   UNL     1      11.167  17.438 -19.803  1.00  0.00     0.067 C 
ATOM      7  C   UNL     1      10.336  17.630 -21.091  1.00  0.00     0.021 C 
ATOM      8  C   UNL     1       9.629  18.793 -20.358  1.00  0.00     0.022 C 
ATOM      9  C   UNL     1       9.998  18.095 -19.016  1.00  0.00    -0.019 C 
ATOM     10  C   UNL     1       8.929  17.063 -18.576  1.00  0.00     0.012 C 
ATOM     11  C   UNL     1      10.342  18.991 -17.792  1.00  0.00     0.012 C 
ENDROOT
TORSDOF 0
ENDMDL
MODEL 8
REMARK VINA RESULT:    -4.766     13.065     14.407
REMARK INTER + INTRA:          -4.766
REMARK INTER:                  -4.766
REMARK INTRA:                   0.000
REMARK UNBOUND:                 0.000
REMARK SMILES CC1=CC(=O)[C@@H]2C[C@H]1C2(C)C
REMARK SMILES IDX 1 1 2 2 3 3 4 4 5 5 6 6 7 7 8 8 9 9 10 10 11 11
REMARK H PARENT
REMARK Flexibility Score: inf
ROOT
ATOM      1  C   UNL     1       9.659  21.227 -21.004  1.00  0.00     0.040 C 
ATOM      2  C   UNL     1       9.737  19.869 -20.383  1.00  0.00    -0.066 C 
ATOM      3  C   UNL     1       8.698  18.991 -20.466  1.00  0.00     0.047 C 
ATOM      4  C   UNL     1       8.910  17.651 -19.831  1.00  0.00     0.159 C 
ATOM      5  O   UNL     1       8.042  16.741 -19.874  1.00  0.00    -0.295 OA
ATOM      6  C   UNL     1      10.255  17.466 -19.126  1.00  0.00     0.067 C 
ATOM      7  C   UNL     1      10.434  18.763 -18.308  1.00  0.00     0.021 C 
ATOM      8  C   UNL     1      10.985  19.402 -19.603  1.00  0.00     0.022 C 
ATOM      9  C   UNL     1      11.382  17.972 -20.071  1.00  0.00    -0.019 C 
ATOM     10  C   UNL     1      12.793  17.561 -19.578  1.00  0.00     0.012 C 
ATOM     11  C   UNL     1      11.280  17.639 -21.586  1.00  0.00     0.012 C 
ENDROOT
TORSDOF 0
ENDMDL
MODEL 9
REMARK VINA RESULT:    -4.764      1.840      3.029
REMARK INTER + INTRA:          -4.764
REMARK INTER:                  -4.764
REMARK INTRA:                   0.000
REMARK UNBOUND:                 0.000
REMARK SMILES CC1=CC(=O)[C@@H]2C[C@H]1C2(C)C
REMARK SMILES IDX 1 1 2 2 3 3 4 4 5 5 6 6 7 7 8 8 9 9 10 10 11 11
REMARK H PARENT
REMARK Flexibility Score: inf
ROOT
ATOM      1  C   UNL     1      23.125   9.227 -25.554  1.00  0.00     0.040 C 
ATOM      2  C   UNL     1      22.300  10.190 -26.348  1.00  0.00    -0.066 C 
ATOM      3  C   UNL     1      21.901   9.901 -27.617  1.00  0.00     0.047 C 
ATOM      4  C   UNL     1      21.053  10.933 -28.297  1.00  0.00     0.159 C 
ATOM      5  O   UNL     1      20.588  10.767 -29.454  1.00  0.00    -0.295 OA
ATOM      6  C   UNL     1      20.791  12.203 -27.485  1.00  0.00     0.067 C 
ATOM      7  C   UNL     1      22.175  12.575 -26.908  1.00  0.00     0.021 C 
ATOM      8  C   UNL     1      21.880  11.562 -25.778  1.00  0.00     0.022 C 
ATOM      9  C   UNL     1      20.364  11.791 -26.047  1.00  0.00    -0.019 C 
ATOM     10  C   UNL     1      19.795  12.983 -25.236  1.00  0.00     0.012 C 
ATOM     11  C   UNL     1      19.398  10.584 -25.881  1.00  0.00     0.012 C 
ENDROOT
TORSDOF 0
ENDMDL
