MODEL 1
REMARK VINA RESULT:    -3.182      0.000      0.000
REMARK INTER + INTRA:          -3.868
REMARK INTER:                  -3.740
REMARK INTRA:                  -0.127
REMARK UNBOUND:                -0.127
REMARK SMILES CCCCC(=O)[O-]
REMARK SMILES IDX 4 1 5 2 6 3 7 4 3 5 2 6 1 7
REMARK H PARENT
REMARK Flexibility Score: inf
ROOT
ATOM      1  C   UNL     1      -3.590   7.518  -6.855  1.00  0.00     0.053 C 
ENDROOT
BRANCH   1   2
ATOM      2  C   UNL     1      -3.953   6.320  -6.031  1.00  0.00     0.041 C 
ATOM      3  O   UNL     1      -3.831   6.354  -4.778  1.00  0.00    -0.550 OA
ATOM      4  O   UNL     1      -4.394   5.157  -6.649  1.00  0.00    -0.550 OA
ENDBRANCH   1   2
BRANCH   1   5
ATOM      5  C   UNL     1      -4.772   8.009  -7.701  1.00  0.00     0.006 C 
BRANCH   5   6
ATOM      6  C   UNL     1      -6.041   8.213  -6.862  1.00  0.00    -0.003 C 
ATOM      7  C   UNL     1      -7.229   7.476  -7.475  1.00  0.00     0.004 C 
ENDBRANCH   5   6
ENDBRANCH   1   5
TORSDOF 3
ENDMDL
MODEL 2
REMARK VINA RESULT:    -3.147      0.127      1.227
REMARK INTER + INTRA:          -3.826
REMARK INTER:                  -3.711
REMARK INTRA:                  -0.115
REMARK UNBOUND:                -0.127
REMARK SMILES CCCCC(=O)[O-]
REMARK SMILES IDX 4 1 5 2 6 3 7 4 3 5 2 6 1 7
REMARK H PARENT
REMARK Flexibility Score: inf
ROOT
ATOM      1  C   UNL     1      -3.610   7.510  -6.897  1.00  0.00     0.053 C 
ENDROOT
BRANCH   1   2
ATOM      2  C   UNL     1      -3.952   6.288  -6.101  1.00  0.00     0.041 C 
ATOM      3  O   UNL     1      -4.458   5.284  -6.670  1.00  0.00    -0.550 OA
ATOM      4  O   UNL     1      -3.745   6.270  -4.728  1.00  0.00    -0.550 OA
ENDBRANCH   1   2
BRANCH   1   5
ATOM      5  C   UNL     1      -4.764   7.935  -7.815  1.00  0.00     0.006 C 
BRANCH   5   6
ATOM      6  C   UNL     1      -6.019   8.331  -7.024  1.00  0.00    -0.003 C 
ATOM      7  C   UNL     1      -7.241   7.557  -7.510  1.00  0.00     0.004 C 
ENDBRANCH   5   6
ENDBRANCH   1   5
TORSDOF 3
ENDMDL
MODEL 3
REMARK VINA RESULT:    -3.058      1.288      2.015
REMARK INTER + INTRA:          -3.722
REMARK INTER:                  -3.642
REMARK INTRA:                  -0.080
REMARK UNBOUND:                -0.127
REMARK SMILES CCCCC(=O)[O-]
REMARK SMILES IDX 4 1 5 2 6 3 7 4 3 5 2 6 1 7
REMARK H PARENT
REMARK Flexibility Score: inf
ROOT
ATOM      1  C   UNL     1      -4.725   7.505  -6.669  1.00  0.00     0.053 C 
ENDROOT
BRANCH   1   2
ATOM      2  C   UNL     1      -4.161   6.279  -6.019  1.00  0.00     0.041 C 
ATOM      3  O   UNL     1      -4.315   5.150  -6.556  1.00  0.00    -0.550 OA
ATOM      4  O   UNL     1      -3.495   6.378  -4.804  1.00  0.00    -0.550 OA
ENDBRANCH   1   2
BRANCH   1   5
ATOM      5  C   UNL     1      -3.678   8.232  -7.523  1.00  0.00     0.006 C 
BRANCH   5   6
ATOM      6  C   UNL     1      -4.181   8.507  -8.948  1.00  0.00    -0.003 C 
ATOM      7  C   UNL     1      -5.271   7.515  -9.346  1.00  0.00     0.004 C 
ENDBRANCH   5   6
ENDBRANCH   1   5
TORSDOF 3
ENDMDL
MODEL 4
REMARK VINA RESULT:    -3.017      2.025      3.361
REMARK INTER + INTRA:          -3.673
REMARK INTER:                  -3.578
REMARK INTRA:                  -0.095
REMARK UNBOUND:                -0.127
REMARK SMILES CCCCC(=O)[O-]
REMARK SMILES IDX 4 1 5 2 6 3 7 4 3 5 2 6 1 7
REMARK H PARENT
REMARK Flexibility Score: inf
ROOT
ATOM      1  C   UNL     1      -6.201   7.139  -7.637  1.00  0.00     0.053 C 
ENDROOT
BRANCH   1   2
ATOM      2  C   UNL     1      -6.837   5.783  -7.584  1.00  0.00     0.041 C 
ATOM      3  O   UNL     1      -6.169   4.759  -7.883  1.00  0.00    -0.550 OA
ATOM      4  O   UNL     1      -8.176   5.655  -7.236  1.00  0.00    -0.550 OA
ENDBRANCH   1   2
BRANCH   1   5
ATOM      5  C   UNL     1      -5.452   7.470  -6.340  1.00  0.00     0.006 C 
BRANCH   5   6
ATOM      6  C   UNL     1      -3.982   7.026  -6.389  1.00  0.00    -0.003 C 
ATOM      7  C   UNL     1      -3.685   5.990  -5.308  1.00  0.00     0.004 C 
ENDBRANCH   5   6
ENDBRANCH   1   5
TORSDOF 3
ENDMDL
MODEL 5
REMARK VINA RESULT:    -2.927      1.941      3.160
REMARK INTER + INTRA:          -3.567
REMARK INTER:                  -3.471
REMARK INTRA:                  -0.096
REMARK UNBOUND:                -0.127
REMARK SMILES CCCCC(=O)[O-]
REMARK SMILES IDX 4 1 5 2 6 3 7 4 3 5 2 6 1 7
REMARK H PARENT
REMARK Flexibility Score: inf
ROOT
ATOM      1  C   UNL     1      -6.254   7.219  -7.440  1.00  0.00     0.053 C 
ENDROOT
BRANCH   1   2
ATOM      2  C   UNL     1      -6.764   5.812  -7.522  1.00  0.00     0.041 C 
ATOM      3  O   UNL     1      -5.995   4.882  -7.883  1.00  0.00    -0.550 OA
ATOM      4  O   UNL     1      -8.093   5.535  -7.234  1.00  0.00    -0.550 OA
ENDBRANCH   1   2
BRANCH   1   5
ATOM      5  C   UNL     1      -5.234   7.391  -6.306  1.00  0.00     0.006 C 
BRANCH   5   6
ATOM      6  C   UNL     1      -3.792   7.459  -6.830  1.00  0.00    -0.003 C 
ATOM      7  C   UNL     1      -3.735   8.131  -8.198  1.00  0.00     0.004 C 
ENDBRANCH   5   6
ENDBRANCH   1   5
TORSDOF 3
ENDMDL
MODEL 6
REMARK VINA RESULT:    -2.868      1.797      2.272
REMARK INTER + INTRA:          -3.498
REMARK INTER:                  -3.418
REMARK INTRA:                  -0.080
REMARK UNBOUND:                -0.127
REMARK SMILES CCCCC(=O)[O-]
REMARK SMILES IDX 4 1 5 2 6 3 7 4 3 5 2 6 1 7
REMARK H PARENT
REMARK Flexibility Score: inf
ROOT
ATOM      1  C   UNL     1      -5.623   7.526  -6.375  1.00  0.00     0.053 C 
ENDROOT
BRANCH   1   2
ATOM      2  C   UNL     1      -4.171   7.170  -6.276  1.00  0.00     0.041 C 
ATOM      3  O   UNL     1      -3.376   7.494  -7.198  1.00  0.00    -0.550 OA
ATOM      4  O   UNL     1      -3.703   6.451  -5.184  1.00  0.00    -0.550 OA
ENDBRANCH   1   2
BRANCH   1   5
ATOM      5  C   UNL     1      -6.255   6.993  -7.668  1.00  0.00     0.006 C 
BRANCH   5   6
ATOM      6  C   UNL     1      -6.262   5.458  -7.721  1.00  0.00    -0.003 C 
ATOM      7  C   UNL     1      -7.417   4.943  -8.575  1.00  0.00     0.004 C 
ENDBRANCH   5   6
ENDBRANCH   1   5
TORSDOF 3
ENDMDL
MODEL 7
REMARK VINA RESULT:    -2.860      1.579      1.969
REMARK INTER + INTRA:          -3.489
REMARK INTER:                  -3.435
REMARK INTRA:                  -0.054
REMARK UNBOUND:                -0.127
REMARK SMILES CCCCC(=O)[O-]
REMARK SMILES IDX 4 1 5 2 6 3 7 4 3 5 2 6 1 7
REMARK H PARENT
REMARK Flexibility Score: inf
ROOT
ATOM      1  C   UNL     1      -5.598   7.654  -6.242  1.00  0.00     0.053 C 
ENDROOT
BRANCH   1   2
ATOM      2  C   UNL     1      -4.171   7.201  -6.301  1.00  0.00     0.041 C 
ATOM      3  O   UNL     1      -3.663   6.582  -5.328  1.00  0.00    -0.550 OA
ATOM      4  O   UNL     1      -3.393   7.492  -7.413  1.00  0.00    -0.550 OA
ENDBRANCH   1   2
BRANCH   1   5
ATOM      5  C   UNL     1      -6.293   7.528  -7.604  1.00  0.00     0.006 C 
BRANCH   5   6
ATOM      6  C   UNL     1      -7.345   6.409  -7.617  1.00  0.00    -0.003 C 
ATOM      7  C   UNL     1      -6.690   5.042  -7.802  1.00  0.00     0.004 C 
ENDBRANCH   5   6
ENDBRANCH   1   5
TORSDOF 3
ENDMDL
MODEL 8
REMARK VINA RESULT:    -2.858      1.587      2.920
REMARK INTER + INTRA:          -3.487
REMARK INTER:                  -3.372
REMARK INTRA:                  -0.115
REMARK UNBOUND:                -0.127
REMARK SMILES CCCCC(=O)[O-]
REMARK SMILES IDX 4 1 5 2 6 3 7 4 3 5 2 6 1 7
REMARK H PARENT
REMARK Flexibility Score: inf
ROOT
ATOM      1  C   UNL     1      -6.837   6.803  -7.304  1.00  0.00     0.053 C 
ENDROOT
BRANCH   1   2
ATOM      2  C   UNL     1      -6.086   5.530  -7.547  1.00  0.00     0.041 C 
ATOM      3  O   UNL     1      -6.558   4.655  -8.320  1.00  0.00    -0.550 OA
ATOM      4  O   UNL     1      -4.883   5.296  -6.895  1.00  0.00    -0.550 OA
ENDBRANCH   1   2
BRANCH   1   5
ATOM      5  C   UNL     1      -5.914   7.926  -6.811  1.00  0.00     0.006 C 
BRANCH   5   6
ATOM      6  C   UNL     1      -5.234   8.668  -7.970  1.00  0.00    -0.003 C 
ATOM      7  C   UNL     1      -3.718   8.497  -7.918  1.00  0.00     0.004 C 
ENDBRANCH   5   6
ENDBRANCH   1   5
TORSDOF 3
ENDMDL
MODEL 9
REMARK VINA RESULT:    -2.670      2.619      3.105
REMARK INTER + INTRA:          -3.265
REMARK INTER:                  -3.146
REMARK INTRA:                  -0.120
REMARK UNBOUND:                -0.127
REMARK SMILES CCCCC(=O)[O-]
REMARK SMILES IDX 4 1 5 2 6 3 7 4 3 5 2 6 1 7
REMARK H PARENT
REMARK Flexibility Score: inf
ROOT
ATOM      1  C   UNL     1      -3.557   7.951  -7.243  1.00  0.00     0.053 C 
ENDROOT
BRANCH   1   2
ATOM      2  C   UNL     1      -3.850   8.583  -8.570  1.00  0.00     0.041 C 
ATOM      3  O   UNL     1      -4.166   7.865  -9.555  1.00  0.00    -0.550 OA
ATOM      4  O   UNL     1      -3.741   9.958  -8.726  1.00  0.00    -0.550 OA
ENDBRANCH   1   2
BRANCH   1   5
ATOM      5  C   UNL     1      -4.660   6.970  -6.822  1.00  0.00     0.006 C 
BRANCH   5   6
ATOM      6  C   UNL     1      -6.004   7.675  -6.587  1.00  0.00    -0.003 C 
ATOM      7  C   UNL     1      -7.139   6.942  -7.298  1.00  0.00     0.004 C 
ENDBRANCH   5   6
ENDBRANCH   1   5
TORSDOF 3
ENDMDL
