MODEL 1
REMARK VINA RESULT:    -3.935      0.000      0.000
REMARK INTER + INTRA:          -6.175
REMARK INTER:                  -5.545
REMARK INTRA:                  -0.630
REMARK UNBOUND:                -0.630
REMARK SMILES CCCCCCCCC(=O)[O-]
REMARK SMILES IDX 6 1 7 2 8 3 9 4 10 5 11 6 5 7 4 8 3 9 2 10 1 11
REMARK H PARENT
REMARK Flexibility Score: inf
ROOT
ATOM      1  C   UNL     1      40.710 -11.168  26.681  1.00  0.00     0.000 C 
ENDROOT
BRANCH   1   2
ATOM      2  C   UNL     1      39.361 -10.671  27.225  1.00  0.00     0.006 C 
BRANCH   2   3
ATOM      3  C   UNL     1      38.476 -11.848  27.646  1.00  0.00     0.053 C 
BRANCH   3   4
ATOM      4  C   UNL     1      37.044 -11.423  27.732  1.00  0.00     0.041 C 
ATOM      5  O   UNL     1      36.378 -11.222  26.682  1.00  0.00    -0.550 OA
ATOM      6  O   UNL     1      36.459 -11.198  28.971  1.00  0.00    -0.550 OA
ENDBRANCH   3   4
ENDBRANCH   2   3
ENDBRANCH   1   2
BRANCH   1   7
ATOM      7  C   UNL     1      40.957 -12.656  26.976  1.00  0.00     0.000 C 
BRANCH   7   8
ATOM      8  C   UNL     1      42.133 -12.879  27.944  1.00  0.00    -0.000 C 
BRANCH   8   9
ATOM      9  C   UNL     1      41.716 -13.638  29.214  1.00  0.00    -0.000 C 
BRANCH   9  10
ATOM     10  C   UNL     1      42.013 -12.849  30.499  1.00  0.00    -0.003 C 
ATOM     11  C   UNL     1      40.994 -11.731  30.704  1.00  0.00     0.004 C 
ENDBRANCH   9  10
ENDBRANCH   8   9
ENDBRANCH   7   8
ENDBRANCH   1   7
TORSDOF 7
ENDMDL
MODEL 2
REMARK VINA RESULT:    -3.796     12.713     14.388
REMARK INTER + INTRA:          -5.980
REMARK INTER:                  -5.462
REMARK INTRA:                  -0.517
REMARK UNBOUND:                -0.630
REMARK SMILES CCCCCCCCC(=O)[O-]
REMARK SMILES IDX 6 1 7 2 8 3 9 4 10 5 11 6 5 7 4 8 3 9 2 10 1 11
REMARK H PARENT
REMARK Flexibility Score: inf
ROOT
ATOM      1  C   UNL     1      44.122   1.009  22.313  1.00  0.00     0.000 C 
ENDROOT
BRANCH   1   2
ATOM      2  C   UNL     1      43.640  -0.417  22.619  1.00  0.00     0.006 C 
BRANCH   2   3
ATOM      3  C   UNL     1      43.094  -0.515  24.047  1.00  0.00     0.053 C 
BRANCH   3   4
ATOM      4  C   UNL     1      44.002  -1.341  24.901  1.00  0.00     0.041 C 
ATOM      5  O   UNL     1      45.179  -0.954  25.134  1.00  0.00    -0.550 OA
ATOM      6  O   UNL     1      43.569  -2.562  25.399  1.00  0.00    -0.550 OA
ENDBRANCH   3   4
ENDBRANCH   2   3
ENDBRANCH   1   2
BRANCH   1   7
ATOM      7  C   UNL     1      43.694   1.494  20.918  1.00  0.00     0.000 C 
BRANCH   7   8
ATOM      8  C   UNL     1      42.236   1.128  20.587  1.00  0.00    -0.000 C 
BRANCH   8   9
ATOM      9  C   UNL     1      42.035   0.791  19.100  1.00  0.00    -0.000 C 
BRANCH   9  10
ATOM     10  C   UNL     1      41.497  -0.631  18.883  1.00  0.00    -0.003 C 
ATOM     11  C   UNL     1      41.082  -1.269  20.206  1.00  0.00     0.004 C 
ENDBRANCH   9  10
ENDBRANCH   8   9
ENDBRANCH   7   8
ENDBRANCH   1   7
TORSDOF 7
ENDMDL
MODEL 3
REMARK VINA RESULT:    -3.780     13.064     14.831
REMARK INTER + INTRA:          -5.957
REMARK INTER:                  -5.694
REMARK INTRA:                  -0.263
REMARK UNBOUND:                -0.630
REMARK SMILES CCCCCCCCC(=O)[O-]
REMARK SMILES IDX 6 1 7 2 8 3 9 4 10 5 11 6 5 7 4 8 3 9 2 10 1 11
REMARK H PARENT
REMARK Flexibility Score: inf
ROOT
ATOM      1  C   UNL     1      42.600   0.128  21.323  1.00  0.00     0.000 C 
ENDROOT
BRANCH   1   2
ATOM      2  C   UNL     1      43.616  -0.346  22.374  1.00  0.00     0.006 C 
BRANCH   2   3
ATOM      3  C   UNL     1      42.937  -0.561  23.731  1.00  0.00     0.053 C 
BRANCH   3   4
ATOM      4  C   UNL     1      43.872  -1.238  24.682  1.00  0.00     0.041 C 
ATOM      5  O   UNL     1      45.050  -0.816  24.822  1.00  0.00    -0.550 OA
ATOM      6  O   UNL     1      43.459  -2.367  25.378  1.00  0.00    -0.550 OA
ENDBRANCH   3   4
ENDBRANCH   2   3
ENDBRANCH   1   2
BRANCH   1   7
ATOM      7  C   UNL     1      42.021  -1.029  20.492  1.00  0.00     0.000 C 
BRANCH   7   8
ATOM      8  C   UNL     1      41.412  -0.554  19.161  1.00  0.00    -0.000 C 
BRANCH   8   9
ATOM      9  C   UNL     1      41.667   0.938  18.895  1.00  0.00    -0.000 C 
BRANCH   9  10
ATOM     10  C   UNL     1      41.604   1.293  17.402  1.00  0.00    -0.003 C 
ATOM     11  C   UNL     1      42.966   1.108  16.737  1.00  0.00     0.004 C 
ENDBRANCH   9  10
ENDBRANCH   8   9
ENDBRANCH   7   8
ENDBRANCH   1   7
TORSDOF 7
ENDMDL
MODEL 4
REMARK VINA RESULT:    -3.775      2.256      4.612
REMARK INTER + INTRA:          -5.950
REMARK INTER:                  -5.512
REMARK INTRA:                  -0.438
REMARK UNBOUND:                -0.630
REMARK SMILES CCCCCCCCC(=O)[O-]
REMARK SMILES IDX 6 1 7 2 8 3 9 4 10 5 11 6 5 7 4 8 3 9 2 10 1 11
REMARK H PARENT
REMARK Flexibility Score: inf
ROOT
ATOM      1  C   UNL     1      40.172 -11.349  27.225  1.00  0.00     0.000 C 
ENDROOT
BRANCH   1   2
ATOM      2  C   UNL     1      38.708 -11.552  27.645  1.00  0.00     0.006 C 
BRANCH   2   3
ATOM      3  C   UNL     1      38.612 -12.484  28.858  1.00  0.00     0.053 C 
BRANCH   3   4
ATOM      4  C   UNL     1      37.470 -12.083  29.737  1.00  0.00     0.041 C 
ATOM      5  O   UNL     1      36.587 -11.293  29.309  1.00  0.00    -0.550 OA
ATOM      6  O   UNL     1      37.407 -12.540  31.047  1.00  0.00    -0.550 OA
ENDBRANCH   3   4
ENDBRANCH   2   3
ENDBRANCH   1   2
BRANCH   1   7
ATOM      7  C   UNL     1      40.332 -10.291  26.121  1.00  0.00     0.000 C 
BRANCH   7   8
ATOM      8  C   UNL     1      39.116  -9.351  26.023  1.00  0.00    -0.000 C 
BRANCH   8   9
ATOM      9  C   UNL     1      38.752  -9.008  24.570  1.00  0.00    -0.000 C 
BRANCH   9  10
ATOM     10  C   UNL     1      37.235  -8.980  24.331  1.00  0.00    -0.003 C 
ATOM     11  C   UNL     1      36.482  -9.580  25.515  1.00  0.00     0.004 C 
ENDBRANCH   9  10
ENDBRANCH   8   9
ENDBRANCH   7   8
ENDBRANCH   1   7
TORSDOF 7
ENDMDL
MODEL 5
REMARK VINA RESULT:    -3.770     12.839     14.461
REMARK INTER + INTRA:          -5.943
REMARK INTER:                  -5.482
REMARK INTRA:                  -0.461
REMARK UNBOUND:                -0.630
REMARK SMILES CCCCCCCCC(=O)[O-]
REMARK SMILES IDX 6 1 7 2 8 3 9 4 10 5 11 6 5 7 4 8 3 9 2 10 1 11
REMARK H PARENT
REMARK Flexibility Score: inf
ROOT
ATOM      1  C   UNL     1      42.957  -0.490  23.535  1.00  0.00     0.000 C 
ENDROOT
BRANCH   1   2
ATOM      2  C   UNL     1      43.799  -1.099  24.667  1.00  0.00     0.006 C 
BRANCH   2   3
ATOM      3  C   UNL     1      45.050  -0.255  24.933  1.00  0.00     0.053 C 
BRANCH   3   4
ATOM      4  C   UNL     1      44.672   1.159  25.241  1.00  0.00     0.041 C 
ATOM      5  O   UNL     1      43.990   1.424  26.267  1.00  0.00    -0.550 OA
ATOM      6  O   UNL     1      45.028   2.180  24.370  1.00  0.00    -0.550 OA
ENDBRANCH   3   4
ENDBRANCH   2   3
ENDBRANCH   1   2
BRANCH   1   7
ATOM      7  C   UNL     1      43.638  -0.606  22.161  1.00  0.00     0.000 C 
BRANCH   7   8
ATOM      8  C   UNL     1      43.287   0.566  21.227  1.00  0.00    -0.000 C 
BRANCH   8   9
ATOM      9  C   UNL     1      41.887   0.428  20.609  1.00  0.00    -0.000 C 
BRANCH   9  10
ATOM     10  C   UNL     1      41.794  -0.733  19.607  1.00  0.00    -0.003 C 
ATOM     11  C   UNL     1      40.716  -1.731  20.022  1.00  0.00     0.004 C 
ENDBRANCH   9  10
ENDBRANCH   8   9
ENDBRANCH   7   8
ENDBRANCH   1   7
TORSDOF 7
ENDMDL
MODEL 6
REMARK VINA RESULT:    -3.768     12.403     13.639
REMARK INTER + INTRA:          -5.939
REMARK INTER:                  -5.457
REMARK INTRA:                  -0.483
REMARK UNBOUND:                -0.630
REMARK SMILES CCCCCCCCC(=O)[O-]
REMARK SMILES IDX 6 1 7 2 8 3 9 4 10 5 11 6 5 7 4 8 3 9 2 10 1 11
REMARK H PARENT
REMARK Flexibility Score: inf
ROOT
ATOM      1  C   UNL     1      43.891   1.263  21.712  1.00  0.00     0.000 C 
ENDROOT
BRANCH   1   2
ATOM      2  C   UNL     1      42.641   1.023  20.850  1.00  0.00     0.006 C 
BRANCH   2   3
ATOM      3  C   UNL     1      42.028  -0.349  21.147  1.00  0.00     0.053 C 
BRANCH   3   4
ATOM      4  C   UNL     1      41.364  -0.902  19.926  1.00  0.00     0.041 C 
ATOM      5  O   UNL     1      41.515  -0.336  18.811  1.00  0.00    -0.550 OA
ATOM      6  O   UNL     1      40.538  -2.014  20.026  1.00  0.00    -0.550 OA
ENDBRANCH   3   4
ENDBRANCH   2   3
ENDBRANCH   1   2
BRANCH   1   7
ATOM      7  C   UNL     1      44.378  -0.013  22.418  1.00  0.00     0.000 C 
BRANCH   7   8
ATOM      8  C   UNL     1      45.365   0.285  23.561  1.00  0.00    -0.000 C 
BRANCH   8   9
ATOM      9  C   UNL     1      44.894  -0.282  24.910  1.00  0.00    -0.000 C 
BRANCH   9  10
ATOM     10  C   UNL     1      43.478  -0.873  24.841  1.00  0.00    -0.003 C 
ATOM     11  C   UNL     1      43.466  -2.326  25.309  1.00  0.00     0.004 C 
ENDBRANCH   9  10
ENDBRANCH   8   9
ENDBRANCH   7   8
ENDBRANCH   1   7
TORSDOF 7
ENDMDL
MODEL 7
REMARK VINA RESULT:    -3.699     13.427     15.104
REMARK INTER + INTRA:          -5.843
REMARK INTER:                  -5.216
REMARK INTRA:                  -0.627
REMARK UNBOUND:                -0.630
REMARK SMILES CCCCCCCCC(=O)[O-]
REMARK SMILES IDX 6 1 7 2 8 3 9 4 10 5 11 6 5 7 4 8 3 9 2 10 1 11
REMARK H PARENT
REMARK Flexibility Score: inf
ROOT
ATOM      1  C   UNL     1      42.365  -1.119  20.818  1.00  0.00     0.000 C 
ENDROOT
BRANCH   1   2
ATOM      2  C   UNL     1      42.599  -0.208  22.034  1.00  0.00     0.006 C 
BRANCH   2   3
ATOM      3  C   UNL     1      44.081  -0.185  22.422  1.00  0.00     0.053 C 
BRANCH   3   4
ATOM      4  C   UNL     1      44.247  -0.508  23.873  1.00  0.00     0.041 C 
ATOM      5  O   UNL     1      45.260  -0.101  24.501  1.00  0.00    -0.550 OA
ATOM      6  O   UNL     1      43.310  -1.302  24.521  1.00  0.00    -0.550 OA
ENDBRANCH   3   4
ENDBRANCH   2   3
ENDBRANCH   1   2
BRANCH   1   7
ATOM      7  C   UNL     1      41.205  -0.638  19.931  1.00  0.00     0.000 C 
BRANCH   7   8
ATOM      8  C   UNL     1      41.691  -0.013  18.611  1.00  0.00    -0.000 C 
BRANCH   8   9
ATOM      9  C   UNL     1      41.492   1.510  18.571  1.00  0.00    -0.000 C 
BRANCH   9  10
ATOM     10  C   UNL     1      42.669   2.278  19.192  1.00  0.00    -0.003 C 
ATOM     11  C   UNL     1      42.231   3.034  20.444  1.00  0.00     0.004 C 
ENDBRANCH   9  10
ENDBRANCH   8   9
ENDBRANCH   7   8
ENDBRANCH   1   7
TORSDOF 7
ENDMDL
MODEL 8
REMARK VINA RESULT:    -3.655      1.886      3.799
REMARK INTER + INTRA:          -5.781
REMARK INTER:                  -5.246
REMARK INTRA:                  -0.535
REMARK UNBOUND:                -0.630
REMARK SMILES CCCCCCCCC(=O)[O-]
REMARK SMILES IDX 6 1 7 2 8 3 9 4 10 5 11 6 5 7 4 8 3 9 2 10 1 11
REMARK H PARENT
REMARK Flexibility Score: inf
ROOT
ATOM      1  C   UNL     1      40.916 -12.026  29.402  1.00  0.00     0.000 C 
ENDROOT
BRANCH   1   2
ATOM      2  C   UNL     1      40.348 -13.103  30.339  1.00  0.00     0.006 C 
BRANCH   2   3
ATOM      3  C   UNL     1      38.907 -13.457  29.954  1.00  0.00     0.053 C 
BRANCH   3   4
ATOM      4  C   UNL     1      37.967 -12.382  30.399  1.00  0.00     0.041 C 
ATOM      5  O   UNL     1      38.002 -11.961  31.586  1.00  0.00    -0.550 OA
ATOM      6  O   UNL     1      37.019 -11.878  29.519  1.00  0.00    -0.550 OA
ENDBRANCH   3   4
ENDBRANCH   2   3
ENDBRANCH   1   2
BRANCH   1   7
ATOM      7  C   UNL     1      41.428 -12.606  28.073  1.00  0.00     0.000 C 
BRANCH   7   8
ATOM      8  C   UNL     1      41.003 -11.762  26.858  1.00  0.00    -0.000 C 
BRANCH   8   9
ATOM      9  C   UNL     1      39.818 -10.835  27.170  1.00  0.00    -0.000 C 
BRANCH   9  10
ATOM     10  C   UNL     1      39.731  -9.640  26.208  1.00  0.00    -0.003 C 
ATOM     11  C   UNL     1      40.938  -9.600  25.274  1.00  0.00     0.004 C 
ENDBRANCH   9  10
ENDBRANCH   8   9
ENDBRANCH   7   8
ENDBRANCH   1   7
TORSDOF 7
ENDMDL
MODEL 9
REMARK VINA RESULT:    -3.648      1.211      2.646
REMARK INTER + INTRA:          -5.772
REMARK INTER:                  -5.258
REMARK INTRA:                  -0.514
REMARK UNBOUND:                -0.630
REMARK SMILES CCCCCCCCC(=O)[O-]
REMARK SMILES IDX 6 1 7 2 8 3 9 4 10 5 11 6 5 7 4 8 3 9 2 10 1 11
REMARK H PARENT
REMARK Flexibility Score: inf
ROOT
ATOM      1  C   UNL     1      40.464 -11.926  29.428  1.00  0.00     0.000 C 
ENDROOT
BRANCH   1   2
ATOM      2  C   UNL     1      39.262 -12.698  28.862  1.00  0.00     0.006 C 
BRANCH   2   3
ATOM      3  C   UNL     1      38.685 -11.987  27.634  1.00  0.00     0.053 C 
BRANCH   3   4
ATOM      4  C   UNL     1      37.294 -11.511  27.909  1.00  0.00     0.041 C 
ATOM      5  O   UNL     1      36.842 -11.522  29.085  1.00  0.00    -0.550 OA
ATOM      6  O   UNL     1      36.479 -11.102  26.863  1.00  0.00    -0.550 OA
ENDBRANCH   3   4
ENDBRANCH   2   3
ENDBRANCH   1   2
BRANCH   1   7
ATOM      7  C   UNL     1      41.597 -12.853  29.899  1.00  0.00     0.000 C 
BRANCH   7   8
ATOM      8  C   UNL     1      41.989 -13.894  28.836  1.00  0.00    -0.000 C 
BRANCH   8   9
ATOM      9  C   UNL     1      43.453 -13.756  28.386  1.00  0.00    -0.000 C 
BRANCH   9  10
ATOM     10  C   UNL     1      43.584 -13.444  26.888  1.00  0.00    -0.003 C 
ATOM     11  C   UNL     1      42.708 -12.258  26.495  1.00  0.00     0.004 C 
ENDBRANCH   9  10
ENDBRANCH   8   9
ENDBRANCH   7   8
ENDBRANCH   1   7
TORSDOF 7
ENDMDL
