MODEL 1
REMARK VINA RESULT:    -6.796      0.000      0.000
REMARK INTER + INTRA:         -13.160
REMARK INTER:                 -11.960
REMARK INTRA:                  -1.199
REMARK UNBOUND:                -1.199
REMARK SMILES CCCCCCC=CCCCCCCCC(=O)[O-]
REMARK SMILES IDX 10 1 11 2 12 3 13 4 14 5 15 6 16 7 17 8 18 9 9 10 8 11 7 12
REMARK SMILES IDX 6 13 5 14 4 15 3 16 2 17 1 18
REMARK H PARENT
REMARK Flexibility Score: inf
ROOT
ATOM      1  C   UNL     1      20.025  70.700  71.191  1.00  0.00     0.004 C 
ENDROOT
BRANCH   1   2
ATOM      2  C   UNL     1      21.108  71.504  70.449  1.00  0.00     0.000 C 
BRANCH   2   3
ATOM      3  C   UNL     1      21.591  72.726  71.247  1.00  0.00     0.000 C 
BRANCH   3   4
ATOM      4  C   UNL     1      23.029  72.562  71.766  1.00  0.00     0.000 C 
BRANCH   4   5
ATOM      5  C   UNL     1      23.170  72.929  73.255  1.00  0.00     0.006 C 
BRANCH   5   6
ATOM      6  C   UNL     1      22.201  72.185  74.187  1.00  0.00     0.053 C 
BRANCH   6   7
ATOM      7  C   UNL     1      22.738  70.851  74.606  1.00  0.00     0.041 C 
ATOM      8  O   UNL     1      23.356  70.729  75.697  1.00  0.00    -0.550 OA
ATOM      9  O   UNL     1      22.585  69.748  73.775  1.00  0.00    -0.550 OA
ENDBRANCH   6   7
ENDBRANCH   5   6
ENDBRANCH   4   5
ENDBRANCH   3   4
ENDBRANCH   2   3
ENDBRANCH   1   2
BRANCH   1  10
ATOM     10  C   UNL     1      19.310  71.547  72.253  1.00  0.00     0.027 C 
BRANCH  10  11
ATOM     11  C   UNL     1      18.010  72.115  71.749  1.00  0.00    -0.031 C 
ATOM     12  C   UNL     1      16.974  72.293  72.580  1.00  0.00    -0.031 C 
BRANCH  12  13
ATOM     13  C   UNL     1      15.661  72.851  72.098  1.00  0.00     0.027 C 
BRANCH  13  14
ATOM     14  C   UNL     1      14.449  72.096  72.674  1.00  0.00     0.004 C 
BRANCH  14  15
ATOM     15  C   UNL     1      14.437  70.588  72.364  1.00  0.00     0.000 C 
BRANCH  15  16
ATOM     16  C   UNL     1      14.134  69.729  73.600  1.00  0.00    -0.000 C 
BRANCH  16  17
ATOM     17  C   UNL     1      14.665  70.398  74.875  1.00  0.00    -0.003 C 
ATOM     18  C   UNL     1      13.931  69.889  76.111  1.00  0.00     0.004 C 
ENDBRANCH  16  17
ENDBRANCH  15  16
ENDBRANCH  14  15
ENDBRANCH  13  14
ENDBRANCH  12  13
ENDBRANCH  10  11
ENDBRANCH   1  10
TORSDOF 13
ENDMDL
MODEL 2
REMARK VINA RESULT:    -6.795      7.784     11.799
REMARK INTER + INTRA:         -13.158
REMARK INTER:                 -12.013
REMARK INTRA:                  -1.145
REMARK UNBOUND:                -1.199
REMARK SMILES CCCCCCC=CCCCCCCCC(=O)[O-]
REMARK SMILES IDX 10 1 11 2 12 3 13 4 14 5 15 6 16 7 17 8 18 9 9 10 8 11 7 12
REMARK SMILES IDX 6 13 5 14 4 15 3 16 2 17 1 18
REMARK H PARENT
REMARK Flexibility Score: inf
ROOT
ATOM      1  C   UNL     1      10.684  71.990  76.136  1.00  0.00     0.004 C 
ENDROOT
BRANCH   1   2
ATOM      2  C   UNL     1       9.947  72.837  77.190  1.00  0.00     0.000 C 
BRANCH   2   3
ATOM      3  C   UNL     1       8.561  72.271  77.541  1.00  0.00     0.000 C 
BRANCH   3   4
ATOM      4  C   UNL     1       7.851  73.083  78.637  1.00  0.00     0.000 C 
BRANCH   4   5
ATOM      5  C   UNL     1       6.662  73.899  78.098  1.00  0.00     0.006 C 
BRANCH   5   6
ATOM      6  C   UNL     1       6.561  73.938  76.565  1.00  0.00     0.053 C 
BRANCH   6   7
ATOM      7  C   UNL     1       5.318  73.266  76.067  1.00  0.00     0.041 C 
ATOM      8  O   UNL     1       5.332  72.630  74.981  1.00  0.00    -0.550 OA
ATOM      9  O   UNL     1       4.135  73.371  76.788  1.00  0.00    -0.550 OA
ENDBRANCH   6   7
ENDBRANCH   5   6
ENDBRANCH   4   5
ENDBRANCH   3   4
ENDBRANCH   2   3
ENDBRANCH   1   2
BRANCH   1  10
ATOM     10  C   UNL     1      10.202  72.299  74.712  1.00  0.00     0.027 C 
BRANCH  10  11
ATOM     11  C   UNL     1      11.346  72.509  73.756  1.00  0.00    -0.031 C 
ATOM     12  C   UNL     1      11.430  71.796  72.625  1.00  0.00    -0.031 C 
BRANCH  12  13
ATOM     13  C   UNL     1      12.569  71.981  71.657  1.00  0.00     0.027 C 
BRANCH  13  14
ATOM     14  C   UNL     1      13.938  72.050  72.358  1.00  0.00     0.004 C 
BRANCH  14  15
ATOM     15  C   UNL     1      14.690  70.708  72.412  1.00  0.00     0.000 C 
BRANCH  15  16
ATOM     16  C   UNL     1      14.248  69.825  73.588  1.00  0.00    -0.000 C 
BRANCH  16  17
ATOM     17  C   UNL     1      14.613  70.475  74.929  1.00  0.00    -0.003 C 
ATOM     18  C   UNL     1      13.864  69.817  76.083  1.00  0.00     0.004 C 
ENDBRANCH  16  17
ENDBRANCH  15  16
ENDBRANCH  14  15
ENDBRANCH  13  14
ENDBRANCH  12  13
ENDBRANCH  10  11
ENDBRANCH   1  10
TORSDOF 13
ENDMDL
MODEL 3
REMARK VINA RESULT:    -6.789      2.414      3.376
REMARK INTER + INTRA:         -13.148
REMARK INTER:                 -11.412
REMARK INTRA:                  -1.736
REMARK UNBOUND:                -1.199
REMARK SMILES CCCCCCC=CCCCCCCCC(=O)[O-]
REMARK SMILES IDX 10 1 11 2 12 3 13 4 14 5 15 6 16 7 17 8 18 9 9 10 8 11 7 12
REMARK SMILES IDX 6 13 5 14 4 15 3 16 2 17 1 18
REMARK H PARENT
REMARK Flexibility Score: inf
ROOT
ATOM      1  C   UNL     1      20.352  70.644  74.866  1.00  0.00     0.004 C 
ENDROOT
BRANCH   1   2
ATOM      2  C   UNL     1      21.513  71.434  74.234  1.00  0.00     0.000 C 
BRANCH   2   3
ATOM      3  C   UNL     1      22.199  70.668  73.092  1.00  0.00     0.000 C 
BRANCH   3   4
ATOM      4  C   UNL     1      22.051  71.375  71.733  1.00  0.00     0.000 C 
BRANCH   4   5
ATOM      5  C   UNL     1      20.626  71.268  71.158  1.00  0.00     0.006 C 
BRANCH   5   6
ATOM      6  C   UNL     1      20.114  69.829  70.991  1.00  0.00     0.053 C 
BRANCH   6   7
ATOM      7  C   UNL     1      20.485  69.253  69.659  1.00  0.00     0.041 C 
ATOM      8  O   UNL     1      20.342  68.022  69.438  1.00  0.00    -0.550 OA
ATOM      9  O   UNL     1      21.018  70.072  68.672  1.00  0.00    -0.550 OA
ENDBRANCH   6   7
ENDBRANCH   5   6
ENDBRANCH   4   5
ENDBRANCH   3   4
ENDBRANCH   2   3
ENDBRANCH   1   2
BRANCH   1  10
ATOM     10  C   UNL     1      19.091  71.505  75.022  1.00  0.00     0.027 C 
BRANCH  10  11
ATOM     11  C   UNL     1      18.099  71.270  73.913  1.00  0.00    -0.031 C 
ATOM     12  C   UNL     1      17.683  72.284  73.142  1.00  0.00    -0.031 C 
BRANCH  12  13
ATOM     13  C   UNL     1      16.686  72.078  72.034  1.00  0.00     0.027 C 
BRANCH  13  14
ATOM     14  C   UNL     1      15.258  71.837  72.558  1.00  0.00     0.004 C 
BRANCH  14  15
ATOM     15  C   UNL     1      14.710  70.426  72.278  1.00  0.00     0.000 C 
BRANCH  15  16
ATOM     16  C   UNL     1      14.295  69.685  73.557  1.00  0.00    -0.000 C 
BRANCH  16  17
ATOM     17  C   UNL     1      14.347  70.618  74.773  1.00  0.00    -0.003 C 
ATOM     18  C   UNL     1      13.940  69.887  76.047  1.00  0.00     0.004 C 
ENDBRANCH  16  17
ENDBRANCH  15  16
ENDBRANCH  14  15
ENDBRANCH  13  14
ENDBRANCH  12  13
ENDBRANCH  10  11
ENDBRANCH   1  10
TORSDOF 13
ENDMDL
MODEL 4
REMARK VINA RESULT:    -6.764      2.312      3.613
REMARK INTER + INTRA:         -13.104
REMARK INTER:                 -11.314
REMARK INTRA:                  -1.790
REMARK UNBOUND:                -1.199
REMARK SMILES CCCCCCC=CCCCCCCCC(=O)[O-]
REMARK SMILES IDX 10 1 11 2 12 3 13 4 14 5 15 6 16 7 17 8 18 9 9 10 8 11 7 12
REMARK SMILES IDX 6 13 5 14 4 15 3 16 2 17 1 18
REMARK H PARENT
REMARK Flexibility Score: inf
ROOT
ATOM      1  C   UNL     1      19.240  71.463  76.438  1.00  0.00     0.004 C 
ENDROOT
BRANCH   1   2
ATOM      2  C   UNL     1      19.947  70.096  76.393  1.00  0.00     0.000 C 
BRANCH   2   3
ATOM      3  C   UNL     1      21.245  70.127  75.571  1.00  0.00     0.000 C 
BRANCH   3   4
ATOM      4  C   UNL     1      21.269  71.273  74.545  1.00  0.00     0.000 C 
BRANCH   4   5
ATOM      5  C   UNL     1      21.605  70.792  73.121  1.00  0.00     0.006 C 
BRANCH   5   6
ATOM      6  C   UNL     1      20.462  70.044  72.417  1.00  0.00     0.053 C 
BRANCH   6   7
ATOM      7  C   UNL     1      20.758  69.806  70.967  1.00  0.00     0.041 C 
ATOM      8  O   UNL     1      21.054  70.770  70.214  1.00  0.00    -0.550 OA
ATOM      9  O   UNL     1      20.674  68.522  70.444  1.00  0.00    -0.550 OA
ENDBRANCH   6   7
ENDBRANCH   5   6
ENDBRANCH   4   5
ENDBRANCH   3   4
ENDBRANCH   2   3
ENDBRANCH   1   2
BRANCH   1  10
ATOM     10  C   UNL     1      17.714  71.317  76.507  1.00  0.00     0.027 C 
BRANCH  10  11
ATOM     11  C   UNL     1      17.036  71.810  75.256  1.00  0.00    -0.031 C 
ATOM     12  C   UNL     1      17.531  71.510  74.047  1.00  0.00    -0.031 C 
BRANCH  12  13
ATOM     13  C   UNL     1      16.877  71.999  72.782  1.00  0.00     0.027 C 
BRANCH  13  14
ATOM     14  C   UNL     1      15.340  72.000  72.870  1.00  0.00     0.004 C 
BRANCH  14  15
ATOM     15  C   UNL     1      14.676  70.708  72.360  1.00  0.00     0.000 C 
BRANCH  15  16
ATOM     16  C   UNL     1      14.240  69.774  73.499  1.00  0.00    -0.000 C 
BRANCH  16  17
ATOM     17  C   UNL     1      13.630  70.572  74.658  1.00  0.00    -0.003 C 
ATOM     18  C   UNL     1      13.948  69.923  76.001  1.00  0.00     0.004 C 
ENDBRANCH  16  17
ENDBRANCH  15  16
ENDBRANCH  14  15
ENDBRANCH  13  14
ENDBRANCH  12  13
ENDBRANCH  10  11
ENDBRANCH   1  10
TORSDOF 13
ENDMDL
MODEL 5
REMARK VINA RESULT:    -6.687      3.973      5.074
REMARK INTER + INTRA:         -12.968
REMARK INTER:                 -12.104
REMARK INTRA:                  -0.863
REMARK UNBOUND:                -1.199
REMARK SMILES CCCCCCC=CCCCCCCCC(=O)[O-]
REMARK SMILES IDX 10 1 11 2 12 3 13 4 14 5 15 6 16 7 17 8 18 9 9 10 8 11 7 12
REMARK SMILES IDX 6 13 5 14 4 15 3 16 2 17 1 18
REMARK H PARENT
REMARK Flexibility Score: inf
ROOT
ATOM      1  C   UNL     1      20.377  70.343  74.691  1.00  0.00     0.004 C 
ENDROOT
BRANCH   1   2
ATOM      2  C   UNL     1      21.111  69.847  75.950  1.00  0.00     0.000 C 
BRANCH   2   3
ATOM      3  C   UNL     1      20.163  69.622  77.139  1.00  0.00     0.000 C 
BRANCH   3   4
ATOM      4  C   UNL     1      20.840  68.878  78.303  1.00  0.00     0.000 C 
BRANCH   4   5
ATOM      5  C   UNL     1      20.307  69.316  79.680  1.00  0.00     0.006 C 
BRANCH   5   6
ATOM      6  C   UNL     1      18.909  69.953  79.646  1.00  0.00     0.053 C 
BRANCH   6   7
ATOM      7  C   UNL     1      17.823  68.932  79.799  1.00  0.00     0.041 C 
ATOM      8  O   UNL     1      16.631  69.295  79.975  1.00  0.00    -0.550 OA
ATOM      9  O   UNL     1      18.136  67.578  79.780  1.00  0.00    -0.550 OA
ENDBRANCH   6   7
ENDBRANCH   5   6
ENDBRANCH   4   5
ENDBRANCH   3   4
ENDBRANCH   2   3
ENDBRANCH   1   2
BRANCH   1  10
ATOM     10  C   UNL     1      19.462  71.537  74.993  1.00  0.00     0.027 C 
BRANCH  10  11
ATOM     11  C   UNL     1      18.205  71.516  74.164  1.00  0.00    -0.031 C 
ATOM     12  C   UNL     1      18.233  71.867  72.871  1.00  0.00    -0.031 C 
BRANCH  12  13
ATOM     13  C   UNL     1      16.988  71.863  72.025  1.00  0.00     0.027 C 
BRANCH  13  14
ATOM     14  C   UNL     1      15.700  71.946  72.863  1.00  0.00     0.004 C 
BRANCH  14  15
ATOM     15  C   UNL     1      14.599  70.959  72.432  1.00  0.00     0.000 C 
BRANCH  15  16
ATOM     16  C   UNL     1      14.291  69.907  73.507  1.00  0.00    -0.000 C 
BRANCH  16  17
ATOM     17  C   UNL     1      13.638  70.553  74.736  1.00  0.00    -0.003 C 
ATOM     18  C   UNL     1      13.991  69.794  76.011  1.00  0.00     0.004 C 
ENDBRANCH  16  17
ENDBRANCH  15  16
ENDBRANCH  14  15
ENDBRANCH  13  14
ENDBRANCH  12  13
ENDBRANCH  10  11
ENDBRANCH   1  10
TORSDOF 13
ENDMDL
MODEL 6
REMARK VINA RESULT:    -6.678      3.092      6.264
REMARK INTER + INTRA:         -12.952
REMARK INTER:                 -11.576
REMARK INTRA:                  -1.376
REMARK UNBOUND:                -1.199
REMARK SMILES CCCCCCC=CCCCCCCCC(=O)[O-]
REMARK SMILES IDX 10 1 11 2 12 3 13 4 14 5 15 6 16 7 17 8 18 9 9 10 8 11 7 12
REMARK SMILES IDX 6 13 5 14 4 15 3 16 2 17 1 18
REMARK H PARENT
REMARK Flexibility Score: inf
ROOT
ATOM      1  C   UNL     1      14.087  69.649  74.391  1.00  0.00     0.004 C 
ENDROOT
BRANCH   1   2
ATOM      2  C   UNL     1      13.659  70.619  73.274  1.00  0.00     0.000 C 
BRANCH   2   3
ATOM      3  C   UNL     1      14.833  71.044  72.377  1.00  0.00     0.000 C 
BRANCH   3   4
ATOM      4  C   UNL     1      15.241  72.511  72.592  1.00  0.00     0.000 C 
BRANCH   4   5
ATOM      5  C   UNL     1      16.649  72.823  72.054  1.00  0.00     0.006 C 
BRANCH   5   6
ATOM      6  C   UNL     1      17.591  71.610  71.998  1.00  0.00     0.053 C 
BRANCH   6   7
ATOM      7  C   UNL     1      18.880  71.866  72.718  1.00  0.00     0.041 C 
ATOM      8  O   UNL     1      19.588  72.862  72.416  1.00  0.00    -0.550 OA
ATOM      9  O   UNL     1      19.313  70.986  73.702  1.00  0.00    -0.550 OA
ENDBRANCH   6   7
ENDBRANCH   5   6
ENDBRANCH   4   5
ENDBRANCH   3   4
ENDBRANCH   2   3
ENDBRANCH   1   2
BRANCH   1  10
ATOM     10  C   UNL     1      13.827  70.232  75.787  1.00  0.00     0.027 C 
BRANCH  10  11
ATOM     11  C   UNL     1      15.101  70.612  76.492  1.00  0.00    -0.031 C 
ATOM     12  C   UNL     1      16.118  71.165  75.817  1.00  0.00    -0.031 C 
BRANCH  12  13
ATOM     13  C   UNL     1      17.406  71.545  76.497  1.00  0.00     0.027 C 
BRANCH  13  14
ATOM     14  C   UNL     1      17.452  71.101  77.971  1.00  0.00     0.004 C 
BRANCH  14  15
ATOM     15  C   UNL     1      18.846  70.665  78.457  1.00  0.00     0.000 C 
BRANCH  15  16
ATOM     16  C   UNL     1      19.682  70.005  77.351  1.00  0.00    -0.000 C 
BRANCH  16  17
ATOM     17  C   UNL     1      20.678  69.000  77.942  1.00  0.00    -0.003 C 
ATOM     18  C   UNL     1      20.213  68.500  79.306  1.00  0.00     0.004 C 
ENDBRANCH  16  17
ENDBRANCH  15  16
ENDBRANCH  14  15
ENDBRANCH  13  14
ENDBRANCH  12  13
ENDBRANCH  10  11
ENDBRANCH   1  10
TORSDOF 13
ENDMDL
MODEL 7
REMARK VINA RESULT:    -6.671      2.231      4.983
REMARK INTER + INTRA:         -12.941
REMARK INTER:                 -11.694
REMARK INTRA:                  -1.247
REMARK UNBOUND:                -1.199
REMARK SMILES CCCCCCC=CCCCCCCCC(=O)[O-]
REMARK SMILES IDX 10 1 11 2 12 3 13 4 14 5 15 6 16 7 17 8 18 9 9 10 8 11 7 12
REMARK SMILES IDX 6 13 5 14 4 15 3 16 2 17 1 18
REMARK H PARENT
REMARK Flexibility Score: inf
ROOT
ATOM      1  C   UNL     1      15.663  70.695  76.979  1.00  0.00     0.004 C 
ENDROOT
BRANCH   1   2
ATOM      2  C   UNL     1      16.547  71.427  75.953  1.00  0.00     0.000 C 
BRANCH   2   3
ATOM      3  C   UNL     1      18.010  71.546  76.409  1.00  0.00     0.000 C 
BRANCH   3   4
ATOM      4  C   UNL     1      18.318  70.677  77.641  1.00  0.00     0.000 C 
BRANCH   4   5
ATOM      5  C   UNL     1      19.683  69.970  77.544  1.00  0.00     0.006 C 
BRANCH   5   6
ATOM      6  C   UNL     1      20.332  70.029  76.152  1.00  0.00     0.053 C 
BRANCH   6   7
ATOM      7  C   UNL     1      21.801  69.738  76.205  1.00  0.00     0.041 C 
ATOM      8  O   UNL     1      22.572  70.202  75.325  1.00  0.00    -0.550 OA
ATOM      9  O   UNL     1      22.313  68.928  77.211  1.00  0.00    -0.550 OA
ENDBRANCH   6   7
ENDBRANCH   5   6
ENDBRANCH   4   5
ENDBRANCH   3   4
ENDBRANCH   2   3
ENDBRANCH   1   2
BRANCH   1  10
ATOM     10  C   UNL     1      14.415  70.083  76.328  1.00  0.00     0.027 C 
BRANCH  10  11
ATOM     11  C   UNL     1      14.172  70.622  74.943  1.00  0.00    -0.031 C 
ATOM     12  C   UNL     1      14.159  69.803  73.883  1.00  0.00    -0.031 C 
BRANCH  12  13
ATOM     13  C   UNL     1      13.928  70.318  72.488  1.00  0.00     0.027 C 
BRANCH  13  14
ATOM     14  C   UNL     1      13.815  71.853  72.433  1.00  0.00     0.004 C 
BRANCH  14  15
ATOM     15  C   UNL     1      15.125  72.572  72.061  1.00  0.00     0.000 C 
BRANCH  15  16
ATOM     16  C   UNL     1      16.347  71.642  72.107  1.00  0.00    -0.000 C 
BRANCH  16  17
ATOM     17  C   UNL     1      17.649  72.442  71.981  1.00  0.00    -0.003 C 
ATOM     18  C   UNL     1      18.839  71.645  72.506  1.00  0.00     0.004 C 
ENDBRANCH  16  17
ENDBRANCH  15  16
ENDBRANCH  14  15
ENDBRANCH  13  14
ENDBRANCH  12  13
ENDBRANCH  10  11
ENDBRANCH   1  10
TORSDOF 13
ENDMDL
MODEL 8
REMARK VINA RESULT:    -6.622      2.743      3.612
REMARK INTER + INTRA:         -12.855
REMARK INTER:                 -11.774
REMARK INTRA:                  -1.080
REMARK UNBOUND:                -1.199
REMARK SMILES CCCCCCC=CCCCCCCCC(=O)[O-]
REMARK SMILES IDX 10 1 11 2 12 3 13 4 14 5 15 6 16 7 17 8 18 9 9 10 8 11 7 12
REMARK SMILES IDX 6 13 5 14 4 15 3 16 2 17 1 18
REMARK H PARENT
REMARK Flexibility Score: inf
ROOT
ATOM      1  C   UNL     1      21.093  69.767  72.240  1.00  0.00     0.004 C 
ENDROOT
BRANCH   1   2
ATOM      2  C   UNL     1      22.234  70.399  73.058  1.00  0.00     0.000 C 
BRANCH   2   3
ATOM      3  C   UNL     1      21.889  70.537  74.549  1.00  0.00     0.000 C 
BRANCH   3   4
ATOM      4  C   UNL     1      20.433  70.147  74.858  1.00  0.00     0.000 C 
BRANCH   4   5
ATOM      5  C   UNL     1      20.062  70.353  76.338  1.00  0.00     0.006 C 
BRANCH   5   6
ATOM      6  C   UNL     1      20.567  69.247  77.280  1.00  0.00     0.053 C 
BRANCH   6   7
ATOM      7  C   UNL     1      19.696  69.100  78.489  1.00  0.00     0.041 C 
ATOM      8  O   UNL     1      18.614  69.739  78.574  1.00  0.00    -0.550 OA
ATOM      9  O   UNL     1      20.096  68.282  79.538  1.00  0.00    -0.550 OA
ENDBRANCH   6   7
ENDBRANCH   5   6
ENDBRANCH   4   5
ENDBRANCH   3   4
ENDBRANCH   2   3
ENDBRANCH   1   2
BRANCH   1  10
ATOM     10  C   UNL     1      20.787  70.570  70.968  1.00  0.00     0.027 C 
BRANCH  10  11
ATOM     11  C   UNL     1      20.041  71.844  71.263  1.00  0.00    -0.031 C 
ATOM     12  C   UNL     1      18.828  71.810  71.832  1.00  0.00    -0.031 C 
BRANCH  12  13
ATOM     13  C   UNL     1      18.059  73.070  72.128  1.00  0.00     0.027 C 
BRANCH  13  14
ATOM     14  C   UNL     1      16.535  72.871  72.027  1.00  0.00     0.004 C 
BRANCH  14  15
ATOM     15  C   UNL     1      16.070  71.420  72.245  1.00  0.00     0.000 C 
BRANCH  15  16
ATOM     16  C   UNL     1      14.599  71.325  72.676  1.00  0.00    -0.000 C 
BRANCH  16  17
ATOM     17  C   UNL     1      14.257  69.908  73.153  1.00  0.00    -0.003 C 
ATOM     18  C   UNL     1      14.114  69.856  74.670  1.00  0.00     0.004 C 
ENDBRANCH  16  17
ENDBRANCH  15  16
ENDBRANCH  14  15
ENDBRANCH  13  14
ENDBRANCH  12  13
ENDBRANCH  10  11
ENDBRANCH   1  10
TORSDOF 13
ENDMDL
MODEL 9
REMARK VINA RESULT:    -6.588      1.827      2.267
REMARK INTER + INTRA:         -12.794
REMARK INTER:                 -11.653
REMARK INTRA:                  -1.141
REMARK UNBOUND:                -1.199
REMARK SMILES CCCCCCC=CCCCCCCCC(=O)[O-]
REMARK SMILES IDX 10 1 11 2 12 3 13 4 14 5 15 6 16 7 17 8 18 9 9 10 8 11 7 12
REMARK SMILES IDX 6 13 5 14 4 15 3 16 2 17 1 18
REMARK H PARENT
REMARK Flexibility Score: inf
ROOT
ATOM      1  C   UNL     1      19.901  71.451  71.300  1.00  0.00     0.004 C 
ENDROOT
BRANCH   1   2
ATOM      2  C   UNL     1      21.422  71.378  71.528  1.00  0.00     0.000 C 
BRANCH   2   3
ATOM      3  C   UNL     1      21.800  70.490  72.725  1.00  0.00     0.000 C 
BRANCH   3   4
ATOM      4  C   UNL     1      20.618  70.249  73.680  1.00  0.00     0.000 C 
BRANCH   4   5
ATOM      5  C   UNL     1      20.840  70.872  75.070  1.00  0.00     0.006 C 
BRANCH   5   6
ATOM      6  C   UNL     1      20.333  70.013  76.240  1.00  0.00     0.053 C 
BRANCH   6   7
ATOM      7  C   UNL     1      21.457  69.375  76.996  1.00  0.00     0.041 C 
ATOM      8  O   UNL     1      21.255  68.881  78.136  1.00  0.00    -0.550 OA
ATOM      9  O   UNL     1      22.736  69.356  76.455  1.00  0.00    -0.550 OA
ENDBRANCH   6   7
ENDBRANCH   5   6
ENDBRANCH   4   5
ENDBRANCH   3   4
ENDBRANCH   2   3
ENDBRANCH   1   2
BRANCH   1  10
ATOM     10  C   UNL     1      19.378  72.891  71.378  1.00  0.00     0.027 C 
BRANCH  10  11
ATOM     11  C   UNL     1      17.933  72.951  71.794  1.00  0.00    -0.031 C 
ATOM     12  C   UNL     1      17.354  71.910  72.408  1.00  0.00    -0.031 C 
BRANCH  12  13
ATOM     13  C   UNL     1      15.908  71.941  72.825  1.00  0.00     0.027 C 
BRANCH  13  14
ATOM     14  C   UNL     1      15.136  70.684  72.386  1.00  0.00     0.004 C 
BRANCH  14  15
ATOM     15  C   UNL     1      13.829  70.440  73.162  1.00  0.00     0.000 C 
BRANCH  15  16
ATOM     16  C   UNL     1      14.043  69.625  74.446  1.00  0.00    -0.000 C 
BRANCH  16  17
ATOM     17  C   UNL     1      13.720  70.464  75.688  1.00  0.00    -0.003 C 
ATOM     18  C   UNL     1      14.904  70.504  76.649  1.00  0.00     0.004 C 
ENDBRANCH  16  17
ENDBRANCH  15  16
ENDBRANCH  14  15
ENDBRANCH  13  14
ENDBRANCH  12  13
ENDBRANCH  10  11
ENDBRANCH   1  10
TORSDOF 13
ENDMDL
