MODEL 1
REMARK VINA RESULT:    -4.591      0.000      0.000
REMARK INTER + INTRA:          -4.591
REMARK INTER:                  -4.591
REMARK INTRA:                   0.000
REMARK UNBOUND:                 0.000
REMARK SMILES CC1=CC(=O)[C@@H]2C[C@H]1C2(C)C
REMARK SMILES IDX 1 1 2 2 3 3 4 4 5 5 6 6 7 7 8 8 9 9 10 10 11 11
REMARK H PARENT
REMARK Flexibility Score: inf
ROOT
ATOM      1  C   UNL     1      64.384  67.653  39.766  1.00  0.00     0.040 C 
ATOM      2  C   UNL     1      65.679  67.179  40.342  1.00  0.00    -0.066 C 
ATOM      3  C   UNL     1      66.162  65.934  40.074  1.00  0.00     0.047 C 
ATOM      4  C   UNL     1      67.486  65.590  40.686  1.00  0.00     0.159 C 
ATOM      5  O   UNL     1      68.055  64.487  40.480  1.00  0.00    -0.295 OA
ATOM      6  C   UNL     1      68.097  66.673  41.576  1.00  0.00     0.067 C 
ATOM      7  C   UNL     1      66.920  67.145  42.458  1.00  0.00     0.021 C 
ATOM      8  C   UNL     1      66.523  68.067  41.283  1.00  0.00     0.022 C 
ATOM      9  C   UNL     1      68.011  68.034  40.829  1.00  0.00    -0.019 C 
ATOM     10  C   UNL     1      68.315  68.060  39.304  1.00  0.00     0.012 C 
ATOM     11  C   UNL     1      68.860  69.137  41.512  1.00  0.00     0.012 C 
ENDROOT
TORSDOF 0
ENDMDL
MODEL 2
REMARK VINA RESULT:    -4.340      1.529      2.897
REMARK INTER + INTRA:          -4.340
REMARK INTER:                  -4.340
REMARK INTRA:                   0.000
REMARK UNBOUND:                 0.000
REMARK SMILES CC1=CC(=O)[C@@H]2C[C@H]1C2(C)C
REMARK SMILES IDX 1 1 2 2 3 3 4 4 5 5 6 6 7 7 8 8 9 9 10 10 11 11
REMARK H PARENT
REMARK Flexibility Score: inf
ROOT
ATOM      1  C   UNL     1      69.276  68.312  38.975  1.00  0.00     0.040 C 
ATOM      2  C   UNL     1      68.143  67.911  39.863  1.00  0.00    -0.066 C 
ATOM      3  C   UNL     1      66.944  67.518  39.349  1.00  0.00     0.047 C 
ATOM      4  C   UNL     1      65.898  67.111  40.342  1.00  0.00     0.159 C 
ATOM      5  O   UNL     1      64.765  66.690  39.990  1.00  0.00    -0.295 OA
ATOM      6  C   UNL     1      66.304  67.240  41.811  1.00  0.00     0.067 C 
ATOM      7  C   UNL     1      66.973  68.630  41.896  1.00  0.00     0.021 C 
ATOM      8  C   UNL     1      68.265  67.941  41.402  1.00  0.00     0.022 C 
ATOM      9  C   UNL     1      67.714  66.611  41.991  1.00  0.00    -0.019 C 
ATOM     10  C   UNL     1      68.034  65.286  41.241  1.00  0.00     0.012 C 
ATOM     11  C   UNL     1      68.091  66.426  43.483  1.00  0.00     0.012 C 
ENDROOT
TORSDOF 0
ENDMDL
MODEL 3
REMARK VINA RESULT:    -4.203      1.563      2.668
REMARK INTER + INTRA:          -4.203
REMARK INTER:                  -4.203
REMARK INTRA:                   0.000
REMARK UNBOUND:                 0.000
REMARK SMILES CC1=CC(=O)[C@@H]2C[C@H]1C2(C)C
REMARK SMILES IDX 1 1 2 2 3 3 4 4 5 5 6 6 7 7 8 8 9 9 10 10 11 11
REMARK H PARENT
REMARK Flexibility Score: inf
ROOT
ATOM      1  C   UNL     1      64.352  67.687  39.949  1.00  0.00     0.040 C 
ATOM      2  C   UNL     1      65.753  67.266  40.254  1.00  0.00    -0.066 C 
ATOM      3  C   UNL     1      66.149  66.991  41.528  1.00  0.00     0.047 C 
ATOM      4  C   UNL     1      67.571  66.549  41.699  1.00  0.00     0.159 C 
ATOM      5  O   UNL     1      68.044  66.228  42.821  1.00  0.00    -0.295 OA
ATOM      6  C   UNL     1      68.404  66.513  40.418  1.00  0.00     0.067 C 
ATOM      7  C   UNL     1      68.074  67.849  39.716  1.00  0.00     0.021 C 
ATOM      8  C   UNL     1      66.823  67.140  39.148  1.00  0.00     0.022 C 
ATOM      9  C   UNL     1      67.582  65.792  39.313  1.00  0.00    -0.019 C 
ATOM     10  C   UNL     1      66.762  64.530  39.708  1.00  0.00     0.012 C 
ATOM     11  C   UNL     1      68.441  65.442  38.071  1.00  0.00     0.012 C 
ENDROOT
TORSDOF 0
ENDMDL
MODEL 4
REMARK VINA RESULT:    -4.179      1.858      3.353
REMARK INTER + INTRA:          -4.179
REMARK INTER:                  -4.179
REMARK INTRA:                   0.000
REMARK UNBOUND:                 0.000
REMARK SMILES CC1=CC(=O)[C@@H]2C[C@H]1C2(C)C
REMARK SMILES IDX 1 1 2 2 3 3 4 4 5 5 6 6 7 7 8 8 9 9 10 10 11 11
REMARK H PARENT
REMARK Flexibility Score: inf
ROOT
ATOM      1  C   UNL     1      69.005  64.721  40.935  1.00  0.00     0.040 C 
ATOM      2  C   UNL     1      68.378  66.068  41.097  1.00  0.00    -0.066 C 
ATOM      3  C   UNL     1      69.136  67.195  41.202  1.00  0.00     0.047 C 
ATOM      4  C   UNL     1      68.388  68.487  41.329  1.00  0.00     0.159 C 
ATOM      5  O   UNL     1      68.974  69.599  41.393  1.00  0.00    -0.295 OA
ATOM      6  C   UNL     1      66.865  68.361  41.374  1.00  0.00     0.067 C 
ATOM      7  C   UNL     1      66.611  67.203  42.365  1.00  0.00     0.021 C 
ATOM      8  C   UNL     1      66.846  66.248  41.172  1.00  0.00     0.022 C 
ATOM      9  C   UNL     1      66.414  67.408  40.231  1.00  0.00    -0.019 C 
ATOM     10  C   UNL     1      67.114  67.531  38.847  1.00  0.00     0.012 C 
ATOM     11  C   UNL     1      64.881  67.443  40.003  1.00  0.00     0.012 C 
ENDROOT
TORSDOF 0
ENDMDL
MODEL 5
REMARK VINA RESULT:    -4.142      1.548      2.197
REMARK INTER + INTRA:          -4.142
REMARK INTER:                  -4.142
REMARK INTRA:                   0.000
REMARK UNBOUND:                 0.000
REMARK SMILES CC1=CC(=O)[C@@H]2C[C@H]1C2(C)C
REMARK SMILES IDX 1 1 2 2 3 3 4 4 5 5 6 6 7 7 8 8 9 9 10 10 11 11
REMARK H PARENT
REMARK Flexibility Score: inf
ROOT
ATOM      1  C   UNL     1      64.476  67.323  39.983  1.00  0.00     0.040 C 
ATOM      2  C   UNL     1      65.954  67.164  40.144  1.00  0.00    -0.066 C 
ATOM      3  C   UNL     1      66.822  67.603  39.191  1.00  0.00     0.047 C 
ATOM      4  C   UNL     1      68.279  67.413  39.483  1.00  0.00     0.159 C 
ATOM      5  O   UNL     1      69.180  67.813  38.700  1.00  0.00    -0.295 OA
ATOM      6  C   UNL     1      68.596  66.703  40.800  1.00  0.00     0.067 C 
ATOM      7  C   UNL     1      67.625  65.502  40.824  1.00  0.00     0.021 C 
ATOM      8  C   UNL     1      66.567  66.480  41.385  1.00  0.00     0.022 C 
ATOM      9  C   UNL     1      67.740  67.347  41.927  1.00  0.00    -0.019 C 
ATOM     10  C   UNL     1      67.569  68.893  41.934  1.00  0.00     0.012 C 
ATOM     11  C   UNL     1      68.196  66.904  43.341  1.00  0.00     0.012 C 
ENDROOT
TORSDOF 0
ENDMDL
MODEL 6
REMARK VINA RESULT:    -4.119     13.723     15.308
REMARK INTER + INTRA:          -4.119
REMARK INTER:                  -4.119
REMARK INTRA:                   0.000
REMARK UNBOUND:                 0.000
REMARK SMILES CC1=CC(=O)[C@@H]2C[C@H]1C2(C)C
REMARK SMILES IDX 1 1 2 2 3 3 4 4 5 5 6 6 7 7 8 8 9 9 10 10 11 11
REMARK H PARENT
REMARK Flexibility Score: inf
ROOT
ATOM      1  C   UNL     1      54.886  70.968  32.061  1.00  0.00     0.040 C 
ATOM      2  C   UNL     1      54.400  70.369  33.341  1.00  0.00    -0.066 C 
ATOM      3  C   UNL     1      53.512  71.025  34.139  1.00  0.00     0.047 C 
ATOM      4  C   UNL     1      53.078  70.305  35.380  1.00  0.00     0.159 C 
ATOM      5  O   UNL     1      52.232  70.789  36.176  1.00  0.00    -0.295 OA
ATOM      6  C   UNL     1      53.733  68.943  35.609  1.00  0.00     0.067 C 
ATOM      7  C   UNL     1      55.231  69.192  35.326  1.00  0.00     0.021 C 
ATOM      8  C   UNL     1      54.892  68.990  33.831  1.00  0.00     0.022 C 
ATOM      9  C   UNL     1      53.673  68.135  34.282  1.00  0.00    -0.019 C 
ATOM     10  C   UNL     1      52.372  68.206  33.433  1.00  0.00     0.012 C 
ATOM     11  C   UNL     1      54.040  66.643  34.482  1.00  0.00     0.012 C 
ENDROOT
TORSDOF 0
ENDMDL
MODEL 7
REMARK VINA RESULT:    -3.973      1.795      3.160
REMARK INTER + INTRA:          -3.973
REMARK INTER:                  -3.973
REMARK INTRA:                   0.000
REMARK UNBOUND:                 0.000
REMARK SMILES CC1=CC(=O)[C@@H]2C[C@H]1C2(C)C
REMARK SMILES IDX 1 1 2 2 3 3 4 4 5 5 6 6 7 7 8 8 9 9 10 10 11 11
REMARK H PARENT
REMARK Flexibility Score: inf
ROOT
ATOM      1  C   UNL     1      67.810  66.512  43.373  1.00  0.00     0.040 C 
ATOM      2  C   UNL     1      67.302  66.541  41.967  1.00  0.00    -0.066 C 
ATOM      3  C   UNL     1      66.157  67.202  41.641  1.00  0.00     0.047 C 
ATOM      4  C   UNL     1      65.770  67.183  40.193  1.00  0.00     0.159 C 
ATOM      5  O   UNL     1      64.756  67.790  39.760  1.00  0.00    -0.295 OA
ATOM      6  C   UNL     1      66.694  66.378  39.279  1.00  0.00     0.067 C 
ATOM      7  C   UNL     1      66.930  65.059  40.048  1.00  0.00     0.021 C 
ATOM      8  C   UNL     1      68.037  65.812  40.822  1.00  0.00     0.022 C 
ATOM      9  C   UNL     1      68.166  66.764  39.599  1.00  0.00    -0.019 C 
ATOM     10  C   UNL     1      68.496  68.261  39.865  1.00  0.00     0.012 C 
ATOM     11  C   UNL     1      69.161  66.230  38.537  1.00  0.00     0.012 C 
ENDROOT
TORSDOF 0
ENDMDL
MODEL 8
REMARK VINA RESULT:    -3.968      1.531      3.026
REMARK INTER + INTRA:          -3.968
REMARK INTER:                  -3.968
REMARK INTRA:                   0.000
REMARK UNBOUND:                 0.000
REMARK SMILES CC1=CC(=O)[C@@H]2C[C@H]1C2(C)C
REMARK SMILES IDX 1 1 2 2 3 3 4 4 5 5 6 6 7 7 8 8 9 9 10 10 11 11
REMARK H PARENT
REMARK Flexibility Score: inf
ROOT
ATOM      1  C   UNL     1      69.190  64.611  40.688  1.00  0.00     0.040 C 
ATOM      2  C   UNL     1      68.179  65.708  40.599  1.00  0.00    -0.066 C 
ATOM      3  C   UNL     1      66.894  65.461  40.219  1.00  0.00     0.047 C 
ATOM      4  C   UNL     1      65.970  66.639  40.199  1.00  0.00     0.159 C 
ATOM      5  O   UNL     1      64.751  66.532  39.905  1.00  0.00    -0.295 OA
ATOM      6  C   UNL     1      66.609  67.980  40.562  1.00  0.00     0.067 C 
ATOM      7  C   UNL     1      67.928  67.999  39.757  1.00  0.00     0.021 C 
ATOM      8  C   UNL     1      68.542  67.176  40.912  1.00  0.00     0.022 C 
ATOM      9  C   UNL     1      67.462  67.788  41.849  1.00  0.00    -0.019 C 
ATOM     10  C   UNL     1      66.888  66.900  42.989  1.00  0.00     0.012 C 
ATOM     11  C   UNL     1      67.911  69.138  42.465  1.00  0.00     0.012 C 
ENDROOT
TORSDOF 0
ENDMDL
MODEL 9
REMARK VINA RESULT:    -3.941     13.527     15.813
REMARK INTER + INTRA:          -3.941
REMARK INTER:                  -3.941
REMARK INTRA:                   0.000
REMARK UNBOUND:                 0.000
REMARK SMILES CC1=CC(=O)[C@@H]2C[C@H]1C2(C)C
REMARK SMILES IDX 1 1 2 2 3 3 4 4 5 5 6 6 7 7 8 8 9 9 10 10 11 11
REMARK H PARENT
REMARK Flexibility Score: inf
ROOT
ATOM      1  C   UNL     1      56.451  69.679  33.598  1.00  0.00     0.040 C 
ATOM      2  C   UNL     1      54.981  69.411  33.635  1.00  0.00    -0.066 C 
ATOM      3  C   UNL     1      54.473  68.324  34.280  1.00  0.00     0.047 C 
ATOM      4  C   UNL     1      52.981  68.185  34.270  1.00  0.00     0.159 C 
ATOM      5  O   UNL     1      52.390  67.246  34.865  1.00  0.00    -0.295 OA
ATOM      6  C   UNL     1      52.227  69.263  33.491  1.00  0.00     0.067 C 
ATOM      7  C   UNL     1      53.015  69.391  32.168  1.00  0.00     0.021 C 
ATOM      8  C   UNL     1      53.968  70.340  32.930  1.00  0.00     0.022 C 
ATOM      9  C   UNL     1      52.792  70.653  33.898  1.00  0.00    -0.019 C 
ATOM     10  C   UNL     1      53.120  70.907  35.396  1.00  0.00     0.012 C 
ATOM     11  C   UNL     1      51.906  71.820  33.391  1.00  0.00     0.012 C 
ENDROOT
TORSDOF 0
ENDMDL
