MODEL 1
REMARK VINA RESULT:    -5.328      0.000      0.000
REMARK INTER + INTRA:          -5.795
REMARK INTER:                  -5.795
REMARK INTRA:                   0.000
REMARK UNBOUND:                 0.000
REMARK SMILES Cc1cc(O)c2c(c1)C(=O)c1cc(O)cc(O)c1C2=O
REMARK SMILES IDX 1 1 2 2 8 3 7 4 6 5 4 6 3 7 19 8 20 9 18 10 11 11 9 12 10 13
REMARK SMILES IDX 12 14 13 15 15 16 16 17 5 18 17 20 14 22
REMARK H PARENT 5 19 17 21 14 23
REMARK Flexibility Score: inf
ROOT
ATOM      1  C   UNL     1      19.361 -45.651  -1.145  1.00  0.00     0.044 C 
ATOM      2  C   UNL     1      19.056 -47.113  -0.996  1.00  0.00    -0.047 A 
ATOM      3  C   UNL     1      18.610 -47.856  -2.096  1.00  0.00     0.016 A 
ATOM      4  C   UNL     1      18.286 -49.217  -1.958  1.00  0.00     0.038 A 
ATOM      5  C   UNL     1      18.403 -49.842  -0.698  1.00  0.00     0.076 A 
ATOM      6  C   UNL     1      18.827 -49.081   0.415  1.00  0.00     0.127 A 
ATOM      7  C   UNL     1      19.145 -47.726   0.259  1.00  0.00     0.050 A 
ATOM      8  C   UNL     1      18.096 -51.291  -0.578  1.00  0.00     0.201 C 
ATOM      9  O   UNL     1      18.532 -51.936   0.413  1.00  0.00    -0.288 OA
ATOM     10  C   UNL     1      17.380 -51.998  -1.677  1.00  0.00     0.076 A 
ATOM     11  C   UNL     1      17.325 -51.381  -2.950  1.00  0.00     0.041 A 
ATOM     12  C   UNL     1      17.823 -49.997  -3.128  1.00  0.00     0.194 C 
ATOM     13  O   UNL     1      17.836 -49.475  -4.277  1.00  0.00    -0.289 OA
ATOM     14  C   UNL     1      16.787 -52.081  -4.044  1.00  0.00     0.059 A 
ATOM     15  C   UNL     1      16.290 -53.377  -3.884  1.00  0.00     0.120 A 
ATOM     16  C   UNL     1      16.299 -53.970  -2.623  1.00  0.00     0.093 A 
ATOM     17  C   UNL     1      16.803 -53.288  -1.513  1.00  0.00     0.131 A 
ENDROOT
BRANCH   6  18
ATOM     18  O   UNL     1      18.923 -49.664   1.680  1.00  0.00    -0.507 OA
ATOM     19  H   UNL     1      19.661 -50.319   1.910  1.00  0.00     0.293 HD
ENDBRANCH   6  18
BRANCH  17  20
ATOM     20  O   UNL     1      16.676 -53.912  -0.269  1.00  0.00    -0.507 OA
ATOM     21  H   UNL     1      16.116 -54.737  -0.109  1.00  0.00     0.293 HD
ENDBRANCH  17  20
BRANCH  15  22
ATOM     22  O   UNL     1      15.773 -54.078  -4.971  1.00  0.00    -0.508 OA
ATOM     23  H   UNL     1      15.029 -53.696  -5.543  1.00  0.00     0.293 HD
ENDBRANCH  15  22
TORSDOF 3
ENDMDL
MODEL 2
REMARK VINA RESULT:    -5.054      1.311      1.829
REMARK INTER + INTRA:          -5.497
REMARK INTER:                  -5.497
REMARK INTRA:                   0.000
REMARK UNBOUND:                 0.000
REMARK SMILES Cc1cc(O)c2c(c1)C(=O)c1cc(O)cc(O)c1C2=O
REMARK SMILES IDX 1 1 2 2 8 3 7 4 6 5 4 6 3 7 19 8 20 9 18 10 11 11 9 12 10 13
REMARK SMILES IDX 12 14 13 15 15 16 16 17 5 18 17 20 14 22
REMARK H PARENT 5 19 17 21 14 23
REMARK Flexibility Score: inf
ROOT
ATOM      1  C   UNL     1      18.949 -44.250   0.572  1.00  0.00     0.044 C 
ATOM      2  C   UNL     1      18.849 -45.732   0.364  1.00  0.00    -0.047 A 
ATOM      3  C   UNL     1      18.605 -46.250  -0.913  1.00  0.00     0.016 A 
ATOM      4  C   UNL     1      18.472 -47.635  -1.113  1.00  0.00     0.038 A 
ATOM      5  C   UNL     1      18.577 -48.515  -0.015  1.00  0.00     0.076 A 
ATOM      6  C   UNL     1      18.797 -47.987   1.278  1.00  0.00     0.127 A 
ATOM      7  C   UNL     1      18.925 -46.604   1.456  1.00  0.00     0.050 A 
ATOM      8  C   UNL     1      18.476 -49.980  -0.249  1.00  0.00     0.201 C 
ATOM      9  O   UNL     1      18.921 -50.778   0.619  1.00  0.00    -0.288 OA
ATOM     10  C   UNL     1      17.960 -50.496  -1.548  1.00  0.00     0.076 A 
ATOM     11  C   UNL     1      17.917 -49.613  -2.653  1.00  0.00     0.041 A 
ATOM     12  C   UNL     1      18.222 -48.175  -2.469  1.00  0.00     0.194 C 
ATOM     13  O   UNL     1      18.250 -47.404  -3.468  1.00  0.00    -0.289 OA
ATOM     14  C   UNL     1      17.575 -50.102  -3.927  1.00  0.00     0.059 A 
ATOM     15  C   UNL     1      17.261 -51.451  -4.109  1.00  0.00     0.120 A 
ATOM     16  C   UNL     1      17.256 -52.314  -3.016  1.00  0.00     0.093 A 
ATOM     17  C   UNL     1      17.566 -51.850  -1.734  1.00  0.00     0.131 A 
ENDROOT
BRANCH   6  18
ATOM     18  O   UNL     1      18.875 -48.830   2.386  1.00  0.00    -0.507 OA
ATOM     19  H   UNL     1      19.048 -49.824   2.289  1.00  0.00     0.293 HD
ENDBRANCH   6  18
BRANCH  17  20
ATOM     20  O   UNL     1      17.432 -52.755  -0.678  1.00  0.00    -0.507 OA
ATOM     21  H   UNL     1      17.925 -52.671   0.199  1.00  0.00     0.293 HD
ENDBRANCH  17  20
BRANCH  15  22
ATOM     22  O   UNL     1      16.939 -51.940  -5.373  1.00  0.00    -0.508 OA
ATOM     23  H   UNL     1      16.580 -51.333  -6.101  1.00  0.00     0.293 HD
ENDBRANCH  15  22
TORSDOF 3
ENDMDL
MODEL 3
REMARK VINA RESULT:    -5.001      2.220      3.870
REMARK INTER + INTRA:          -5.439
REMARK INTER:                  -5.439
REMARK INTRA:                   0.000
REMARK UNBOUND:                 0.000
REMARK SMILES Cc1cc(O)c2c(c1)C(=O)c1cc(O)cc(O)c1C2=O
REMARK SMILES IDX 1 1 2 2 8 3 7 4 6 5 4 6 3 7 19 8 20 9 18 10 11 11 9 12 10 13
REMARK SMILES IDX 12 14 13 15 15 16 16 17 5 18 17 20 14 22
REMARK H PARENT 5 19 17 21 14 23
REMARK Flexibility Score: inf
ROOT
ATOM      1  C   UNL     1      19.268 -48.167   1.905  1.00  0.00     0.044 C 
ATOM      2  C   UNL     1      18.915 -48.824   0.603  1.00  0.00    -0.047 A 
ATOM      3  C   UNL     1      18.613 -48.046  -0.521  1.00  0.00     0.016 A 
ATOM      4  C   UNL     1      18.245 -48.650  -1.735  1.00  0.00     0.038 A 
ATOM      5  C   UNL     1      18.171 -50.057  -1.824  1.00  0.00     0.076 A 
ATOM      6  C   UNL     1      18.451 -50.839  -0.679  1.00  0.00     0.127 A 
ATOM      7  C   UNL     1      18.815 -50.217   0.522  1.00  0.00     0.050 A 
ATOM      8  C   UNL     1      17.821 -50.683  -3.126  1.00  0.00     0.201 C 
ATOM      9  O   UNL     1      18.100 -51.895  -3.326  1.00  0.00    -0.288 OA
ATOM     10  C   UNL     1      17.251 -49.854  -4.225  1.00  0.00     0.076 A 
ATOM     11  C   UNL     1      17.387 -48.447  -4.146  1.00  0.00     0.041 A 
ATOM     12  C   UNL     1      17.934 -47.820  -2.920  1.00  0.00     0.194 C 
ATOM     13  O   UNL     1      18.119 -46.572  -2.879  1.00  0.00    -0.289 OA
ATOM     14  C   UNL     1      16.993 -47.644  -5.231  1.00  0.00     0.059 A 
ATOM     15  C   UNL     1      16.453 -48.221  -6.383  1.00  0.00     0.120 A 
ATOM     16  C   UNL     1      16.273 -49.601  -6.446  1.00  0.00     0.093 A 
ATOM     17  C   UNL     1      16.631 -50.421  -5.372  1.00  0.00     0.131 A 
ENDROOT
BRANCH   6  18
ATOM     18  O   UNL     1      18.357 -52.230  -0.729  1.00  0.00    -0.507 OA
ATOM     19  H   UNL     1      19.062 -52.827  -0.312  1.00  0.00     0.293 HD
ENDBRANCH   6  18
BRANCH  17  20
ATOM     20  O   UNL     1      16.318 -51.779  -5.475  1.00  0.00    -0.507 OA
ATOM     21  H   UNL     1      16.361 -52.301  -6.338  1.00  0.00     0.293 HD
ENDBRANCH  17  20
BRANCH  15  22
ATOM     22  O   UNL     1      16.078 -47.428  -7.465  1.00  0.00    -0.508 OA
ATOM     23  H   UNL     1      16.741 -46.822  -7.934  1.00  0.00     0.293 HD
ENDBRANCH  15  22
TORSDOF 3
ENDMDL
MODEL 4
REMARK VINA RESULT:    -4.998      2.352      4.456
REMARK INTER + INTRA:          -5.436
REMARK INTER:                  -5.436
REMARK INTRA:                   0.000
REMARK UNBOUND:                 0.000
REMARK SMILES Cc1cc(O)c2c(c1)C(=O)c1cc(O)cc(O)c1C2=O
REMARK SMILES IDX 1 1 2 2 8 3 7 4 6 5 4 6 3 7 19 8 20 9 18 10 11 11 9 12 10 13
REMARK SMILES IDX 12 14 13 15 15 16 16 17 5 18 17 20 14 22
REMARK H PARENT 5 19 17 21 14 23
REMARK Flexibility Score: inf
ROOT
ATOM      1  C   UNL     1      16.262 -48.255  -8.124  1.00  0.00     0.044 C 
ATOM      2  C   UNL     1      16.853 -48.556  -6.778  1.00  0.00    -0.047 A 
ATOM      3  C   UNL     1      16.560 -49.765  -6.134  1.00  0.00     0.016 A 
ATOM      4  C   UNL     1      17.078 -50.042  -4.857  1.00  0.00     0.038 A 
ATOM      5  C   UNL     1      17.896 -49.091  -4.211  1.00  0.00     0.076 A 
ATOM      6  C   UNL     1      18.167 -47.860  -4.853  1.00  0.00     0.127 A 
ATOM      7  C   UNL     1      17.641 -47.603  -6.125  1.00  0.00     0.050 A 
ATOM      8  C   UNL     1      18.469 -49.415  -2.878  1.00  0.00     0.201 C 
ATOM      9  O   UNL     1      19.465 -48.767  -2.458  1.00  0.00    -0.288 OA
ATOM     10  C   UNL     1      17.945 -50.572  -2.100  1.00  0.00     0.076 A 
ATOM     11  C   UNL     1      17.176 -51.547  -2.779  1.00  0.00     0.041 A 
ATOM     12  C   UNL     1      16.770 -51.325  -4.187  1.00  0.00     0.194 C 
ATOM     13  O   UNL     1      16.143 -52.226  -4.811  1.00  0.00    -0.289 OA
ATOM     14  C   UNL     1      16.789 -52.723  -2.113  1.00  0.00     0.059 A 
ATOM     15  C   UNL     1      17.144 -52.932  -0.778  1.00  0.00     0.120 A 
ATOM     16  C   UNL     1      17.860 -51.955  -0.091  1.00  0.00     0.093 A 
ATOM     17  C   UNL     1      18.235 -50.764  -0.721  1.00  0.00     0.131 A 
ENDROOT
BRANCH   6  18
ATOM     18  O   UNL     1      18.947 -46.888  -4.225  1.00  0.00    -0.507 OA
ATOM     19  H   UNL     1      19.918 -46.741  -4.476  1.00  0.00     0.293 HD
ENDBRANCH   6  18
BRANCH  17  20
ATOM     20  O   UNL     1      18.856 -49.793   0.069  1.00  0.00    -0.507 OA
ATOM     21  H   UNL     1      19.769 -49.907   0.485  1.00  0.00     0.293 HD
ENDBRANCH  17  20
BRANCH  15  22
ATOM     22  O   UNL     1      16.776 -54.104  -0.121  1.00  0.00    -0.508 OA
ATOM     23  H   UNL     1      16.585 -54.960  -0.629  1.00  0.00     0.293 HD
ENDBRANCH  15  22
TORSDOF 3
ENDMDL
MODEL 5
REMARK VINA RESULT:    -4.963      4.818      7.088
REMARK INTER + INTRA:          -5.399
REMARK INTER:                  -5.399
REMARK INTRA:                   0.000
REMARK UNBOUND:                 0.000
REMARK SMILES Cc1cc(O)c2c(c1)C(=O)c1cc(O)cc(O)c1C2=O
REMARK SMILES IDX 1 1 2 2 8 3 7 4 6 5 4 6 3 7 19 8 20 9 18 10 11 11 9 12 10 13
REMARK SMILES IDX 12 14 13 15 15 16 16 17 5 18 17 20 14 22
REMARK H PARENT 5 19 17 21 14 23
REMARK Flexibility Score: inf
ROOT
ATOM      1  C   UNL     1      15.366 -53.615  -3.019  1.00  0.00     0.044 C 
ATOM      2  C   UNL     1      16.199 -52.804  -3.968  1.00  0.00    -0.047 A 
ATOM      3  C   UNL     1      15.659 -51.669  -4.586  1.00  0.00     0.016 A 
ATOM      4  C   UNL     1      16.418 -50.923  -5.504  1.00  0.00     0.038 A 
ATOM      5  C   UNL     1      17.735 -51.324  -5.815  1.00  0.00     0.076 A 
ATOM      6  C   UNL     1      18.267 -52.485  -5.209  1.00  0.00     0.127 A 
ATOM      7  C   UNL     1      17.494 -53.216  -4.297  1.00  0.00     0.050 A 
ATOM      8  C   UNL     1      18.539 -50.501  -6.756  1.00  0.00     0.201 C 
ATOM      9  O   UNL     1      19.793 -50.619  -6.766  1.00  0.00    -0.288 OA
ATOM     10  C   UNL     1      17.877 -49.465  -7.597  1.00  0.00     0.076 A 
ATOM     11  C   UNL     1      16.578 -49.033  -7.235  1.00  0.00     0.041 A 
ATOM     12  C   UNL     1      15.843 -49.720  -6.147  1.00  0.00     0.194 C 
ATOM     13  O   UNL     1      14.714 -49.290  -5.780  1.00  0.00    -0.289 OA
ATOM     14  C   UNL     1      15.983 -47.957  -7.915  1.00  0.00     0.059 A 
ATOM     15  C   UNL     1      16.656 -47.317  -8.959  1.00  0.00     0.120 A 
ATOM     16  C   UNL     1      17.914 -47.768  -9.351  1.00  0.00     0.093 A 
ATOM     17  C   UNL     1      18.518 -48.853  -8.709  1.00  0.00     0.131 A 
ENDROOT
BRANCH   6  18
ATOM     18  O   UNL     1      19.554 -52.923  -5.520  1.00  0.00    -0.507 OA
ATOM     19  H   UNL     1      20.297 -52.273  -5.753  1.00  0.00     0.293 HD
ENDBRANCH   6  18
BRANCH  17  20
ATOM     20  O   UNL     1      19.731 -49.310  -9.234  1.00  0.00    -0.507 OA
ATOM     21  H   UNL     1      19.820 -49.753 -10.137  1.00  0.00     0.293 HD
ENDBRANCH  17  20
BRANCH  15  22
ATOM     22  O   UNL     1      16.074 -46.239  -9.623  1.00  0.00    -0.508 OA
ATOM     23  H   UNL     1      15.455 -46.374 -10.414  1.00  0.00     0.293 HD
ENDBRANCH  15  22
TORSDOF 3
ENDMDL
MODEL 6
REMARK VINA RESULT:    -4.960      6.504     10.125
REMARK INTER + INTRA:          -5.395
REMARK INTER:                  -5.395
REMARK INTRA:                   0.000
REMARK UNBOUND:                 0.000
REMARK SMILES Cc1cc(O)c2c(c1)C(=O)c1cc(O)cc(O)c1C2=O
REMARK SMILES IDX 1 1 2 2 8 3 7 4 6 5 4 6 3 7 19 8 20 9 18 10 11 11 9 12 10 13
REMARK SMILES IDX 12 14 13 15 15 16 16 17 5 18 17 20 14 22
REMARK H PARENT 5 19 17 21 14 23
REMARK Flexibility Score: inf
ROOT
ATOM      1  C   UNL     1      16.330 -49.973  -6.526  1.00  0.00     0.044 C 
ATOM      2  C   UNL     1      16.835 -48.715  -7.168  1.00  0.00    -0.047 A 
ATOM      3  C   UNL     1      18.006 -48.106  -6.701  1.00  0.00     0.016 A 
ATOM      4  C   UNL     1      18.468 -46.906  -7.271  1.00  0.00     0.038 A 
ATOM      5  C   UNL     1      17.742 -46.304  -8.320  1.00  0.00     0.076 A 
ATOM      6  C   UNL     1      16.545 -46.908  -8.771  1.00  0.00     0.127 A 
ATOM      7  C   UNL     1      16.101 -48.102  -8.189  1.00  0.00     0.050 A 
ATOM      8  C   UNL     1      18.265 -45.058  -8.940  1.00  0.00     0.201 C 
ATOM      9  O   UNL     1      17.854 -44.714 -10.080  1.00  0.00    -0.288 OA
ATOM     10  C   UNL     1      19.350 -44.288  -8.270  1.00  0.00     0.076 A 
ATOM     11  C   UNL     1      20.106 -44.930  -7.261  1.00  0.00     0.041 A 
ATOM     12  C   UNL     1      19.711 -46.273  -6.776  1.00  0.00     0.194 C 
ATOM     13  O   UNL     1      20.426 -46.872  -5.926  1.00  0.00    -0.289 OA
ATOM     14  C   UNL     1      21.228 -44.286  -6.710  1.00  0.00     0.059 A 
ATOM     15  C   UNL     1      21.596 -43.009  -7.141  1.00  0.00     0.120 A 
ATOM     16  C   UNL     1      20.828 -42.353  -8.100  1.00  0.00     0.093 A 
ATOM     17  C   UNL     1      19.692 -42.959  -8.645  1.00  0.00     0.131 A 
ENDROOT
BRANCH   6  18
ATOM     18  O   UNL     1      15.790 -46.319  -9.785  1.00  0.00    -0.507 OA
ATOM     19  H   UNL     1      16.133 -46.255 -10.737  1.00  0.00     0.293 HD
ENDBRANCH   6  18
BRANCH  17  20
ATOM     20  O   UNL     1      18.918 -42.192  -9.519  1.00  0.00    -0.507 OA
ATOM     21  H   UNL     1      19.031 -42.199 -10.523  1.00  0.00     0.293 HD
ENDBRANCH  17  20
BRANCH  15  22
ATOM     22  O   UNL     1      22.718 -42.377  -6.609  1.00  0.00    -0.508 OA
ATOM     23  H   UNL     1      23.149 -42.695  -5.749  1.00  0.00     0.293 HD
ENDBRANCH  15  22
TORSDOF 3
ENDMDL
MODEL 7
REMARK VINA RESULT:    -4.861     11.201     13.329
REMARK INTER + INTRA:          -5.288
REMARK INTER:                  -5.288
REMARK INTRA:                   0.000
REMARK UNBOUND:                 0.000
REMARK SMILES Cc1cc(O)c2c(c1)C(=O)c1cc(O)cc(O)c1C2=O
REMARK SMILES IDX 1 1 2 2 8 3 7 4 6 5 4 6 3 7 19 8 20 9 18 10 11 11 9 12 10 13
REMARK SMILES IDX 12 14 13 15 15 16 16 17 5 18 17 20 14 22
REMARK H PARENT 5 19 17 21 14 23
REMARK Flexibility Score: inf
ROOT
ATOM      1  C   UNL     1      16.245 -33.875   0.886  1.00  0.00     0.044 C 
ATOM      2  C   UNL     1      16.874 -35.223   1.084  1.00  0.00    -0.047 A 
ATOM      3  C   UNL     1      16.386 -36.089   2.070  1.00  0.00     0.016 A 
ATOM      4  C   UNL     1      16.991 -37.339   2.290  1.00  0.00     0.038 A 
ATOM      5  C   UNL     1      18.105 -37.725   1.515  1.00  0.00     0.076 A 
ATOM      6  C   UNL     1      18.611 -36.836   0.539  1.00  0.00     0.127 A 
ATOM      7  C   UNL     1      17.995 -35.595   0.335  1.00  0.00     0.050 A 
ATOM      8  C   UNL     1      18.708 -39.067   1.731  1.00  0.00     0.201 C 
ATOM      9  O   UNL     1      19.439 -39.569   0.836  1.00  0.00    -0.288 OA
ATOM     10  C   UNL     1      18.355 -39.859   2.943  1.00  0.00     0.076 A 
ATOM     11  C   UNL     1      17.200 -39.492   3.674  1.00  0.00     0.041 A 
ATOM     12  C   UNL     1      16.465 -38.252   3.330  1.00  0.00     0.194 C 
ATOM     13  O   UNL     1      15.396 -37.964   3.937  1.00  0.00    -0.289 OA
ATOM     14  C   UNL     1      16.756 -40.302   4.734  1.00  0.00     0.059 A 
ATOM     15  C   UNL     1      17.454 -41.460   5.084  1.00  0.00     0.120 A 
ATOM     16  C   UNL     1      18.618 -41.799   4.399  1.00  0.00     0.093 A 
ATOM     17  C   UNL     1      19.098 -40.999   3.358  1.00  0.00     0.131 A 
ENDROOT
BRANCH   6  18
ATOM     18  O   UNL     1      19.730 -37.178  -0.222  1.00  0.00    -0.507 OA
ATOM     19  H   UNL     1      20.606 -36.674  -0.137  1.00  0.00     0.293 HD
ENDBRANCH   6  18
BRANCH  17  20
ATOM     20  O   UNL     1      20.327 -41.351   2.796  1.00  0.00    -0.507 OA
ATOM     21  H   UNL     1      20.535 -42.270   2.432  1.00  0.00     0.293 HD
ENDBRANCH  17  20
BRANCH  15  22
ATOM     22  O   UNL     1      17.006 -42.272   6.123  1.00  0.00    -0.508 OA
ATOM     23  H   UNL     1      17.531 -43.083   6.428  1.00  0.00     0.293 HD
ENDBRANCH  15  22
TORSDOF 3
ENDMDL
MODEL 8
REMARK VINA RESULT:    -4.816      8.858     11.397
REMARK INTER + INTRA:          -5.239
REMARK INTER:                  -5.239
REMARK INTRA:                   0.000
REMARK UNBOUND:                 0.000
REMARK SMILES Cc1cc(O)c2c(c1)C(=O)c1cc(O)cc(O)c1C2=O
REMARK SMILES IDX 1 1 2 2 8 3 7 4 6 5 4 6 3 7 19 8 20 9 18 10 11 11 9 12 10 13
REMARK SMILES IDX 12 14 13 15 15 16 16 17 5 18 17 20 14 22
REMARK H PARENT 5 19 17 21 14 23
REMARK Flexibility Score: inf
ROOT
ATOM      1  C   UNL     1      16.148 -36.491   4.091  1.00  0.00     0.044 C 
ATOM      2  C   UNL     1      16.709 -37.708   3.416  1.00  0.00    -0.047 A 
ATOM      3  C   UNL     1      17.487 -37.577   2.259  1.00  0.00     0.016 A 
ATOM      4  C   UNL     1      17.986 -38.712   1.598  1.00  0.00     0.038 A 
ATOM      5  C   UNL     1      17.696 -39.999   2.098  1.00  0.00     0.076 A 
ATOM      6  C   UNL     1      16.889 -40.129   3.251  1.00  0.00     0.127 A 
ATOM      7  C   UNL     1      16.399 -38.986   3.896  1.00  0.00     0.050 A 
ATOM      8  C   UNL     1      18.266 -41.188   1.411  1.00  0.00     0.201 C 
ATOM      9  O   UNL     1      18.332 -42.286   2.026  1.00  0.00    -0.288 OA
ATOM     10  C   UNL     1      18.861 -41.053   0.052  1.00  0.00     0.076 A 
ATOM     11  C   UNL     1      19.199 -39.758  -0.409  1.00  0.00     0.041 A 
ATOM     12  C   UNL     1      18.814 -38.564   0.380  1.00  0.00     0.194 C 
ATOM     13  O   UNL     1      19.177 -37.416   0.002  1.00  0.00    -0.289 OA
ATOM     14  C   UNL     1      19.894 -39.606  -1.622  1.00  0.00     0.059 A 
ATOM     15  C   UNL     1      20.240 -40.722  -2.387  1.00  0.00     0.120 A 
ATOM     16  C   UNL     1      19.868 -41.995  -1.961  1.00  0.00     0.093 A 
ATOM     17  C   UNL     1      19.154 -42.174  -0.773  1.00  0.00     0.131 A 
ENDROOT
BRANCH   6  18
ATOM     18  O   UNL     1      16.560 -41.389   3.751  1.00  0.00    -0.507 OA
ATOM     19  H   UNL     1      16.162 -42.110   3.160  1.00  0.00     0.293 HD
ENDBRANCH   6  18
BRANCH  17  20
ATOM     20  O   UNL     1      18.727 -43.471  -0.474  1.00  0.00    -0.507 OA
ATOM     21  H   UNL     1      17.772 -43.708  -0.245  1.00  0.00     0.293 HD
ENDBRANCH  17  20
BRANCH  15  22
ATOM     22  O   UNL     1      20.944 -40.574  -3.580  1.00  0.00    -0.508 OA
ATOM     23  H   UNL     1      20.994 -39.683  -4.059  1.00  0.00     0.293 HD
ENDBRANCH  15  22
TORSDOF 3
ENDMDL
MODEL 9
REMARK VINA RESULT:    -4.716      5.235      8.182
REMARK INTER + INTRA:          -5.130
REMARK INTER:                  -5.130
REMARK INTRA:                   0.000
REMARK UNBOUND:                 0.000
REMARK SMILES Cc1cc(O)c2c(c1)C(=O)c1cc(O)cc(O)c1C2=O
REMARK SMILES IDX 1 1 2 2 8 3 7 4 6 5 4 6 3 7 19 8 20 9 18 10 11 11 9 12 10 13
REMARK SMILES IDX 12 14 13 15 15 16 16 17 5 18 17 20 14 22
REMARK H PARENT 5 19 17 21 14 23
REMARK Flexibility Score: inf
ROOT
ATOM      1  C   UNL     1      18.599 -50.481  -2.803  1.00  0.00     0.044 C 
ATOM      2  C   UNL     1      18.183 -49.744  -4.042  1.00  0.00    -0.047 A 
ATOM      3  C   UNL     1      19.029 -48.781  -4.606  1.00  0.00     0.016 A 
ATOM      4  C   UNL     1      18.633 -48.058  -5.745  1.00  0.00     0.038 A 
ATOM      5  C   UNL     1      17.369 -48.298  -6.324  1.00  0.00     0.076 A 
ATOM      6  C   UNL     1      16.507 -49.252  -5.735  1.00  0.00     0.127 A 
ATOM      7  C   UNL     1      16.919 -49.962  -4.600  1.00  0.00     0.050 A 
ATOM      8  C   UNL     1      16.982 -47.555  -7.552  1.00  0.00     0.201 C 
ATOM      9  O   UNL     1      16.052 -47.999  -8.277  1.00  0.00    -0.288 OA
ATOM     10  C   UNL     1      17.764 -46.363  -7.982  1.00  0.00     0.076 A 
ATOM     11  C   UNL     1      19.055 -46.172  -7.435  1.00  0.00     0.041 A 
ATOM     12  C   UNL     1      19.536 -47.047  -6.340  1.00  0.00     0.194 C 
ATOM     13  O   UNL     1      20.712 -46.919  -5.901  1.00  0.00    -0.289 OA
ATOM     14  C   UNL     1      19.878 -45.142  -7.924  1.00  0.00     0.059 A 
ATOM     15  C   UNL     1      19.427 -44.294  -8.938  1.00  0.00     0.120 A 
ATOM     16  C   UNL     1      18.140 -44.448  -9.448  1.00  0.00     0.093 A 
ATOM     17  C   UNL     1      17.290 -45.446  -8.961  1.00  0.00     0.131 A 
ENDROOT
BRANCH   6  18
ATOM     18  O   UNL     1      15.239 -49.489  -6.267  1.00  0.00    -0.507 OA
ATOM     19  H   UNL     1      15.063 -50.259  -6.902  1.00  0.00     0.293 HD
ENDBRANCH   6  18
BRANCH  17  20
ATOM     20  O   UNL     1      15.981 -45.463  -9.449  1.00  0.00    -0.507 OA
ATOM     21  H   UNL     1      15.347 -44.680  -9.383  1.00  0.00     0.293 HD
ENDBRANCH  17  20
BRANCH  15  22
ATOM     22  O   UNL     1      20.247 -43.284  -9.436  1.00  0.00    -0.508 OA
ATOM     23  H   UNL     1      19.960 -42.313  -9.426  1.00  0.00     0.293 HD
ENDBRANCH  15  22
TORSDOF 3
ENDMDL
