MODEL 1
REMARK VINA RESULT:    -3.597      0.000      0.000
REMARK INTER + INTRA:          -5.666
REMARK INTER:                  -5.068
REMARK INTRA:                  -0.597
REMARK UNBOUND:                -0.597
REMARK SMILES CCCCCCCCC(=O)[O-]
REMARK SMILES IDX 6 1 7 2 8 3 9 4 10 5 11 6 5 7 4 8 3 9 2 10 1 11
REMARK H PARENT
REMARK Flexibility Score: inf
ROOT
ATOM      1  C   UNL     1    -100.089  29.971 -38.318  1.00  0.00     0.000 C 
ENDROOT
BRANCH   1   2
ATOM      2  C   UNL     1    -101.244  30.465 -39.201  1.00  0.00     0.006 C 
BRANCH   2   3
ATOM      3  C   UNL     1    -102.594  30.000 -38.647  1.00  0.00     0.053 C 
BRANCH   3   4
ATOM      4  C   UNL     1    -103.481  31.174 -38.375  1.00  0.00     0.041 C 
ATOM      5  O   UNL     1    -104.295  31.571 -39.251  1.00  0.00    -0.550 OA
ATOM      6  O   UNL     1    -103.445  31.799 -37.135  1.00  0.00    -0.550 OA
ENDBRANCH   3   4
ENDBRANCH   2   3
ENDBRANCH   1   2
BRANCH   1   7
ATOM      7  C   UNL     1    -100.026  30.693 -36.962  1.00  0.00     0.000 C 
BRANCH   7   8
ATOM      8  C   UNL     1     -99.916  32.220 -37.112  1.00  0.00    -0.000 C 
BRANCH   8   9
ATOM      9  C   UNL     1     -98.470  32.687 -37.349  1.00  0.00    -0.000 C 
BRANCH   9  10
ATOM     10  C   UNL     1     -98.282  33.362 -38.716  1.00  0.00    -0.003 C 
ATOM     11  C   UNL     1     -97.060  32.804 -39.440  1.00  0.00     0.004 C 
ENDBRANCH   9  10
ENDBRANCH   8   9
ENDBRANCH   7   8
ENDBRANCH   1   7
TORSDOF 7
ENDMDL
MODEL 2
REMARK VINA RESULT:    -3.558      1.699      2.021
REMARK INTER + INTRA:          -5.611
REMARK INTER:                  -5.369
REMARK INTRA:                  -0.242
REMARK UNBOUND:                -0.597
REMARK SMILES CCCCCCCCC(=O)[O-]
REMARK SMILES IDX 6 1 7 2 8 3 9 4 10 5 11 6 5 7 4 8 3 9 2 10 1 11
REMARK H PARENT
REMARK Flexibility Score: inf
ROOT
ATOM      1  C   UNL     1    -101.859  31.419 -37.498  1.00  0.00     0.000 C 
ENDROOT
BRANCH   1   2
ATOM      2  C   UNL     1    -103.372  31.515 -37.251  1.00  0.00     0.006 C 
BRANCH   2   3
ATOM      3  C   UNL     1    -104.129  31.720 -38.567  1.00  0.00     0.053 C 
BRANCH   3   4
ATOM      4  C   UNL     1    -105.412  32.451 -38.325  1.00  0.00     0.041 C 
ATOM      5  O   UNL     1    -106.511  31.842 -38.393  1.00  0.00    -0.550 OA
ATOM      6  O   UNL     1    -105.390  33.796 -37.976  1.00  0.00    -0.550 OA
ENDBRANCH   3   4
ENDBRANCH   2   3
ENDBRANCH   1   2
BRANCH   1   7
ATOM      7  C   UNL     1    -101.042  31.425 -36.195  1.00  0.00     0.000 C 
BRANCH   7   8
ATOM      8  C   UNL     1     -99.571  31.811 -36.424  1.00  0.00    -0.000 C 
BRANCH   8   9
ATOM      9  C   UNL     1     -99.224  31.956 -37.915  1.00  0.00    -0.000 C 
BRANCH   9  10
ATOM     10  C   UNL     1     -98.353  33.188 -38.204  1.00  0.00    -0.003 C 
ATOM     11  C   UNL     1     -97.266  32.865 -39.225  1.00  0.00     0.004 C 
ENDBRANCH   9  10
ENDBRANCH   8   9
ENDBRANCH   7   8
ENDBRANCH   1   7
TORSDOF 7
ENDMDL
MODEL 3
REMARK VINA RESULT:    -3.533      2.557      3.427
REMARK INTER + INTRA:          -5.576
REMARK INTER:                  -5.213
REMARK INTRA:                  -0.363
REMARK UNBOUND:                -0.597
REMARK SMILES CCCCCCCCC(=O)[O-]
REMARK SMILES IDX 6 1 7 2 8 3 9 4 10 5 11 6 5 7 4 8 3 9 2 10 1 11
REMARK H PARENT
REMARK Flexibility Score: inf
ROOT
ATOM      1  C   UNL     1     -99.582  30.925 -34.437  1.00  0.00     0.000 C 
ENDROOT
BRANCH   1   2
ATOM      2  C   UNL     1    -100.900  30.523 -33.760  1.00  0.00     0.006 C 
BRANCH   2   3
ATOM      3  C   UNL     1    -101.712  31.760 -33.365  1.00  0.00     0.053 C 
BRANCH   3   4
ATOM      4  C   UNL     1    -102.960  31.852 -34.185  1.00  0.00     0.041 C 
ATOM      5  O   UNL     1    -103.044  31.241 -35.282  1.00  0.00    -0.550 OA
ATOM      6  O   UNL     1    -104.049  32.575 -33.714  1.00  0.00    -0.550 OA
ENDBRANCH   3   4
ENDBRANCH   2   3
ENDBRANCH   1   2
BRANCH   1   7
ATOM      7  C   UNL     1     -99.614  30.732 -35.962  1.00  0.00     0.000 C 
BRANCH   7   8
ATOM      8  C   UNL     1     -99.790  32.059 -36.721  1.00  0.00    -0.000 C 
BRANCH   8   9
ATOM      9  C   UNL     1     -99.195  32.012 -38.138  1.00  0.00    -0.000 C 
BRANCH   9  10
ATOM     10  C   UNL     1     -98.298  33.221 -38.444  1.00  0.00    -0.003 C 
ATOM     11  C   UNL     1     -97.127  32.823 -39.338  1.00  0.00     0.004 C 
ENDBRANCH   9  10
ENDBRANCH   8   9
ENDBRANCH   7   8
ENDBRANCH   1   7
TORSDOF 7
ENDMDL
MODEL 4
REMARK VINA RESULT:    -3.501      2.542      3.269
REMARK INTER + INTRA:          -5.531
REMARK INTER:                  -5.048
REMARK INTRA:                  -0.483
REMARK UNBOUND:                -0.597
REMARK SMILES CCCCCCCCC(=O)[O-]
REMARK SMILES IDX 6 1 7 2 8 3 9 4 10 5 11 6 5 7 4 8 3 9 2 10 1 11
REMARK H PARENT
REMARK Flexibility Score: inf
ROOT
ATOM      1  C   UNL     1    -101.820  31.342 -37.692  1.00  0.00     0.000 C 
ENDROOT
BRANCH   1   2
ATOM      2  C   UNL     1    -102.083  30.633 -36.356  1.00  0.00     0.006 C 
BRANCH   2   3
ATOM      3  C   UNL     1    -102.480  31.638 -35.271  1.00  0.00     0.053 C 
BRANCH   3   4
ATOM      4  C   UNL     1    -101.495  31.609 -34.144  1.00  0.00     0.041 C 
ATOM      5  O   UNL     1    -100.345  31.127 -34.319  1.00  0.00    -0.550 OA
ATOM      6  O   UNL     1    -101.831  32.160 -32.914  1.00  0.00    -0.550 OA
ENDBRANCH   3   4
ENDBRANCH   2   3
ENDBRANCH   1   2
BRANCH   1   7
ATOM      7  C   UNL     1    -100.701  30.677 -38.509  1.00  0.00     0.000 C 
BRANCH   7   8
ATOM      8  C   UNL     1     -99.299  31.141 -38.078  1.00  0.00    -0.000 C 
BRANCH   8   9
ATOM      9  C   UNL     1     -99.309  32.548 -37.458  1.00  0.00    -0.000 C 
BRANCH   9  10
ATOM     10  C   UNL     1     -98.370  33.522 -38.184  1.00  0.00    -0.003 C 
ATOM     11  C   UNL     1     -97.469  32.784 -39.170  1.00  0.00     0.004 C 
ENDBRANCH   9  10
ENDBRANCH   8   9
ENDBRANCH   7   8
ENDBRANCH   1   7
TORSDOF 7
ENDMDL
MODEL 5
REMARK VINA RESULT:    -3.381      3.000      5.474
REMARK INTER + INTRA:          -5.362
REMARK INTER:                  -5.019
REMARK INTRA:                  -0.343
REMARK UNBOUND:                -0.597
REMARK SMILES CCCCCCCCC(=O)[O-]
REMARK SMILES IDX 6 1 7 2 8 3 9 4 10 5 11 6 5 7 4 8 3 9 2 10 1 11
REMARK H PARENT
REMARK Flexibility Score: inf
ROOT
ATOM      1  C   UNL     1    -101.391  31.476 -37.034  1.00  0.00     0.000 C 
ENDROOT
BRANCH   1   2
ATOM      2  C   UNL     1     -99.881  31.746 -36.975  1.00  0.00     0.006 C 
BRANCH   2   3
ATOM      3  C   UNL     1     -99.246  31.615 -38.362  1.00  0.00     0.053 C 
BRANCH   3   4
ATOM      4  C   UNL     1     -98.317  32.758 -38.624  1.00  0.00     0.041 C 
ATOM      5  O   UNL     1     -98.537  33.885 -38.108  1.00  0.00    -0.550 OA
ATOM      6  O   UNL     1     -97.180  32.565 -39.400  1.00  0.00    -0.550 OA
ENDBRANCH   3   4
ENDBRANCH   2   3
ENDBRANCH   1   2
BRANCH   1   7
ATOM      7  C   UNL     1    -101.811  30.719 -38.305  1.00  0.00     0.000 C 
BRANCH   7   8
ATOM      8  C   UNL     1    -103.218  31.112 -38.787  1.00  0.00    -0.000 C 
BRANCH   8   9
ATOM      9  C   UNL     1    -104.119  31.603 -37.641  1.00  0.00    -0.000 C 
BRANCH   9  10
ATOM     10  C   UNL     1    -104.906  32.870 -38.007  1.00  0.00    -0.003 C 
ATOM     11  C   UNL     1    -106.347  32.782 -37.514  1.00  0.00     0.004 C 
ENDBRANCH   9  10
ENDBRANCH   8   9
ENDBRANCH   7   8
ENDBRANCH   1   7
TORSDOF 7
ENDMDL
MODEL 6
REMARK VINA RESULT:    -3.297      2.007      2.595
REMARK INTER + INTRA:          -5.243
REMARK INTER:                  -4.910
REMARK INTRA:                  -0.333
REMARK UNBOUND:                -0.597
REMARK SMILES CCCCCCCCC(=O)[O-]
REMARK SMILES IDX 6 1 7 2 8 3 9 4 10 5 11 6 5 7 4 8 3 9 2 10 1 11
REMARK H PARENT
REMARK Flexibility Score: inf
ROOT
ATOM      1  C   UNL     1    -102.016  31.096 -37.643  1.00  0.00     0.000 C 
ENDROOT
BRANCH   1   2
ATOM      2  C   UNL     1    -103.498  31.034 -37.244  1.00  0.00     0.006 C 
BRANCH   2   3
ATOM      3  C   UNL     1    -103.918  32.306 -36.501  1.00  0.00     0.053 C 
BRANCH   3   4
ATOM      4  C   UNL     1    -104.526  31.963 -35.178  1.00  0.00     0.041 C 
ATOM      5  O   UNL     1    -104.531  30.771 -34.772  1.00  0.00    -0.550 OA
ATOM      6  O   UNL     1    -105.044  32.968 -34.371  1.00  0.00    -0.550 OA
ENDBRANCH   3   4
ENDBRANCH   2   3
ENDBRANCH   1   2
BRANCH   1   7
ATOM      7  C   UNL     1    -101.075  31.171 -36.430  1.00  0.00     0.000 C 
BRANCH   7   8
ATOM      8  C   UNL     1     -99.948  32.200 -36.620  1.00  0.00    -0.000 C 
BRANCH   8   9
ATOM      9  C   UNL     1     -99.219  32.036 -37.964  1.00  0.00    -0.000 C 
BRANCH   9  10
ATOM     10  C   UNL     1     -98.319  33.233 -38.300  1.00  0.00    -0.003 C 
ATOM     11  C   UNL     1     -97.229  32.838 -39.293  1.00  0.00     0.004 C 
ENDBRANCH   9  10
ENDBRANCH   8   9
ENDBRANCH   7   8
ENDBRANCH   1   7
TORSDOF 7
ENDMDL
MODEL 7
REMARK VINA RESULT:    -3.116      4.077      5.715
REMARK INTER + INTRA:          -4.989
REMARK INTER:                  -4.760
REMARK INTRA:                  -0.228
REMARK UNBOUND:                -0.597
REMARK SMILES CCCCCCCCC(=O)[O-]
REMARK SMILES IDX 6 1 7 2 8 3 9 4 10 5 11 6 5 7 4 8 3 9 2 10 1 11
REMARK H PARENT
REMARK Flexibility Score: inf
ROOT
ATOM      1  C   UNL     1    -101.078  31.492 -36.809  1.00  0.00     0.000 C 
ENDROOT
BRANCH   1   2
ATOM      2  C   UNL     1     -99.553  31.627 -36.933  1.00  0.00     0.006 C 
BRANCH   2   3
ATOM      3  C   UNL     1     -99.120  31.605 -38.402  1.00  0.00     0.053 C 
BRANCH   3   4
ATOM      4  C   UNL     1     -98.207  32.754 -38.696  1.00  0.00     0.041 C 
ATOM      5  O   UNL     1     -97.190  32.586 -39.420  1.00  0.00    -0.550 OA
ATOM      6  O   UNL     1     -98.506  34.021 -38.211  1.00  0.00    -0.550 OA
ENDBRANCH   3   4
ENDBRANCH   2   3
ENDBRANCH   1   2
BRANCH   1   7
ATOM      7  C   UNL     1    -101.633  32.163 -35.542  1.00  0.00     0.000 C 
BRANCH   7   8
ATOM      8  C   UNL     1    -101.368  31.337 -34.272  1.00  0.00    -0.000 C 
BRANCH   8   9
ATOM      9  C   UNL     1    -101.972  31.980 -33.013  1.00  0.00    -0.000 C 
BRANCH   9  10
ATOM     10  C   UNL     1    -103.322  31.363 -32.621  1.00  0.00    -0.003 C 
ATOM     11  C   UNL     1    -104.420  32.422 -32.583  1.00  0.00     0.004 C 
ENDBRANCH   9  10
ENDBRANCH   8   9
ENDBRANCH   7   8
ENDBRANCH   1   7
TORSDOF 7
ENDMDL
MODEL 8
REMARK VINA RESULT:    -3.062      3.367      4.916
REMARK INTER + INTRA:          -4.913
REMARK INTER:                  -4.355
REMARK INTRA:                  -0.558
REMARK UNBOUND:                -0.597
REMARK SMILES CCCCCCCCC(=O)[O-]
REMARK SMILES IDX 6 1 7 2 8 3 9 4 10 5 11 6 5 7 4 8 3 9 2 10 1 11
REMARK H PARENT
REMARK Flexibility Score: inf
ROOT
ATOM      1  C   UNL     1    -101.452  31.322 -37.734  1.00  0.00     0.000 C 
ENDROOT
BRANCH   1   2
ATOM      2  C   UNL     1    -100.026  31.016 -38.215  1.00  0.00     0.006 C 
BRANCH   2   3
ATOM      3  C   UNL     1     -98.993  31.802 -37.402  1.00  0.00     0.053 C 
BRANCH   3   4
ATOM      4  C   UNL     1     -98.349  32.853 -38.250  1.00  0.00     0.041 C 
ATOM      5  O   UNL     1     -98.630  34.068 -38.077  1.00  0.00    -0.550 OA
ATOM      6  O   UNL     1     -97.400  32.494 -39.199  1.00  0.00    -0.550 OA
ENDBRANCH   3   4
ENDBRANCH   2   3
ENDBRANCH   1   2
BRANCH   1   7
ATOM      7  C   UNL     1    -101.907  30.397 -36.594  1.00  0.00     0.000 C 
BRANCH   7   8
ATOM      8  C   UNL     1    -102.641  31.157 -35.476  1.00  0.00    -0.000 C 
BRANCH   8   9
ATOM      9  C   UNL     1    -101.675  31.858 -34.506  1.00  0.00    -0.000 C 
BRANCH   9  10
ATOM     10  C   UNL     1    -100.513  30.954 -34.070  1.00  0.00    -0.003 C 
ATOM     11  C   UNL     1    -100.965  29.951 -33.013  1.00  0.00     0.004 C 
ENDBRANCH   9  10
ENDBRANCH   8   9
ENDBRANCH   7   8
ENDBRANCH   1   7
TORSDOF 7
ENDMDL
MODEL 9
REMARK VINA RESULT:    -3.012     15.257     16.704
REMARK INTER + INTRA:          -4.842
REMARK INTER:                  -4.074
REMARK INTRA:                  -0.769
REMARK UNBOUND:                -0.597
REMARK SMILES CCCCCCCCC(=O)[O-]
REMARK SMILES IDX 6 1 7 2 8 3 9 4 10 5 11 6 5 7 4 8 3 9 2 10 1 11
REMARK H PARENT
REMARK Flexibility Score: inf
ROOT
ATOM      1  C   UNL     1     -95.851  46.245 -36.772  1.00  0.00     0.000 C 
ENDROOT
BRANCH   1   2
ATOM      2  C   UNL     1     -96.757  47.111 -35.885  1.00  0.00     0.006 C 
BRANCH   2   3
ATOM      3  C   UNL     1     -98.205  47.076 -36.382  1.00  0.00     0.053 C 
BRANCH   3   4
ATOM      4  C   UNL     1     -98.843  48.421 -36.235  1.00  0.00     0.041 C 
ATOM      5  O   UNL     1    -100.024  48.610 -36.628  1.00  0.00    -0.550 OA
ATOM      6  O   UNL     1     -98.149  49.455 -35.619  1.00  0.00    -0.550 OA
ENDBRANCH   3   4
ENDBRANCH   2   3
ENDBRANCH   1   2
BRANCH   1   7
ATOM      7  C   UNL     1     -96.615  45.567 -37.921  1.00  0.00     0.000 C 
BRANCH   7   8
ATOM      8  C   UNL     1     -96.071  45.961 -39.304  1.00  0.00    -0.000 C 
BRANCH   8   9
ATOM      9  C   UNL     1     -95.197  47.226 -39.256  1.00  0.00    -0.000 C 
BRANCH   9  10
ATOM     10  C   UNL     1     -95.843  48.421 -39.973  1.00  0.00    -0.003 C 
ATOM     11  C   UNL     1     -96.416  49.418 -38.970  1.00  0.00     0.004 C 
ENDBRANCH   9  10
ENDBRANCH   8   9
ENDBRANCH   7   8
ENDBRANCH   1   7
TORSDOF 7
ENDMDL
