MODEL 1
REMARK VINA RESULT:    13.896      0.000      0.000
REMARK INTER + INTRA:          29.504
REMARK INTER:                  30.143
REMARK INTRA:                  -0.639
REMARK UNBOUND:                -0.639
REMARK SMILES CCCCCCCCCCCCCCCCCCCCCC(=O)[O-]
REMARK SMILES IDX 12 1 11 2 10 3 9 4 8 5 7 6 6 7 5 8 4 9 3 10 2 11 1 12 13 13
REMARK SMILES IDX 14 14 15 15 16 16 17 17 18 18 19 19 20 20 21 21 22 22 23 23
REMARK SMILES IDX 24 24
REMARK H PARENT
REMARK Flexibility Score: inf
ROOT
ATOM      1  C   UNL     1      11.702 -10.283   5.094  1.00  0.00     0.000 C 
ENDROOT
BRANCH   1   2
ATOM      2  C   UNL     1      12.758 -10.865   4.136  1.00  0.00     0.000 C 
BRANCH   2   3
ATOM      3  C   UNL     1      13.864  -9.864   3.740  1.00  0.00     0.000 C 
BRANCH   3   4
ATOM      4  C   UNL     1      14.652 -10.320   2.500  1.00  0.00    -0.000 C 
BRANCH   4   5
ATOM      5  C   UNL     1      15.928  -9.496   2.266  1.00  0.00    -0.000 C 
BRANCH   5   6
ATOM      6  C   UNL     1      15.650  -8.007   1.966  1.00  0.00    -0.000 C 
BRANCH   6   7
ATOM      7  C   UNL     1      16.504  -7.073   2.835  1.00  0.00    -0.000 C 
BRANCH   7   8
ATOM      8  C   UNL     1      15.814  -6.785   4.176  1.00  0.00    -0.000 C 
BRANCH   8   9
ATOM      9  C   UNL     1      16.798  -6.335   5.272  1.00  0.00    -0.000 C 
BRANCH   9  10
ATOM     10  C   UNL     1      16.143  -5.886   6.594  1.00  0.00    -0.000 C 
BRANCH  10  11
ATOM     11  C   UNL     1      15.683  -4.419   6.625  1.00  0.00    -0.003 C 
ATOM     12  C   UNL     1      14.168  -4.267   6.491  1.00  0.00     0.004 C 
ENDBRANCH  10  11
ENDBRANCH   9  10
ENDBRANCH   8   9
ENDBRANCH   7   8
ENDBRANCH   6   7
ENDBRANCH   5   6
ENDBRANCH   4   5
ENDBRANCH   3   4
ENDBRANCH   2   3
ENDBRANCH   1   2
BRANCH   1  13
ATOM     13  C   UNL     1      11.001 -11.317   5.992  1.00  0.00     0.000 C 
BRANCH  13  14
ATOM     14  C   UNL     1      10.325 -12.439   5.191  1.00  0.00     0.000 C 
BRANCH  14  15
ATOM     15  C   UNL     1      10.903 -13.810   5.576  1.00  0.00     0.000 C 
BRANCH  15  16
ATOM     16  C   UNL     1      12.431 -13.785   5.758  1.00  0.00     0.000 C 
BRANCH  16  17
ATOM     17  C   UNL     1      12.913 -13.268   7.127  1.00  0.00     0.000 C 
BRANCH  17  18
ATOM     18  C   UNL     1      14.344 -13.694   7.516  1.00  0.00     0.000 C 
BRANCH  18  19
ATOM     19  C   UNL     1      14.794 -15.056   6.952  1.00  0.00     0.000 C 
BRANCH  19  20
ATOM     20  C   UNL     1      16.317 -15.224   6.787  1.00  0.00     0.006 C 
BRANCH  20  21
ATOM     21  C   UNL     1      16.796 -16.684   6.759  1.00  0.00     0.053 C 
BRANCH  21  22
ATOM     22  C   UNL     1      18.248 -16.789   6.407  1.00  0.00     0.041 C 
ATOM     23  O   UNL     1      19.124 -16.762   7.311  1.00  0.00    -0.550 OA
ATOM     24  O   UNL     1      18.636 -16.891   5.077  1.00  0.00    -0.550 OA
ENDBRANCH  21  22
ENDBRANCH  20  21
ENDBRANCH  19  20
ENDBRANCH  18  19
ENDBRANCH  17  18
ENDBRANCH  16  17
ENDBRANCH  15  16
ENDBRANCH  14  15
ENDBRANCH  13  14
ENDBRANCH   1  13
TORSDOF 20
ENDMDL
MODEL 2
REMARK VINA RESULT:    14.121      5.298      8.664
REMARK INTER + INTRA:          29.993
REMARK INTER:                  30.848
REMARK INTRA:                  -0.855
REMARK UNBOUND:                -0.639
REMARK SMILES CCCCCCCCCCCCCCCCCCCCCC(=O)[O-]
REMARK SMILES IDX 12 1 11 2 10 3 9 4 8 5 7 6 6 7 5 8 4 9 3 10 2 11 1 12 13 13
REMARK SMILES IDX 14 14 15 15 16 16 17 17 18 18 19 19 20 20 21 21 22 22 23 23
REMARK SMILES IDX 24 24
REMARK H PARENT
REMARK Flexibility Score: inf
ROOT
ATOM      1  C   UNL     1       9.758 -13.163   5.351  1.00  0.00     0.000 C 
ENDROOT
BRANCH   1   2
ATOM      2  C   UNL     1       8.396 -12.719   4.783  1.00  0.00     0.000 C 
BRANCH   2   3
ATOM      3  C   UNL     1       7.875 -11.391   5.374  1.00  0.00     0.000 C 
BRANCH   3   4
ATOM      4  C   UNL     1       6.592 -11.582   6.201  1.00  0.00    -0.000 C 
BRANCH   4   5
ATOM      5  C   UNL     1       5.693 -10.335   6.203  1.00  0.00    -0.000 C 
BRANCH   5   6
ATOM      6  C   UNL     1       5.175  -9.954   7.607  1.00  0.00    -0.000 C 
BRANCH   6   7
ATOM      7  C   UNL     1       4.122 -10.945   8.123  1.00  0.00    -0.000 C 
BRANCH   7   8
ATOM      8  C   UNL     1       4.026 -10.898   9.656  1.00  0.00    -0.000 C 
BRANCH   8   9
ATOM      9  C   UNL     1       2.656 -10.405  10.155  1.00  0.00    -0.000 C 
BRANCH   9  10
ATOM     10  C   UNL     1       2.118 -11.129  11.407  1.00  0.00    -0.000 C 
BRANCH  10  11
ATOM     11  C   UNL     1       1.598 -10.202  12.517  1.00  0.00    -0.003 C 
ATOM     12  C   UNL     1       1.785  -8.720  12.192  1.00  0.00     0.004 C 
ENDBRANCH  10  11
ENDBRANCH   9  10
ENDBRANCH   8   9
ENDBRANCH   7   8
ENDBRANCH   6   7
ENDBRANCH   5   6
ENDBRANCH   4   5
ENDBRANCH   3   4
ENDBRANCH   2   3
ENDBRANCH   1   2
BRANCH   1  13
ATOM     13  C   UNL     1      10.627 -12.026   5.915  1.00  0.00     0.000 C 
BRANCH  13  14
ATOM     14  C   UNL     1      12.092 -12.117   5.463  1.00  0.00     0.000 C 
BRANCH  14  15
ATOM     15  C   UNL     1      12.662 -13.518   5.733  1.00  0.00     0.000 C 
BRANCH  15  16
ATOM     16  C   UNL     1      13.197 -13.679   7.167  1.00  0.00     0.000 C 
BRANCH  16  17
ATOM     17  C   UNL     1      14.670 -14.120   7.265  1.00  0.00     0.000 C 
BRANCH  17  18
ATOM     18  C   UNL     1      15.051 -15.318   6.372  1.00  0.00     0.000 C 
BRANCH  18  19
ATOM     19  C   UNL     1      16.158 -16.229   6.940  1.00  0.00     0.000 C 
BRANCH  19  20
ATOM     20  C   UNL     1      17.577 -15.629   6.911  1.00  0.00     0.006 C 
BRANCH  20  21
ATOM     21  C   UNL     1      18.699 -16.659   6.709  1.00  0.00     0.053 C 
BRANCH  21  22
ATOM     22  C   UNL     1      18.772 -17.136   5.291  1.00  0.00     0.041 C 
ATOM     23  O   UNL     1      18.971 -18.354   5.041  1.00  0.00    -0.550 OA
ATOM     24  O   UNL     1      18.648 -16.231   4.245  1.00  0.00    -0.550 OA
ENDBRANCH  21  22
ENDBRANCH  20  21
ENDBRANCH  19  20
ENDBRANCH  18  19
ENDBRANCH  17  18
ENDBRANCH  16  17
ENDBRANCH  15  16
ENDBRANCH  14  15
ENDBRANCH  13  14
ENDBRANCH   1  13
TORSDOF 20
ENDMDL
MODEL 3
REMARK VINA RESULT:    14.201      3.906      8.959
REMARK INTER + INTRA:          30.165
REMARK INTER:                  31.060
REMARK INTRA:                  -0.895
REMARK UNBOUND:                -0.639
REMARK SMILES CCCCCCCCCCCCCCCCCCCCCC(=O)[O-]
REMARK SMILES IDX 12 1 11 2 10 3 9 4 8 5 7 6 6 7 5 8 4 9 3 10 2 11 1 12 13 13
REMARK SMILES IDX 14 14 15 15 16 16 17 17 18 18 19 19 20 20 21 21 22 22 23 23
REMARK SMILES IDX 24 24
REMARK H PARENT
REMARK Flexibility Score: inf
ROOT
ATOM      1  C   UNL     1      11.814 -10.264   5.020  1.00  0.00     0.000 C 
ENDROOT
BRANCH   1   2
ATOM      2  C   UNL     1      11.233 -11.298   6.004  1.00  0.00     0.000 C 
BRANCH   2   3
ATOM      3  C   UNL     1      10.579 -12.516   5.318  1.00  0.00     0.000 C 
BRANCH   3   4
ATOM      4  C   UNL     1      11.280 -13.838   5.677  1.00  0.00    -0.000 C 
BRANCH   4   5
ATOM      5  C   UNL     1      12.703 -13.630   6.222  1.00  0.00    -0.000 C 
BRANCH   5   6
ATOM      6  C   UNL     1      13.610 -14.868   6.058  1.00  0.00    -0.000 C 
BRANCH   6   7
ATOM      7  C   UNL     1      14.910 -14.744   6.866  1.00  0.00    -0.000 C 
BRANCH   7   8
ATOM      8  C   UNL     1      15.966 -15.740   6.365  1.00  0.00    -0.000 C 
BRANCH   8   9
ATOM      9  C   UNL     1      16.885 -16.254   7.489  1.00  0.00    -0.000 C 
BRANCH   9  10
ATOM     10  C   UNL     1      18.389 -16.270   7.146  1.00  0.00    -0.000 C 
BRANCH  10  11
ATOM     11  C   UNL     1      18.764 -17.106   5.912  1.00  0.00    -0.003 C 
ATOM     12  C   UNL     1      18.763 -16.290   4.618  1.00  0.00     0.004 C 
ENDBRANCH  10  11
ENDBRANCH   9  10
ENDBRANCH   8   9
ENDBRANCH   7   8
ENDBRANCH   6   7
ENDBRANCH   5   6
ENDBRANCH   4   5
ENDBRANCH   3   4
ENDBRANCH   2   3
ENDBRANCH   1   2
BRANCH   1  13
ATOM     13  C   UNL     1      12.805 -10.835   3.991  1.00  0.00     0.000 C 
BRANCH  13  14
ATOM     14  C   UNL     1      14.048  -9.951   3.807  1.00  0.00     0.000 C 
BRANCH  14  15
ATOM     15  C   UNL     1      14.646 -10.132   2.404  1.00  0.00     0.000 C 
BRANCH  15  16
ATOM     16  C   UNL     1      15.977  -9.382   2.221  1.00  0.00     0.000 C 
BRANCH  16  17
ATOM     17  C   UNL     1      15.839  -7.886   1.875  1.00  0.00     0.000 C 
BRANCH  17  18
ATOM     18  C   UNL     1      16.545  -6.925   2.853  1.00  0.00     0.000 C 
BRANCH  18  19
ATOM     19  C   UNL     1      15.899  -6.825   4.249  1.00  0.00     0.000 C 
BRANCH  19  20
ATOM     20  C   UNL     1      16.817  -6.270   5.356  1.00  0.00     0.006 C 
BRANCH  20  21
ATOM     21  C   UNL     1      16.099  -5.946   6.674  1.00  0.00     0.053 C 
BRANCH  21  22
ATOM     22  C   UNL     1      15.353  -4.649   6.601  1.00  0.00     0.041 C 
ATOM     23  O   UNL     1      15.833  -3.610   7.126  1.00  0.00    -0.550 OA
ATOM     24  O   UNL     1      14.114  -4.594   5.976  1.00  0.00    -0.550 OA
ENDBRANCH  21  22
ENDBRANCH  20  21
ENDBRANCH  19  20
ENDBRANCH  18  19
ENDBRANCH  17  18
ENDBRANCH  16  17
ENDBRANCH  15  16
ENDBRANCH  14  15
ENDBRANCH  13  14
ENDBRANCH   1  13
TORSDOF 20
ENDMDL
MODEL 4
REMARK VINA RESULT:    15.240      7.344     11.177
REMARK INTER + INTRA:          32.420
REMARK INTER:                  33.300
REMARK INTRA:                  -0.879
REMARK UNBOUND:                -0.639
REMARK SMILES CCCCCCCCCCCCCCCCCCCCCC(=O)[O-]
REMARK SMILES IDX 12 1 11 2 10 3 9 4 8 5 7 6 6 7 5 8 4 9 3 10 2 11 1 12 13 13
REMARK SMILES IDX 14 14 15 15 16 16 17 17 18 18 19 19 20 20 21 21 22 22 23 23
REMARK SMILES IDX 24 24
REMARK H PARENT
REMARK Flexibility Score: inf
ROOT
ATOM      1  C   UNL     1       9.788 -13.204   5.389  1.00  0.00     0.000 C 
ENDROOT
BRANCH   1   2
ATOM      2  C   UNL     1      10.624 -12.062   5.997  1.00  0.00     0.000 C 
BRANCH   2   3
ATOM      3  C   UNL     1      12.120 -12.112   5.619  1.00  0.00     0.000 C 
BRANCH   3   4
ATOM      4  C   UNL     1      12.734 -13.505   5.839  1.00  0.00    -0.000 C 
BRANCH   4   5
ATOM      5  C   UNL     1      13.352 -13.670   7.237  1.00  0.00    -0.000 C 
BRANCH   5   6
ATOM      6  C   UNL     1      14.814 -14.165   7.207  1.00  0.00    -0.000 C 
BRANCH   6   7
ATOM      7  C   UNL     1      14.970 -15.459   6.396  1.00  0.00    -0.000 C 
BRANCH   7   8
ATOM      8  C   UNL     1      15.414 -16.622   7.296  1.00  0.00    -0.000 C 
BRANCH   8   9
ATOM      9  C   UNL     1      16.889 -17.011   7.088  1.00  0.00    -0.000 C 
BRANCH   9  10
ATOM     10  C   UNL     1      17.796 -15.878   6.565  1.00  0.00    -0.000 C 
BRANCH  10  11
ATOM     11  C   UNL     1      19.020 -16.346   5.761  1.00  0.00    -0.003 C 
ATOM     12  C   UNL     1      18.803 -17.697   5.079  1.00  0.00     0.004 C 
ENDBRANCH  10  11
ENDBRANCH   9  10
ENDBRANCH   8   9
ENDBRANCH   7   8
ENDBRANCH   6   7
ENDBRANCH   5   6
ENDBRANCH   4   5
ENDBRANCH   3   4
ENDBRANCH   2   3
ENDBRANCH   1   2
BRANCH   1  13
ATOM     13  C   UNL     1       8.413 -12.782   4.844  1.00  0.00     0.000 C 
BRANCH  13  14
ATOM     14  C   UNL     1       7.955 -11.417   5.377  1.00  0.00     0.000 C 
BRANCH  14  15
ATOM     15  C   UNL     1       6.526 -11.498   5.935  1.00  0.00     0.000 C 
BRANCH  15  16
ATOM     16  C   UNL     1       6.035 -10.162   6.518  1.00  0.00     0.000 C 
BRANCH  16  17
ATOM     17  C   UNL     1       5.291 -10.274   7.863  1.00  0.00     0.000 C 
BRANCH  17  18
ATOM     18  C   UNL     1       4.337 -11.480   7.980  1.00  0.00     0.000 C 
BRANCH  18  19
ATOM     19  C   UNL     1       2.976 -11.174   8.636  1.00  0.00     0.000 C 
BRANCH  19  20
ATOM     20  C   UNL     1       3.053 -10.614  10.070  1.00  0.00     0.006 C 
BRANCH  20  21
ATOM     21  C   UNL     1       1.757  -9.954  10.565  1.00  0.00     0.053 C 
BRANCH  21  22
ATOM     22  C   UNL     1       1.730  -9.824  12.057  1.00  0.00     0.041 C 
ATOM     23  O   UNL     1       1.690 -10.852  12.783  1.00  0.00    -0.550 OA
ATOM     24  O   UNL     1       1.723  -8.565  12.646  1.00  0.00    -0.550 OA
ENDBRANCH  21  22
ENDBRANCH  20  21
ENDBRANCH  19  20
ENDBRANCH  18  19
ENDBRANCH  17  18
ENDBRANCH  16  17
ENDBRANCH  15  16
ENDBRANCH  14  15
ENDBRANCH  13  14
ENDBRANCH   1  13
TORSDOF 20
ENDMDL
MODEL 5
REMARK VINA RESULT:    15.276      5.404      9.045
REMARK INTER + INTRA:          32.498
REMARK INTER:                  33.879
REMARK INTRA:                  -1.381
REMARK UNBOUND:                -0.639
REMARK SMILES CCCCCCCCCCCCCCCCCCCCCC(=O)[O-]
REMARK SMILES IDX 12 1 11 2 10 3 9 4 8 5 7 6 6 7 5 8 4 9 3 10 2 11 1 12 13 13
REMARK SMILES IDX 14 14 15 15 16 16 17 17 18 18 19 19 20 20 21 21 22 22 23 23
REMARK SMILES IDX 24 24
REMARK H PARENT
REMARK Flexibility Score: inf
ROOT
ATOM      1  C   UNL     1      13.864 -18.810   7.043  1.00  0.00     0.000 C 
ENDROOT
BRANCH   1   2
ATOM      2  C   UNL     1      15.280 -18.697   7.638  1.00  0.00     0.000 C 
BRANCH   2   3
ATOM      3  C   UNL     1      16.201 -17.717   6.880  1.00  0.00     0.000 C 
BRANCH   3   4
ATOM      4  C   UNL     1      16.370 -16.379   7.621  1.00  0.00    -0.000 C 
BRANCH   4   5
ATOM      5  C   UNL     1      17.550 -15.549   7.092  1.00  0.00    -0.000 C 
BRANCH   5   6
ATOM      6  C   UNL     1      18.733 -16.408   6.598  1.00  0.00    -0.000 C 
BRANCH   6   7
ATOM      7  C   UNL     1      18.919 -16.317   5.076  1.00  0.00    -0.000 C 
BRANCH   7   8
ATOM      8  C   UNL     1      19.112 -17.710   4.461  1.00  0.00    -0.000 C 
BRANCH   8   9
ATOM      9  C   UNL     1      18.745 -17.761   2.966  1.00  0.00    -0.000 C 
BRANCH   9  10
ATOM     10  C   UNL     1      17.238 -17.639   2.659  1.00  0.00    -0.000 C 
BRANCH  10  11
ATOM     11  C   UNL     1      16.836 -16.378   1.877  1.00  0.00    -0.003 C 
ATOM     12  C   UNL     1      15.327 -16.134   1.877  1.00  0.00     0.004 C 
ENDBRANCH  10  11
ENDBRANCH   9  10
ENDBRANCH   8   9
ENDBRANCH   7   8
ENDBRANCH   6   7
ENDBRANCH   5   6
ENDBRANCH   4   5
ENDBRANCH   3   4
ENDBRANCH   2   3
ENDBRANCH   1   2
BRANCH   1  13
ATOM     13  C   UNL     1      13.288 -20.236   7.004  1.00  0.00     0.000 C 
BRANCH  13  14
ATOM     14  C   UNL     1      12.081 -20.366   6.064  1.00  0.00     0.000 C 
BRANCH  14  15
ATOM     15  C   UNL     1      11.481 -18.987   5.751  1.00  0.00     0.000 C 
BRANCH  15  16
ATOM     16  C   UNL     1      11.757 -18.528   4.308  1.00  0.00     0.000 C 
BRANCH  16  17
ATOM     17  C   UNL     1      11.446 -17.045   4.027  1.00  0.00     0.000 C 
BRANCH  17  18
ATOM     18  C   UNL     1      10.368 -16.423   4.939  1.00  0.00     0.000 C 
BRANCH  18  19
ATOM     19  C   UNL     1       9.862 -15.036   4.496  1.00  0.00     0.000 C 
BRANCH  19  20
ATOM     20  C   UNL     1       9.572 -14.049   5.645  1.00  0.00     0.006 C 
BRANCH  20  21
ATOM     21  C   UNL     1       9.724 -12.568   5.264  1.00  0.00     0.053 C 
BRANCH  21  22
ATOM     22  C   UNL     1      11.062 -12.023   5.660  1.00  0.00     0.041 C 
ATOM     23  O   UNL     1      11.309 -10.795   5.534  1.00  0.00    -0.550 OA
ATOM     24  O   UNL     1      12.045 -12.877   6.144  1.00  0.00    -0.550 OA
ENDBRANCH  21  22
ENDBRANCH  20  21
ENDBRANCH  19  20
ENDBRANCH  18  19
ENDBRANCH  17  18
ENDBRANCH  16  17
ENDBRANCH  15  16
ENDBRANCH  14  15
ENDBRANCH  13  14
ENDBRANCH   1  13
TORSDOF 20
ENDMDL
MODEL 6
REMARK VINA RESULT:    15.416      1.189      2.044
REMARK INTER + INTRA:          32.802
REMARK INTER:                  33.467
REMARK INTRA:                  -0.666
REMARK UNBOUND:                -0.639
REMARK SMILES CCCCCCCCCCCCCCCCCCCCCC(=O)[O-]
REMARK SMILES IDX 12 1 11 2 10 3 9 4 8 5 7 6 6 7 5 8 4 9 3 10 2 11 1 12 13 13
REMARK SMILES IDX 14 14 15 15 16 16 17 17 18 18 19 19 20 20 21 21 22 22 23 23
REMARK SMILES IDX 24 24
REMARK H PARENT
REMARK Flexibility Score: inf
ROOT
ATOM      1  C   UNL     1      12.474 -11.085   4.286  1.00  0.00     0.000 C 
ENDROOT
BRANCH   1   2
ATOM      2  C   UNL     1      13.452  -9.897   4.205  1.00  0.00     0.000 C 
BRANCH   2   3
ATOM      3  C   UNL     1      14.523 -10.043   3.102  1.00  0.00     0.000 C 
BRANCH   3   4
ATOM      4  C   UNL     1      15.337  -8.753   2.902  1.00  0.00    -0.000 C 
BRANCH   4   5
ATOM      5  C   UNL     1      14.936  -7.636   3.879  1.00  0.00    -0.000 C 
BRANCH   5   6
ATOM      6  C   UNL     1      16.143  -6.911   4.512  1.00  0.00    -0.000 C 
BRANCH   6   7
ATOM      7  C   UNL     1      15.847  -6.434   5.941  1.00  0.00    -0.000 C 
BRANCH   7   8
ATOM      8  C   UNL     1      16.709  -5.215   6.303  1.00  0.00    -0.000 C 
BRANCH   8   9
ATOM      9  C   UNL     1      15.964  -4.196   7.185  1.00  0.00    -0.000 C 
BRANCH   9  10
ATOM     10  C   UNL     1      14.772  -3.491   6.505  1.00  0.00    -0.000 C 
BRANCH  10  11
ATOM     11  C   UNL     1      14.911  -1.965   6.375  1.00  0.00    -0.003 C 
ATOM     12  C   UNL     1      13.663  -1.301   5.793  1.00  0.00     0.004 C 
ENDBRANCH  10  11
ENDBRANCH   9  10
ENDBRANCH   8   9
ENDBRANCH   7   8
ENDBRANCH   6   7
ENDBRANCH   5   6
ENDBRANCH   4   5
ENDBRANCH   3   4
ENDBRANCH   2   3
ENDBRANCH   1   2
BRANCH   1  13
ATOM     13  C   UNL     1      11.707 -11.204   5.615  1.00  0.00     0.000 C 
BRANCH  13  14
ATOM     14  C   UNL     1      10.796 -12.439   5.667  1.00  0.00     0.000 C 
BRANCH  14  15
ATOM     15  C   UNL     1      11.623 -13.732   5.609  1.00  0.00     0.000 C 
BRANCH  15  16
ATOM     16  C   UNL     1      12.976 -13.609   6.330  1.00  0.00     0.000 C 
BRANCH  16  17
ATOM     17  C   UNL     1      13.901 -14.834   6.192  1.00  0.00     0.000 C 
BRANCH  17  18
ATOM     18  C   UNL     1      15.259 -14.709   6.912  1.00  0.00     0.000 C 
BRANCH  18  19
ATOM     19  C   UNL     1      16.265 -15.836   6.607  1.00  0.00     0.000 C 
BRANCH  19  20
ATOM     20  C   UNL     1      17.684 -15.616   7.168  1.00  0.00     0.006 C 
BRANCH  20  21
ATOM     21  C   UNL     1      18.647 -16.791   6.940  1.00  0.00     0.053 C 
BRANCH  21  22
ATOM     22  C   UNL     1      18.841 -17.080   5.484  1.00  0.00     0.041 C 
ATOM     23  O   UNL     1      18.970 -18.267   5.084  1.00  0.00    -0.550 OA
ATOM     24  O   UNL     1      18.908 -16.035   4.570  1.00  0.00    -0.550 OA
ENDBRANCH  21  22
ENDBRANCH  20  21
ENDBRANCH  19  20
ENDBRANCH  18  19
ENDBRANCH  17  18
ENDBRANCH  16  17
ENDBRANCH  15  16
ENDBRANCH  14  15
ENDBRANCH  13  14
ENDBRANCH   1  13
TORSDOF 20
ENDMDL
MODEL 7
REMARK VINA RESULT:    15.594      1.172      2.613
REMARK INTER + INTRA:          33.189
REMARK INTER:                  34.321
REMARK INTRA:                  -1.132
REMARK UNBOUND:                -0.639
REMARK SMILES CCCCCCCCCCCCCCCCCCCCCC(=O)[O-]
REMARK SMILES IDX 12 1 11 2 10 3 9 4 8 5 7 6 6 7 5 8 4 9 3 10 2 11 1 12 13 13
REMARK SMILES IDX 14 14 15 15 16 16 17 17 18 18 19 19 20 20 21 21 22 22 23 23
REMARK SMILES IDX 24 24
REMARK H PARENT
REMARK Flexibility Score: inf
ROOT
ATOM      1  C   UNL     1      14.230 -10.020   3.698  1.00  0.00     0.000 C 
ENDROOT
BRANCH   1   2
ATOM      2  C   UNL     1      14.693  -9.839   2.240  1.00  0.00     0.000 C 
BRANCH   2   3
ATOM      3  C   UNL     1      16.094  -9.204   2.104  1.00  0.00     0.000 C 
BRANCH   3   4
ATOM      4  C   UNL     1      16.035  -7.670   1.998  1.00  0.00    -0.000 C 
BRANCH   4   5
ATOM      5  C   UNL     1      15.838  -6.986   3.360  1.00  0.00    -0.000 C 
BRANCH   5   6
ATOM      6  C   UNL     1      17.148  -6.442   3.969  1.00  0.00    -0.000 C 
BRANCH   6   7
ATOM      7  C   UNL     1      17.005  -6.127   5.465  1.00  0.00    -0.000 C 
BRANCH   7   8
ATOM      8  C   UNL     1      15.538  -5.859   5.832  1.00  0.00    -0.000 C 
BRANCH   8   9
ATOM      9  C   UNL     1      15.367  -4.653   6.774  1.00  0.00    -0.000 C 
BRANCH   9  10
ATOM     10  C   UNL     1      14.293  -3.633   6.342  1.00  0.00    -0.000 C 
BRANCH  10  11
ATOM     11  C   UNL     1      14.709  -2.159   6.476  1.00  0.00    -0.003 C 
ATOM     12  C   UNL     1      13.821  -1.214   5.665  1.00  0.00     0.004 C 
ENDBRANCH  10  11
ENDBRANCH   9  10
ENDBRANCH   8   9
ENDBRANCH   7   8
ENDBRANCH   6   7
ENDBRANCH   5   6
ENDBRANCH   4   5
ENDBRANCH   3   4
ENDBRANCH   2   3
ENDBRANCH   1   2
BRANCH   1  13
ATOM     13  C   UNL     1      12.897 -10.770   3.866  1.00  0.00     0.000 C 
BRANCH  13  14
ATOM     14  C   UNL     1      11.902 -10.021   4.765  1.00  0.00     0.000 C 
BRANCH  14  15
ATOM     15  C   UNL     1      11.348 -10.947   5.858  1.00  0.00     0.000 C 
BRANCH  15  16
ATOM     16  C   UNL     1      10.661 -12.201   5.289  1.00  0.00     0.000 C 
BRANCH  16  17
ATOM     17  C   UNL     1      11.093 -13.530   5.938  1.00  0.00     0.000 C 
BRANCH  17  18
ATOM     18  C   UNL     1      12.526 -13.985   5.597  1.00  0.00     0.000 C 
BRANCH  18  19
ATOM     19  C   UNL     1      13.557 -13.795   6.727  1.00  0.00     0.000 C 
BRANCH  19  20
ATOM     20  C   UNL     1      14.493 -14.997   6.967  1.00  0.00     0.006 C 
BRANCH  20  21
ATOM     21  C   UNL     1      15.976 -14.712   6.687  1.00  0.00     0.053 C 
BRANCH  21  22
ATOM     22  C   UNL     1      16.832 -15.918   6.929  1.00  0.00     0.041 C 
ATOM     23  O   UNL     1      16.303 -17.029   7.194  1.00  0.00    -0.550 OA
ATOM     24  O   UNL     1      18.216 -15.808   6.887  1.00  0.00    -0.550 OA
ENDBRANCH  21  22
ENDBRANCH  20  21
ENDBRANCH  19  20
ENDBRANCH  18  19
ENDBRANCH  17  18
ENDBRANCH  16  17
ENDBRANCH  15  16
ENDBRANCH  14  15
ENDBRANCH  13  14
ENDBRANCH   1  13
TORSDOF 20
ENDMDL
MODEL 8
REMARK VINA RESULT:    15.769      4.516      8.948
REMARK INTER + INTRA:          33.567
REMARK INTER:                  33.171
REMARK INTRA:                   0.397
REMARK UNBOUND:                -0.639
REMARK SMILES CCCCCCCCCCCCCCCCCCCCCC(=O)[O-]
REMARK SMILES IDX 12 1 11 2 10 3 9 4 8 5 7 6 6 7 5 8 4 9 3 10 2 11 1 12 13 13
REMARK SMILES IDX 14 14 15 15 16 16 17 17 18 18 19 19 20 20 21 21 22 22 23 23
REMARK SMILES IDX 24 24
REMARK H PARENT
REMARK Flexibility Score: inf
ROOT
ATOM      1  C   UNL     1      12.095 -18.632   4.651  1.00  0.00     0.000 C 
ENDROOT
BRANCH   1   2
ATOM      2  C   UNL     1      11.688 -19.219   6.016  1.00  0.00     0.000 C 
BRANCH   2   3
ATOM      3  C   UNL     1      12.733 -20.183   6.619  1.00  0.00     0.000 C 
BRANCH   3   4
ATOM      4  C   UNL     1      13.581 -19.517   7.716  1.00  0.00    -0.000 C 
BRANCH   4   5
ATOM      5  C   UNL     1      14.893 -18.924   7.178  1.00  0.00    -0.000 C 
BRANCH   5   6
ATOM      6  C   UNL     1      14.912 -17.381   7.169  1.00  0.00    -0.000 C 
BRANCH   6   7
ATOM      7  C   UNL     1      16.275 -16.816   7.592  1.00  0.00    -0.000 C 
BRANCH   7   8
ATOM      8  C   UNL     1      16.591 -15.517   6.836  1.00  0.00    -0.000 C 
BRANCH   8   9
ATOM      9  C   UNL     1      18.093 -15.347   6.539  1.00  0.00    -0.000 C 
BRANCH   9  10
ATOM     10  C   UNL     1      18.927 -16.641   6.629  1.00  0.00    -0.000 C 
BRANCH  10  11
ATOM     11  C   UNL     1      18.371 -17.828   5.827  1.00  0.00    -0.003 C 
ATOM     12  C   UNL     1      19.123 -18.066   4.517  1.00  0.00     0.004 C 
ENDBRANCH  10  11
ENDBRANCH   9  10
ENDBRANCH   8   9
ENDBRANCH   7   8
ENDBRANCH   6   7
ENDBRANCH   5   6
ENDBRANCH   4   5
ENDBRANCH   3   4
ENDBRANCH   2   3
ENDBRANCH   1   2
BRANCH   1  13
ATOM     13  C   UNL     1      12.004 -17.100   4.551  1.00  0.00     0.000 C 
BRANCH  13  14
ATOM     14  C   UNL     1      10.702 -16.622   3.891  1.00  0.00     0.000 C 
BRANCH  14  15
ATOM     15  C   UNL     1       9.684 -16.174   4.951  1.00  0.00     0.000 C 
BRANCH  15  16
ATOM     16  C   UNL     1       9.889 -14.716   5.397  1.00  0.00     0.000 C 
BRANCH  16  17
ATOM     17  C   UNL     1       9.241 -13.659   4.481  1.00  0.00     0.000 C 
BRANCH  17  18
ATOM     18  C   UNL     1       8.729 -12.397   5.206  1.00  0.00     0.000 C 
BRANCH  18  19
ATOM     19  C   UNL     1       9.830 -11.463   5.746  1.00  0.00     0.000 C 
BRANCH  19  20
ATOM     20  C   UNL     1      11.056 -12.178   6.347  1.00  0.00     0.006 C 
BRANCH  20  21
ATOM     21  C   UNL     1      12.341 -12.041   5.516  1.00  0.00     0.053 C 
BRANCH  21  22
ATOM     22  C   UNL     1      12.388 -10.744   4.768  1.00  0.00     0.041 C 
ATOM     23  O   UNL     1      11.670  -9.776   5.131  1.00  0.00    -0.550 OA
ATOM     24  O   UNL     1      13.205 -10.614   3.651  1.00  0.00    -0.550 OA
ENDBRANCH  21  22
ENDBRANCH  20  21
ENDBRANCH  19  20
ENDBRANCH  18  19
ENDBRANCH  17  18
ENDBRANCH  16  17
ENDBRANCH  15  16
ENDBRANCH  14  15
ENDBRANCH  13  14
ENDBRANCH   1  13
TORSDOF 20
ENDMDL
