MODEL 1
REMARK VINA RESULT:    -5.542      0.000      0.000
REMARK INTER + INTRA:          -6.201
REMARK INTER:                  -5.866
REMARK INTRA:                  -0.335
REMARK UNBOUND:                -0.335
REMARK SMILES CC1=CC[C@@]23[C@@H]([C@@H]12)[C@H](C(C)C)CC[C@H]3C
REMARK SMILES IDX 15 1 14 2 13 3 12 4 8 5 6 6 5 7 7 8 2 9 3 10 4 11 1 12 9 13
REMARK SMILES IDX 10 14 11 15
REMARK H PARENT
REMARK Flexibility Score: inf
ROOT
ATOM      1  C   UNL     1     169.966 168.606 198.103  1.00  0.00     0.008 C 
ATOM      2  C   UNL     1     168.436 168.574 198.243  1.00  0.00    -0.007 C 
ATOM      3  C   UNL     1     167.870 169.999 198.120  1.00  0.00     0.004 C 
ATOM      4  C   UNL     1     166.395 170.053 198.516  1.00  0.00     0.004 C 
ATOM      5  C   UNL     1     166.231 169.778 200.025  1.00  0.00    -0.004 C 
ATOM      6  C   UNL     1     166.846 168.399 200.389  1.00  0.00     0.007 C 
ATOM      7  C   UNL     1     167.994 167.838 199.536  1.00  0.00    -0.013 C 
ATOM      8  C   UNL     1     168.297 168.488 200.883  1.00  0.00     0.025 C 
ATOM      9  C   UNL     1     168.773 167.351 201.725  1.00  0.00    -0.073 C 
ATOM     10  C   UNL     1     168.774 166.191 201.077  1.00  0.00    -0.027 C 
ATOM     11  C   UNL     1     168.267 166.331 199.684  1.00  0.00     0.035 C 
ATOM     12  C   UNL     1     169.195 167.499 203.153  1.00  0.00     0.039 C 
ENDROOT
BRANCH   5  13
ATOM     13  C   UNL     1     164.739 169.833 200.488  1.00  0.00    -0.014 C 
ATOM     14  C   UNL     1     163.794 169.397 199.352  1.00  0.00     0.007 C 
ATOM     15  C   UNL     1     164.460 168.953 201.720  1.00  0.00     0.007 C 
ENDBRANCH   5  13
TORSDOF 1
ENDMDL
MODEL 2
REMARK VINA RESULT:    -5.531      4.809      7.097
REMARK INTER + INTRA:          -6.189
REMARK INTER:                  -5.854
REMARK INTRA:                  -0.335
REMARK UNBOUND:                -0.335
REMARK SMILES CC1=CC[C@@]23[C@@H]([C@@H]12)[C@H](C(C)C)CC[C@H]3C
REMARK SMILES IDX 15 1 14 2 13 3 12 4 8 5 6 6 5 7 7 8 2 9 3 10 4 11 1 12 9 13
REMARK SMILES IDX 10 14 11 15
REMARK H PARENT
REMARK Flexibility Score: inf
ROOT
ATOM      1  C   UNL     1     162.027 163.389 198.121  1.00  0.00     0.008 C 
ATOM      2  C   UNL     1     163.559 163.429 198.235  1.00  0.00    -0.007 C 
ATOM      3  C   UNL     1     164.132 162.009 198.095  1.00  0.00     0.004 C 
ATOM      4  C   UNL     1     165.613 161.963 198.465  1.00  0.00     0.004 C 
ATOM      5  C   UNL     1     165.802 162.232 199.971  1.00  0.00    -0.004 C 
ATOM      6  C   UNL     1     165.185 163.605 200.353  1.00  0.00     0.007 C 
ATOM      7  C   UNL     1     164.018 164.163 199.523  1.00  0.00    -0.013 C 
ATOM      8  C   UNL     1     163.743 163.505 200.872  1.00  0.00     0.025 C 
ATOM      9  C   UNL     1     163.275 164.634 201.727  1.00  0.00    -0.073 C 
ATOM     10  C   UNL     1     163.256 165.797 201.086  1.00  0.00    -0.027 C 
ATOM     11  C   UNL     1     163.739 165.667 199.683  1.00  0.00     0.035 C 
ATOM     12  C   UNL     1     162.879 164.477 203.162  1.00  0.00     0.039 C 
ENDROOT
BRANCH   5  13
ATOM     13  C   UNL     1     167.303 162.184 200.408  1.00  0.00    -0.014 C 
ATOM     14  C   UNL     1     168.226 162.612 199.251  1.00  0.00     0.007 C 
ATOM     15  C   UNL     1     167.602 163.077 201.627  1.00  0.00     0.007 C 
ENDBRANCH   5  13
TORSDOF 1
ENDMDL
MODEL 3
REMARK VINA RESULT:    -5.377      3.767      6.363
REMARK INTER + INTRA:          -6.026
REMARK INTER:                  -5.755
REMARK INTRA:                  -0.271
REMARK UNBOUND:                -0.335
REMARK SMILES CC1=CC[C@@]23[C@@H]([C@@H]12)[C@H](C(C)C)CC[C@H]3C
REMARK SMILES IDX 15 1 14 2 13 3 12 4 8 5 6 6 5 7 7 8 2 9 3 10 4 11 1 12 9 13
REMARK SMILES IDX 10 14 11 15
REMARK H PARENT
REMARK Flexibility Score: inf
ROOT
ATOM      1  C   UNL     1     164.078 168.023 202.246  1.00  0.00     0.008 C 
ATOM      2  C   UNL     1     163.199 166.972 201.550  1.00  0.00    -0.007 C 
ATOM      3  C   UNL     1     163.775 165.567 201.790  1.00  0.00     0.004 C 
ATOM      4  C   UNL     1     163.094 164.523 200.906  1.00  0.00     0.004 C 
ATOM      5  C   UNL     1     163.447 164.759 199.424  1.00  0.00    -0.004 C 
ATOM      6  C   UNL     1     163.034 166.193 198.995  1.00  0.00     0.007 C 
ATOM      7  C   UNL     1     162.981 167.309 200.051  1.00  0.00    -0.013 C 
ATOM      8  C   UNL     1     164.174 167.217 199.104  1.00  0.00     0.025 C 
ATOM      9  C   UNL     1     164.044 168.435 198.253  1.00  0.00    -0.073 C 
ATOM     10  C   UNL     1     162.982 169.172 198.561  1.00  0.00    -0.027 C 
ATOM     11  C   UNL     1     162.184 168.565 199.661  1.00  0.00     0.035 C 
ATOM     12  C   UNL     1     165.002 168.785 197.157  1.00  0.00     0.039 C 
ENDROOT
BRANCH   5  13
ATOM     13  C   UNL     1     162.786 163.709 198.472  1.00  0.00    -0.014 C 
ATOM     14  C   UNL     1     162.724 164.240 197.027  1.00  0.00     0.007 C 
ATOM     15  C   UNL     1     163.524 162.358 198.464  1.00  0.00     0.007 C 
ENDBRANCH   5  13
TORSDOF 1
ENDMDL
MODEL 4
REMARK VINA RESULT:    -5.373      2.206      4.808
REMARK INTER + INTRA:          -6.022
REMARK INTER:                  -5.818
REMARK INTRA:                  -0.204
REMARK UNBOUND:                -0.335
REMARK SMILES CC1=CC[C@@]23[C@@H]([C@@H]12)[C@H](C(C)C)CC[C@H]3C
REMARK SMILES IDX 15 1 14 2 13 3 12 4 8 5 6 6 5 7 7 8 2 9 3 10 4 11 1 12 9 13
REMARK SMILES IDX 10 14 11 15
REMARK H PARENT
REMARK Flexibility Score: inf
ROOT
ATOM      1  C   UNL     1     167.381 167.573 200.398  1.00  0.00     0.008 C 
ATOM      2  C   UNL     1     167.050 168.769 201.304  1.00  0.00    -0.007 C 
ATOM      3  C   UNL     1     167.162 168.354 202.780  1.00  0.00     0.004 C 
ATOM      4  C   UNL     1     166.589 169.424 203.709  1.00  0.00     0.004 C 
ATOM      5  C   UNL     1     165.062 169.533 203.528  1.00  0.00    -0.004 C 
ATOM      6  C   UNL     1     164.718 169.852 202.047  1.00  0.00     0.007 C 
ATOM      7  C   UNL     1     165.682 169.405 200.937  1.00  0.00    -0.013 C 
ATOM      8  C   UNL     1     164.412 168.604 201.207  1.00  0.00     0.025 C 
ATOM      9  C   UNL     1     163.589 168.824 199.983  1.00  0.00    -0.073 C 
ATOM     10  C   UNL     1     164.181 169.614 199.094  1.00  0.00    -0.027 C 
ATOM     11  C   UNL     1     165.505 170.097 199.575  1.00  0.00     0.035 C 
ATOM     12  C   UNL     1     162.231 168.227 199.780  1.00  0.00     0.039 C 
ENDROOT
BRANCH   5  13
ATOM     13  C   UNL     1     164.419 170.607 204.465  1.00  0.00    -0.014 C 
ATOM     14  C   UNL     1     163.140 170.062 205.129  1.00  0.00     0.007 C 
ATOM     15  C   UNL     1     165.376 171.088 205.572  1.00  0.00     0.007 C 
ENDBRANCH   5  13
TORSDOF 1
ENDMDL
MODEL 5
REMARK VINA RESULT:    -5.366      5.364      6.505
REMARK INTER + INTRA:          -6.015
REMARK INTER:                  -5.679
REMARK INTRA:                  -0.335
REMARK UNBOUND:                -0.335
REMARK SMILES CC1=CC[C@@]23[C@@H]([C@@H]12)[C@H](C(C)C)CC[C@H]3C
REMARK SMILES IDX 15 1 14 2 13 3 12 4 8 5 6 6 5 7 7 8 2 9 3 10 4 11 1 12 9 13
REMARK SMILES IDX 10 14 11 15
REMARK H PARENT
REMARK Flexibility Score: inf
ROOT
ATOM      1  C   UNL     1     162.872 164.501 197.404  1.00  0.00     0.008 C 
ATOM      2  C   UNL     1     162.618 164.123 198.871  1.00  0.00    -0.007 C 
ATOM      3  C   UNL     1     162.357 165.391 199.701  1.00  0.00     0.004 C 
ATOM      4  C   UNL     1     162.363 165.093 201.199  1.00  0.00     0.004 C 
ATOM      5  C   UNL     1     163.779 164.699 201.665  1.00  0.00    -0.004 C 
ATOM      6  C   UNL     1     164.287 163.471 200.860  1.00  0.00     0.007 C 
ATOM      7  C   UNL     1     163.754 163.230 199.439  1.00  0.00    -0.013 C 
ATOM      8  C   UNL     1     165.135 163.849 199.637  1.00  0.00     0.025 C 
ATOM      9  C   UNL     1     166.068 162.798 199.137  1.00  0.00    -0.073 C 
ATOM     10  C   UNL     1     165.441 161.708 198.710  1.00  0.00    -0.027 C 
ATOM     11  C   UNL     1     163.965 161.815 198.873  1.00  0.00     0.035 C 
ATOM     12  C   UNL     1     167.557 162.950 199.128  1.00  0.00     0.039 C 
ENDROOT
BRANCH   5  13
ATOM     13  C   UNL     1     163.847 164.394 203.197  1.00  0.00    -0.014 C 
ATOM     14  C   UNL     1     162.453 164.516 203.843  1.00  0.00     0.007 C 
ATOM     15  C   UNL     1     164.408 162.994 203.507  1.00  0.00     0.007 C 
ENDBRANCH   5  13
TORSDOF 1
ENDMDL
MODEL 6
REMARK VINA RESULT:    -5.366      2.452      4.979
REMARK INTER + INTRA:          -6.014
REMARK INTER:                  -5.739
REMARK INTRA:                  -0.275
REMARK UNBOUND:                -0.335
REMARK SMILES CC1=CC[C@@]23[C@@H]([C@@H]12)[C@H](C(C)C)CC[C@H]3C
REMARK SMILES IDX 15 1 14 2 13 3 12 4 8 5 6 6 5 7 7 8 2 9 3 10 4 11 1 12 9 13
REMARK SMILES IDX 10 14 11 15
REMARK H PARENT
REMARK Flexibility Score: inf
ROOT
ATOM      1  C   UNL     1     168.010 163.962 202.246  1.00  0.00     0.008 C 
ATOM      2  C   UNL     1     168.879 165.007 201.530  1.00  0.00    -0.007 C 
ATOM      3  C   UNL     1     168.337 166.419 201.809  1.00  0.00     0.004 C 
ATOM      4  C   UNL     1     169.000 167.462 200.911  1.00  0.00     0.004 C 
ATOM      5  C   UNL     1     168.586 167.250 199.441  1.00  0.00    -0.004 C 
ATOM      6  C   UNL     1     168.959 165.815 198.979  1.00  0.00     0.007 C 
ATOM      7  C   UNL     1     169.034 164.686 200.019  1.00  0.00    -0.013 C 
ATOM      8  C   UNL     1     167.807 164.809 199.120  1.00  0.00     0.025 C 
ATOM      9  C   UNL     1     167.884 163.599 198.250  1.00  0.00    -0.073 C 
ATOM     10  C   UNL     1     168.944 162.841 198.508  1.00  0.00    -0.027 C 
ATOM     11  C   UNL     1     169.794 163.422 199.584  1.00  0.00     0.035 C 
ATOM     12  C   UNL     1     166.879 163.279 197.188  1.00  0.00     0.039 C 
ENDROOT
BRANCH   5  13
ATOM     13  C   UNL     1     169.228 168.301 198.477  1.00  0.00    -0.014 C 
ATOM     14  C   UNL     1     169.282 167.762 197.034  1.00  0.00     0.007 C 
ATOM     15  C   UNL     1     168.477 169.646 198.468  1.00  0.00     0.007 C 
ENDBRANCH   5  13
TORSDOF 1
ENDMDL
MODEL 7
REMARK VINA RESULT:    -5.359      4.941      7.331
REMARK INTER + INTRA:          -6.007
REMARK INTER:                  -5.802
REMARK INTRA:                  -0.205
REMARK UNBOUND:                -0.335
REMARK SMILES CC1=CC[C@@]23[C@@H]([C@@H]12)[C@H](C(C)C)CC[C@H]3C
REMARK SMILES IDX 15 1 14 2 13 3 12 4 8 5 6 6 5 7 7 8 2 9 3 10 4 11 1 12 9 13
REMARK SMILES IDX 10 14 11 15
REMARK H PARENT
REMARK Flexibility Score: inf
ROOT
ATOM      1  C   UNL     1     164.580 164.369 200.416  1.00  0.00     0.008 C 
ATOM      2  C   UNL     1     164.940 163.180 201.320  1.00  0.00    -0.007 C 
ATOM      3  C   UNL     1     164.797 163.585 202.797  1.00  0.00     0.004 C 
ATOM      4  C   UNL     1     165.395 162.530 203.727  1.00  0.00     0.004 C 
ATOM      5  C   UNL     1     166.927 162.471 203.563  1.00  0.00    -0.004 C 
ATOM      6  C   UNL     1     167.297 162.171 202.085  1.00  0.00     0.007 C 
ATOM      7  C   UNL     1     166.332 162.592 200.967  1.00  0.00    -0.013 C 
ATOM      8  C   UNL     1     167.572 163.433 201.255  1.00  0.00     0.025 C 
ATOM      9  C   UNL     1     168.416 163.246 200.039  1.00  0.00    -0.073 C 
ATOM     10  C   UNL     1     167.860 162.441 199.140  1.00  0.00    -0.027 C 
ATOM     11  C   UNL     1     166.547 161.913 199.603  1.00  0.00     0.035 C 
ATOM     12  C   UNL     1     169.755 163.888 199.854  1.00  0.00     0.039 C 
ENDROOT
BRANCH   5  13
ATOM     13  C   UNL     1     167.593 161.415 204.503  1.00  0.00    -0.014 C 
ATOM     14  C   UNL     1     168.892 161.970 205.120  1.00  0.00     0.007 C 
ATOM     15  C   UNL     1     166.667 160.957 205.645  1.00  0.00     0.007 C 
ENDBRANCH   5  13
TORSDOF 1
ENDMDL
MODEL 8
REMARK VINA RESULT:    -5.325      4.956      6.918
REMARK INTER + INTRA:          -5.971
REMARK INTER:                  -5.676
REMARK INTRA:                  -0.295
REMARK UNBOUND:                -0.335
REMARK SMILES CC1=CC[C@@]23[C@@H]([C@@H]12)[C@H](C(C)C)CC[C@H]3C
REMARK SMILES IDX 15 1 14 2 13 3 12 4 8 5 6 6 5 7 7 8 2 9 3 10 4 11 1 12 9 13
REMARK SMILES IDX 10 14 11 15
REMARK H PARENT
REMARK Flexibility Score: inf
ROOT
ATOM      1  C   UNL     1     167.654 163.891 203.252  1.00  0.00     0.008 C 
ATOM      2  C   UNL     1     167.021 162.840 202.328  1.00  0.00    -0.007 C 
ATOM      3  C   UNL     1     167.826 162.739 201.021  1.00  0.00     0.004 C 
ATOM      4  C   UNL     1     167.089 161.908 199.971  1.00  0.00     0.004 C 
ATOM      5  C   UNL     1     165.816 162.639 199.500  1.00  0.00    -0.004 C 
ATOM      6  C   UNL     1     164.890 162.938 200.711  1.00  0.00     0.007 C 
ATOM      7  C   UNL     1     165.507 163.106 202.108  1.00  0.00    -0.013 C 
ATOM      8  C   UNL     1     165.094 164.338 201.307  1.00  0.00     0.025 C 
ATOM      9  C   UNL     1     163.947 164.894 202.082  1.00  0.00    -0.073 C 
ATOM     10  C   UNL     1     163.652 164.176 203.160  1.00  0.00    -0.027 C 
ATOM     11  C   UNL     1     164.533 162.983 203.292  1.00  0.00     0.035 C 
ATOM     12  C   UNL     1     163.196 166.125 201.681  1.00  0.00     0.039 C 
ENDROOT
BRANCH   5  13
ATOM     13  C   UNL     1     165.028 161.838 198.413  1.00  0.00    -0.014 C 
ATOM     14  C   UNL     1     163.508 161.984 198.618  1.00  0.00     0.007 C 
ATOM     15  C   UNL     1     165.372 162.276 196.978  1.00  0.00     0.007 C 
ENDBRANCH   5  13
TORSDOF 1
ENDMDL
MODEL 9
REMARK VINA RESULT:    -5.324      1.460      4.204
REMARK INTER + INTRA:          -5.970
REMARK INTER:                  -5.730
REMARK INTRA:                  -0.240
REMARK UNBOUND:                -0.335
REMARK SMILES CC1=CC[C@@]23[C@@H]([C@@H]12)[C@H](C(C)C)CC[C@H]3C
REMARK SMILES IDX 15 1 14 2 13 3 12 4 8 5 6 6 5 7 7 8 2 9 3 10 4 11 1 12 9 13
REMARK SMILES IDX 10 14 11 15
REMARK H PARENT
REMARK Flexibility Score: inf
ROOT
ATOM      1  C   UNL     1     168.656 166.563 198.753  1.00  0.00     0.008 C 
ATOM      2  C   UNL     1     169.060 167.339 200.016  1.00  0.00    -0.007 C 
ATOM      3  C   UNL     1     169.074 166.394 201.229  1.00  0.00     0.004 C 
ATOM      4  C   UNL     1     169.208 167.167 202.541  1.00  0.00     0.004 C 
ATOM      5  C   UNL     1     167.939 168.002 202.807  1.00  0.00    -0.004 C 
ATOM      6  C   UNL     1     167.678 168.973 201.623  1.00  0.00     0.007 C 
ATOM      7  C   UNL     1     168.179 168.601 200.219  1.00  0.00    -0.013 C 
ATOM      8  C   UNL     1     166.708 168.411 200.574  1.00  0.00     0.025 C 
ATOM      9  C   UNL     1     166.007 169.418 199.724  1.00  0.00    -0.073 C 
ATOM     10  C   UNL     1     166.839 170.133 198.975  1.00  0.00    -0.027 C 
ATOM     11  C   UNL     1     168.261 169.757 199.207  1.00  0.00     0.035 C 
ATOM     12  C   UNL     1     164.523 169.612 199.725  1.00  0.00     0.039 C 
ENDROOT
BRANCH   5  13
ATOM     13  C   UNL     1     168.017 168.805 204.146  1.00  0.00    -0.014 C 
ATOM     14  C   UNL     1     166.749 169.655 204.350  1.00  0.00     0.007 C 
ATOM     15  C   UNL     1     168.202 167.901 205.379  1.00  0.00     0.007 C 
ENDBRANCH   5  13
TORSDOF 1
ENDMDL
