MODEL 1
REMARK VINA RESULT:    -4.872      0.000      0.000
REMARK INTER + INTRA:          -8.510
REMARK INTER:                  -7.435
REMARK INTRA:                  -1.075
REMARK UNBOUND:                -1.075
REMARK SMILES CCCCCCCCCCC(=O)[O-]
REMARK SMILES IDX 7 1 8 2 9 3 10 4 11 5 12 6 13 7 6 8 5 9 4 10 3 11 2 12 1 13
REMARK H PARENT
REMARK Flexibility Score: inf
ROOT
ATOM      1  C   UNL     1      15.919  -5.130  34.719  1.00  0.00     0.000 C 
ENDROOT
BRANCH   1   2
ATOM      2  C   UNL     1      16.909  -5.414  35.862  1.00  0.00     0.000 C 
BRANCH   2   3
ATOM      3  C   UNL     1      17.905  -4.263  36.080  1.00  0.00     0.006 C 
BRANCH   3   4
ATOM      4  C   UNL     1      17.949  -3.287  34.898  1.00  0.00     0.053 C 
BRANCH   4   5
ATOM      5  C   UNL     1      19.085  -2.325  35.057  1.00  0.00     0.041 C 
ATOM      6  O   UNL     1      18.865  -1.138  35.413  1.00  0.00    -0.550 OA
ATOM      7  O   UNL     1      20.392  -2.754  34.862  1.00  0.00    -0.550 OA
ENDBRANCH   4   5
ENDBRANCH   3   4
ENDBRANCH   2   3
ENDBRANCH   1   2
BRANCH   1   8
ATOM      8  C   UNL     1      15.673  -6.365  33.835  1.00  0.00     0.000 C 
BRANCH   8   9
ATOM      9  C   UNL     1      16.699  -6.489  32.696  1.00  0.00    -0.000 C 
BRANCH   9  10
ATOM     10  C   UNL     1      17.707  -7.629  32.922  1.00  0.00    -0.000 C 
BRANCH  10  11
ATOM     11  C   UNL     1      19.125  -7.139  33.285  1.00  0.00    -0.000 C 
BRANCH  11  12
ATOM     12  C   UNL     1      19.376  -5.694  32.827  1.00  0.00    -0.003 C 
ATOM     13  C   UNL     1      20.738  -5.558  32.154  1.00  0.00     0.004 C 
ENDBRANCH  11  12
ENDBRANCH  10  11
ENDBRANCH   9  10
ENDBRANCH   8   9
ENDBRANCH   1   8
TORSDOF 9
ENDMDL
MODEL 2
REMARK VINA RESULT:    -4.817      3.513      4.969
REMARK INTER + INTRA:          -8.426
REMARK INTER:                  -7.408
REMARK INTRA:                  -1.018
REMARK UNBOUND:                -1.075
REMARK SMILES CCCCCCCCCCC(=O)[O-]
REMARK SMILES IDX 7 1 8 2 9 3 10 4 11 5 12 6 13 7 6 8 5 9 4 10 3 11 2 12 1 13
REMARK H PARENT
REMARK Flexibility Score: inf
ROOT
ATOM      1  C   UNL     1      15.895  -4.971  35.303  1.00  0.00     0.000 C 
ENDROOT
BRANCH   1   2
ATOM      2  C   UNL     1      16.037  -5.321  33.812  1.00  0.00     0.000 C 
BRANCH   2   3
ATOM      3  C   UNL     1      15.887  -6.827  33.543  1.00  0.00     0.006 C 
BRANCH   3   4
ATOM      4  C   UNL     1      16.276  -7.214  32.110  1.00  0.00     0.053 C 
BRANCH   4   5
ATOM      5  C   UNL     1      16.283  -8.702  31.955  1.00  0.00     0.041 C 
ATOM      6  O   UNL     1      15.246  -9.371  32.205  1.00  0.00    -0.550 OA
ATOM      7  O   UNL     1      17.421  -9.347  31.486  1.00  0.00    -0.550 OA
ENDBRANCH   4   5
ENDBRANCH   3   4
ENDBRANCH   2   3
ENDBRANCH   1   2
BRANCH   1   8
ATOM      8  C   UNL     1      17.253  -4.892  36.021  1.00  0.00     0.000 C 
BRANCH   8   9
ATOM      9  C   UNL     1      18.172  -3.812  35.426  1.00  0.00    -0.000 C 
BRANCH   9  10
ATOM     10  C   UNL     1      19.554  -4.357  35.027  1.00  0.00    -0.000 C 
BRANCH  10  11
ATOM     11  C   UNL     1      19.960  -4.016  33.577  1.00  0.00    -0.000 C 
BRANCH  11  12
ATOM     12  C   UNL     1      19.851  -5.230  32.643  1.00  0.00    -0.003 C 
ATOM     13  C   UNL     1      19.613  -6.513  33.433  1.00  0.00     0.004 C 
ENDBRANCH  11  12
ENDBRANCH  10  11
ENDBRANCH   9  10
ENDBRANCH   8   9
ENDBRANCH   1   8
TORSDOF 9
ENDMDL
MODEL 3
REMARK VINA RESULT:    -4.798      3.706      5.058
REMARK INTER + INTRA:          -8.397
REMARK INTER:                  -7.148
REMARK INTRA:                  -1.249
REMARK UNBOUND:                -1.075
REMARK SMILES CCCCCCCCCCC(=O)[O-]
REMARK SMILES IDX 7 1 8 2 9 3 10 4 11 5 12 6 13 7 6 8 5 9 4 10 3 11 2 12 1 13
REMARK H PARENT
REMARK Flexibility Score: inf
ROOT
ATOM      1  C   UNL     1      16.392  -4.995  33.206  1.00  0.00     0.000 C 
ENDROOT
BRANCH   1   2
ATOM      2  C   UNL     1      15.732  -5.953  34.213  1.00  0.00     0.000 C 
BRANCH   2   3
ATOM      3  C   UNL     1      15.663  -7.398  33.694  1.00  0.00     0.006 C 
BRANCH   3   4
ATOM      4  C   UNL     1      16.010  -7.510  32.204  1.00  0.00     0.053 C 
BRANCH   4   5
ATOM      5  C   UNL     1      16.136  -8.946  31.803  1.00  0.00     0.041 C 
ATOM      6  O   UNL     1      15.117  -9.685  31.763  1.00  0.00    -0.550 OA
ATOM      7  O   UNL     1      17.372  -9.457  31.425  1.00  0.00    -0.550 OA
ENDBRANCH   4   5
ENDBRANCH   3   4
ENDBRANCH   2   3
ENDBRANCH   1   2
BRANCH   1   8
ATOM      8  C   UNL     1      17.241  -3.913  33.896  1.00  0.00     0.000 C 
BRANCH   8   9
ATOM      9  C   UNL     1      18.736  -4.033  33.559  1.00  0.00    -0.000 C 
BRANCH   9  10
ATOM     10  C   UNL     1      19.024  -5.106  32.495  1.00  0.00    -0.000 C 
BRANCH  10  11
ATOM     11  C   UNL     1      19.993  -6.209  32.974  1.00  0.00    -0.000 C 
BRANCH  11  12
ATOM     12  C   UNL     1      19.255  -7.383  33.635  1.00  0.00    -0.003 C 
ATOM     13  C   UNL     1      19.340  -7.302  35.156  1.00  0.00     0.004 C 
ENDBRANCH  11  12
ENDBRANCH  10  11
ENDBRANCH   9  10
ENDBRANCH   8   9
ENDBRANCH   1   8
TORSDOF 9
ENDMDL
MODEL 4
REMARK VINA RESULT:    -4.762      1.389      3.218
REMARK INTER + INTRA:          -8.342
REMARK INTER:                  -7.078
REMARK INTRA:                  -1.264
REMARK UNBOUND:                -1.075
REMARK SMILES CCCCCCCCCCC(=O)[O-]
REMARK SMILES IDX 7 1 8 2 9 3 10 4 11 5 12 6 13 7 6 8 5 9 4 10 3 11 2 12 1 13
REMARK H PARENT
REMARK Flexibility Score: inf
ROOT
ATOM      1  C   UNL     1      19.268  -6.308  35.132  1.00  0.00     0.000 C 
ENDROOT
BRANCH   1   2
ATOM      2  C   UNL     1      19.475  -6.313  33.608  1.00  0.00     0.000 C 
BRANCH   2   3
ATOM      3  C   UNL     1      19.340  -4.912  32.989  1.00  0.00     0.006 C 
BRANCH   3   4
ATOM      4  C   UNL     1      19.842  -3.802  33.922  1.00  0.00     0.053 C 
BRANCH   4   5
ATOM      5  C   UNL     1      18.788  -2.756  34.103  1.00  0.00     0.041 C 
ATOM      6  O   UNL     1      17.795  -2.716  33.330  1.00  0.00    -0.550 OA
ATOM      7  O   UNL     1      18.876  -1.855  35.157  1.00  0.00    -0.550 OA
ENDBRANCH   4   5
ENDBRANCH   3   4
ENDBRANCH   2   3
ENDBRANCH   1   2
BRANCH   1   8
ATOM      8  C   UNL     1      17.831  -6.682  35.531  1.00  0.00     0.000 C 
BRANCH   8   9
ATOM      9  C   UNL     1      16.939  -5.449  35.749  1.00  0.00    -0.000 C 
BRANCH   9  10
ATOM     10  C   UNL     1      15.862  -5.291  34.662  1.00  0.00    -0.000 C 
BRANCH  10  11
ATOM     11  C   UNL     1      15.518  -6.609  33.935  1.00  0.00    -0.000 C 
BRANCH  11  12
ATOM     12  C   UNL     1      16.044  -6.629  32.491  1.00  0.00    -0.003 C 
ATOM     13  C   UNL     1      16.466  -8.035  32.078  1.00  0.00     0.004 C 
ENDBRANCH  11  12
ENDBRANCH  10  11
ENDBRANCH   9  10
ENDBRANCH   8   9
ENDBRANCH   1   8
TORSDOF 9
ENDMDL
MODEL 5
REMARK VINA RESULT:    -4.749      3.215      5.458
REMARK INTER + INTRA:          -8.322
REMARK INTER:                  -7.152
REMARK INTRA:                  -1.170
REMARK UNBOUND:                -1.075
REMARK SMILES CCCCCCCCCCC(=O)[O-]
REMARK SMILES IDX 7 1 8 2 9 3 10 4 11 5 12 6 13 7 6 8 5 9 4 10 3 11 2 12 1 13
REMARK H PARENT
REMARK Flexibility Score: inf
ROOT
ATOM      1  C   UNL     1      19.367  -5.212  32.888  1.00  0.00     0.000 C 
ENDROOT
BRANCH   1   2
ATOM      2  C   UNL     1      19.605  -6.534  33.638  1.00  0.00     0.000 C 
BRANCH   2   3
ATOM      3  C   UNL     1      18.506  -7.574  33.365  1.00  0.00     0.006 C 
BRANCH   3   4
ATOM      4  C   UNL     1      17.374  -7.022  32.490  1.00  0.00     0.053 C 
BRANCH   4   5
ATOM      5  C   UNL     1      16.256  -8.013  32.397  1.00  0.00     0.041 C 
ATOM      6  O   UNL     1      15.542  -8.258  33.404  1.00  0.00    -0.550 OA
ATOM      7  O   UNL     1      15.970  -8.628  31.185  1.00  0.00    -0.550 OA
ENDBRANCH   4   5
ENDBRANCH   3   4
ENDBRANCH   2   3
ENDBRANCH   1   2
BRANCH   1   8
ATOM      8  C   UNL     1      20.258  -4.072  33.411  1.00  0.00     0.000 C 
BRANCH   8   9
ATOM      9  C   UNL     1      19.772  -3.514  34.759  1.00  0.00    -0.000 C 
BRANCH   9  10
ATOM     10  C   UNL     1      18.239  -3.440  34.856  1.00  0.00    -0.000 C 
BRANCH  10  11
ATOM     11  C   UNL     1      17.665  -4.113  36.122  1.00  0.00    -0.000 C 
BRANCH  11  12
ATOM     12  C   UNL     1      16.756  -5.305  35.784  1.00  0.00    -0.003 C 
ATOM     13  C   UNL     1      15.655  -4.899  34.809  1.00  0.00     0.004 C 
ENDBRANCH  11  12
ENDBRANCH  10  11
ENDBRANCH   9  10
ENDBRANCH   8   9
ENDBRANCH   1   8
TORSDOF 9
ENDMDL
MODEL 6
REMARK VINA RESULT:    -4.738      3.373      5.223
REMARK INTER + INTRA:          -8.305
REMARK INTER:                  -7.037
REMARK INTRA:                  -1.269
REMARK UNBOUND:                -1.075
REMARK SMILES CCCCCCCCCCC(=O)[O-]
REMARK SMILES IDX 7 1 8 2 9 3 10 4 11 5 12 6 13 7 6 8 5 9 4 10 3 11 2 12 1 13
REMARK H PARENT
REMARK Flexibility Score: inf
ROOT
ATOM      1  C   UNL     1      19.253  -7.448  35.235  1.00  0.00     0.000 C 
ENDROOT
BRANCH   1   2
ATOM      2  C   UNL     1      19.172  -7.045  33.753  1.00  0.00     0.000 C 
BRANCH   2   3
ATOM      3  C   UNL     1      18.297  -8.003  32.928  1.00  0.00     0.006 C 
BRANCH   3   4
ATOM      4  C   UNL     1      16.979  -7.360  32.475  1.00  0.00     0.053 C 
BRANCH   4   5
ATOM      5  C   UNL     1      15.814  -8.169  32.951  1.00  0.00     0.041 C 
ATOM      6  O   UNL     1      15.104  -7.758  33.906  1.00  0.00    -0.550 OA
ATOM      7  O   UNL     1      15.480  -9.353  32.306  1.00  0.00    -0.550 OA
ENDBRANCH   4   5
ENDBRANCH   3   4
ENDBRANCH   2   3
ENDBRANCH   1   2
BRANCH   1   8
ATOM      8  C   UNL     1      18.032  -6.971  36.041  1.00  0.00     0.000 C 
BRANCH   8   9
ATOM      9  C   UNL     1      18.303  -5.664  36.804  1.00  0.00    -0.000 C 
BRANCH   9  10
ATOM     10  C   UNL     1      17.513  -4.470  36.242  1.00  0.00    -0.000 C 
BRANCH  10  11
ATOM     11  C   UNL     1      16.384  -4.876  35.270  1.00  0.00    -0.000 C 
BRANCH  11  12
ATOM     12  C   UNL     1      16.499  -4.159  33.916  1.00  0.00    -0.003 C 
ATOM     13  C   UNL     1      17.913  -3.631  33.690  1.00  0.00     0.004 C 
ENDBRANCH  11  12
ENDBRANCH  10  11
ENDBRANCH   9  10
ENDBRANCH   8   9
ENDBRANCH   1   8
TORSDOF 9
ENDMDL
MODEL 7
REMARK VINA RESULT:    -4.714     18.577     19.372
REMARK INTER + INTRA:          -8.268
REMARK INTER:                  -7.151
REMARK INTRA:                  -1.117
REMARK UNBOUND:                -1.075
REMARK SMILES CCCCCCCCCCC(=O)[O-]
REMARK SMILES IDX 7 1 8 2 9 3 10 4 11 5 12 6 13 7 6 8 5 9 4 10 3 11 2 12 1 13
REMARK H PARENT
REMARK Flexibility Score: inf
ROOT
ATOM      1  C   UNL     1      11.703   4.916  20.871  1.00  0.00     0.000 C 
ENDROOT
BRANCH   1   2
ATOM      2  C   UNL     1      10.952   6.151  21.398  1.00  0.00     0.000 C 
BRANCH   2   3
ATOM      3  C   UNL     1      11.136   7.383  20.497  1.00  0.00     0.006 C 
BRANCH   3   4
ATOM      4  C   UNL     1      11.675   8.600  21.260  1.00  0.00     0.053 C 
BRANCH   4   5
ATOM      5  C   UNL     1      13.169   8.633  21.201  1.00  0.00     0.041 C 
ATOM      6  O   UNL     1      13.758   8.703  20.090  1.00  0.00    -0.550 OA
ATOM      7  O   UNL     1      13.912   8.639  22.375  1.00  0.00    -0.550 OA
ENDBRANCH   4   5
ENDBRANCH   3   4
ENDBRANCH   2   3
ENDBRANCH   1   2
BRANCH   1   8
ATOM      8  C   UNL     1      11.996   5.006  19.363  1.00  0.00     0.000 C 
BRANCH   8   9
ATOM      9  C   UNL     1      11.379   3.841  18.572  1.00  0.00    -0.000 C 
BRANCH   9  10
ATOM     10  C   UNL     1      10.232   3.148  19.326  1.00  0.00    -0.000 C 
BRANCH  10  11
ATOM     11  C   UNL     1       8.837   3.433  18.730  1.00  0.00    -0.000 C 
BRANCH  11  12
ATOM     12  C   UNL     1       8.231   4.737  19.268  1.00  0.00    -0.003 C 
ATOM     13  C   UNL     1       8.376   5.871  18.257  1.00  0.00     0.004 C 
ENDBRANCH  11  12
ENDBRANCH  10  11
ENDBRANCH   9  10
ENDBRANCH   8   9
ENDBRANCH   1   8
TORSDOF 9
ENDMDL
MODEL 8
REMARK VINA RESULT:    -4.701      3.490      5.278
REMARK INTER + INTRA:          -8.249
REMARK INTER:                  -7.123
REMARK INTRA:                  -1.126
REMARK UNBOUND:                -1.075
REMARK SMILES CCCCCCCCCCC(=O)[O-]
REMARK SMILES IDX 7 1 8 2 9 3 10 4 11 5 12 6 13 7 6 8 5 9 4 10 3 11 2 12 1 13
REMARK H PARENT
REMARK Flexibility Score: inf
ROOT
ATOM      1  C   UNL     1      17.316  -3.911  33.265  1.00  0.00     0.000 C 
ENDROOT
BRANCH   1   2
ATOM      2  C   UNL     1      17.560  -5.238  32.526  1.00  0.00     0.000 C 
BRANCH   2   3
ATOM      3  C   UNL     1      16.253  -5.970  32.181  1.00  0.00     0.006 C 
BRANCH   3   4
ATOM      4  C   UNL     1      15.988  -7.173  33.095  1.00  0.00     0.053 C 
BRANCH   4   5
ATOM      5  C   UNL     1      16.180  -8.453  32.344  1.00  0.00     0.041 C 
ATOM      6  O   UNL     1      17.294  -8.720  31.822  1.00  0.00    -0.550 OA
ATOM      7  O   UNL     1      15.143  -9.374  32.263  1.00  0.00    -0.550 OA
ENDBRANCH   4   5
ENDBRANCH   3   4
ENDBRANCH   2   3
ENDBRANCH   1   2
BRANCH   1   8
ATOM      8  C   UNL     1      18.492  -3.522  34.177  1.00  0.00     0.000 C 
BRANCH   8   9
ATOM      9  C   UNL     1      18.095  -3.477  35.662  1.00  0.00    -0.000 C 
BRANCH   9  10
ATOM     10  C   UNL     1      17.403  -4.767  36.135  1.00  0.00    -0.000 C 
BRANCH  10  11
ATOM     11  C   UNL     1      18.368  -5.793  36.767  1.00  0.00    -0.000 C 
BRANCH  11  12
ATOM     12  C   UNL     1      18.218  -7.190  36.146  1.00  0.00    -0.003 C 
ATOM     13  C   UNL     1      19.226  -7.405  35.023  1.00  0.00     0.004 C 
ENDBRANCH  11  12
ENDBRANCH  10  11
ENDBRANCH   9  10
ENDBRANCH   8   9
ENDBRANCH   1   8
TORSDOF 9
ENDMDL
MODEL 9
REMARK VINA RESULT:    -4.681      1.206      2.845
REMARK INTER + INTRA:          -8.219
REMARK INTER:                  -6.912
REMARK INTRA:                  -1.307
REMARK UNBOUND:                -1.075
REMARK SMILES CCCCCCCCCCC(=O)[O-]
REMARK SMILES IDX 7 1 8 2 9 3 10 4 11 5 12 6 13 7 6 8 5 9 4 10 3 11 2 12 1 13
REMARK H PARENT
REMARK Flexibility Score: inf
ROOT
ATOM      1  C   UNL     1      17.162  -4.912  32.412  1.00  0.00     0.000 C 
ENDROOT
BRANCH   1   2
ATOM      2  C   UNL     1      18.644  -5.300  32.551  1.00  0.00     0.000 C 
BRANCH   2   3
ATOM      3  C   UNL     1      19.441  -4.293  33.395  1.00  0.00     0.006 C 
BRANCH   3   4
ATOM      4  C   UNL     1      18.612  -3.064  33.791  1.00  0.00     0.053 C 
BRANCH   4   5
ATOM      5  C   UNL     1      19.265  -2.338  34.925  1.00  0.00     0.041 C 
ATOM      6  O   UNL     1      18.594  -1.550  35.642  1.00  0.00    -0.550 OA
ATOM      7  O   UNL     1      20.602  -2.568  35.221  1.00  0.00    -0.550 OA
ENDBRANCH   4   5
ENDBRANCH   3   4
ENDBRANCH   2   3
ENDBRANCH   1   2
BRANCH   1   8
ATOM      8  C   UNL     1      16.222  -6.120  32.562  1.00  0.00     0.000 C 
BRANCH   8   9
ATOM      9  C   UNL     1      15.902  -6.439  34.032  1.00  0.00    -0.000 C 
BRANCH   9  10
ATOM     10  C   UNL     1      15.778  -5.178  34.904  1.00  0.00    -0.000 C 
BRANCH  10  11
ATOM     11  C   UNL     1      16.840  -5.091  36.022  1.00  0.00    -0.000 C 
BRANCH  11  12
ATOM     12  C   UNL     1      17.761  -6.320  36.044  1.00  0.00    -0.003 C 
ATOM     13  C   UNL     1      19.074  -6.011  36.758  1.00  0.00     0.004 C 
ENDBRANCH  11  12
ENDBRANCH  10  11
ENDBRANCH   9  10
ENDBRANCH   8   9
ENDBRANCH   1   8
TORSDOF 9
ENDMDL
