MODEL 1
REMARK VINA RESULT:    -7.990      0.000      0.000
REMARK INTER + INTRA:         -12.364
REMARK INTER:                 -10.559
REMARK INTRA:                  -1.805
REMARK UNBOUND:                -1.805
REMARK SMILES CC[C@H](C=C[C@H](C)[C@@H]1CC[C@H]2C3=CC[C@H]4C[C@H](O)CC[C@]4(C)[C@H]3CC[C@@]21C)C(C)C
REMARK SMILES IDX 6 1 7 2 5 3 4 4 3 5 2 6 1 7 28 8 29 9 30 10 8 11 9 12 26 13
REMARK SMILES IDX 10 14 11 15 25 16 27 17 12 18 24 19 23 20 13 21 21 22 14 23
REMARK SMILES IDX 15 24 20 25 22 26 16 27 19 28 17 29 18 30
REMARK H PARENT 18 31
REMARK Flexibility Score: inf
ROOT
ATOM      1  C   UNL     1      -3.173  27.091  48.981  1.00  0.00     0.012 C 
ATOM      2  C   UNL     1      -3.592  28.571  49.146  1.00  0.00     0.012 C 
ENDROOT
BRANCH   1   3
ATOM      3  C   UNL     1      -3.180  26.445  50.358  1.00  0.00    -0.028 C 
ATOM      4  C   UNL     1      -2.080  25.881  50.894  1.00  0.00    -0.027 C 
BRANCH   4   5
ATOM      5  C   UNL     1      -2.069  25.338  52.308  1.00  0.00     0.014 C 
BRANCH   5   6
ATOM      6  C   UNL     1      -3.403  25.726  53.001  1.00  0.00     0.004 C 
ATOM      7  C   UNL     1      -3.253  26.753  54.125  1.00  0.00     0.004 C 
ENDBRANCH   5   6
BRANCH   5   8
ATOM      8  C   UNL     1      -1.734  23.810  52.276  1.00  0.00    -0.011 C 
ATOM      9  C   UNL     1      -1.306  23.304  50.890  1.00  0.00     0.008 C 
ATOM     10  C   UNL     1      -0.722  23.382  53.351  1.00  0.00     0.008 C 
ENDBRANCH   5   8
ENDBRANCH   4   5
ENDBRANCH   1   3
BRANCH   1  11
ATOM     11  C   UNL     1      -4.083  26.287  47.977  1.00  0.00     0.002 C 
ATOM     12  C   UNL     1      -5.455  25.896  48.618  1.00  0.00     0.005 C 
ATOM     13  C   UNL     1      -3.545  24.916  47.443  1.00  0.00    -0.023 C 
ATOM     14  C   UNL     1      -5.499  24.369  48.748  1.00  0.00     0.009 C 
ATOM     15  C   UNL     1      -4.068  23.924  48.486  1.00  0.00     0.021 C 
ATOM     16  C   UNL     1      -2.014  24.714  47.351  1.00  0.00     0.008 C 
ATOM     17  C   UNL     1      -4.182  24.680  46.032  1.00  0.00     0.012 C 
ATOM     18  C   UNL     1      -3.790  22.482  48.093  1.00  0.00    -0.067 C 
ATOM     19  C   UNL     1      -1.659  23.292  46.870  1.00  0.00     0.009 C 
ATOM     20  C   UNL     1      -2.342  22.154  47.703  1.00  0.00     0.021 C 
ATOM     21  C   UNL     1      -4.656  21.502  48.429  1.00  0.00    -0.027 C 
ATOM     22  C   UNL     1      -2.188  20.725  47.057  1.00  0.00    -0.023 C 
ATOM     23  C   UNL     1      -4.400  20.040  48.169  1.00  0.00     0.031 C 
ATOM     24  C   UNL     1      -2.905  19.710  48.005  1.00  0.00     0.002 C 
ATOM     25  C   UNL     1      -0.658  20.361  46.943  1.00  0.00     0.010 C 
ATOM     26  C   UNL     1      -2.841  20.692  45.642  1.00  0.00     0.012 C 
ATOM     27  C   UNL     1      -2.723  18.224  47.584  1.00  0.00     0.036 C 
ATOM     28  C   UNL     1      -0.295  18.924  47.367  1.00  0.00     0.032 C 
ATOM     29  C   UNL     1      -1.359  17.923  46.921  1.00  0.00     0.114 C 
BRANCH  29  30
ATOM     30  O   UNL     1      -0.938  16.624  47.256  1.00  0.00    -0.393 OA
ATOM     31  H   UNL     1      -1.455  16.357  48.060  1.00  0.00     0.210 HD
ENDBRANCH  29  30
ENDBRANCH   1  11
TORSDOF 6
ENDMDL
MODEL 2
REMARK VINA RESULT:    -7.837      0.544      1.650
REMARK INTER + INTRA:         -12.161
REMARK INTER:                 -10.573
REMARK INTRA:                  -1.589
REMARK UNBOUND:                -1.805
REMARK SMILES CC[C@H](C=C[C@H](C)[C@@H]1CC[C@H]2C3=CC[C@H]4C[C@H](O)CC[C@]4(C)[C@H]3CC[C@@]21C)C(C)C
REMARK SMILES IDX 6 1 7 2 5 3 4 4 3 5 2 6 1 7 28 8 29 9 30 10 8 11 9 12 26 13
REMARK SMILES IDX 10 14 11 15 25 16 27 17 12 18 24 19 23 20 13 21 21 22 14 23
REMARK SMILES IDX 15 24 20 25 22 26 16 27 19 28 17 29 18 30
REMARK H PARENT 18 31
REMARK Flexibility Score: inf
ROOT
ATOM      1  C   UNL     1      -3.343  26.923  49.305  1.00  0.00     0.012 C 
ATOM      2  C   UNL     1      -3.800  28.384  49.535  1.00  0.00     0.012 C 
ENDROOT
BRANCH   1   3
ATOM      3  C   UNL     1      -3.419  26.192  50.637  1.00  0.00    -0.028 C 
ATOM      4  C   UNL     1      -2.360  25.547  51.164  1.00  0.00    -0.027 C 
BRANCH   4   5
ATOM      5  C   UNL     1      -2.414  24.916  52.541  1.00  0.00     0.014 C 
BRANCH   5   6
ATOM      6  C   UNL     1      -1.450  23.698  52.568  1.00  0.00     0.004 C 
ATOM      7  C   UNL     1      -1.151  23.101  51.192  1.00  0.00     0.004 C 
ENDBRANCH   5   6
BRANCH   5   8
ATOM      8  C   UNL     1      -2.161  26.013  53.626  1.00  0.00    -0.011 C 
ATOM      9  C   UNL     1      -1.098  27.046  53.220  1.00  0.00     0.008 C 
ATOM     10  C   UNL     1      -3.445  26.709  54.104  1.00  0.00     0.008 C 
ENDBRANCH   5   8
ENDBRANCH   4   5
ENDBRANCH   1   3
BRANCH   1  11
ATOM     11  C   UNL     1      -4.178  26.170  48.201  1.00  0.00     0.002 C 
ATOM     12  C   UNL     1      -5.584  25.733  48.730  1.00  0.00     0.005 C 
ATOM     13  C   UNL     1      -3.592  24.835  47.628  1.00  0.00    -0.023 C 
ATOM     14  C   UNL     1      -5.619  24.201  48.772  1.00  0.00     0.009 C 
ATOM     15  C   UNL     1      -4.169  23.782  48.578  1.00  0.00     0.021 C 
ATOM     16  C   UNL     1      -2.056  24.650  47.624  1.00  0.00     0.008 C 
ATOM     17  C   UNL     1      -4.135  24.674  46.167  1.00  0.00     0.012 C 
ATOM     18  C   UNL     1      -3.851  22.366  48.125  1.00  0.00    -0.067 C 
ATOM     19  C   UNL     1      -1.655  23.260  47.089  1.00  0.00     0.009 C 
ATOM     20  C   UNL     1      -2.377  22.072  47.812  1.00  0.00     0.021 C 
ATOM     21  C   UNL     1      -4.725  21.363  48.350  1.00  0.00    -0.027 C 
ATOM     22  C   UNL     1      -2.166  20.683  47.098  1.00  0.00    -0.023 C 
ATOM     23  C   UNL     1      -4.437  19.920  48.026  1.00  0.00     0.031 C 
ATOM     24  C   UNL     1      -2.931  19.611  47.941  1.00  0.00     0.002 C 
ATOM     25  C   UNL     1      -0.628  20.337  47.063  1.00  0.00     0.010 C 
ATOM     26  C   UNL     1      -2.726  20.724  45.644  1.00  0.00     0.012 C 
ATOM     27  C   UNL     1      -2.705  18.152  47.450  1.00  0.00     0.036 C 
ATOM     28  C   UNL     1      -0.277  18.882  47.430  1.00  0.00     0.032 C 
ATOM     29  C   UNL     1      -1.298  17.899  46.861  1.00  0.00     0.114 C 
BRANCH  29  30
ATOM     30  O   UNL     1      -0.885  16.586  47.149  1.00  0.00    -0.393 OA
ATOM     31  H   UNL     1      -1.697  16.017  47.099  1.00  0.00     0.210 HD
ENDBRANCH  29  30
ENDBRANCH   1  11
TORSDOF 6
ENDMDL
MODEL 3
REMARK VINA RESULT:    -7.651      2.813      5.527
REMARK INTER + INTRA:         -11.916
REMARK INTER:                 -10.766
REMARK INTRA:                  -1.151
REMARK UNBOUND:                -1.805
REMARK SMILES CC[C@H](C=C[C@H](C)[C@@H]1CC[C@H]2C3=CC[C@H]4C[C@H](O)CC[C@]4(C)[C@H]3CC[C@@]21C)C(C)C
REMARK SMILES IDX 6 1 7 2 5 3 4 4 3 5 2 6 1 7 28 8 29 9 30 10 8 11 9 12 26 13
REMARK SMILES IDX 10 14 11 15 25 16 27 17 12 18 24 19 23 20 13 21 21 22 14 23
REMARK SMILES IDX 15 24 20 25 22 26 16 27 19 28 17 29 18 30
REMARK H PARENT 18 31
REMARK Flexibility Score: inf
ROOT
ATOM      1  C   UNL     1      -6.391  26.463  48.337  1.00  0.00     0.012 C 
ATOM      2  C   UNL     1      -6.798  27.142  49.666  1.00  0.00     0.012 C 
ENDROOT
BRANCH   1   3
ATOM      3  C   UNL     1      -6.954  27.293  47.194  1.00  0.00    -0.028 C 
ATOM      4  C   UNL     1      -7.899  28.234  47.386  1.00  0.00    -0.027 C 
BRANCH   4   5
ATOM      5  C   UNL     1      -8.374  29.130  46.260  1.00  0.00     0.014 C 
BRANCH   5   6
ATOM      6  C   UNL     1      -9.927  29.172  46.279  1.00  0.00     0.004 C 
ATOM      7  C   UNL     1     -10.572  28.156  47.223  1.00  0.00     0.004 C 
ENDBRANCH   5   6
BRANCH   5   8
ATOM      8  C   UNL     1      -7.651  30.514  46.356  1.00  0.00    -0.011 C 
ATOM      9  C   UNL     1      -8.551  31.704  45.985  1.00  0.00     0.008 C 
ATOM     10  C   UNL     1      -6.960  30.752  47.708  1.00  0.00     0.008 C 
ENDBRANCH   5   8
ENDBRANCH   4   5
ENDBRANCH   1   3
BRANCH   1  11
ATOM     11  C   UNL     1      -4.835  26.271  48.180  1.00  0.00     0.002 C 
ATOM     12  C   UNL     1      -4.341  26.649  46.745  1.00  0.00     0.005 C 
ATOM     13  C   UNL     1      -4.255  24.829  48.378  1.00  0.00    -0.023 C 
ATOM     14  C   UNL     1      -3.837  25.371  46.065  1.00  0.00     0.009 C 
ATOM     15  C   UNL     1      -4.324  24.245  46.964  1.00  0.00     0.021 C 
ATOM     16  C   UNL     1      -5.014  23.854  49.310  1.00  0.00     0.008 C 
ATOM     17  C   UNL     1      -2.780  24.982  48.883  1.00  0.00     0.012 C 
ATOM     18  C   UNL     1      -3.665  22.877  46.878  1.00  0.00    -0.067 C 
ATOM     19  C   UNL     1      -4.345  22.464  49.340  1.00  0.00     0.009 C 
ATOM     20  C   UNL     1      -4.115  21.843  47.919  1.00  0.00     0.021 C 
ATOM     21  C   UNL     1      -3.030  22.494  45.750  1.00  0.00    -0.027 C 
ATOM     22  C   UNL     1      -3.206  20.555  47.938  1.00  0.00    -0.023 C 
ATOM     23  C   UNL     1      -2.447  21.119  45.549  1.00  0.00     0.031 C 
ATOM     24  C   UNL     1      -3.085  20.055  46.462  1.00  0.00     0.002 C 
ATOM     25  C   UNL     1      -3.888  19.443  48.825  1.00  0.00     0.010 C 
ATOM     26  C   UNL     1      -1.796  20.889  48.511  1.00  0.00     0.012 C 
ATOM     27  C   UNL     1      -2.333  18.701  46.321  1.00  0.00     0.036 C 
ATOM     28  C   UNL     1      -3.868  18.025  48.223  1.00  0.00     0.032 C 
ATOM     29  C   UNL     1      -2.548  17.737  47.511  1.00  0.00     0.114 C 
BRANCH  29  30
ATOM     30  O   UNL     1      -2.548  16.406  47.058  1.00  0.00    -0.393 OA
ATOM     31  H   UNL     1      -1.713  15.991  47.398  1.00  0.00     0.210 HD
ENDBRANCH  29  30
ENDBRANCH   1  11
TORSDOF 6
ENDMDL
MODEL 4
REMARK VINA RESULT:    -7.434      3.204      7.962
REMARK INTER + INTRA:         -11.630
REMARK INTER:                 -10.413
REMARK INTRA:                  -1.217
REMARK UNBOUND:                -1.805
REMARK SMILES CC[C@H](C=C[C@H](C)[C@@H]1CC[C@H]2C3=CC[C@H]4C[C@H](O)CC[C@]4(C)[C@H]3CC[C@@]21C)C(C)C
REMARK SMILES IDX 6 1 7 2 5 3 4 4 3 5 2 6 1 7 28 8 29 9 30 10 8 11 9 12 26 13
REMARK SMILES IDX 10 14 11 15 25 16 27 17 12 18 24 19 23 20 13 21 21 22 14 23
REMARK SMILES IDX 15 24 20 25 22 26 16 27 19 28 17 29 18 30
REMARK H PARENT 18 31
REMARK Flexibility Score: inf
ROOT
ATOM      1  C   UNL     1      -1.172  20.968  47.243  1.00  0.00     0.012 C 
ATOM      2  C   UNL     1       0.374  20.932  47.292  1.00  0.00     0.012 C 
ENDROOT
BRANCH   1   3
ATOM      3  C   UNL     1      -1.658  19.611  46.757  1.00  0.00    -0.028 C 
ATOM      4  C   UNL     1      -1.033  18.463  47.085  1.00  0.00    -0.027 C 
BRANCH   4   5
ATOM      5  C   UNL     1      -1.587  17.110  46.687  1.00  0.00     0.014 C 
BRANCH   5   6
ATOM      6  C   UNL     1      -2.600  16.649  47.769  1.00  0.00     0.004 C 
ATOM      7  C   UNL     1      -2.166  16.948  49.205  1.00  0.00     0.004 C 
ENDBRANCH   5   6
BRANCH   5   8
ATOM      8  C   UNL     1      -2.135  17.183  45.223  1.00  0.00    -0.011 C 
ATOM      9  C   UNL     1      -1.416  16.234  44.251  1.00  0.00     0.008 C 
ATOM     10  C   UNL     1      -3.659  17.009  45.131  1.00  0.00     0.008 C 
ENDBRANCH   5   8
ENDBRANCH   4   5
ENDBRANCH   1   3
BRANCH   1  11
ATOM     11  C   UNL     1      -1.836  21.343  48.622  1.00  0.00     0.002 C 
ATOM     12  C   UNL     1      -3.172  20.565  48.857  1.00  0.00     0.005 C 
ATOM     13  C   UNL     1      -2.258  22.835  48.846  1.00  0.00    -0.023 C 
ATOM     14  C   UNL     1      -4.319  21.582  48.853  1.00  0.00     0.009 C 
ATOM     15  C   UNL     1      -3.693  22.859  48.313  1.00  0.00     0.021 C 
ATOM     16  C   UNL     1      -1.475  23.939  48.096  1.00  0.00     0.008 C 
ATOM     17  C   UNL     1      -2.195  23.114  50.386  1.00  0.00     0.012 C 
ATOM     18  C   UNL     1      -4.374  24.194  48.565  1.00  0.00    -0.067 C 
ATOM     19  C   UNL     1      -2.061  25.338  48.379  1.00  0.00     0.009 C 
ATOM     20  C   UNL     1      -3.602  25.443  48.116  1.00  0.00     0.021 C 
ATOM     21  C   UNL     1      -5.701  24.250  48.809  1.00  0.00    -0.027 C 
ATOM     22  C   UNL     1      -4.239  26.783  48.647  1.00  0.00    -0.023 C 
ATOM     23  C   UNL     1      -6.465  25.540  48.963  1.00  0.00     0.031 C 
ATOM     24  C   UNL     1      -5.762  26.739  48.299  1.00  0.00     0.002 C 
ATOM     25  C   UNL     1      -3.562  28.010  47.924  1.00  0.00     0.010 C 
ATOM     26  C   UNL     1      -4.042  26.909  50.188  1.00  0.00     0.012 C 
ATOM     27  C   UNL     1      -6.518  28.058  48.630  1.00  0.00     0.036 C 
ATOM     28  C   UNL     1      -4.535  29.106  47.447  1.00  0.00     0.032 C 
ATOM     29  C   UNL     1      -5.661  29.333  48.453  1.00  0.00     0.114 C 
BRANCH  29  30
ATOM     30  O   UNL     1      -6.467  30.397  48.012  1.00  0.00    -0.393 OA
ATOM     31  H   UNL     1      -6.885  30.102  47.161  1.00  0.00     0.210 HD
ENDBRANCH  29  30
ENDBRANCH   1  11
TORSDOF 6
ENDMDL
MODEL 5
REMARK VINA RESULT:    -7.242      3.315      7.866
REMARK INTER + INTRA:         -11.375
REMARK INTER:                 -10.057
REMARK INTRA:                  -1.318
REMARK UNBOUND:                -1.805
REMARK SMILES CC[C@H](C=C[C@H](C)[C@@H]1CC[C@H]2C3=CC[C@H]4C[C@H](O)CC[C@]4(C)[C@H]3CC[C@@]21C)C(C)C
REMARK SMILES IDX 6 1 7 2 5 3 4 4 3 5 2 6 1 7 28 8 29 9 30 10 8 11 9 12 26 13
REMARK SMILES IDX 10 14 11 15 25 16 27 17 12 18 24 19 23 20 13 21 21 22 14 23
REMARK SMILES IDX 15 24 20 25 22 26 16 27 19 28 17 29 18 30
REMARK H PARENT 18 31
REMARK Flexibility Score: inf
ROOT
ATOM      1  C   UNL     1      -0.950  21.373  46.984  1.00  0.00     0.012 C 
ATOM      2  C   UNL     1       0.442  20.696  46.966  1.00  0.00     0.012 C 
ENDROOT
BRANCH   1   3
ATOM      3  C   UNL     1      -1.980  20.338  46.559  1.00  0.00    -0.028 C 
ATOM      4  C   UNL     1      -1.716  19.017  46.558  1.00  0.00    -0.027 C 
BRANCH   4   5
ATOM      5  C   UNL     1      -2.782  17.989  46.239  1.00  0.00     0.014 C 
BRANCH   5   6
ATOM      6  C   UNL     1      -2.191  16.950  45.247  1.00  0.00     0.004 C 
ATOM      7  C   UNL     1      -3.238  16.207  44.416  1.00  0.00     0.004 C 
ENDBRANCH   5   6
BRANCH   5   8
ATOM      8  C   UNL     1      -3.361  17.409  47.571  1.00  0.00    -0.011 C 
ATOM      9  C   UNL     1      -2.287  17.110  48.629  1.00  0.00     0.008 C 
ATOM     10  C   UNL     1      -4.495  18.258  48.167  1.00  0.00     0.008 C 
ENDBRANCH   5   8
ENDBRANCH   4   5
ENDBRANCH   1   3
BRANCH   1  11
ATOM     11  C   UNL     1      -1.325  22.002  48.379  1.00  0.00     0.002 C 
ATOM     12  C   UNL     1      -2.339  21.110  49.168  1.00  0.00     0.005 C 
ATOM     13  C   UNL     1      -2.021  23.405  48.381  1.00  0.00    -0.023 C 
ATOM     14  C   UNL     1      -3.660  21.880  49.280  1.00  0.00     0.009 C 
ATOM     15  C   UNL     1      -3.506  23.041  48.309  1.00  0.00     0.021 C 
ATOM     16  C   UNL     1      -1.732  24.370  47.207  1.00  0.00     0.008 C 
ATOM     17  C   UNL     1      -1.651  24.109  49.731  1.00  0.00     0.012 C 
ATOM     18  C   UNL     1      -4.402  24.261  48.450  1.00  0.00    -0.067 C 
ATOM     19  C   UNL     1      -2.545  25.675  47.334  1.00  0.00     0.009 C 
ATOM     20  C   UNL     1      -4.083  25.445  47.526  1.00  0.00     0.021 C 
ATOM     21  C   UNL     1      -5.603  24.162  49.059  1.00  0.00    -0.027 C 
ATOM     22  C   UNL     1      -4.870  26.755  47.912  1.00  0.00    -0.023 C 
ATOM     23  C   UNL     1      -6.589  25.297  49.144  1.00  0.00     0.031 C 
ATOM     24  C   UNL     1      -6.376  26.363  48.053  1.00  0.00     0.002 C 
ATOM     25  C   UNL     1      -4.701  27.826  46.767  1.00  0.00     0.010 C 
ATOM     26  C   UNL     1      -4.337  27.337  49.256  1.00  0.00     0.012 C 
ATOM     27  C   UNL     1      -7.319  27.577  48.293  1.00  0.00     0.036 C 
ATOM     28  C   UNL     1      -5.993  28.567  46.370  1.00  0.00     0.032 C 
ATOM     29  C   UNL     1      -6.859  28.876  47.590  1.00  0.00     0.114 C 
BRANCH  29  30
ATOM     30  O   UNL     1      -7.977  29.625  47.185  1.00  0.00    -0.393 OA
ATOM     31  H   UNL     1      -7.800  30.565  47.451  1.00  0.00     0.210 HD
ENDBRANCH  29  30
ENDBRANCH   1  11
TORSDOF 6
ENDMDL
MODEL 6
REMARK VINA RESULT:    -7.182      3.347      7.169
REMARK INTER + INTRA:         -11.296
REMARK INTER:                  -9.617
REMARK INTRA:                  -1.679
REMARK UNBOUND:                -1.805
REMARK SMILES CC[C@H](C=C[C@H](C)[C@@H]1CC[C@H]2C3=CC[C@H]4C[C@H](O)CC[C@]4(C)[C@H]3CC[C@@]21C)C(C)C
REMARK SMILES IDX 6 1 7 2 5 3 4 4 3 5 2 6 1 7 28 8 29 9 30 10 8 11 9 12 26 13
REMARK SMILES IDX 10 14 11 15 25 16 27 17 12 18 24 19 23 20 13 21 21 22 14 23
REMARK SMILES IDX 15 24 20 25 22 26 16 27 19 28 17 29 18 30
REMARK H PARENT 18 31
REMARK Flexibility Score: inf
ROOT
ATOM      1  C   UNL     1      -0.896  23.550  49.695  1.00  0.00     0.012 C 
ATOM      2  C   UNL     1       0.463  23.030  50.222  1.00  0.00     0.012 C 
ENDROOT
BRANCH   1   3
ATOM      3  C   UNL     1      -1.900  22.412  49.784  1.00  0.00    -0.028 C 
ATOM      4  C   UNL     1      -2.708  22.083  48.756  1.00  0.00    -0.027 C 
BRANCH   4   5
ATOM      5  C   UNL     1      -3.627  20.880  48.815  1.00  0.00     0.014 C 
BRANCH   5   6
ATOM      6  C   UNL     1      -4.818  21.115  47.847  1.00  0.00     0.004 C 
ATOM      7  C   UNL     1      -5.343  22.552  47.832  1.00  0.00     0.004 C 
ENDBRANCH   5   6
BRANCH   5   8
ATOM      8  C   UNL     1      -2.795  19.578  48.573  1.00  0.00    -0.011 C 
ATOM      9  C   UNL     1      -3.566  18.287  48.895  1.00  0.00     0.008 C 
ATOM     10  C   UNL     1      -2.167  19.503  47.172  1.00  0.00     0.008 C 
ENDBRANCH   5   8
ENDBRANCH   4   5
ENDBRANCH   1   3
BRANCH   1  11
ATOM     11  C   UNL     1      -1.420  24.824  50.459  1.00  0.00     0.002 C 
ATOM     12  C   UNL     1      -2.195  24.445  51.763  1.00  0.00     0.005 C 
ATOM     13  C   UNL     1      -2.433  25.757  49.711  1.00  0.00    -0.023 C 
ATOM     14  C   UNL     1      -3.663  24.846  51.575  1.00  0.00     0.009 C 
ATOM     15  C   UNL     1      -3.787  25.150  50.090  1.00  0.00     0.021 C 
ATOM     16  C   UNL     1      -2.376  25.813  48.166  1.00  0.00     0.008 C 
ATOM     17  C   UNL     1      -2.251  27.203  50.287  1.00  0.00     0.012 C 
ATOM     18  C   UNL     1      -4.950  25.992  49.590  1.00  0.00    -0.067 C 
ATOM     19  C   UNL     1      -3.479  26.725  47.592  1.00  0.00     0.009 C 
ATOM     20  C   UNL     1      -4.918  26.375  48.104  1.00  0.00     0.021 C 
ATOM     21  C   UNL     1      -6.096  26.066  50.301  1.00  0.00    -0.027 C 
ATOM     22  C   UNL     1      -5.999  27.458  47.725  1.00  0.00    -0.023 C 
ATOM     23  C   UNL     1      -7.327  26.791  49.821  1.00  0.00     0.031 C 
ATOM     24  C   UNL     1      -7.368  26.960  48.291  1.00  0.00     0.002 C 
ATOM     25  C   UNL     1      -6.085  27.590  46.156  1.00  0.00     0.010 C 
ATOM     26  C   UNL     1      -5.630  28.839  48.347  1.00  0.00     0.012 C 
ATOM     27  C   UNL     1      -8.576  27.850  47.879  1.00  0.00     0.036 C 
ATOM     28  C   UNL     1      -7.514  27.657  45.584  1.00  0.00     0.032 C 
ATOM     29  C   UNL     1      -8.437  28.485  46.476  1.00  0.00     0.114 C 
BRANCH  29  30
ATOM     30  O   UNL     1      -9.700  28.587  45.867  1.00  0.00    -0.393 OA
ATOM     31  H   UNL     1     -10.067  27.666  45.820  1.00  0.00     0.210 HD
ENDBRANCH  29  30
ENDBRANCH   1  11
TORSDOF 6
ENDMDL
MODEL 7
REMARK VINA RESULT:    -6.919      2.219      4.993
REMARK INTER + INTRA:         -10.948
REMARK INTER:                  -9.757
REMARK INTRA:                  -1.191
REMARK UNBOUND:                -1.805
REMARK SMILES CC[C@H](C=C[C@H](C)[C@@H]1CC[C@H]2C3=CC[C@H]4C[C@H](O)CC[C@]4(C)[C@H]3CC[C@@]21C)C(C)C
REMARK SMILES IDX 6 1 7 2 5 3 4 4 3 5 2 6 1 7 28 8 29 9 30 10 8 11 9 12 26 13
REMARK SMILES IDX 10 14 11 15 25 16 27 17 12 18 24 19 23 20 13 21 21 22 14 23
REMARK SMILES IDX 15 24 20 25 22 26 16 27 19 28 17 29 18 30
REMARK H PARENT 18 31
REMARK Flexibility Score: inf
ROOT
ATOM      1  C   UNL     1      -5.886  26.705  48.603  1.00  0.00     0.012 C 
ATOM      2  C   UNL     1      -7.404  26.770  48.898  1.00  0.00     0.012 C 
ENDROOT
BRANCH   1   3
ATOM      3  C   UNL     1      -5.377  28.129  48.441  1.00  0.00    -0.028 C 
ATOM      4  C   UNL     1      -6.186  29.200  48.560  1.00  0.00    -0.027 C 
BRANCH   4   5
ATOM      5  C   UNL     1      -5.651  30.616  48.506  1.00  0.00     0.014 C 
BRANCH   5   6
ATOM      6  C   UNL     1      -4.130  30.562  48.193  1.00  0.00     0.004 C 
ATOM      7  C   UNL     1      -3.246  31.224  49.251  1.00  0.00     0.004 C 
ENDBRANCH   5   6
BRANCH   5   8
ATOM      8  C   UNL     1      -6.521  31.464  47.521  1.00  0.00    -0.011 C 
ATOM      9  C   UNL     1      -7.713  30.691  46.934  1.00  0.00     0.008 C 
ATOM     10  C   UNL     1      -6.978  32.809  48.109  1.00  0.00     0.008 C 
ENDBRANCH   5   8
ENDBRANCH   4   5
ENDBRANCH   1   3
BRANCH   1  11
ATOM     11  C   UNL     1      -5.064  25.936  49.706  1.00  0.00     0.002 C 
ATOM     12  C   UNL     1      -3.686  26.618  49.989  1.00  0.00     0.005 C 
ATOM     13  C   UNL     1      -4.662  24.450  49.411  1.00  0.00    -0.023 C 
ATOM     14  C   UNL     1      -2.580  25.662  49.528  1.00  0.00     0.009 C 
ATOM     15  C   UNL     1      -3.308  24.603  48.714  1.00  0.00     0.021 C 
ATOM     16  C   UNL     1      -5.567  23.618  48.471  1.00  0.00     0.008 C 
ATOM     17  C   UNL     1      -4.537  23.716  50.790  1.00  0.00     0.012 C 
ATOM     18  C   UNL     1      -2.641  23.261  48.459  1.00  0.00    -0.067 C 
ATOM     19  C   UNL     1      -4.992  22.205  48.239  1.00  0.00     0.009 C 
ATOM     20  C   UNL     1      -3.501  22.200  47.758  1.00  0.00     0.021 C 
ATOM     21  C   UNL     1      -1.296  23.146  48.500  1.00  0.00    -0.027 C 
ATOM     22  C   UNL     1      -2.843  20.768  47.772  1.00  0.00    -0.023 C 
ATOM     23  C   UNL     1      -0.558  21.879  48.156  1.00  0.00     0.031 C 
ATOM     24  C   UNL     1      -1.375  20.930  47.259  1.00  0.00     0.002 C 
ATOM     25  C   UNL     1      -3.644  19.812  46.807  1.00  0.00     0.010 C 
ATOM     26  C   UNL     1      -2.847  20.178  49.215  1.00  0.00     0.012 C 
ATOM     27  C   UNL     1      -0.624  19.581  47.074  1.00  0.00     0.036 C 
ATOM     28  C   UNL     1      -2.772  18.923  45.898  1.00  0.00     0.032 C 
ATOM     29  C   UNL     1      -1.535  18.412  46.633  1.00  0.00     0.114 C 
BRANCH  29  30
ATOM     30  O   UNL     1      -0.825  17.540  45.791  1.00  0.00    -0.393 OA
ATOM     31  H   UNL     1       0.137  17.767  45.893  1.00  0.00     0.210 HD
ENDBRANCH  29  30
ENDBRANCH   1  11
TORSDOF 6
ENDMDL
MODEL 8
REMARK VINA RESULT:    -6.867      3.726      7.802
REMARK INTER + INTRA:         -10.880
REMARK INTER:                  -9.315
REMARK INTRA:                  -1.565
REMARK UNBOUND:                -1.805
REMARK SMILES CC[C@H](C=C[C@H](C)[C@@H]1CC[C@H]2C3=CC[C@H]4C[C@H](O)CC[C@]4(C)[C@H]3CC[C@@]21C)C(C)C
REMARK SMILES IDX 6 1 7 2 5 3 4 4 3 5 2 6 1 7 28 8 29 9 30 10 8 11 9 12 26 13
REMARK SMILES IDX 10 14 11 15 25 16 27 17 12 18 24 19 23 20 13 21 21 22 14 23
REMARK SMILES IDX 15 24 20 25 22 26 16 27 19 28 17 29 18 30
REMARK H PARENT 18 31
REMARK Flexibility Score: inf
ROOT
ATOM      1  C   UNL     1      -1.974  23.804  50.144  1.00  0.00     0.012 C 
ATOM      2  C   UNL     1      -0.702  23.493  50.969  1.00  0.00     0.012 C 
ENDROOT
BRANCH   1   3
ATOM      3  C   UNL     1      -2.576  22.482  49.694  1.00  0.00    -0.028 C 
ATOM      4  C   UNL     1      -2.734  22.168  48.393  1.00  0.00    -0.027 C 
BRANCH   4   5
ATOM      5  C   UNL     1      -3.233  20.806  47.954  1.00  0.00     0.014 C 
BRANCH   5   6
ATOM      6  C   UNL     1      -4.777  20.868  47.801  1.00  0.00     0.004 C 
ATOM      7  C   UNL     1      -5.328  22.269  47.533  1.00  0.00     0.004 C 
ENDBRANCH   5   6
BRANCH   5   8
ATOM      8  C   UNL     1      -2.438  20.344  46.689  1.00  0.00    -0.011 C 
ATOM      9  C   UNL     1      -2.937  19.013  46.103  1.00  0.00     0.008 C 
ATOM     10  C   UNL     1      -2.343  21.421  45.597  1.00  0.00     0.008 C 
ENDBRANCH   5   8
ENDBRANCH   4   5
ENDBRANCH   1   3
BRANCH   1  11
ATOM     11  C   UNL     1      -3.034  24.669  50.925  1.00  0.00     0.002 C 
ATOM     12  C   UNL     1      -4.357  23.877  51.184  1.00  0.00     0.005 C 
ATOM     13  C   UNL     1      -3.544  25.985  50.245  1.00  0.00    -0.023 C 
ATOM     14  C   UNL     1      -5.476  24.547  50.378  1.00  0.00     0.009 C 
ATOM     15  C   UNL     1      -4.750  25.497  49.438  1.00  0.00     0.021 C 
ATOM     16  C   UNL     1      -2.601  26.714  49.259  1.00  0.00     0.008 C 
ATOM     17  C   UNL     1      -3.958  26.973  51.389  1.00  0.00     0.012 C 
ATOM     18  C   UNL     1      -5.511  26.647  48.798  1.00  0.00    -0.067 C 
ATOM     19  C   UNL     1      -3.282  27.950  48.635  1.00  0.00     0.009 C 
ATOM     20  C   UNL     1      -4.674  27.642  47.983  1.00  0.00     0.021 C 
ATOM     21  C   UNL     1      -6.851  26.578  48.642  1.00  0.00    -0.027 C 
ATOM     22  C   UNL     1      -5.477  28.937  47.581  1.00  0.00    -0.023 C 
ATOM     23  C   UNL     1      -7.660  27.626  47.923  1.00  0.00     0.031 C 
ATOM     24  C   UNL     1      -6.822  28.465  46.940  1.00  0.00     0.002 C 
ATOM     25  C   UNL     1      -4.646  29.767  46.528  1.00  0.00     0.010 C 
ATOM     26  C   UNL     1      -5.759  29.818  48.836  1.00  0.00     0.012 C 
ATOM     27  C   UNL     1      -7.677  29.624  46.354  1.00  0.00     0.036 C 
ATOM     28  C   UNL     1      -5.458  30.309  45.336  1.00  0.00     0.032 C 
ATOM     29  C   UNL     1      -6.841  30.787  45.771  1.00  0.00     0.114 C 
BRANCH  29  30
ATOM     30  O   UNL     1      -7.504  31.350  44.666  1.00  0.00    -0.393 OA
ATOM     31  H   UNL     1      -6.811  31.809  44.123  1.00  0.00     0.210 HD
ENDBRANCH  29  30
ENDBRANCH   1  11
TORSDOF 6
ENDMDL
MODEL 9
REMARK VINA RESULT:    -6.621      3.097      7.353
REMARK INTER + INTRA:         -10.555
REMARK INTER:                  -9.135
REMARK INTRA:                  -1.420
REMARK UNBOUND:                -1.805
REMARK SMILES CC[C@H](C=C[C@H](C)[C@@H]1CC[C@H]2C3=CC[C@H]4C[C@H](O)CC[C@]4(C)[C@H]3CC[C@@]21C)C(C)C
REMARK SMILES IDX 6 1 7 2 5 3 4 4 3 5 2 6 1 7 28 8 29 9 30 10 8 11 9 12 26 13
REMARK SMILES IDX 10 14 11 15 25 16 27 17 12 18 24 19 23 20 13 21 21 22 14 23
REMARK SMILES IDX 15 24 20 25 22 26 16 27 19 28 17 29 18 30
REMARK H PARENT 18 31
REMARK Flexibility Score: inf
ROOT
ATOM      1  C   UNL     1      -1.718  19.046  47.891  1.00  0.00     0.012 C 
ATOM      2  C   UNL     1      -1.741  17.507  48.050  1.00  0.00     0.012 C 
ENDROOT
BRANCH   1   3
ATOM      3  C   UNL     1      -0.474  19.417  47.098  1.00  0.00    -0.028 C 
ATOM      4  C   UNL     1       0.353  20.409  47.482  1.00  0.00    -0.027 C 
BRANCH   4   5
ATOM      5  C   UNL     1       1.646  20.700  46.747  1.00  0.00     0.014 C 
BRANCH   5   6
ATOM      6  C   UNL     1       2.320  21.939  47.397  1.00  0.00     0.004 C 
ATOM      7  C   UNL     1       1.539  22.539  48.568  1.00  0.00     0.004 C 
ENDBRANCH   5   6
BRANCH   5   8
ATOM      8  C   UNL     1       2.515  19.401  46.689  1.00  0.00    -0.011 C 
ATOM      9  C   UNL     1       3.084  19.104  45.292  1.00  0.00     0.008 C 
ATOM     10  C   UNL     1       3.625  19.358  47.751  1.00  0.00     0.008 C 
ENDBRANCH   5   8
ENDBRANCH   4   5
ENDBRANCH   1   3
BRANCH   1  11
ATOM     11  C   UNL     1      -3.015  19.626  47.209  1.00  0.00     0.002 C 
ATOM     12  C   UNL     1      -2.778  19.967  45.701  1.00  0.00     0.005 C 
ATOM     13  C   UNL     1      -3.602  20.962  47.779  1.00  0.00    -0.023 C 
ATOM     14  C   UNL     1      -2.888  21.487  45.536  1.00  0.00     0.009 C 
ATOM     15  C   UNL     1      -2.869  22.026  46.958  1.00  0.00     0.021 C 
ATOM     16  C   UNL     1      -3.360  21.292  49.271  1.00  0.00     0.008 C 
ATOM     17  C   UNL     1      -5.143  20.955  47.495  1.00  0.00     0.012 C 
ATOM     18  C   UNL     1      -3.393  23.425  47.238  1.00  0.00    -0.067 C 
ATOM     19  C   UNL     1      -3.948  22.667  49.648  1.00  0.00     0.009 C 
ATOM     20  C   UNL     1      -3.475  23.834  48.715  1.00  0.00     0.021 C 
ATOM     21  C   UNL     1      -3.417  24.356  46.259  1.00  0.00    -0.027 C 
ATOM     22  C   UNL     1      -4.270  25.177  48.939  1.00  0.00    -0.023 C 
ATOM     23  C   UNL     1      -3.821  25.789  46.484  1.00  0.00     0.031 C 
ATOM     24  C   UNL     1      -3.675  26.233  47.952  1.00  0.00     0.002 C 
ATOM     25  C   UNL     1      -4.073  25.664  50.425  1.00  0.00     0.010 C 
ATOM     26  C   UNL     1      -5.788  24.967  48.653  1.00  0.00     0.012 C 
ATOM     27  C   UNL     1      -4.256  27.664  48.143  1.00  0.00     0.036 C 
ATOM     28  C   UNL     1      -3.791  27.170  50.587  1.00  0.00     0.032 C 
ATOM     29  C   UNL     1      -4.616  28.003  49.608  1.00  0.00     0.114 C 
BRANCH  29  30
ATOM     30  O   UNL     1      -4.387  29.368  49.856  1.00  0.00    -0.393 OA
ATOM     31  H   UNL     1      -3.502  29.431  50.303  1.00  0.00     0.210 HD
ENDBRANCH  29  30
ENDBRANCH   1  11
TORSDOF 6
ENDMDL
