MODEL 1
REMARK VINA RESULT:     6.638      0.000      0.000
REMARK INTER + INTRA:           9.573
REMARK INTER:                   8.966
REMARK INTRA:                   0.607
REMARK UNBOUND:                 0.607
REMARK SMILES O=c1c(-c2ccc(O)cc2)coc2c([C@@H]3O[C@H](CO)[C@@H](O)[C@@H](O)[C@@H]3O)c(O)ccc12
REMARK SMILES IDX 3 1 11 2 12 3 13 4 30 5 2 6 1 7 29 8 28 9 26 10 14 11 4 12
REMARK SMILES IDX 5 13 6 14 7 15 10 16 9 17 8 18 15 20 24 21 16 22 22 23 17 24
REMARK SMILES IDX 20 25 25 26 23 28 18 30 19 31 21 33 27 35
REMARK H PARENT 8 19 25 27 23 29 19 32 21 34 27 36
REMARK Flexibility Score: inf
ROOT
ATOM      1  C   UNL     1       4.466  23.988 -11.411  1.00  0.00     0.065 A 
ATOM      2  C   UNL     1       3.497  24.946 -11.726  1.00  0.00     0.208 A 
ATOM      3  O   UNL     1       3.678  26.223 -11.418  1.00  0.00    -0.463 OA
ATOM      4  C   UNL     1       4.765  26.689 -10.808  1.00  0.00     0.147 A 
ATOM      5  C   UNL     1       5.806  25.785 -10.454  1.00  0.00     0.066 A 
ATOM      6  C   UNL     1       5.636  24.419 -10.761  1.00  0.00     0.200 A 
ATOM      7  O   UNL     1       6.518  23.578 -10.431  1.00  0.00    -0.288 OA
ATOM      8  C   UNL     1       6.969  26.214  -9.775  1.00  0.00     0.020 A 
ATOM      9  C   UNL     1       7.189  27.535  -9.415  1.00  0.00     0.047 A 
ATOM     10  C   UNL     1       6.085  28.572  -9.815  1.00  0.00     0.125 A 
ATOM     11  C   UNL     1       4.832  28.071 -10.510  1.00  0.00     0.069 A 
ENDROOT
BRANCH   1  12
ATOM     12  C   UNL     1       4.223  22.554 -11.731  1.00  0.00    -0.011 A 
ATOM     13  C   UNL     1       3.870  22.156 -13.032  1.00  0.00     0.013 A 
ATOM     14  C   UNL     1       3.674  20.802 -13.328  1.00  0.00     0.047 A 
ATOM     15  C   UNL     1       3.819  19.833 -12.329  1.00  0.00     0.115 A 
ATOM     16  C   UNL     1       4.345  21.575 -10.727  1.00  0.00     0.013 A 
ATOM     17  C   UNL     1       4.142  20.224 -11.025  1.00  0.00     0.047 A 
BRANCH  15  18
ATOM     18  O   UNL     1       3.648  18.484 -12.624  1.00  0.00    -0.508 OA
ATOM     19  H   UNL     1       3.851  18.117 -13.546  1.00  0.00     0.293 HD
ENDBRANCH  15  18
ENDBRANCH   1  12
BRANCH  11  20
ATOM     20  C   UNL     1       3.575  28.917 -10.718  1.00  0.00     0.188 C 
ATOM     21  C   UNL     1       3.951  30.239 -11.433  1.00  0.00     0.179 C 
ATOM     22  O   UNL     1       2.585  28.222 -11.452  1.00  0.00    -0.362 OA
ATOM     23  C   UNL     1       2.700  31.108 -11.622  1.00  0.00     0.177 C 
ATOM     24  C   UNL     1       1.372  28.958 -11.512  1.00  0.00     0.176 C 
ATOM     25  C   UNL     1       1.577  30.285 -12.278  1.00  0.00     0.177 C 
BRANCH  21  26
ATOM     26  O   UNL     1       4.526  29.972 -12.688  1.00  0.00    -0.387 OA
ATOM     27  H   UNL     1       5.467  29.708 -12.528  1.00  0.00     0.211 HD
ENDBRANCH  21  26
BRANCH  23  28
ATOM     28  O   UNL     1       2.274  31.598 -10.371  1.00  0.00    -0.387 OA
ATOM     29  H   UNL     1       1.803  30.857  -9.911  1.00  0.00     0.211 HD
ENDBRANCH  23  28
BRANCH  24  30
ATOM     30  C   UNL     1       0.323  28.092 -12.222  1.00  0.00     0.191 C 
BRANCH  30  31
ATOM     31  O   UNL     1       0.896  26.880 -12.629  1.00  0.00    -0.394 OA
ATOM     32  H   UNL     1       1.879  26.999 -12.542  1.00  0.00     0.210 HD
ENDBRANCH  30  31
ENDBRANCH  24  30
BRANCH  25  33
ATOM     33  O   UNL     1       0.381  31.023 -12.291  1.00  0.00    -0.388 OA
ATOM     34  H   UNL     1      -0.352  30.378 -12.483  1.00  0.00     0.211 HD
ENDBRANCH  25  33
ENDBRANCH  11  20
BRANCH  10  35
ATOM     35  O   UNL     1       6.180  30.046  -9.557  1.00  0.00    -0.507 OA
ATOM     36  H   UNL     1       6.046  30.436  -8.635  1.00  0.00     0.293 HD
ENDBRANCH  10  35
TORSDOF 9
ENDMDL
MODEL 2
REMARK VINA RESULT:     7.499     12.506     15.205
REMARK INTER + INTRA:          10.737
REMARK INTER:                  10.182
REMARK INTRA:                   0.555
REMARK UNBOUND:                 0.607
REMARK SMILES O=c1c(-c2ccc(O)cc2)coc2c([C@@H]3O[C@H](CO)[C@@H](O)[C@@H](O)[C@@H]3O)c(O)ccc12
REMARK SMILES IDX 3 1 11 2 12 3 13 4 30 5 2 6 1 7 29 8 28 9 26 10 14 11 4 12
REMARK SMILES IDX 5 13 6 14 7 15 10 16 9 17 8 18 15 20 24 21 16 22 22 23 17 24
REMARK SMILES IDX 20 25 25 26 23 28 18 30 19 31 21 33 27 35
REMARK H PARENT 8 19 25 27 23 29 19 32 21 34 27 36
REMARK Flexibility Score: inf
ROOT
ATOM      1  C   UNL     1      -1.248  22.396 -24.188  1.00  0.00     0.065 A 
ATOM      2  C   UNL     1      -1.684  23.542 -23.515  1.00  0.00     0.208 A 
ATOM      3  O   UNL     1      -2.963  23.893 -23.527  1.00  0.00    -0.463 OA
ATOM      4  C   UNL     1      -3.912  23.204 -24.154  1.00  0.00     0.147 A 
ATOM      5  C   UNL     1      -3.560  22.019 -24.863  1.00  0.00     0.066 A 
ATOM      6  C   UNL     1      -2.204  21.628 -24.875  1.00  0.00     0.200 A 
ATOM      7  O   UNL     1      -1.843  20.606 -25.521  1.00  0.00    -0.288 OA
ATOM      8  C   UNL     1      -4.517  21.264 -25.577  1.00  0.00     0.020 A 
ATOM      9  C   UNL     1      -5.859  21.606 -25.633  1.00  0.00     0.047 A 
ATOM     10  C   UNL     1      -6.299  22.883 -24.841  1.00  0.00     0.125 A 
ATOM     11  C   UNL     1      -5.240  23.692 -24.115  1.00  0.00     0.069 A 
ENDROOT
BRANCH   1  12
ATOM     12  C   UNL     1       0.199  22.045 -24.193  1.00  0.00    -0.011 A 
ATOM     13  C   UNL     1       0.908  21.889 -22.989  1.00  0.00     0.013 A 
ATOM     14  C   UNL     1       2.259  21.529 -23.006  1.00  0.00     0.047 A 
ATOM     15  C   UNL     1       2.921  21.328 -24.223  1.00  0.00     0.115 A 
ATOM     16  C   UNL     1       0.878  21.862 -25.413  1.00  0.00     0.013 A 
ATOM     17  C   UNL     1       2.231  21.508 -25.426  1.00  0.00     0.047 A 
BRANCH  15  18
ATOM     18  O   UNL     1       4.260  20.946 -24.245  1.00  0.00    -0.508 OA
ATOM     19  H   UNL     1       4.962  21.465 -23.732  1.00  0.00     0.293 HD
ENDBRANCH  15  18
ENDBRANCH   1  12
BRANCH  11  20
ATOM     20  C   UNL     1      -5.480  25.085 -23.531  1.00  0.00     0.188 C 
ATOM     21  C   UNL     1      -6.675  25.035 -22.546  1.00  0.00     0.179 C 
ATOM     22  O   UNL     1      -4.328  25.594 -22.886  1.00  0.00    -0.362 OA
ATOM     23  C   UNL     1      -6.942  26.434 -21.974  1.00  0.00     0.177 C 
ATOM     24  C   UNL     1      -4.515  26.941 -22.478  1.00  0.00     0.176 C 
ATOM     25  C   UNL     1      -5.639  27.039 -21.421  1.00  0.00     0.177 C 
BRANCH  21  26
ATOM     26  O   UNL     1      -6.404  24.145 -21.491  1.00  0.00    -0.387 OA
ATOM     27  H   UNL     1      -6.014  24.679 -20.752  1.00  0.00     0.211 HD
ENDBRANCH  21  26
BRANCH  23  28
ATOM     28  O   UNL     1      -7.469  27.263 -22.984  1.00  0.00    -0.387 OA
ATOM     29  H   UNL     1      -8.387  26.941 -23.178  1.00  0.00     0.211 HD
ENDBRANCH  23  28
BRANCH  24  30
ATOM     30  C   UNL     1      -3.192  27.452 -21.895  1.00  0.00     0.191 C 
BRANCH  30  31
ATOM     31  O   UNL     1      -2.356  26.371 -21.581  1.00  0.00    -0.394 OA
ATOM     32  H   UNL     1      -2.726  25.589 -22.069  1.00  0.00     0.210 HD
ENDBRANCH  30  31
ENDBRANCH  24  30
BRANCH  25  33
ATOM     33  O   UNL     1      -5.844  28.381 -21.059  1.00  0.00    -0.388 OA
ATOM     34  H   UNL     1      -5.976  28.889 -21.904  1.00  0.00     0.211 HD
ENDBRANCH  25  33
ENDBRANCH  11  20
BRANCH  10  35
ATOM     35  O   UNL     1      -7.715  23.370 -24.744  1.00  0.00    -0.507 OA
ATOM     36  H   UNL     1      -8.500  22.736 -24.793  1.00  0.00     0.293 HD
ENDBRANCH  10  35
TORSDOF 9
ENDMDL
MODEL 3
REMARK VINA RESULT:     9.294      1.047      2.180
REMARK INTER + INTRA:          13.161
REMARK INTER:                  11.503
REMARK INTRA:                   1.658
REMARK UNBOUND:                 0.607
REMARK SMILES O=c1c(-c2ccc(O)cc2)coc2c([C@@H]3O[C@H](CO)[C@@H](O)[C@@H](O)[C@@H]3O)c(O)ccc12
REMARK SMILES IDX 3 1 11 2 12 3 13 4 30 5 2 6 1 7 29 8 28 9 26 10 14 11 4 12
REMARK SMILES IDX 5 13 6 14 7 15 10 16 9 17 8 18 15 20 24 21 16 22 22 23 17 24
REMARK SMILES IDX 20 25 25 26 23 28 18 30 19 31 21 33 27 35
REMARK H PARENT 8 19 25 27 23 29 19 32 21 34 27 36
REMARK Flexibility Score: inf
ROOT
ATOM      1  C   UNL     1       4.472  24.517 -11.415  1.00  0.00     0.065 A 
ATOM      2  C   UNL     1       3.624  25.488 -11.960  1.00  0.00     0.208 A 
ATOM      3  O   UNL     1       3.819  26.776 -11.716  1.00  0.00    -0.463 OA
ATOM      4  C   UNL     1       4.809  27.244 -10.961  1.00  0.00     0.147 A 
ATOM      5  C   UNL     1       5.725  26.328 -10.368  1.00  0.00     0.066 A 
ATOM      6  C   UNL     1       5.536  24.950 -10.604  1.00  0.00     0.200 A 
ATOM      7  O   UNL     1       6.302  24.102 -10.067  1.00  0.00    -0.288 OA
ATOM      8  C   UNL     1       6.776  26.761  -9.529  1.00  0.00     0.020 A 
ATOM      9  C   UNL     1       7.002  28.096  -9.230  1.00  0.00     0.047 A 
ATOM     10  C   UNL     1       6.040  29.142  -9.887  1.00  0.00     0.125 A 
ATOM     11  C   UNL     1       4.899  28.641 -10.753  1.00  0.00     0.069 A 
ENDROOT
BRANCH   1  12
ATOM     12  C   UNL     1       4.210  23.075 -11.671  1.00  0.00    -0.011 A 
ATOM     13  C   UNL     1       3.621  22.651 -12.876  1.00  0.00     0.013 A 
ATOM     14  C   UNL     1       3.408  21.290 -13.118  1.00  0.00     0.047 A 
ATOM     15  C   UNL     1       3.771  20.337 -12.159  1.00  0.00     0.115 A 
ATOM     16  C   UNL     1       4.553  22.111 -10.704  1.00  0.00     0.013 A 
ATOM     17  C   UNL     1       4.332  20.751 -10.947  1.00  0.00     0.047 A 
BRANCH  15  18
ATOM     18  O   UNL     1       3.582  18.980 -12.406  1.00  0.00    -0.508 OA
ATOM     19  H   UNL     1       2.999  18.661 -13.170  1.00  0.00     0.293 HD
ENDBRANCH  15  18
ENDBRANCH   1  12
BRANCH  11  20
ATOM     20  C   UNL     1       3.744  29.519 -11.235  1.00  0.00     0.188 C 
ATOM     21  C   UNL     1       2.499  28.636 -11.503  1.00  0.00     0.179 C 
ATOM     22  O   UNL     1       3.435  30.543 -10.309  1.00  0.00    -0.362 OA
ATOM     23  C   UNL     1       1.341  29.504 -12.015  1.00  0.00     0.177 C 
ATOM     24  C   UNL     1       2.464  31.438 -10.831  1.00  0.00     0.176 C 
ATOM     25  C   UNL     1       1.124  30.706 -11.078  1.00  0.00     0.177 C 
BRANCH  21  26
ATOM     26  O   UNL     1       2.101  27.978 -10.326  1.00  0.00    -0.387 OA
ATOM     27  H   UNL     1       2.253  28.607  -9.575  1.00  0.00     0.211 HD
ENDBRANCH  21  26
BRANCH  23  28
ATOM     28  O   UNL     1       1.630  29.954 -13.319  1.00  0.00    -0.387 OA
ATOM     29  H   UNL     1       2.264  29.305 -13.718  1.00  0.00     0.211 HD
ENDBRANCH  23  28
BRANCH  24  30
ATOM     30  C   UNL     1       2.269  32.574  -9.820  1.00  0.00     0.191 C 
BRANCH  30  31
ATOM     31  O   UNL     1       3.214  32.468  -8.789  1.00  0.00    -0.394 OA
ATOM     32  H   UNL     1       3.780  31.684  -9.018  1.00  0.00     0.210 HD
ENDBRANCH  30  31
ENDBRANCH  24  30
BRANCH  25  33
ATOM     33  O   UNL     1       0.187  31.591 -11.635  1.00  0.00    -0.388 OA
ATOM     34  H   UNL     1      -0.712  31.278 -11.345  1.00  0.00     0.211 HD
ENDBRANCH  25  33
ENDBRANCH  11  20
BRANCH  10  35
ATOM     35  O   UNL     1       6.170  30.627  -9.721  1.00  0.00    -0.507 OA
ATOM     36  H   UNL     1       7.069  31.088  -9.728  1.00  0.00     0.293 HD
ENDBRANCH  10  35
TORSDOF 9
ENDMDL
