MODEL 1
REMARK VINA RESULT:    -5.700      0.000      0.000
REMARK INTER + INTRA:          -6.299
REMARK INTER:                  -6.034
REMARK INTRA:                  -0.266
REMARK UNBOUND:                -0.266
REMARK SMILES O=c1cc(-c2ccccc2)oc2ccccc12
REMARK SMILES IDX 4 1 3 2 2 3 1 4 17 5 16 6 15 7 14 8 13 9 12 10 11 11 5 12
REMARK SMILES IDX 8 13 7 14 9 15 6 16 10 17
REMARK H PARENT
REMARK Flexibility Score: inf
ROOT
ATOM      1  C   UNL     1      -0.947 -18.632  -8.502  1.00  0.00     0.138 A 
ATOM      2  C   UNL     1      -2.163 -18.070  -8.945  1.00  0.00     0.100 A 
ATOM      3  C   UNL     1      -2.504 -16.773  -8.558  1.00  0.00     0.193 A 
ATOM      4  O   UNL     1      -3.591 -16.271  -8.955  1.00  0.00    -0.289 OA
ATOM      5  C   UNL     1      -1.632 -16.046  -7.734  1.00  0.00     0.065 A 
ATOM      6  C   UNL     1      -1.915 -14.736  -7.309  1.00  0.00     0.016 A 
ATOM      7  C   UNL     1      -1.010 -14.056  -6.487  1.00  0.00     0.001 A 
ATOM      8  C   UNL     1       0.177 -14.675  -6.085  1.00  0.00     0.004 A 
ATOM      9  C   UNL     1       0.466 -15.977  -6.504  1.00  0.00     0.048 A 
ATOM     10  C   UNL     1      -0.432 -16.667  -7.326  1.00  0.00     0.138 A 
ATOM     11  O   UNL     1      -0.148 -17.904  -7.719  1.00  0.00    -0.456 OA
ENDROOT
BRANCH   1  12
ATOM     12  C   UNL     1      -0.506 -20.013  -8.869  1.00  0.00     0.017 A 
ATOM     13  C   UNL     1       0.410 -22.604  -9.516  1.00  0.00     0.000 A 
ATOM     14  C   UNL     1       1.218 -21.741  -8.776  1.00  0.00     0.001 A 
ATOM     15  C   UNL     1      -0.852 -22.185  -9.935  1.00  0.00     0.001 A 
ATOM     16  C   UNL     1       0.767 -20.459  -8.455  1.00  0.00     0.012 A 
ATOM     17  C   UNL     1      -1.312 -20.902  -9.618  1.00  0.00     0.012 A 
ENDBRANCH   1  12
TORSDOF 1
ENDMDL
MODEL 2
REMARK VINA RESULT:    -5.674      0.109      1.176
REMARK INTER + INTRA:          -6.271
REMARK INTER:                  -6.005
REMARK INTRA:                  -0.266
REMARK UNBOUND:                -0.266
REMARK SMILES O=c1cc(-c2ccccc2)oc2ccccc12
REMARK SMILES IDX 4 1 3 2 2 3 1 4 17 5 16 6 15 7 14 8 13 9 12 10 11 11 5 12
REMARK SMILES IDX 8 13 7 14 9 15 6 16 10 17
REMARK H PARENT
REMARK Flexibility Score: inf
ROOT
ATOM      1  C   UNL     1      -0.944 -18.610  -8.483  1.00  0.00     0.138 A 
ATOM      2  C   UNL     1      -2.157 -18.033  -8.917  1.00  0.00     0.100 A 
ATOM      3  C   UNL     1      -2.482 -16.734  -8.520  1.00  0.00     0.193 A 
ATOM      4  O   UNL     1      -3.566 -16.219  -8.909  1.00  0.00    -0.289 OA
ATOM      5  C   UNL     1      -1.599 -16.021  -7.698  1.00  0.00     0.065 A 
ATOM      6  C   UNL     1      -1.866 -14.711  -7.263  1.00  0.00     0.016 A 
ATOM      7  C   UNL     1      -0.951 -14.045  -6.442  1.00  0.00     0.001 A 
ATOM      8  C   UNL     1       0.232 -14.678  -6.050  1.00  0.00     0.004 A 
ATOM      9  C   UNL     1       0.506 -15.980  -6.478  1.00  0.00     0.048 A 
ATOM     10  C   UNL     1      -0.404 -16.656  -7.299  1.00  0.00     0.138 A 
ATOM     11  O   UNL     1      -0.134 -17.894  -7.701  1.00  0.00    -0.456 OA
ENDROOT
BRANCH   1  12
ATOM     12  C   UNL     1      -0.519 -19.992  -8.860  1.00  0.00     0.017 A 
ATOM     13  C   UNL     1       0.199 -22.615  -9.620  1.00  0.00     0.000 A 
ATOM     14  C   UNL     1      -1.032 -22.088 -10.007  1.00  0.00     0.001 A 
ATOM     15  C   UNL     1       1.077 -21.844  -8.858  1.00  0.00     0.001 A 
ATOM     16  C   UNL     1      -1.390 -20.790  -9.632  1.00  0.00     0.012 A 
ATOM     17  C   UNL     1       0.726 -20.544  -8.478  1.00  0.00     0.012 A 
ENDBRANCH   1  12
TORSDOF 1
ENDMDL
MODEL 3
REMARK VINA RESULT:    -5.645      2.241      6.751
REMARK INTER + INTRA:          -6.241
REMARK INTER:                  -5.990
REMARK INTRA:                  -0.250
REMARK UNBOUND:                -0.266
REMARK SMILES O=c1cc(-c2ccccc2)oc2ccccc12
REMARK SMILES IDX 4 1 3 2 2 3 1 4 17 5 16 6 15 7 14 8 13 9 12 10 11 11 5 12
REMARK SMILES IDX 8 13 7 14 9 15 6 16 10 17
REMARK H PARENT
REMARK Flexibility Score: inf
ROOT
ATOM      1  C   UNL     1      -1.384 -14.608  -5.991  1.00  0.00     0.138 A 
ATOM      2  C   UNL     1      -2.357 -14.782  -6.998  1.00  0.00     0.100 A 
ATOM      3  C   UNL     1      -2.239 -15.848  -7.892  1.00  0.00     0.193 A 
ATOM      4  O   UNL     1      -3.110 -16.004  -8.791  1.00  0.00    -0.289 OA
ATOM      5  C   UNL     1      -1.156 -16.731  -7.775  1.00  0.00     0.065 A 
ATOM      6  C   UNL     1      -0.979 -17.824  -8.642  1.00  0.00     0.016 A 
ATOM      7  C   UNL     1       0.120 -18.674  -8.482  1.00  0.00     0.001 A 
ATOM      8  C   UNL     1       1.046 -18.441  -7.461  1.00  0.00     0.004 A 
ATOM      9  C   UNL     1       0.877 -17.357  -6.594  1.00  0.00     0.048 A 
ATOM     10  C   UNL     1      -0.219 -16.500  -6.746  1.00  0.00     0.138 A 
ATOM     11  O   UNL     1      -0.370 -15.472  -5.917  1.00  0.00    -0.456 OA
ENDROOT
BRANCH   1  12
ATOM     12  C   UNL     1      -1.434 -13.494  -4.994  1.00  0.00     0.017 A 
ATOM     13  C   UNL     1      -1.432 -11.384  -3.118  1.00  0.00     0.000 A 
ATOM     14  C   UNL     1      -0.233 -11.825  -3.675  1.00  0.00     0.001 A 
ATOM     15  C   UNL     1      -2.634 -11.987  -3.490  1.00  0.00     0.001 A 
ATOM     16  C   UNL     1      -0.231 -12.869  -4.603  1.00  0.00     0.012 A 
ATOM     17  C   UNL     1      -2.641 -13.033  -4.419  1.00  0.00     0.012 A 
ENDBRANCH   1  12
TORSDOF 1
ENDMDL
MODEL 4
REMARK VINA RESULT:    -5.564      2.412      6.794
REMARK INTER + INTRA:          -6.155
REMARK INTER:                  -5.898
REMARK INTRA:                  -0.257
REMARK UNBOUND:                -0.266
REMARK SMILES O=c1cc(-c2ccccc2)oc2ccccc12
REMARK SMILES IDX 4 1 3 2 2 3 1 4 17 5 16 6 15 7 14 8 13 9 12 10 11 11 5 12
REMARK SMILES IDX 8 13 7 14 9 15 6 16 10 17
REMARK H PARENT
REMARK Flexibility Score: inf
ROOT
ATOM      1  C   UNL     1      -1.317 -15.059  -6.379  1.00  0.00     0.138 A 
ATOM      2  C   UNL     1      -0.142 -15.807  -6.607  1.00  0.00     0.100 A 
ATOM      3  C   UNL     1      -0.152 -16.832  -7.555  1.00  0.00     0.193 A 
ATOM      4  O   UNL     1       0.899 -17.500  -7.758  1.00  0.00    -0.289 OA
ATOM      5  C   UNL     1      -1.328 -17.103  -8.268  1.00  0.00     0.065 A 
ATOM      6  C   UNL     1      -1.405 -18.120  -9.235  1.00  0.00     0.016 A 
ATOM      7  C   UNL     1      -2.604 -18.349  -9.917  1.00  0.00     0.001 A 
ATOM      8  C   UNL     1      -3.731 -17.568  -9.640  1.00  0.00     0.004 A 
ATOM      9  C   UNL     1      -3.663 -16.554  -8.681  1.00  0.00     0.048 A 
ATOM     10  C   UNL     1      -2.467 -16.318  -7.992  1.00  0.00     0.138 A 
ATOM     11  O   UNL     1      -2.413 -15.351  -7.081  1.00  0.00    -0.456 OA
ENDROOT
BRANCH   1  12
ATOM     12  C   UNL     1      -1.393 -13.945  -5.384  1.00  0.00     0.017 A 
ATOM     13  C   UNL     1      -1.443 -11.828  -3.518  1.00  0.00     0.000 A 
ATOM     14  C   UNL     1      -0.247 -12.181  -4.142  1.00  0.00     0.001 A 
ATOM     15  C   UNL     1      -2.615 -12.522  -3.817  1.00  0.00     0.001 A 
ATOM     16  C   UNL     1      -0.220 -13.229  -5.066  1.00  0.00     0.012 A 
ATOM     17  C   UNL     1      -2.596 -13.572  -4.741  1.00  0.00     0.012 A 
ENDBRANCH   1  12
TORSDOF 1
ENDMDL
MODEL 5
REMARK VINA RESULT:    -5.527      1.235      2.802
REMARK INTER + INTRA:          -6.116
REMARK INTER:                  -5.850
REMARK INTRA:                  -0.265
REMARK UNBOUND:                -0.266
REMARK SMILES O=c1cc(-c2ccccc2)oc2ccccc12
REMARK SMILES IDX 4 1 3 2 2 3 1 4 17 5 16 6 15 7 14 8 13 9 12 10 11 11 5 12
REMARK SMILES IDX 8 13 7 14 9 15 6 16 10 17
REMARK H PARENT
REMARK Flexibility Score: inf
ROOT
ATOM      1  C   UNL     1       0.470 -18.819  -7.896  1.00  0.00     0.138 A 
ATOM      2  C   UNL     1       1.486 -18.301  -7.064  1.00  0.00     0.100 A 
ATOM      3  C   UNL     1       1.377 -16.999  -6.573  1.00  0.00     0.193 A 
ATOM      4  O   UNL     1       2.286 -16.538  -5.829  1.00  0.00    -0.289 OA
ATOM      5  C   UNL     1       0.260 -16.224  -6.913  1.00  0.00     0.065 A 
ATOM      6  C   UNL     1       0.089 -14.906  -6.452  1.00  0.00     0.016 A 
ATOM      7  C   UNL     1      -1.045 -14.176  -6.822  1.00  0.00     0.001 A 
ATOM      8  C   UNL     1      -2.012 -14.752  -7.651  1.00  0.00     0.004 A 
ATOM      9  C   UNL     1      -1.851 -16.061  -8.113  1.00  0.00     0.048 A 
ATOM     10  C   UNL     1      -0.719 -16.801  -7.749  1.00  0.00     0.138 A 
ATOM     11  O   UNL     1      -0.575 -18.045  -8.193  1.00  0.00    -0.456 OA
ENDROOT
BRANCH   1  12
ATOM     12  C   UNL     1       0.508 -20.201  -8.464  1.00  0.00     0.017 A 
ATOM     13  C   UNL     1       0.489 -22.798  -9.573  1.00  0.00     0.000 A 
ATOM     14  C   UNL     1      -0.617 -21.964  -9.728  1.00  0.00     0.001 A 
ATOM     15  C   UNL     1       1.606 -22.347  -8.869  1.00  0.00     0.001 A 
ATOM     16  C   UNL     1      -0.610 -20.678  -9.180  1.00  0.00     0.012 A 
ATOM     17  C   UNL     1       1.621 -21.061  -8.317  1.00  0.00     0.012 A 
ENDBRANCH   1  12
TORSDOF 1
ENDMDL
MODEL 6
REMARK VINA RESULT:    -5.379      1.341      6.346
REMARK INTER + INTRA:          -5.959
REMARK INTER:                  -5.693
REMARK INTRA:                  -0.266
REMARK UNBOUND:                -0.266
REMARK SMILES O=c1cc(-c2ccccc2)oc2ccccc12
REMARK SMILES IDX 4 1 3 2 2 3 1 4 17 5 16 6 15 7 14 8 13 9 12 10 11 11 5 12
REMARK SMILES IDX 8 13 7 14 9 15 6 16 10 17
REMARK H PARENT
REMARK Flexibility Score: inf
ROOT
ATOM      1  C   UNL     1       0.252 -18.348  -7.890  1.00  0.00     0.138 A 
ATOM      2  C   UNL     1       1.447 -18.896  -7.377  1.00  0.00     0.100 A 
ATOM      3  C   UNL     1       1.790 -20.213  -7.687  1.00  0.00     0.193 A 
ATOM      4  O   UNL     1       2.859 -20.701  -7.228  1.00  0.00    -0.289 OA
ATOM      5  C   UNL     1       0.944 -20.972  -8.507  1.00  0.00     0.065 A 
ATOM      6  C   UNL     1       1.231 -22.304  -8.859  1.00  0.00     0.016 A 
ATOM      7  C   UNL     1       0.351 -23.017  -9.679  1.00  0.00     0.001 A 
ATOM      8  C   UNL     1      -0.816 -22.410 -10.153  1.00  0.00     0.004 A 
ATOM      9  C   UNL     1      -1.109 -21.087  -9.809  1.00  0.00     0.048 A 
ATOM     10  C   UNL     1      -0.235 -20.365  -8.987  1.00  0.00     0.138 A 
ATOM     11  O   UNL     1      -0.523 -19.108  -8.666  1.00  0.00    -0.456 OA
ENDROOT
BRANCH   1  12
ATOM     12  C   UNL     1      -0.190 -16.948  -7.607  1.00  0.00     0.017 A 
ATOM     13  C   UNL     1      -0.948 -14.294  -7.014  1.00  0.00     0.000 A 
ATOM     14  C   UNL     1       0.195 -14.841  -6.433  1.00  0.00     0.001 A 
ATOM     15  C   UNL     1      -1.717 -15.061  -7.890  1.00  0.00     0.001 A 
ATOM     16  C   UNL     1       0.572 -16.154  -6.725  1.00  0.00     0.012 A 
ATOM     17  C   UNL     1      -1.346 -16.377  -8.187  1.00  0.00     0.012 A 
ENDBRANCH   1  12
TORSDOF 1
ENDMDL
MODEL 7
REMARK VINA RESULT:    -5.340     10.866     12.309
REMARK INTER + INTRA:          -5.918
REMARK INTER:                  -5.663
REMARK INTRA:                  -0.256
REMARK UNBOUND:                -0.266
REMARK SMILES O=c1cc(-c2ccccc2)oc2ccccc12
REMARK SMILES IDX 4 1 3 2 2 3 1 4 17 5 16 6 15 7 14 8 13 9 12 10 11 11 5 12
REMARK SMILES IDX 8 13 7 14 9 15 6 16 10 17
REMARK H PARENT
REMARK Flexibility Score: inf
ROOT
ATOM      1  C   UNL     1      11.251 -17.687  -7.056  1.00  0.00     0.138 A 
ATOM      2  C   UNL     1      12.419 -16.942  -6.789  1.00  0.00     0.100 A 
ATOM      3  C   UNL     1      12.462 -16.107  -5.671  1.00  0.00     0.193 A 
ATOM      4  O   UNL     1      13.507 -15.441  -5.432  1.00  0.00    -0.289 OA
ATOM      5  C   UNL     1      11.344 -16.021  -4.829  1.00  0.00     0.065 A 
ATOM      6  C   UNL     1      11.322 -15.200  -3.687  1.00  0.00     0.016 A 
ATOM      7  C   UNL     1      10.179 -15.152  -2.882  1.00  0.00     0.001 A 
ATOM      8  C   UNL     1       9.056 -15.918  -3.207  1.00  0.00     0.004 A 
ATOM      9  C   UNL     1       9.070 -16.737  -4.340  1.00  0.00     0.048 A 
ATOM     10  C   UNL     1      10.208 -16.793  -5.153  1.00  0.00     0.138 A 
ATOM     11  O   UNL     1      10.211 -17.575  -6.228  1.00  0.00    -0.456 OA
ENDROOT
BRANCH   1  12
ATOM     12  C   UNL     1      11.121 -18.604  -8.230  1.00  0.00     0.017 A 
ATOM     13  C   UNL     1      10.814 -20.391 -10.394  1.00  0.00     0.000 A 
ATOM     14  C   UNL     1      10.142 -20.624  -9.195  1.00  0.00     0.001 A 
ATOM     15  C   UNL     1      11.638 -19.273 -10.523  1.00  0.00     0.001 A 
ATOM     16  C   UNL     1      10.293 -19.741  -8.123  1.00  0.00     0.012 A 
ATOM     17  C   UNL     1      11.794 -18.384  -9.454  1.00  0.00     0.012 A 
ENDBRANCH   1  12
TORSDOF 1
ENDMDL
MODEL 8
REMARK VINA RESULT:    -5.186      1.511      5.860
REMARK INTER + INTRA:          -5.755
REMARK INTER:                  -5.492
REMARK INTRA:                  -0.263
REMARK UNBOUND:                -0.266
REMARK SMILES O=c1cc(-c2ccccc2)oc2ccccc12
REMARK SMILES IDX 4 1 3 2 2 3 1 4 17 5 16 6 15 7 14 8 13 9 12 10 11 11 5 12
REMARK SMILES IDX 8 13 7 14 9 15 6 16 10 17
REMARK H PARENT
REMARK Flexibility Score: inf
ROOT
ATOM      1  C   UNL     1      -0.860 -18.530  -8.510  1.00  0.00     0.138 A 
ATOM      2  C   UNL     1      -1.912 -19.248  -9.117  1.00  0.00     0.100 A 
ATOM      3  C   UNL     1      -1.735 -20.597  -9.430  1.00  0.00     0.193 A 
ATOM      4  O   UNL     1      -2.677 -21.238  -9.972  1.00  0.00    -0.289 OA
ATOM      5  C   UNL     1      -0.513 -21.219  -9.137  1.00  0.00     0.065 A 
ATOM      6  C   UNL     1      -0.270 -22.573  -9.427  1.00  0.00     0.016 A 
ATOM      7  C   UNL     1       0.968 -23.145  -9.115  1.00  0.00     0.001 A 
ATOM      8  C   UNL     1       1.967 -22.373  -8.514  1.00  0.00     0.004 A 
ATOM      9  C   UNL     1       1.733 -21.026  -8.222  1.00  0.00     0.048 A 
ATOM     10  C   UNL     1       0.498 -20.444  -8.531  1.00  0.00     0.138 A 
ATOM     11  O   UNL     1       0.285 -19.163  -8.250  1.00  0.00    -0.456 OA
ENDROOT
BRANCH   1  12
ATOM     12  C   UNL     1      -0.966 -17.085  -8.142  1.00  0.00     0.017 A 
ATOM     13  C   UNL     1      -1.069 -14.352  -7.438  1.00  0.00     0.000 A 
ATOM     14  C   UNL     1       0.159 -15.007  -7.520  1.00  0.00     0.001 A 
ATOM     15  C   UNL     1      -2.247 -15.050  -7.705  1.00  0.00     0.001 A 
ATOM     16  C   UNL     1       0.213 -16.359  -7.868  1.00  0.00     0.012 A 
ATOM     17  C   UNL     1      -2.202 -16.404  -8.054  1.00  0.00     0.012 A 
ENDBRANCH   1  12
TORSDOF 1
ENDMDL
MODEL 9
REMARK VINA RESULT:    -5.175     12.237     14.589
REMARK INTER + INTRA:          -5.743
REMARK INTER:                  -5.487
REMARK INTRA:                  -0.256
REMARK UNBOUND:                -0.266
REMARK SMILES O=c1cc(-c2ccccc2)oc2ccccc12
REMARK SMILES IDX 4 1 3 2 2 3 1 4 17 5 16 6 15 7 14 8 13 9 12 10 11 11 5 12
REMARK SMILES IDX 8 13 7 14 9 15 6 16 10 17
REMARK H PARENT
REMARK Flexibility Score: inf
ROOT
ATOM      1  C   UNL     1      12.986 -17.043  -8.012  1.00  0.00     0.138 A 
ATOM      2  C   UNL     1      13.239 -17.170  -9.394  1.00  0.00     0.100 A 
ATOM      3  C   UNL     1      12.588 -18.166 -10.125  1.00  0.00     0.193 A 
ATOM      4  O   UNL     1      12.814 -18.279 -11.361  1.00  0.00    -0.289 OA
ATOM      5  C   UNL     1      11.691 -19.025  -9.474  1.00  0.00     0.065 A 
ATOM      6  C   UNL     1      11.002 -20.048 -10.151  1.00  0.00     0.016 A 
ATOM      7  C   UNL     1      10.119 -20.878  -9.454  1.00  0.00     0.001 A 
ATOM      8  C   UNL     1       9.916 -20.694  -8.082  1.00  0.00     0.004 A 
ATOM      9  C   UNL     1      10.596 -19.680  -7.402  1.00  0.00     0.048 A 
ATOM     10  C   UNL     1      11.483 -18.844  -8.091  1.00  0.00     0.138 A 
ATOM     11  O   UNL     1      12.125 -17.883  -7.435  1.00  0.00    -0.456 OA
ENDROOT
BRANCH   1  12
ATOM     12  C   UNL     1      13.640 -16.006  -7.157  1.00  0.00     0.017 A 
ATOM     13  C   UNL     1      14.879 -13.988  -5.618  1.00  0.00     0.000 A 
ATOM     14  C   UNL     1      14.628 -13.779  -6.974  1.00  0.00     0.001 A 
ATOM     15  C   UNL     1      14.515 -15.196  -5.023  1.00  0.00     0.001 A 
ATOM     16  C   UNL     1      14.015 -14.776  -7.737  1.00  0.00     0.012 A 
ATOM     17  C   UNL     1      13.901 -16.200  -5.780  1.00  0.00     0.012 A 
ENDBRANCH   1  12
TORSDOF 1
ENDMDL
