MODEL 1
REMARK VINA RESULT:    -3.019      0.000      0.000
REMARK INTER + INTRA:          -7.954
REMARK INTER:                  -5.491
REMARK INTRA:                  -2.463
REMARK UNBOUND:                -2.463
REMARK SMILES CCCCCCCCCCCCCCCC(=O)[O-]
REMARK SMILES IDX 9 1 10 2 11 3 12 4 13 5 14 6 15 7 16 8 17 9 18 10 8 11 7 12
REMARK SMILES IDX 6 13 5 14 4 15 3 16 2 17 1 18
REMARK H PARENT
REMARK Flexibility Score: inf
ROOT
ATOM      1  C   UNL     1     -12.005   4.653  26.308  1.00  0.00     0.000 C 
ENDROOT
BRANCH   1   2
ATOM      2  C   UNL     1     -12.369   3.688  27.443  1.00  0.00     0.000 C 
BRANCH   2   3
ATOM      3  C   UNL     1     -11.999   4.281  28.811  1.00  0.00     0.000 C 
BRANCH   3   4
ATOM      4  C   UNL     1     -13.244   4.554  29.683  1.00  0.00     0.000 C 
BRANCH   4   5
ATOM      5  C   UNL     1     -12.939   5.357  30.959  1.00  0.00     0.000 C 
BRANCH   5   6
ATOM      6  C   UNL     1     -11.514   5.126  31.486  1.00  0.00     0.006 C 
BRANCH   6   7
ATOM      7  C   UNL     1     -11.474   5.000  33.015  1.00  0.00     0.053 C 
BRANCH   7   8
ATOM      8  C   UNL     1     -12.101   3.724  33.487  1.00  0.00     0.041 C 
ATOM      9  O   UNL     1     -11.770   2.626  32.969  1.00  0.00    -0.550 OA
ATOM     10  O   UNL     1     -13.029   3.745  34.521  1.00  0.00    -0.550 OA
ENDBRANCH   7   8
ENDBRANCH   6   7
ENDBRANCH   5   6
ENDBRANCH   4   5
ENDBRANCH   3   4
ENDBRANCH   2   3
ENDBRANCH   1   2
BRANCH   1  11
ATOM     11  C   UNL     1     -12.910   5.890  26.325  1.00  0.00     0.000 C 
BRANCH  11  12
ATOM     12  C   UNL     1     -12.088   7.172  26.524  1.00  0.00    -0.000 C 
BRANCH  12  13
ATOM     13  C   UNL     1     -12.479   7.934  27.800  1.00  0.00    -0.000 C 
BRANCH  13  14
ATOM     14  C   UNL     1     -11.367   7.920  28.865  1.00  0.00    -0.000 C 
BRANCH  14  15
ATOM     15  C   UNL     1      -9.959   7.919  28.233  1.00  0.00    -0.000 C 
BRANCH  15  16
ATOM     16  C   UNL     1      -9.090   6.728  28.672  1.00  0.00    -0.000 C 
BRANCH  16  17
ATOM     17  C   UNL     1      -8.723   5.794  27.511  1.00  0.00    -0.003 C 
ATOM     18  C   UNL     1      -8.401   4.391  28.013  1.00  0.00     0.004 C 
ENDBRANCH  16  17
ENDBRANCH  15  16
ENDBRANCH  14  15
ENDBRANCH  13  14
ENDBRANCH  12  13
ENDBRANCH  11  12
ENDBRANCH   1  11
TORSDOF 14
ENDMDL
MODEL 2
REMARK VINA RESULT:    -3.007      7.462     10.860
REMARK INTER + INTRA:          -7.931
REMARK INTER:                  -5.739
REMARK INTRA:                  -2.192
REMARK UNBOUND:                -2.463
REMARK SMILES CCCCCCCCCCCCCCCC(=O)[O-]
REMARK SMILES IDX 9 1 10 2 11 3 12 4 13 5 14 6 15 7 16 8 17 9 18 10 8 11 7 12
REMARK SMILES IDX 6 13 5 14 4 15 3 16 2 17 1 18
REMARK H PARENT
REMARK Flexibility Score: inf
ROOT
ATOM      1  C   UNL     1      -6.397   0.418  38.219  1.00  0.00     0.000 C 
ENDROOT
BRANCH   1   2
ATOM      2  C   UNL     1      -7.409   0.111  39.329  1.00  0.00     0.000 C 
BRANCH   2   3
ATOM      3  C   UNL     1      -8.004   1.404  39.907  1.00  0.00     0.000 C 
BRANCH   3   4
ATOM      4  C   UNL     1      -7.057   2.610  39.731  1.00  0.00     0.000 C 
BRANCH   4   5
ATOM      5  C   UNL     1      -7.776   3.902  39.305  1.00  0.00     0.000 C 
BRANCH   5   6
ATOM      6  C   UNL     1      -8.768   3.681  38.152  1.00  0.00     0.006 C 
BRANCH   6   7
ATOM      7  C   UNL     1      -8.946   4.939  37.291  1.00  0.00     0.053 C 
BRANCH   7   8
ATOM      8  C   UNL     1     -10.105   4.813  36.352  1.00  0.00     0.041 C 
ATOM      9  O   UNL     1     -11.162   4.239  36.722  1.00  0.00    -0.550 OA
ATOM     10  O   UNL     1     -10.030   5.358  35.075  1.00  0.00    -0.550 OA
ENDBRANCH   7   8
ENDBRANCH   6   7
ENDBRANCH   5   6
ENDBRANCH   4   5
ENDBRANCH   3   4
ENDBRANCH   2   3
ENDBRANCH   1   2
BRANCH   1  11
ATOM     11  C   UNL     1      -5.169  -0.494  38.325  1.00  0.00     0.000 C 
BRANCH  11  12
ATOM     12  C   UNL     1      -3.900   0.234  37.855  1.00  0.00    -0.000 C 
BRANCH  12  13
ATOM     13  C   UNL     1      -3.644   1.537  38.629  1.00  0.00    -0.000 C 
BRANCH  13  14
ATOM     14  C   UNL     1      -3.283   2.714  37.705  1.00  0.00    -0.000 C 
BRANCH  14  15
ATOM     15  C   UNL     1      -4.398   3.780  37.659  1.00  0.00    -0.000 C 
BRANCH  15  16
ATOM     16  C   UNL     1      -4.931   4.052  36.243  1.00  0.00    -0.000 C 
BRANCH  16  17
ATOM     17  C   UNL     1      -6.082   3.118  35.846  1.00  0.00    -0.003 C 
ATOM     18  C   UNL     1      -6.648   3.491  34.479  1.00  0.00     0.004 C 
ENDBRANCH  16  17
ENDBRANCH  15  16
ENDBRANCH  14  15
ENDBRANCH  13  14
ENDBRANCH  12  13
ENDBRANCH  11  12
ENDBRANCH   1  11
TORSDOF 14
ENDMDL
MODEL 3
REMARK VINA RESULT:    -3.002      9.001     11.109
REMARK INTER + INTRA:          -7.922
REMARK INTER:                  -5.670
REMARK INTRA:                  -2.252
REMARK UNBOUND:                -2.463
REMARK SMILES CCCCCCCCCCCCCCCC(=O)[O-]
REMARK SMILES IDX 9 1 10 2 11 3 12 4 13 5 14 6 15 7 16 8 17 9 18 10 8 11 7 12
REMARK SMILES IDX 6 13 5 14 4 15 3 16 2 17 1 18
REMARK H PARENT
REMARK Flexibility Score: inf
ROOT
ATOM      1  C   UNL     1      -5.699  -0.336  36.981  1.00  0.00     0.000 C 
ENDROOT
BRANCH   1   2
ATOM      2  C   UNL     1      -7.176  -0.059  37.282  1.00  0.00     0.000 C 
BRANCH   2   3
ATOM      3  C   UNL     1      -7.430  -0.004  38.796  1.00  0.00     0.000 C 
BRANCH   3   4
ATOM      4  C   UNL     1      -8.296   1.209  39.198  1.00  0.00     0.000 C 
BRANCH   4   5
ATOM      5  C   UNL     1      -7.526   2.285  39.984  1.00  0.00     0.000 C 
BRANCH   5   6
ATOM      6  C   UNL     1      -7.428   3.620  39.230  1.00  0.00     0.006 C 
BRANCH   6   7
ATOM      7  C   UNL     1      -8.191   3.592  37.898  1.00  0.00     0.053 C 
BRANCH   7   8
ATOM      8  C   UNL     1      -8.671   4.953  37.501  1.00  0.00     0.041 C 
ATOM      9  O   UNL     1      -8.069   5.982  37.907  1.00  0.00    -0.550 OA
ATOM     10  O   UNL     1      -9.766   5.087  36.656  1.00  0.00    -0.550 OA
ENDBRANCH   7   8
ENDBRANCH   6   7
ENDBRANCH   5   6
ENDBRANCH   4   5
ENDBRANCH   3   4
ENDBRANCH   2   3
ENDBRANCH   1   2
BRANCH   1  11
ATOM     11  C   UNL     1      -4.888  -0.470  38.276  1.00  0.00     0.000 C 
BRANCH  11  12
ATOM     12  C   UNL     1      -3.700   0.503  38.285  1.00  0.00    -0.000 C 
BRANCH  12  13
ATOM     13  C   UNL     1      -4.121   1.950  38.587  1.00  0.00    -0.000 C 
BRANCH  13  14
ATOM     14  C   UNL     1      -3.714   2.932  37.473  1.00  0.00    -0.000 C 
BRANCH  14  15
ATOM     15  C   UNL     1      -2.989   2.223  36.310  1.00  0.00    -0.000 C 
BRANCH  15  16
ATOM     16  C   UNL     1      -3.796   2.207  35.001  1.00  0.00    -0.000 C 
BRANCH  16  17
ATOM     17  C   UNL     1      -3.422   1.037  34.081  1.00  0.00    -0.003 C 
ATOM     18  C   UNL     1      -2.621  -0.021  34.833  1.00  0.00     0.004 C 
ENDBRANCH  16  17
ENDBRANCH  15  16
ENDBRANCH  14  15
ENDBRANCH  13  14
ENDBRANCH  12  13
ENDBRANCH  11  12
ENDBRANCH   1  11
TORSDOF 14
ENDMDL
MODEL 4
REMARK VINA RESULT:    -2.961     12.466     15.049
REMARK INTER + INTRA:          -7.848
REMARK INTER:                  -5.159
REMARK INTRA:                  -2.689
REMARK UNBOUND:                -2.463
REMARK SMILES CCCCCCCCCCCCCCCC(=O)[O-]
REMARK SMILES IDX 9 1 10 2 11 3 12 4 13 5 14 6 15 7 16 8 17 9 18 10 8 11 7 12
REMARK SMILES IDX 6 13 5 14 4 15 3 16 2 17 1 18
REMARK H PARENT
REMARK Flexibility Score: inf
ROOT
ATOM      1  C   UNL     1      -3.295  -4.204  32.843  1.00  0.00     0.000 C 
ENDROOT
BRANCH   1   2
ATOM      2  C   UNL     1      -2.856  -3.420  31.601  1.00  0.00     0.000 C 
BRANCH   2   3
ATOM      3  C   UNL     1      -3.954  -3.431  30.525  1.00  0.00     0.000 C 
BRANCH   3   4
ATOM      4  C   UNL     1      -3.419  -3.890  29.152  1.00  0.00     0.000 C 
BRANCH   4   5
ATOM      5  C   UNL     1      -1.894  -3.751  29.006  1.00  0.00     0.000 C 
BRANCH   5   6
ATOM      6  C   UNL     1      -1.331  -4.559  27.826  1.00  0.00     0.006 C 
BRANCH   6   7
ATOM      7  C   UNL     1      -2.428  -5.320  27.068  1.00  0.00     0.053 C 
BRANCH   7   8
ATOM      8  C   UNL     1      -2.524  -4.882  25.639  1.00  0.00     0.041 C 
ATOM      9  O   UNL     1      -1.702  -5.310  24.787  1.00  0.00    -0.550 OA
ATOM     10  O   UNL     1      -3.543  -4.025  25.240  1.00  0.00    -0.550 OA
ENDBRANCH   7   8
ENDBRANCH   6   7
ENDBRANCH   5   6
ENDBRANCH   4   5
ENDBRANCH   3   4
ENDBRANCH   2   3
ENDBRANCH   1   2
BRANCH   1  11
ATOM     11  C   UNL     1      -2.429  -5.454  33.040  1.00  0.00     0.000 C 
BRANCH  11  12
ATOM     12  C   UNL     1      -1.210  -5.432  32.106  1.00  0.00    -0.000 C 
BRANCH  12  13
ATOM     13  C   UNL     1      -1.165  -6.644  31.162  1.00  0.00    -0.000 C 
BRANCH  13  14
ATOM     14  C   UNL     1      -2.426  -7.522  31.262  1.00  0.00    -0.000 C 
BRANCH  14  15
ATOM     15  C   UNL     1      -3.323  -7.395  30.013  1.00  0.00    -0.000 C 
BRANCH  15  16
ATOM     16  C   UNL     1      -4.765  -7.877  30.240  1.00  0.00    -0.000 C 
BRANCH  16  17
ATOM     17  C   UNL     1      -5.796  -6.743  30.156  1.00  0.00    -0.003 C 
ATOM     18  C   UNL     1      -6.175  -6.238  31.544  1.00  0.00     0.004 C 
ENDBRANCH  16  17
ENDBRANCH  15  16
ENDBRANCH  14  15
ENDBRANCH  13  14
ENDBRANCH  12  13
ENDBRANCH  11  12
ENDBRANCH   1  11
TORSDOF 14
ENDMDL
MODEL 5
REMARK VINA RESULT:    -2.961      7.020     10.600
REMARK INTER + INTRA:          -7.848
REMARK INTER:                  -5.185
REMARK INTRA:                  -2.663
REMARK UNBOUND:                -2.463
REMARK SMILES CCCCCCCCCCCCCCCC(=O)[O-]
REMARK SMILES IDX 9 1 10 2 11 3 12 4 13 5 14 6 15 7 16 8 17 9 18 10 8 11 7 12
REMARK SMILES IDX 6 13 5 14 4 15 3 16 2 17 1 18
REMARK H PARENT
REMARK Flexibility Score: inf
ROOT
ATOM      1  C   UNL     1      -8.061   0.228  38.694  1.00  0.00     0.000 C 
ENDROOT
BRANCH   1   2
ATOM      2  C   UNL     1      -7.161  -0.142  37.509  1.00  0.00     0.000 C 
BRANCH   2   3
ATOM      3  C   UNL     1      -7.066   1.017  36.505  1.00  0.00     0.000 C 
BRANCH   3   4
ATOM      4  C   UNL     1      -8.406   1.768  36.354  1.00  0.00     0.000 C 
BRANCH   4   5
ATOM      5  C   UNL     1      -8.253   3.298  36.297  1.00  0.00     0.000 C 
BRANCH   5   6
ATOM      6  C   UNL     1      -9.369   4.038  37.050  1.00  0.00     0.006 C 
BRANCH   6   7
ATOM      7  C   UNL     1      -9.963   5.188  36.224  1.00  0.00     0.053 C 
BRANCH   7   8
ATOM      8  C   UNL     1     -10.545   4.703  34.932  1.00  0.00     0.041 C 
ATOM      9  O   UNL     1     -11.498   3.880  34.935  1.00  0.00    -0.550 OA
ATOM     10  O   UNL     1     -10.056   5.184  33.724  1.00  0.00    -0.550 OA
ENDBRANCH   7   8
ENDBRANCH   6   7
ENDBRANCH   5   6
ENDBRANCH   4   5
ENDBRANCH   3   4
ENDBRANCH   2   3
ENDBRANCH   1   2
BRANCH   1  11
ATOM     11  C   UNL     1      -7.279   1.008  39.757  1.00  0.00     0.000 C 
BRANCH  11  12
ATOM     12  C   UNL     1      -8.001   2.313  40.125  1.00  0.00    -0.000 C 
BRANCH  12  13
ATOM     13  C   UNL     1      -7.155   3.562  39.829  1.00  0.00    -0.000 C 
BRANCH  13  14
ATOM     14  C   UNL     1      -5.659   3.239  39.661  1.00  0.00    -0.000 C 
BRANCH  14  15
ATOM     15  C   UNL     1      -5.122   3.672  38.280  1.00  0.00    -0.000 C 
BRANCH  15  16
ATOM     16  C   UNL     1      -4.092   2.696  37.688  1.00  0.00    -0.000 C 
BRANCH  16  17
ATOM     17  C   UNL     1      -3.742   1.544  38.639  1.00  0.00    -0.003 C 
ATOM     18  C   UNL     1      -3.490   0.251  37.870  1.00  0.00     0.004 C 
ENDBRANCH  16  17
ENDBRANCH  15  16
ENDBRANCH  14  15
ENDBRANCH  13  14
ENDBRANCH  12  13
ENDBRANCH  11  12
ENDBRANCH   1  11
TORSDOF 14
ENDMDL
MODEL 6
REMARK VINA RESULT:    -2.948     11.326     13.693
REMARK INTER + INTRA:          -7.825
REMARK INTER:                  -6.728
REMARK INTRA:                  -1.097
REMARK UNBOUND:                -2.463
REMARK SMILES CCCCCCCCCCCCCCCC(=O)[O-]
REMARK SMILES IDX 9 1 10 2 11 3 12 4 13 5 14 6 15 7 16 8 17 9 18 10 8 11 7 12
REMARK SMILES IDX 6 13 5 14 4 15 3 16 2 17 1 18
REMARK H PARENT
REMARK Flexibility Score: inf
ROOT
ATOM      1  C   UNL     1      -3.622  -2.248  31.971  1.00  0.00     0.000 C 
ENDROOT
BRANCH   1   2
ATOM      2  C   UNL     1      -3.178  -3.683  31.667  1.00  0.00     0.000 C 
BRANCH   2   3
ATOM      3  C   UNL     1      -3.063  -4.511  32.956  1.00  0.00     0.000 C 
BRANCH   3   4
ATOM      4  C   UNL     1      -1.773  -5.357  32.993  1.00  0.00     0.000 C 
BRANCH   4   5
ATOM      5  C   UNL     1      -1.301  -5.824  31.605  1.00  0.00     0.000 C 
BRANCH   5   6
ATOM      6  C   UNL     1      -1.923  -7.164  31.182  1.00  0.00     0.006 C 
BRANCH   6   7
ATOM      7  C   UNL     1      -3.004  -6.988  30.107  1.00  0.00     0.053 C 
BRANCH   7   8
ATOM      8  C   UNL     1      -4.344  -7.462  30.580  1.00  0.00     0.041 C 
ATOM      9  O   UNL     1      -5.245  -6.631  30.869  1.00  0.00    -0.550 OA
ATOM     10  O   UNL     1      -4.609  -8.823  30.673  1.00  0.00    -0.550 OA
ENDBRANCH   7   8
ENDBRANCH   6   7
ENDBRANCH   5   6
ENDBRANCH   4   5
ENDBRANCH   3   4
ENDBRANCH   2   3
ENDBRANCH   1   2
BRANCH   1  11
ATOM     11  C   UNL     1      -3.207  -1.831  33.386  1.00  0.00     0.000 C 
BRANCH  11  12
ATOM     12  C   UNL     1      -3.908  -0.530  33.805  1.00  0.00    -0.000 C 
BRANCH  12  13
ATOM     13  C   UNL     1      -2.940   0.496  34.415  1.00  0.00    -0.000 C 
BRANCH  13  14
ATOM     14  C   UNL     1      -2.710   0.273  35.921  1.00  0.00    -0.000 C 
BRANCH  14  15
ATOM     15  C   UNL     1      -3.642   1.148  36.786  1.00  0.00    -0.000 C 
BRANCH  15  16
ATOM     16  C   UNL     1      -3.865   0.594  38.203  1.00  0.00    -0.000 C 
BRANCH  16  17
ATOM     17  C   UNL     1      -4.866  -0.569  38.241  1.00  0.00    -0.003 C 
ATOM     18  C   UNL     1      -6.041  -0.315  37.302  1.00  0.00     0.004 C 
ENDBRANCH  16  17
ENDBRANCH  15  16
ENDBRANCH  14  15
ENDBRANCH  13  14
ENDBRANCH  12  13
ENDBRANCH  11  12
ENDBRANCH   1  11
TORSDOF 14
ENDMDL
MODEL 7
REMARK VINA RESULT:    -2.919      9.686     11.864
REMARK INTER + INTRA:          -7.771
REMARK INTER:                  -5.054
REMARK INTRA:                  -2.718
REMARK UNBOUND:                -2.463
REMARK SMILES CCCCCCCCCCCCCCCC(=O)[O-]
REMARK SMILES IDX 9 1 10 2 11 3 12 4 13 5 14 6 15 7 16 8 17 9 18 10 8 11 7 12
REMARK SMILES IDX 6 13 5 14 4 15 3 16 2 17 1 18
REMARK H PARENT
REMARK Flexibility Score: inf
ROOT
ATOM      1  C   UNL     1      -3.454   0.822  38.188  1.00  0.00     0.000 C 
ENDROOT
BRANCH   1   2
ATOM      2  C   UNL     1      -4.020   2.117  38.781  1.00  0.00     0.000 C 
BRANCH   2   3
ATOM      3  C   UNL     1      -3.514   3.346  38.009  1.00  0.00     0.000 C 
BRANCH   3   4
ATOM      4  C   UNL     1      -4.661   4.112  37.317  1.00  0.00     0.000 C 
BRANCH   4   5
ATOM      5  C   UNL     1      -5.424   3.274  36.277  1.00  0.00     0.000 C 
BRANCH   5   6
ATOM      6  C   UNL     1      -4.555   2.881  35.071  1.00  0.00     0.006 C 
BRANCH   6   7
ATOM      7  C   UNL     1      -4.758   1.416  34.663  1.00  0.00     0.053 C 
BRANCH   7   8
ATOM      8  C   UNL     1      -3.515   0.823  34.074  1.00  0.00     0.041 C 
ATOM      9  O   UNL     1      -2.904   1.419  33.149  1.00  0.00    -0.550 OA
ATOM     10  O   UNL     1      -3.013  -0.375  34.570  1.00  0.00    -0.550 OA
ENDBRANCH   7   8
ENDBRANCH   6   7
ENDBRANCH   5   6
ENDBRANCH   4   5
ENDBRANCH   3   4
ENDBRANCH   2   3
ENDBRANCH   1   2
BRANCH   1  11
ATOM     11  C   UNL     1      -4.575  -0.172  37.863  1.00  0.00     0.000 C 
BRANCH  11  12
ATOM     12  C   UNL     1      -5.846   0.151  38.664  1.00  0.00    -0.000 C 
BRANCH  12  13
ATOM     13  C   UNL     1      -7.094   0.266  37.774  1.00  0.00    -0.000 C 
BRANCH  13  14
ATOM     14  C   UNL     1      -8.026   1.413  38.203  1.00  0.00    -0.000 C 
BRANCH  14  15
ATOM     15  C   UNL     1      -7.560   2.081  39.514  1.00  0.00    -0.000 C 
BRANCH  15  16
ATOM     16  C   UNL     1      -7.672   3.614  39.496  1.00  0.00    -0.000 C 
BRANCH  16  17
ATOM     17  C   UNL     1      -8.432   4.146  38.274  1.00  0.00    -0.003 C 
ATOM     18  C   UNL     1      -8.040   5.587  37.965  1.00  0.00     0.004 C 
ENDBRANCH  16  17
ENDBRANCH  15  16
ENDBRANCH  14  15
ENDBRANCH  13  14
ENDBRANCH  12  13
ENDBRANCH  11  12
ENDBRANCH   1  11
TORSDOF 14
ENDMDL
MODEL 8
REMARK VINA RESULT:    -2.916     13.902     16.401
REMARK INTER + INTRA:          -7.766
REMARK INTER:                  -6.417
REMARK INTRA:                  -1.349
REMARK UNBOUND:                -2.463
REMARK SMILES CCCCCCCCCCCCCCCC(=O)[O-]
REMARK SMILES IDX 9 1 10 2 11 3 12 4 13 5 14 6 15 7 16 8 17 9 18 10 8 11 7 12
REMARK SMILES IDX 6 13 5 14 4 15 3 16 2 17 1 18
REMARK H PARENT
REMARK Flexibility Score: inf
ROOT
ATOM      1  C   UNL     1      -4.039  -7.022  30.151  1.00  0.00     0.000 C 
ENDROOT
BRANCH   1   2
ATOM      2  C   UNL     1      -3.572  -8.376  30.698  1.00  0.00     0.000 C 
BRANCH   2   3
ATOM      3  C   UNL     1      -4.539  -9.499  30.290  1.00  0.00     0.000 C 
BRANCH   3   4
ATOM      4  C   UNL     1      -5.006  -9.362  28.826  1.00  0.00     0.000 C 
BRANCH   4   5
ATOM      5  C   UNL     1      -3.880  -9.566  27.797  1.00  0.00     0.000 C 
BRANCH   5   6
ATOM      6  C   UNL     1      -4.109 -10.789  26.895  1.00  0.00     0.006 C 
BRANCH   6   7
ATOM      7  C   UNL     1      -2.923 -11.046  25.956  1.00  0.00     0.053 C 
BRANCH   7   8
ATOM      8  C   UNL     1      -3.167 -10.494  24.585  1.00  0.00     0.041 C 
ATOM      9  O   UNL     1      -2.236  -9.929  23.954  1.00  0.00    -0.550 OA
ATOM     10  O   UNL     1      -4.415 -10.632  23.990  1.00  0.00    -0.550 OA
ENDBRANCH   7   8
ENDBRANCH   6   7
ENDBRANCH   5   6
ENDBRANCH   4   5
ENDBRANCH   3   4
ENDBRANCH   2   3
ENDBRANCH   1   2
BRANCH   1  11
ATOM     11  C   UNL     1      -2.892  -6.004  30.149  1.00  0.00     0.000 C 
BRANCH  11  12
ATOM     12  C   UNL     1      -1.668  -6.552  30.898  1.00  0.00    -0.000 C 
BRANCH  12  13
ATOM     13  C   UNL     1      -1.220  -5.638  32.049  1.00  0.00    -0.000 C 
BRANCH  13  14
ATOM     14  C   UNL     1      -2.380  -5.248  32.984  1.00  0.00    -0.000 C 
BRANCH  14  15
ATOM     15  C   UNL     1      -2.671  -3.733  32.948  1.00  0.00    -0.000 C 
BRANCH  15  16
ATOM     16  C   UNL     1      -4.172  -3.395  32.948  1.00  0.00    -0.000 C 
BRANCH  16  17
ATOM     17  C   UNL     1      -5.066  -4.638  32.851  1.00  0.00    -0.003 C 
ATOM     18  C   UNL     1      -6.175  -4.440  31.822  1.00  0.00     0.004 C 
ENDBRANCH  16  17
ENDBRANCH  15  16
ENDBRANCH  14  15
ENDBRANCH  13  14
ENDBRANCH  12  13
ENDBRANCH  11  12
ENDBRANCH   1  11
TORSDOF 14
ENDMDL
MODEL 9
REMARK VINA RESULT:    -2.902      6.935     10.103
REMARK INTER + INTRA:          -7.740
REMARK INTER:                  -6.050
REMARK INTRA:                  -1.690
REMARK UNBOUND:                -2.463
REMARK SMILES CCCCCCCCCCCCCCCC(=O)[O-]
REMARK SMILES IDX 9 1 10 2 11 3 12 4 13 5 14 6 15 7 16 8 17 9 18 10 8 11 7 12
REMARK SMILES IDX 6 13 5 14 4 15 3 16 2 17 1 18
REMARK H PARENT
REMARK Flexibility Score: inf
ROOT
ATOM      1  C   UNL     1      -8.976   4.743  37.035  1.00  0.00     0.000 C 
ENDROOT
BRANCH   1   2
ATOM      2  C   UNL     1      -8.045   5.499  37.990  1.00  0.00     0.000 C 
BRANCH   2   3
ATOM      3  C   UNL     1      -7.686   4.635  39.209  1.00  0.00     0.000 C 
BRANCH   3   4
ATOM      4  C   UNL     1      -7.756   3.126  38.895  1.00  0.00     0.000 C 
BRANCH   4   5
ATOM      5  C   UNL     1      -6.519   2.340  39.364  1.00  0.00     0.000 C 
BRANCH   5   6
ATOM      6  C   UNL     1      -5.201   2.933  38.841  1.00  0.00     0.006 C 
BRANCH   6   7
ATOM      7  C   UNL     1      -4.097   1.874  38.718  1.00  0.00     0.053 C 
BRANCH   7   8
ATOM      8  C   UNL     1      -4.509   0.739  37.833  1.00  0.00     0.041 C 
ATOM      9  O   UNL     1      -4.570  -0.433  38.291  1.00  0.00    -0.550 OA
ATOM     10  O   UNL     1      -4.856   0.978  36.509  1.00  0.00    -0.550 OA
ENDBRANCH   7   8
ENDBRANCH   6   7
ENDBRANCH   5   6
ENDBRANCH   4   5
ENDBRANCH   3   4
ENDBRANCH   2   3
ENDBRANCH   1   2
BRANCH   1  11
ATOM     11  C   UNL     1      -9.904   5.710  36.289  1.00  0.00     0.000 C 
BRANCH  11  12
ATOM     12  C   UNL     1     -10.498   5.048  35.037  1.00  0.00    -0.000 C 
BRANCH  12  13
ATOM     13  C   UNL     1     -10.093   3.572  34.898  1.00  0.00    -0.000 C 
BRANCH  13  14
ATOM     14  C   UNL     1     -11.292   2.652  34.608  1.00  0.00    -0.000 C 
BRANCH  14  15
ATOM     15  C   UNL     1     -11.914   2.083  35.901  1.00  0.00    -0.000 C 
BRANCH  15  16
ATOM     16  C   UNL     1     -13.022   2.971  36.492  1.00  0.00    -0.000 C 
BRANCH  16  17
ATOM     17  C   UNL     1     -12.731   3.415  37.931  1.00  0.00    -0.003 C 
ATOM     18  C   UNL     1     -11.622   2.572  38.554  1.00  0.00     0.004 C 
ENDBRANCH  16  17
ENDBRANCH  15  16
ENDBRANCH  14  15
ENDBRANCH  13  14
ENDBRANCH  12  13
ENDBRANCH  11  12
ENDBRANCH   1  11
TORSDOF 14
ENDMDL
