MODEL 1
REMARK VINA RESULT:    -3.064      0.000      0.000
REMARK INTER + INTRA:          -3.349
REMARK INTER:                  -3.332
REMARK INTRA:                  -0.016
REMARK UNBOUND:                -0.016
REMARK SMILES OCc1ccco1
REMARK SMILES IDX 2 1 3 2 5 3 6 4 4 5 7 6 1 7
REMARK H PARENT 1 8
REMARK Flexibility Score: inf
ROOT
ATOM      1  C   UNL     1     -92.072 145.973 238.326  1.00  0.00     0.231 C 
ENDROOT
BRANCH   1   2
ATOM      2  C   UNL     1     -93.062 146.553 239.285  1.00  0.00     0.129 A 
ATOM      3  C   UNL     1     -94.403 147.937 240.338  1.00  0.00     0.042 A 
ATOM      4  C   UNL     1     -94.373 146.704 240.960  1.00  0.00     0.195 A 
ATOM      5  C   UNL     1     -93.553 147.843 239.257  1.00  0.00     0.048 A 
ATOM      6  O   UNL     1     -93.561 145.901 240.310  1.00  0.00    -0.467 OA
ENDBRANCH   1   2
BRANCH   1   7
ATOM      7  O   UNL     1     -90.875 145.678 238.990  1.00  0.00    -0.388 OA
ATOM      8  H   UNL     1     -90.550 146.529 239.383  1.00  0.00     0.211 HD
ENDBRANCH   1   7
TORSDOF 2
ENDMDL
MODEL 2
REMARK VINA RESULT:    -2.945      1.776      2.359
REMARK INTER + INTRA:          -3.220
REMARK INTER:                  -3.206
REMARK INTRA:                  -0.014
REMARK UNBOUND:                -0.016
REMARK SMILES OCc1ccco1
REMARK SMILES IDX 2 1 3 2 5 3 6 4 4 5 7 6 1 7
REMARK H PARENT 1 8
REMARK Flexibility Score: inf
ROOT
ATOM      1  C   UNL     1     -92.330 146.106 239.075  1.00  0.00     0.231 C 
ENDROOT
BRANCH   1   2
ATOM      2  C   UNL     1     -93.325 147.062 238.497  1.00  0.00     0.129 A 
ATOM      3  C   UNL     1     -94.738 148.724 238.244  1.00  0.00     0.042 A 
ATOM      4  C   UNL     1     -94.706 147.922 237.120  1.00  0.00     0.195 A 
ATOM      5  C   UNL     1     -93.849 148.167 239.138  1.00  0.00     0.048 A 
ATOM      6  O   UNL     1     -93.856 146.937 237.303  1.00  0.00    -0.467 OA
ENDBRANCH   1   2
BRANCH   1   7
ATOM      7  O   UNL     1     -92.971 145.210 239.939  1.00  0.00    -0.388 OA
ATOM      8  H   UNL     1     -92.597 144.311 239.746  1.00  0.00     0.211 HD
ENDBRANCH   1   7
TORSDOF 2
ENDMDL
MODEL 3
REMARK VINA RESULT:    -2.880      3.422      5.085
REMARK INTER + INTRA:          -3.149
REMARK INTER:                  -3.133
REMARK INTRA:                  -0.016
REMARK UNBOUND:                -0.016
REMARK SMILES OCc1ccco1
REMARK SMILES IDX 2 1 3 2 5 3 6 4 4 5 7 6 1 7
REMARK H PARENT 1 8
REMARK Flexibility Score: inf
ROOT
ATOM      1  C   UNL     1     -97.566 149.594 242.233  1.00  0.00     0.231 C 
ENDROOT
BRANCH   1   2
ATOM      2  C   UNL     1     -96.444 148.763 241.699  1.00  0.00     0.129 A 
ATOM      3  C   UNL     1     -94.675 148.090 240.585  1.00  0.00     0.042 A 
ATOM      4  C   UNL     1     -95.214 147.061 241.332  1.00  0.00     0.195 A 
ATOM      5  C   UNL     1     -95.471 149.191 240.818  1.00  0.00     0.048 A 
ATOM      6  O   UNL     1     -96.270 147.493 241.983  1.00  0.00    -0.467 OA
ENDBRANCH   1   2
BRANCH   1   7
ATOM      7  O   UNL     1     -97.645 150.803 241.531  1.00  0.00    -0.388 OA
ATOM      8  H   UNL     1     -97.161 150.668 240.675  1.00  0.00     0.211 HD
ENDBRANCH   1   7
TORSDOF 2
ENDMDL
MODEL 4
REMARK VINA RESULT:    -2.795      1.512      1.974
REMARK INTER + INTRA:          -3.056
REMARK INTER:                  -3.040
REMARK INTRA:                  -0.016
REMARK UNBOUND:                -0.016
REMARK SMILES OCc1ccco1
REMARK SMILES IDX 2 1 3 2 5 3 6 4 4 5 7 6 1 7
REMARK H PARENT 1 8
REMARK Flexibility Score: inf
ROOT
ATOM      1  C   UNL     1     -93.575 145.706 240.329  1.00  0.00     0.231 C 
ENDROOT
BRANCH   1   2
ATOM      2  C   UNL     1     -94.189 146.976 239.832  1.00  0.00     0.129 A 
ATOM      3  C   UNL     1     -94.675 148.737 238.614  1.00  0.00     0.042 A 
ATOM      4  C   UNL     1     -95.377 148.746 239.803  1.00  0.00     0.195 A 
ATOM      5  C   UNL     1     -93.903 147.595 238.633  1.00  0.00     0.048 A 
ATOM      6  O   UNL     1     -95.064 147.684 240.510  1.00  0.00    -0.467 OA
ENDBRANCH   1   2
BRANCH   1   7
ATOM      7  O   UNL     1     -92.465 145.371 239.545  1.00  0.00    -0.388 OA
ATOM      8  H   UNL     1     -92.602 144.436 239.241  1.00  0.00     0.211 HD
ENDBRANCH   1   7
TORSDOF 2
ENDMDL
MODEL 5
REMARK VINA RESULT:    -2.781      3.459      4.998
REMARK INTER + INTRA:          -3.041
REMARK INTER:                  -3.023
REMARK INTRA:                  -0.018
REMARK UNBOUND:                -0.016
REMARK SMILES OCc1ccco1
REMARK SMILES IDX 2 1 3 2 5 3 6 4 4 5 7 6 1 7
REMARK H PARENT 1 8
REMARK Flexibility Score: inf
ROOT
ATOM      1  C   UNL     1     -96.879 149.585 241.841  1.00  0.00     0.231 C 
ENDROOT
BRANCH   1   2
ATOM      2  C   UNL     1     -96.060 149.057 240.707  1.00  0.00     0.129 A 
ATOM      3  C   UNL     1     -94.395 148.283 239.501  1.00  0.00     0.042 A 
ATOM      4  C   UNL     1     -95.524 148.472 238.728  1.00  0.00     0.195 A 
ATOM      5  C   UNL     1     -94.738 148.665 240.781  1.00  0.00     0.048 A 
ATOM      6  O   UNL     1     -96.499 148.938 239.475  1.00  0.00    -0.467 OA
ENDBRANCH   1   2
BRANCH   1   7
ATOM      7  O   UNL     1     -97.453 150.813 241.487  1.00  0.00    -0.388 OA
ATOM      8  H   UNL     1     -98.165 150.997 242.154  1.00  0.00     0.211 HD
ENDBRANCH   1   7
TORSDOF 2
ENDMDL
MODEL 6
REMARK VINA RESULT:    -2.692      2.532      3.579
REMARK INTER + INTRA:          -2.945
REMARK INTER:                  -2.924
REMARK INTRA:                  -0.021
REMARK UNBOUND:                -0.016
REMARK SMILES OCc1ccco1
REMARK SMILES IDX 2 1 3 2 5 3 6 4 4 5 7 6 1 7
REMARK H PARENT 1 8
REMARK Flexibility Score: inf
ROOT
ATOM      1  C   UNL     1     -94.467 147.096 240.623  1.00  0.00     0.231 C 
ENDROOT
BRANCH   1   2
ATOM      2  C   UNL     1     -95.525 148.008 241.156  1.00  0.00     0.129 A 
ATOM      3  C   UNL     1     -96.738 149.785 241.598  1.00  0.00     0.042 A 
ATOM      4  C   UNL     1     -97.200 148.682 242.289  1.00  0.00     0.195 A 
ATOM      5  C   UNL     1     -95.652 149.352 240.867  1.00  0.00     0.048 A 
ATOM      6  O   UNL     1     -96.454 147.639 242.007  1.00  0.00    -0.467 OA
ENDBRANCH   1   2
BRANCH   1   7
ATOM      7  O   UNL     1     -94.304 145.999 241.478  1.00  0.00    -0.388 OA
ATOM      8  H   UNL     1     -95.214 145.716 241.756  1.00  0.00     0.211 HD
ENDBRANCH   1   7
TORSDOF 2
ENDMDL
MODEL 7
REMARK VINA RESULT:    -2.590      2.068      3.561
REMARK INTER + INTRA:          -2.833
REMARK INTER:                  -2.821
REMARK INTRA:                  -0.013
REMARK UNBOUND:                -0.016
REMARK SMILES OCc1ccco1
REMARK SMILES IDX 2 1 3 2 5 3 6 4 4 5 7 6 1 7
REMARK H PARENT 1 8
REMARK Flexibility Score: inf
ROOT
ATOM      1  C   UNL     1     -92.936 146.461 239.379  1.00  0.00     0.231 C 
ENDROOT
BRANCH   1   2
ATOM      2  C   UNL     1     -92.940 146.343 237.888  1.00  0.00     0.129 A 
ATOM      3  C   UNL     1     -92.401 145.838 235.820  1.00  0.00     0.042 A 
ATOM      4  C   UNL     1     -93.519 146.648 235.859  1.00  0.00     0.195 A 
ATOM      5  C   UNL     1     -92.023 145.643 237.132  1.00  0.00     0.048 A 
ATOM      6  O   UNL     1     -93.814 146.935 237.107  1.00  0.00    -0.467 OA
ENDBRANCH   1   2
BRANCH   1   7
ATOM      7  O   UNL     1     -93.076 145.196 239.962  1.00  0.00    -0.388 OA
ATOM      8  H   UNL     1     -92.193 144.961 240.350  1.00  0.00     0.211 HD
ENDBRANCH   1   7
TORSDOF 2
ENDMDL
MODEL 8
REMARK VINA RESULT:    -2.532     14.165     14.998
REMARK INTER + INTRA:          -2.770
REMARK INTER:                  -2.755
REMARK INTRA:                  -0.015
REMARK UNBOUND:                -0.016
REMARK SMILES OCc1ccco1
REMARK SMILES IDX 2 1 3 2 5 3 6 4 4 5 7 6 1 7
REMARK H PARENT 1 8
REMARK Flexibility Score: inf
ROOT
ATOM      1  C   UNL     1     -94.438 160.420 233.977  1.00  0.00     0.231 C 
ENDROOT
BRANCH   1   2
ATOM      2  C   UNL     1     -92.945 160.351 233.920  1.00  0.00     0.129 A 
ATOM      3  C   UNL     1     -90.875 159.617 233.910  1.00  0.00     0.042 A 
ATOM      4  C   UNL     1     -90.914 160.996 233.851  1.00  0.00     0.195 A 
ATOM      5  C   UNL     1     -92.188 159.198 233.958  1.00  0.00     0.048 A 
ATOM      6  O   UNL     1     -92.163 161.404 233.861  1.00  0.00    -0.467 OA
ENDBRANCH   1   2
BRANCH   1   7
ATOM      7  O   UNL     1     -94.933 159.413 234.815  1.00  0.00    -0.388 OA
ATOM      8  H   UNL     1     -95.918 159.529 234.849  1.00  0.00     0.211 HD
ENDBRANCH   1   7
TORSDOF 2
ENDMDL
MODEL 9
REMARK VINA RESULT:    -2.505      1.610      3.292
REMARK INTER + INTRA:          -2.741
REMARK INTER:                  -2.719
REMARK INTRA:                  -0.022
REMARK UNBOUND:                -0.016
REMARK SMILES OCc1ccco1
REMARK SMILES IDX 2 1 3 2 5 3 6 4 4 5 7 6 1 7
REMARK H PARENT 1 8
REMARK Flexibility Score: inf
ROOT
ATOM      1  C   UNL     1     -95.869 147.128 241.682  1.00  0.00     0.231 C 
ENDROOT
BRANCH   1   2
ATOM      2  C   UNL     1     -94.909 147.386 240.564  1.00  0.00     0.129 A 
ATOM      3  C   UNL     1     -93.891 148.278 238.835  1.00  0.00     0.042 A 
ATOM      4  C   UNL     1     -93.304 147.081 239.195  1.00  0.00     0.195 A 
ATOM      5  C   UNL     1     -94.932 148.475 239.717  1.00  0.00     0.048 A 
ATOM      6  O   UNL     1     -93.936 146.571 240.228  1.00  0.00    -0.467 OA
ENDBRANCH   1   2
BRANCH   1   7
ATOM      7  O   UNL     1     -95.539 145.932 242.331  1.00  0.00    -0.388 OA
ATOM      8  H   UNL     1     -95.325 145.272 241.621  1.00  0.00     0.211 HD
ENDBRANCH   1   7
TORSDOF 2
ENDMDL
