MODEL 1
REMARK VINA RESULT:    -4.374      0.000      0.000
REMARK INTER + INTRA:          -9.637
REMARK INTER:                  -7.699
REMARK INTRA:                  -1.938
REMARK UNBOUND:                -1.938
REMARK SMILES CCCCCCC=CCCCCCCCC(=O)[O-]
REMARK SMILES IDX 10 1 11 2 12 3 13 4 14 5 15 6 16 7 17 8 18 9 9 10 8 11 7 12
REMARK SMILES IDX 6 13 5 14 4 15 3 16 2 17 1 18
REMARK H PARENT
REMARK Flexibility Score: inf
ROOT
ATOM      1  C   UNL     1      11.534   1.538  -0.213  1.00  0.00     0.004 C 
ENDROOT
BRANCH   1   2
ATOM      2  C   UNL     1      10.283   2.405  -0.419  1.00  0.00     0.000 C 
BRANCH   2   3
ATOM      3  C   UNL     1       9.912   3.212   0.840  1.00  0.00     0.000 C 
BRANCH   3   4
ATOM      4  C   UNL     1       8.558   3.929   0.705  1.00  0.00     0.000 C 
BRANCH   4   5
ATOM      5  C   UNL     1       8.529   5.284   1.434  1.00  0.00     0.006 C 
BRANCH   5   6
ATOM      6  C   UNL     1       9.915   5.937   1.501  1.00  0.00     0.053 C 
BRANCH   6   7
ATOM      7  C   UNL     1      10.142   6.627   2.810  1.00  0.00     0.041 C 
ATOM      8  O   UNL     1       9.502   7.675   3.095  1.00  0.00    -0.550 OA
ATOM      9  O   UNL     1      11.080   6.128   3.704  1.00  0.00    -0.550 OA
ENDBRANCH   6   7
ENDBRANCH   5   6
ENDBRANCH   4   5
ENDBRANCH   3   4
ENDBRANCH   2   3
ENDBRANCH   1   2
BRANCH   1  10
ATOM     10  C   UNL     1      12.407   1.448  -1.475  1.00  0.00     0.027 C 
BRANCH  10  11
ATOM     11  C   UNL     1      11.894   2.373  -2.543  1.00  0.00    -0.031 C 
ATOM     12  C   UNL     1      11.598   1.927  -3.774  1.00  0.00    -0.031 C 
BRANCH  12  13
ATOM     13  C   UNL     1      11.087   2.853  -4.842  1.00  0.00     0.027 C 
BRANCH  13  14
ATOM     14  C   UNL     1      10.802   4.249  -4.260  1.00  0.00     0.004 C 
BRANCH  14  15
ATOM     15  C   UNL     1       9.332   4.432  -3.851  1.00  0.00     0.000 C 
BRANCH  15  16
ATOM     16  C   UNL     1       9.172   5.317  -2.601  1.00  0.00    -0.000 C 
BRANCH  16  17
ATOM     17  C   UNL     1      10.523   5.785  -2.037  1.00  0.00    -0.003 C 
ATOM     18  C   UNL     1      10.636   7.308  -1.960  1.00  0.00     0.004 C 
ENDBRANCH  16  17
ENDBRANCH  15  16
ENDBRANCH  14  15
ENDBRANCH  13  14
ENDBRANCH  12  13
ENDBRANCH  10  11
ENDBRANCH   1  10
TORSDOF 13
ENDMDL
MODEL 2
REMARK VINA RESULT:    -4.328      2.881      5.421
REMARK INTER + INTRA:          -9.556
REMARK INTER:                  -7.661
REMARK INTRA:                  -1.895
REMARK UNBOUND:                -1.938
REMARK SMILES CCCCCCC=CCCCCCCCC(=O)[O-]
REMARK SMILES IDX 10 1 11 2 12 3 13 4 14 5 15 6 16 7 17 8 18 9 9 10 8 11 7 12
REMARK SMILES IDX 6 13 5 14 4 15 3 16 2 17 1 18
REMARK H PARENT
REMARK Flexibility Score: inf
ROOT
ATOM      1  C   UNL     1       9.904   5.206   1.719  1.00  0.00     0.004 C 
ENDROOT
BRANCH   1   2
ATOM      2  C   UNL     1      10.086   6.659   1.254  1.00  0.00     0.000 C 
BRANCH   2   3
ATOM      3  C   UNL     1       9.293   6.970  -0.030  1.00  0.00     0.000 C 
BRANCH   3   4
ATOM      4  C   UNL     1      10.202   7.139  -1.259  1.00  0.00     0.000 C 
BRANCH   4   5
ATOM      5  C   UNL     1      10.769   5.802  -1.767  1.00  0.00     0.006 C 
BRANCH   5   6
ATOM      6  C   UNL     1       9.842   5.129  -2.786  1.00  0.00     0.053 C 
BRANCH   6   7
ATOM      7  C   UNL     1      10.006   5.711  -4.156  1.00  0.00     0.041 C 
ATOM      8  O   UNL     1      10.727   5.131  -5.011  1.00  0.00    -0.550 OA
ATOM      9  O   UNL     1       9.383   6.910  -4.478  1.00  0.00    -0.550 OA
ENDBRANCH   6   7
ENDBRANCH   5   6
ENDBRANCH   4   5
ENDBRANCH   3   4
ENDBRANCH   2   3
ENDBRANCH   1   2
BRANCH   1  10
ATOM     10  C   UNL     1       8.705   4.515   1.050  1.00  0.00     0.027 C 
BRANCH  10  11
ATOM     11  C   UNL     1       9.114   3.191   0.466  1.00  0.00    -0.031 C 
ATOM     12  C   UNL     1      10.399   2.804   0.437  1.00  0.00    -0.031 C 
BRANCH  12  13
ATOM     13  C   UNL     1      10.807   1.481  -0.148  1.00  0.00     0.027 C 
BRANCH  13  14
ATOM     14  C   UNL     1      12.179   1.593  -0.836  1.00  0.00     0.004 C 
BRANCH  14  15
ATOM     15  C   UNL     1      12.105   2.312  -2.193  1.00  0.00     0.000 C 
BRANCH  15  16
ATOM     16  C   UNL     1      11.113   1.646  -3.163  1.00  0.00    -0.000 C 
BRANCH  16  17
ATOM     17  C   UNL     1      11.562   1.754  -4.628  1.00  0.00    -0.003 C 
ATOM     18  C   UNL     1      11.572   0.404  -5.345  1.00  0.00     0.004 C 
ENDBRANCH  16  17
ENDBRANCH  15  16
ENDBRANCH  14  15
ENDBRANCH  13  14
ENDBRANCH  12  13
ENDBRANCH  10  11
ENDBRANCH   1  10
TORSDOF 13
ENDMDL
MODEL 3
REMARK VINA RESULT:    -4.315      1.868      4.701
REMARK INTER + INTRA:          -9.533
REMARK INTER:                  -8.056
REMARK INTRA:                  -1.477
REMARK UNBOUND:                -1.938
REMARK SMILES CCCCCCC=CCCCCCCCC(=O)[O-]
REMARK SMILES IDX 10 1 11 2 12 3 13 4 14 5 15 6 16 7 17 8 18 9 9 10 8 11 7 12
REMARK SMILES IDX 6 13 5 14 4 15 3 16 2 17 1 18
REMARK H PARENT
REMARK Flexibility Score: inf
ROOT
ATOM      1  C   UNL     1      10.011   5.681  -5.050  1.00  0.00     0.004 C 
ENDROOT
BRANCH   1   2
ATOM      2  C   UNL     1       8.691   5.362  -4.332  1.00  0.00     0.000 C 
BRANCH   2   3
ATOM      3  C   UNL     1       8.335   6.411  -3.262  1.00  0.00     0.000 C 
BRANCH   3   4
ATOM      4  C   UNL     1       8.154   5.793  -1.865  1.00  0.00     0.000 C 
BRANCH   4   5
ATOM      5  C   UNL     1       8.808   4.405  -1.742  1.00  0.00     0.006 C 
BRANCH   5   6
ATOM      6  C   UNL     1       9.989   4.406  -0.763  1.00  0.00     0.053 C 
BRANCH   6   7
ATOM      7  C   UNL     1       9.542   4.169   0.647  1.00  0.00     0.041 C 
ATOM      8  O   UNL     1       9.053   3.056   0.980  1.00  0.00    -0.550 OA
ATOM      9  O   UNL     1       9.643   5.187   1.586  1.00  0.00    -0.550 OA
ENDBRANCH   6   7
ENDBRANCH   5   6
ENDBRANCH   4   5
ENDBRANCH   3   4
ENDBRANCH   2   3
ENDBRANCH   1   2
BRANCH   1  10
ATOM     10  C   UNL     1      10.636   4.446  -5.719  1.00  0.00     0.027 C 
BRANCH  10  11
ATOM     11  C   UNL     1      11.002   3.413  -4.690  1.00  0.00    -0.031 C 
ATOM     12  C   UNL     1      11.369   2.171  -5.044  1.00  0.00    -0.031 C 
BRANCH  12  13
ATOM     13  C   UNL     1      11.733   1.137  -4.015  1.00  0.00     0.027 C 
BRANCH  13  14
ATOM     14  C   UNL     1      11.201   1.541  -2.629  1.00  0.00     0.004 C 
BRANCH  14  15
ATOM     15  C   UNL     1      12.327   1.844  -1.626  1.00  0.00     0.000 C 
BRANCH  15  16
ATOM     16  C   UNL     1      12.077   1.209  -0.246  1.00  0.00    -0.000 C 
BRANCH  16  17
ATOM     17  C   UNL     1      13.087   0.099   0.081  1.00  0.00    -0.003 C 
ATOM     18  C   UNL     1      12.823  -0.561   1.435  1.00  0.00     0.004 C 
ENDBRANCH  16  17
ENDBRANCH  15  16
ENDBRANCH  14  15
ENDBRANCH  13  14
ENDBRANCH  12  13
ENDBRANCH  10  11
ENDBRANCH   1  10
TORSDOF 13
ENDMDL
MODEL 4
REMARK VINA RESULT:    -4.296      1.209      2.033
REMARK INTER + INTRA:          -9.498
REMARK INTER:                  -7.429
REMARK INTRA:                  -2.069
REMARK UNBOUND:                -1.938
REMARK SMILES CCCCCCC=CCCCCCCCC(=O)[O-]
REMARK SMILES IDX 10 1 11 2 12 3 13 4 14 5 15 6 16 7 17 8 18 9 9 10 8 11 7 12
REMARK SMILES IDX 6 13 5 14 4 15 3 16 2 17 1 18
REMARK H PARENT
REMARK Flexibility Score: inf
ROOT
ATOM      1  C   UNL     1      12.158   2.335  -2.302  1.00  0.00     0.004 C 
ENDROOT
BRANCH   1   2
ATOM      2  C   UNL     1      12.154   1.510  -1.006  1.00  0.00     0.000 C 
BRANCH   2   3
ATOM      3  C   UNL     1      10.899   1.764  -0.150  1.00  0.00     0.000 C 
BRANCH   3   4
ATOM      4  C   UNL     1       9.742   2.371  -0.962  1.00  0.00     0.000 C 
BRANCH   4   5
ATOM      5  C   UNL     1       9.028   3.511  -0.217  1.00  0.00     0.006 C 
BRANCH   5   6
ATOM      6  C   UNL     1       9.765   3.917   1.065  1.00  0.00     0.053 C 
BRANCH   6   7
ATOM      7  C   UNL     1       9.387   5.297   1.510  1.00  0.00     0.041 C 
ATOM      8  O   UNL     1       8.187   5.572   1.779  1.00  0.00    -0.550 OA
ATOM      9  O   UNL     1      10.358   6.286   1.600  1.00  0.00    -0.550 OA
ENDBRANCH   6   7
ENDBRANCH   5   6
ENDBRANCH   4   5
ENDBRANCH   3   4
ENDBRANCH   2   3
ENDBRANCH   1   2
BRANCH   1  10
ATOM     10  C   UNL     1      11.869   1.484  -3.548  1.00  0.00     0.027 C 
BRANCH  10  11
ATOM     11  C   UNL     1      11.449   2.355  -4.700  1.00  0.00    -0.031 C 
ATOM     12  C   UNL     1      10.813   3.520  -4.503  1.00  0.00    -0.031 C 
BRANCH  12  13
ATOM     13  C   UNL     1      10.391   4.389  -5.654  1.00  0.00     0.027 C 
BRANCH  13  14
ATOM     14  C   UNL     1       9.333   5.412  -5.203  1.00  0.00     0.004 C 
BRANCH  14  15
ATOM     15  C   UNL     1       8.741   5.083  -3.824  1.00  0.00     0.000 C 
BRANCH  15  16
ATOM     16  C   UNL     1       8.844   6.261  -2.839  1.00  0.00    -0.000 C 
BRANCH  16  17
ATOM     17  C   UNL     1      10.274   6.812  -2.731  1.00  0.00    -0.003 C 
ATOM     18  C   UNL     1      11.141   6.020  -1.753  1.00  0.00     0.004 C 
ENDBRANCH  16  17
ENDBRANCH  15  16
ENDBRANCH  14  15
ENDBRANCH  13  14
ENDBRANCH  12  13
ENDBRANCH  10  11
ENDBRANCH   1  10
TORSDOF 13
ENDMDL
MODEL 5
REMARK VINA RESULT:    -4.270      2.707      4.878
REMARK INTER + INTRA:          -9.454
REMARK INTER:                  -7.753
REMARK INTRA:                  -1.701
REMARK UNBOUND:                -1.938
REMARK SMILES CCCCCCC=CCCCCCCCC(=O)[O-]
REMARK SMILES IDX 10 1 11 2 12 3 13 4 14 5 15 6 16 7 17 8 18 9 9 10 8 11 7 12
REMARK SMILES IDX 6 13 5 14 4 15 3 16 2 17 1 18
REMARK H PARENT
REMARK Flexibility Score: inf
ROOT
ATOM      1  C   UNL     1       8.085   4.179  -0.490  1.00  0.00     0.004 C 
ENDROOT
BRANCH   1   2
ATOM      2  C   UNL     1       7.046   5.310  -0.508  1.00  0.00     0.000 C 
BRANCH   2   3
ATOM      3  C   UNL     1       7.598   6.625   0.077  1.00  0.00     0.000 C 
BRANCH   3   4
ATOM      4  C   UNL     1       8.552   7.347  -0.890  1.00  0.00     0.000 C 
BRANCH   4   5
ATOM      5  C   UNL     1      10.026   7.239  -0.460  1.00  0.00     0.006 C 
BRANCH   5   6
ATOM      6  C   UNL     1      10.839   6.338  -1.398  1.00  0.00     0.053 C 
BRANCH   6   7
ATOM      7  C   UNL     1      10.731   6.780  -2.825  1.00  0.00     0.041 C 
ATOM      8  O   UNL     1      11.072   7.947  -3.157  1.00  0.00    -0.550 OA
ATOM      9  O   UNL     1      10.228   5.910  -3.784  1.00  0.00    -0.550 OA
ENDBRANCH   6   7
ENDBRANCH   5   6
ENDBRANCH   4   5
ENDBRANCH   3   4
ENDBRANCH   2   3
ENDBRANCH   1   2
BRANCH   1  10
ATOM     10  C   UNL     1       8.631   3.896   0.918  1.00  0.00     0.027 C 
BRANCH  10  11
ATOM     11  C   UNL     1       9.915   3.117   0.844  1.00  0.00    -0.031 C 
ATOM     12  C   UNL     1      10.245   2.414  -0.251  1.00  0.00    -0.031 C 
BRANCH  12  13
ATOM     13  C   UNL     1      11.528   1.633  -0.324  1.00  0.00     0.027 C 
BRANCH  13  14
ATOM     14  C   UNL     1      12.284   1.953  -1.626  1.00  0.00     0.004 C 
BRANCH  14  15
ATOM     15  C   UNL     1      11.494   2.888  -2.556  1.00  0.00     0.000 C 
BRANCH  15  16
ATOM     16  C   UNL     1      11.530   2.430  -4.025  1.00  0.00    -0.000 C 
BRANCH  16  17
ATOM     17  C   UNL     1      11.816   0.926  -4.164  1.00  0.00    -0.003 C 
ATOM     18  C   UNL     1      11.528   0.397  -5.569  1.00  0.00     0.004 C 
ENDBRANCH  16  17
ENDBRANCH  15  16
ENDBRANCH  14  15
ENDBRANCH  13  14
ENDBRANCH  12  13
ENDBRANCH  10  11
ENDBRANCH   1  10
TORSDOF 13
ENDMDL
MODEL 6
REMARK VINA RESULT:    -4.246      1.192      2.001
REMARK INTER + INTRA:          -9.411
REMARK INTER:                  -7.615
REMARK INTRA:                  -1.796
REMARK UNBOUND:                -1.938
REMARK SMILES CCCCCCC=CCCCCCCCC(=O)[O-]
REMARK SMILES IDX 10 1 11 2 12 3 13 4 14 5 15 6 16 7 17 8 18 9 9 10 8 11 7 12
REMARK SMILES IDX 6 13 5 14 4 15 3 16 2 17 1 18
REMARK H PARENT
REMARK Flexibility Score: inf
ROOT
ATOM      1  C   UNL     1      12.238   2.007  -1.705  1.00  0.00     0.004 C 
ENDROOT
BRANCH   1   2
ATOM      2  C   UNL     1      11.342   1.593  -0.528  1.00  0.00     0.000 C 
BRANCH   2   3
ATOM      3  C   UNL     1      10.083   2.474  -0.408  1.00  0.00     0.000 C 
BRANCH   3   4
ATOM      4  C   UNL     1      10.001   3.208   0.941  1.00  0.00     0.000 C 
BRANCH   4   5
ATOM      5  C   UNL     1       8.813   4.182   1.015  1.00  0.00     0.006 C 
BRANCH   5   6
ATOM      6  C   UNL     1       9.263   5.649   1.005  1.00  0.00     0.053 C 
BRANCH   6   7
ATOM      7  C   UNL     1       9.586   6.140   2.382  1.00  0.00     0.041 C 
ATOM      8  O   UNL     1       8.752   6.838   3.020  1.00  0.00    -0.550 OA
ATOM      9  O   UNL     1      10.820   5.850   2.951  1.00  0.00    -0.550 OA
ENDBRANCH   6   7
ENDBRANCH   5   6
ENDBRANCH   4   5
ENDBRANCH   3   4
ENDBRANCH   2   3
ENDBRANCH   1   2
BRANCH   1  10
ATOM     10  C   UNL     1      11.846   1.316  -3.020  1.00  0.00     0.027 C 
BRANCH  10  11
ATOM     11  C   UNL     1      11.465   2.332  -4.061  1.00  0.00    -0.031 C 
ATOM     12  C   UNL     1      10.864   3.485  -3.728  1.00  0.00    -0.031 C 
BRANCH  12  13
ATOM     13  C   UNL     1      10.480   4.499  -4.769  1.00  0.00     0.027 C 
BRANCH  13  14
ATOM     14  C   UNL     1      10.244   5.876  -4.123  1.00  0.00     0.004 C 
BRANCH  14  15
ATOM     15  C   UNL     1       9.678   5.773  -2.697  1.00  0.00     0.000 C 
BRANCH  15  16
ATOM     16  C   UNL     1       8.139   5.789  -2.668  1.00  0.00    -0.000 C 
BRANCH  16  17
ATOM     17  C   UNL     1       7.543   4.399  -2.399  1.00  0.00    -0.003 C 
ATOM     18  C   UNL     1       6.195   4.463  -1.679  1.00  0.00     0.004 C 
ENDBRANCH  16  17
ENDBRANCH  15  16
ENDBRANCH  14  15
ENDBRANCH  13  14
ENDBRANCH  12  13
ENDBRANCH  10  11
ENDBRANCH   1  10
TORSDOF 13
ENDMDL
MODEL 7
REMARK VINA RESULT:    -4.223      1.513      4.115
REMARK INTER + INTRA:          -9.372
REMARK INTER:                  -8.003
REMARK INTRA:                  -1.368
REMARK UNBOUND:                -1.938
REMARK SMILES CCCCCCC=CCCCCCCCC(=O)[O-]
REMARK SMILES IDX 10 1 11 2 12 3 13 4 14 5 15 6 16 7 17 8 18 9 9 10 8 11 7 12
REMARK SMILES IDX 6 13 5 14 4 15 3 16 2 17 1 18
REMARK H PARENT
REMARK Flexibility Score: inf
ROOT
ATOM      1  C   UNL     1       8.173   4.570  -0.227  1.00  0.00     0.004 C 
ENDROOT
BRANCH   1   2
ATOM      2  C   UNL     1       9.198   5.596  -0.734  1.00  0.00     0.000 C 
BRANCH   2   3
ATOM      3  C   UNL     1       8.690   7.045  -0.614  1.00  0.00     0.000 C 
BRANCH   3   4
ATOM      4  C   UNL     1       9.726   7.983   0.028  1.00  0.00     0.000 C 
BRANCH   4   5
ATOM      5  C   UNL     1       9.198   8.667   1.301  1.00  0.00     0.006 C 
BRANCH   5   6
ATOM      6  C   UNL     1       9.971   8.234   2.554  1.00  0.00     0.053 C 
BRANCH   6   7
ATOM      7  C   UNL     1       9.644   6.827   2.950  1.00  0.00     0.041 C 
ATOM      8  O   UNL     1      10.567   5.991   3.142  1.00  0.00    -0.550 OA
ATOM      9  O   UNL     1       8.318   6.434   3.079  1.00  0.00    -0.550 OA
ENDBRANCH   6   7
ENDBRANCH   5   6
ENDBRANCH   4   5
ENDBRANCH   3   4
ENDBRANCH   2   3
ENDBRANCH   1   2
BRANCH   1  10
ATOM     10  C   UNL     1       8.715   3.710   0.925  1.00  0.00     0.027 C 
BRANCH  10  11
ATOM     11  C   UNL     1      10.053   3.125   0.566  1.00  0.00    -0.031 C 
ATOM     12  C   UNL     1      10.174   2.182  -0.382  1.00  0.00    -0.031 C 
BRANCH  12  13
ATOM     13  C   UNL     1      11.512   1.596  -0.739  1.00  0.00     0.027 C 
BRANCH  13  14
ATOM     14  C   UNL     1      12.168   2.396  -1.877  1.00  0.00     0.004 C 
BRANCH  14  15
ATOM     15  C   UNL     1      11.167   2.802  -2.971  1.00  0.00     0.000 C 
BRANCH  15  16
ATOM     16  C   UNL     1      11.558   2.264  -4.360  1.00  0.00    -0.000 C 
BRANCH  16  17
ATOM     17  C   UNL     1      11.596   0.729  -4.405  1.00  0.00    -0.003 C 
ATOM     18  C   UNL     1      11.791   0.184  -5.820  1.00  0.00     0.004 C 
ENDBRANCH  16  17
ENDBRANCH  15  16
ENDBRANCH  14  15
ENDBRANCH  13  14
ENDBRANCH  12  13
ENDBRANCH  10  11
ENDBRANCH   1  10
TORSDOF 13
ENDMDL
MODEL 8
REMARK VINA RESULT:    -4.150      3.355      5.520
REMARK INTER + INTRA:          -9.242
REMARK INTER:                  -7.053
REMARK INTRA:                  -2.189
REMARK UNBOUND:                -1.938
REMARK SMILES CCCCCCC=CCCCCCCCC(=O)[O-]
REMARK SMILES IDX 10 1 11 2 12 3 13 4 14 5 15 6 16 7 17 8 18 9 9 10 8 11 7 12
REMARK SMILES IDX 6 13 5 14 4 15 3 16 2 17 1 18
REMARK H PARENT
REMARK Flexibility Score: inf
ROOT
ATOM      1  C   UNL     1      10.015   4.002   1.275  1.00  0.00     0.004 C 
ENDROOT
BRANCH   1   2
ATOM      2  C   UNL     1       9.106   3.057   0.474  1.00  0.00     0.000 C 
BRANCH   2   3
ATOM      3  C   UNL     1       9.855   2.354  -0.675  1.00  0.00     0.000 C 
BRANCH   3   4
ATOM      4  C   UNL     1      11.245   1.850  -0.253  1.00  0.00     0.000 C 
BRANCH   4   5
ATOM      5  C   UNL     1      12.178   1.607  -1.452  1.00  0.00     0.006 C 
BRANCH   5   6
ATOM      6  C   UNL     1      12.004   2.668  -2.546  1.00  0.00     0.053 C 
BRANCH   6   7
ATOM      7  C   UNL     1      11.640   2.054  -3.863  1.00  0.00     0.041 C 
ATOM      8  O   UNL     1      11.695   0.805  -4.018  1.00  0.00    -0.550 OA
ATOM      9  O   UNL     1      11.265   2.866  -4.926  1.00  0.00    -0.550 OA
ENDBRANCH   6   7
ENDBRANCH   5   6
ENDBRANCH   4   5
ENDBRANCH   3   4
ENDBRANCH   2   3
ENDBRANCH   1   2
BRANCH   1  10
ATOM     10  C   UNL     1       9.350   5.356   1.568  1.00  0.00     0.027 C 
BRANCH  10  11
ATOM     11  C   UNL     1       8.213   5.607   0.616  1.00  0.00    -0.031 C 
ATOM     12  C   UNL     1       8.085   6.776  -0.030  1.00  0.00    -0.031 C 
BRANCH  12  13
ATOM     13  C   UNL     1       6.948   7.028  -0.980  1.00  0.00     0.027 C 
BRANCH  13  14
ATOM     14  C   UNL     1       7.399   6.810  -2.435  1.00  0.00     0.004 C 
BRANCH  14  15
ATOM     15  C   UNL     1       7.519   5.323  -2.803  1.00  0.00     0.000 C 
BRANCH  15  16
ATOM     16  C   UNL     1       8.972   4.897  -3.080  1.00  0.00    -0.000 C 
BRANCH  16  17
ATOM     17  C   UNL     1       9.947   6.085  -3.052  1.00  0.00    -0.003 C 
ATOM     18  C   UNL     1      10.984   5.972  -1.934  1.00  0.00     0.004 C 
ENDBRANCH  16  17
ENDBRANCH  15  16
ENDBRANCH  14  15
ENDBRANCH  13  14
ENDBRANCH  12  13
ENDBRANCH  10  11
ENDBRANCH   1  10
TORSDOF 13
ENDMDL
MODEL 9
REMARK VINA RESULT:    -4.111      2.088      4.118
REMARK INTER + INTRA:          -9.174
REMARK INTER:                  -6.652
REMARK INTRA:                  -2.522
REMARK UNBOUND:                -1.938
REMARK SMILES CCCCCCC=CCCCCCCCC(=O)[O-]
REMARK SMILES IDX 10 1 11 2 12 3 13 4 14 5 15 6 16 7 17 8 18 9 9 10 8 11 7 12
REMARK SMILES IDX 6 13 5 14 4 15 3 16 2 17 1 18
REMARK H PARENT
REMARK Flexibility Score: inf
ROOT
ATOM      1  C   UNL     1      12.235   1.963  -1.839  1.00  0.00     0.004 C 
ENDROOT
BRANCH   1   2
ATOM      2  C   UNL     1      11.300   1.788  -3.045  1.00  0.00     0.000 C 
BRANCH   2   3
ATOM      3  C   UNL     1      11.205   3.062  -3.907  1.00  0.00     0.000 C 
BRANCH   3   4
ATOM      4  C   UNL     1       9.978   3.921  -3.558  1.00  0.00     0.000 C 
BRANCH   4   5
ATOM      5  C   UNL     1      10.342   5.389  -3.273  1.00  0.00     0.006 C 
BRANCH   5   6
ATOM      6  C   UNL     1      11.030   5.562  -1.913  1.00  0.00     0.053 C 
BRANCH   6   7
ATOM      7  C   UNL     1      10.634   6.845  -1.250  1.00  0.00     0.041 C 
ATOM      8  O   UNL     1      10.341   6.863  -0.024  1.00  0.00    -0.550 OA
ATOM      9  O   UNL     1      10.564   8.016  -1.993  1.00  0.00    -0.550 OA
ENDBRANCH   6   7
ENDBRANCH   5   6
ENDBRANCH   4   5
ENDBRANCH   3   4
ENDBRANCH   2   3
ENDBRANCH   1   2
BRANCH   1  10
ATOM     10  C   UNL     1      11.554   1.618  -0.506  1.00  0.00     0.027 C 
BRANCH  10  11
ATOM     11  C   UNL     1      10.281   2.401  -0.340  1.00  0.00    -0.031 C 
ATOM     12  C   UNL     1      10.034   3.108   0.773  1.00  0.00    -0.031 C 
BRANCH  12  13
ATOM     13  C   UNL     1       8.760   3.890   0.940  1.00  0.00     0.027 C 
BRANCH  13  14
ATOM     14  C   UNL     1       8.013   4.001  -0.401  1.00  0.00     0.004 C 
BRANCH  14  15
ATOM     15  C   UNL     1       7.161   5.277  -0.501  1.00  0.00     0.000 C 
BRANCH  15  16
ATOM     16  C   UNL     1       6.819   5.646  -1.956  1.00  0.00    -0.000 C 
BRANCH  16  17
ATOM     17  C   UNL     1       7.110   7.122  -2.270  1.00  0.00    -0.003 C 
ATOM     18  C   UNL     1       7.070   8.010  -1.026  1.00  0.00     0.004 C 
ENDBRANCH  16  17
ENDBRANCH  15  16
ENDBRANCH  14  15
ENDBRANCH  13  14
ENDBRANCH  12  13
ENDBRANCH  10  11
ENDBRANCH   1  10
TORSDOF 13
ENDMDL
