MODEL 1
REMARK VINA RESULT:    -4.612      0.000      0.000
REMARK INTER + INTRA:          -8.999
REMARK INTER:                  -7.847
REMARK INTRA:                  -1.152
REMARK UNBOUND:                -1.152
REMARK SMILES CCCCCCCCCCCCCC(=O)[O-]
REMARK SMILES IDX 8 1 9 2 10 3 11 4 12 5 13 6 14 7 15 8 16 9 7 10 6 11 5 12
REMARK SMILES IDX 4 13 3 14 2 15 1 16
REMARK H PARENT
REMARK Flexibility Score: inf
ROOT
ATOM      1  C   UNL     1       9.219  28.752 -13.112  1.00  0.00     0.000 C 
ENDROOT
BRANCH   1   2
ATOM      2  C   UNL     1       7.698  28.950 -13.025  1.00  0.00     0.000 C 
BRANCH   2   3
ATOM      3  C   UNL     1       6.933  28.200 -14.131  1.00  0.00     0.000 C 
BRANCH   3   4
ATOM      4  C   UNL     1       6.268  29.098 -15.193  1.00  0.00     0.000 C 
BRANCH   4   5
ATOM      5  C   UNL     1       5.892  30.511 -14.710  1.00  0.00     0.006 C 
BRANCH   5   6
ATOM      6  C   UNL     1       6.623  31.617 -15.481  1.00  0.00     0.053 C 
BRANCH   6   7
ATOM      7  C   UNL     1       5.730  32.200 -16.530  1.00  0.00     0.041 C 
ATOM      8  O   UNL     1       4.793  32.975 -16.203  1.00  0.00    -0.550 OA
ATOM      9  O   UNL     1       5.961  31.926 -17.871  1.00  0.00    -0.550 OA
ENDBRANCH   6   7
ENDBRANCH   5   6
ENDBRANCH   4   5
ENDBRANCH   3   4
ENDBRANCH   2   3
ENDBRANCH   1   2
BRANCH   1  10
ATOM     10  C   UNL     1       9.587  27.856 -14.304  1.00  0.00     0.000 C 
BRANCH  10  11
ATOM     11  C   UNL     1      10.293  26.558 -13.875  1.00  0.00    -0.000 C 
BRANCH  11  12
ATOM     12  C   UNL     1      10.460  26.453 -12.350  1.00  0.00    -0.000 C 
BRANCH  12  13
ATOM     13  C   UNL     1       9.755  25.219 -11.763  1.00  0.00    -0.000 C 
BRANCH  13  14
ATOM     14  C   UNL     1       8.316  25.058 -12.273  1.00  0.00    -0.000 C 
BRANCH  14  15
ATOM     15  C   UNL     1       7.623  23.871 -11.595  1.00  0.00    -0.003 C 
ATOM     16  C   UNL     1       8.249  23.568 -10.237  1.00  0.00     0.004 C 
ENDBRANCH  14  15
ENDBRANCH  13  14
ENDBRANCH  12  13
ENDBRANCH  11  12
ENDBRANCH  10  11
ENDBRANCH   1  10
TORSDOF 12
ENDMDL
MODEL 2
REMARK VINA RESULT:    -4.569      1.300      1.907
REMARK INTER + INTRA:          -8.926
REMARK INTER:                  -8.133
REMARK INTRA:                  -0.793
REMARK UNBOUND:                -1.152
REMARK SMILES CCCCCCCCCCCCCC(=O)[O-]
REMARK SMILES IDX 8 1 9 2 10 3 11 4 12 5 13 6 14 7 15 8 16 9 7 10 6 11 5 12
REMARK SMILES IDX 4 13 3 14 2 15 1 16
REMARK H PARENT
REMARK Flexibility Score: inf
ROOT
ATOM      1  C   UNL     1       8.925  28.844 -13.129  1.00  0.00     0.000 C 
ENDROOT
BRANCH   1   2
ATOM      2  C   UNL     1       8.721  30.364 -13.046  1.00  0.00     0.000 C 
BRANCH   2   3
ATOM      3  C   UNL     1       7.278  30.755 -12.677  1.00  0.00     0.000 C 
BRANCH   3   4
ATOM      4  C   UNL     1       6.787  32.089 -13.274  1.00  0.00     0.000 C 
BRANCH   4   5
ATOM      5  C   UNL     1       5.603  31.969 -14.252  1.00  0.00     0.006 C 
BRANCH   5   6
ATOM      6  C   UNL     1       5.984  31.272 -15.565  1.00  0.00     0.053 C 
BRANCH   6   7
ATOM      7  C   UNL     1       6.120  32.275 -16.667  1.00  0.00     0.041 C 
ATOM      8  O   UNL     1       5.722  31.996 -17.829  1.00  0.00    -0.550 OA
ATOM      9  O   UNL     1       6.640  33.534 -16.401  1.00  0.00    -0.550 OA
ENDBRANCH   6   7
ENDBRANCH   5   6
ENDBRANCH   4   5
ENDBRANCH   3   4
ENDBRANCH   2   3
ENDBRANCH   1   2
BRANCH   1  10
ATOM     10  C   UNL     1       7.577  28.108 -13.081  1.00  0.00     0.000 C 
BRANCH  10  11
ATOM     11  C   UNL     1       7.737  26.578 -13.068  1.00  0.00    -0.000 C 
BRANCH  11  12
ATOM     12  C   UNL     1       9.196  26.134 -13.264  1.00  0.00    -0.000 C 
BRANCH  12  13
ATOM     13  C   UNL     1       9.703  25.246 -12.116  1.00  0.00    -0.000 C 
BRANCH  13  14
ATOM     14  C   UNL     1       8.698  24.153 -11.723  1.00  0.00    -0.000 C 
BRANCH  14  15
ATOM     15  C   UNL     1       8.553  24.063 -10.200  1.00  0.00    -0.003 C 
ATOM     16  C   UNL     1       7.717  22.853  -9.795  1.00  0.00     0.004 C 
ENDBRANCH  14  15
ENDBRANCH  13  14
ENDBRANCH  12  13
ENDBRANCH  11  12
ENDBRANCH  10  11
ENDBRANCH   1  10
TORSDOF 12
ENDMDL
MODEL 3
REMARK VINA RESULT:    -4.504      4.207      7.316
REMARK INTER + INTRA:          -8.815
REMARK INTER:                  -7.611
REMARK INTRA:                  -1.204
REMARK UNBOUND:                -1.152
REMARK SMILES CCCCCCCCCCCCCC(=O)[O-]
REMARK SMILES IDX 8 1 9 2 10 3 11 4 12 5 13 6 14 7 15 8 16 9 7 10 6 11 5 12
REMARK SMILES IDX 4 13 3 14 2 15 1 16
REMARK H PARENT
REMARK Flexibility Score: inf
ROOT
ATOM      1  C   UNL     1       7.704  28.735 -12.762  1.00  0.00     0.000 C 
ENDROOT
BRANCH   1   2
ATOM      2  C   UNL     1       7.962  27.288 -13.207  1.00  0.00     0.000 C 
BRANCH   2   3
ATOM      3  C   UNL     1       9.459  26.973 -13.383  1.00  0.00     0.000 C 
BRANCH   3   4
ATOM      4  C   UNL     1      10.040  25.966 -12.370  1.00  0.00     0.000 C 
BRANCH   4   5
ATOM      5  C   UNL     1       9.252  24.650 -12.233  1.00  0.00     0.006 C 
BRANCH   5   6
ATOM      6  C   UNL     1       8.835  24.355 -10.787  1.00  0.00     0.053 C 
BRANCH   6   7
ATOM      7  C   UNL     1       7.576  23.547 -10.762  1.00  0.00     0.041 C 
ATOM      8  O   UNL     1       7.527  22.472 -10.107  1.00  0.00    -0.550 OA
ATOM      9  O   UNL     1       6.443  24.005 -11.420  1.00  0.00    -0.550 OA
ENDBRANCH   6   7
ENDBRANCH   5   6
ENDBRANCH   4   5
ENDBRANCH   3   4
ENDBRANCH   2   3
ENDBRANCH   1   2
BRANCH   1  10
ATOM     10  C   UNL     1       8.998  29.562 -12.812  1.00  0.00     0.000 C 
BRANCH  10  11
ATOM     11  C   UNL     1       8.770  30.992 -13.332  1.00  0.00    -0.000 C 
BRANCH  11  12
ATOM     12  C   UNL     1       7.629  31.713 -12.594  1.00  0.00    -0.000 C 
BRANCH  12  13
ATOM     13  C   UNL     1       6.473  32.101 -13.530  1.00  0.00    -0.000 C 
BRANCH  13  14
ATOM     14  C   UNL     1       6.672  31.587 -14.964  1.00  0.00    -0.000 C 
BRANCH  14  15
ATOM     15  C   UNL     1       5.673  30.470 -15.289  1.00  0.00    -0.003 C 
ATOM     16  C   UNL     1       6.358  29.307 -16.000  1.00  0.00     0.004 C 
ENDBRANCH  14  15
ENDBRANCH  13  14
ENDBRANCH  12  13
ENDBRANCH  11  12
ENDBRANCH  10  11
ENDBRANCH   1  10
TORSDOF 12
ENDMDL
MODEL 4
REMARK VINA RESULT:    -4.464     11.664     14.648
REMARK INTER + INTRA:          -8.747
REMARK INTER:                  -6.821
REMARK INTRA:                  -1.926
REMARK UNBOUND:                -1.152
REMARK SMILES CCCCCCCCCCCCCC(=O)[O-]
REMARK SMILES IDX 8 1 9 2 10 3 11 4 12 5 13 6 14 7 15 8 16 9 7 10 6 11 5 12
REMARK SMILES IDX 4 13 3 14 2 15 1 16
REMARK H PARENT
REMARK Flexibility Score: inf
ROOT
ATOM      1  C   UNL     1      -6.408  35.211 -16.691  1.00  0.00     0.000 C 
ENDROOT
BRANCH   1   2
ATOM      2  C   UNL     1      -5.622  36.233 -17.527  1.00  0.00     0.000 C 
BRANCH   2   3
ATOM      3  C   UNL     1      -4.187  35.771 -17.841  1.00  0.00     0.000 C 
BRANCH   3   4
ATOM      4  C   UNL     1      -3.463  35.051 -16.686  1.00  0.00     0.000 C 
BRANCH   4   5
ATOM      5  C   UNL     1      -2.038  34.566 -17.011  1.00  0.00     0.006 C 
BRANCH   5   6
ATOM      6  C   UNL     1      -1.810  34.354 -18.513  1.00  0.00     0.053 C 
BRANCH   6   7
ATOM      7  C   UNL     1      -0.930  33.165 -18.743  1.00  0.00     0.041 C 
ATOM      8  O   UNL     1      -1.166  32.079 -18.151  1.00  0.00    -0.550 OA
ATOM      9  O   UNL     1       0.119  33.242 -19.650  1.00  0.00    -0.550 OA
ENDBRANCH   6   7
ENDBRANCH   5   6
ENDBRANCH   4   5
ENDBRANCH   3   4
ENDBRANCH   2   3
ENDBRANCH   1   2
BRANCH   1  10
ATOM     10  C   UNL     1      -7.641  34.709 -17.458  1.00  0.00     0.000 C 
BRANCH  10  11
ATOM     11  C   UNL     1      -8.070  33.294 -17.033  1.00  0.00    -0.000 C 
BRANCH  11  12
ATOM     12  C   UNL     1      -7.056  32.630 -16.087  1.00  0.00    -0.000 C 
BRANCH  12  13
ATOM     13  C   UNL     1      -6.327  31.444 -16.740  1.00  0.00    -0.000 C 
BRANCH  13  14
ATOM     14  C   UNL     1      -4.858  31.754 -17.063  1.00  0.00    -0.000 C 
BRANCH  14  15
ATOM     15  C   UNL     1      -4.517  31.352 -18.502  1.00  0.00    -0.003 C 
ATOM     16  C   UNL     1      -4.788  32.496 -19.475  1.00  0.00     0.004 C 
ENDBRANCH  14  15
ENDBRANCH  13  14
ENDBRANCH  12  13
ENDBRANCH  11  12
ENDBRANCH  10  11
ENDBRANCH   1  10
TORSDOF 12
ENDMDL
MODEL 5
REMARK VINA RESULT:    -4.368      3.686      7.000
REMARK INTER + INTRA:          -8.585
REMARK INTER:                  -7.407
REMARK INTRA:                  -1.178
REMARK UNBOUND:                -1.152
REMARK SMILES CCCCCCCCCCCCCC(=O)[O-]
REMARK SMILES IDX 8 1 9 2 10 3 11 4 12 5 13 6 14 7 15 8 16 9 7 10 6 11 5 12
REMARK SMILES IDX 4 13 3 14 2 15 1 16
REMARK H PARENT
REMARK Flexibility Score: inf
ROOT
ATOM      1  C   UNL     1       9.967  28.874 -14.453  1.00  0.00     0.000 C 
ENDROOT
BRANCH   1   2
ATOM      2  C   UNL     1      10.586  27.589 -15.025  1.00  0.00     0.000 C 
BRANCH   2   3
ATOM      3  C   UNL     1      10.630  26.439 -14.002  1.00  0.00     0.000 C 
BRANCH   3   4
ATOM      4  C   UNL     1      10.258  25.051 -14.560  1.00  0.00     0.000 C 
BRANCH   4   5
ATOM      5  C   UNL     1       9.267  24.245 -13.700  1.00  0.00     0.006 C 
BRANCH   5   6
ATOM      6  C   UNL     1       8.717  25.050 -12.516  1.00  0.00     0.053 C 
BRANCH   6   7
ATOM      7  C   UNL     1       7.496  24.388 -11.958  1.00  0.00     0.041 C 
ATOM      8  O   UNL     1       6.377  24.560 -12.508  1.00  0.00    -0.550 OA
ATOM      9  O   UNL     1       7.603  23.543 -10.862  1.00  0.00    -0.550 OA
ENDBRANCH   6   7
ENDBRANCH   5   6
ENDBRANCH   4   5
ENDBRANCH   3   4
ENDBRANCH   2   3
ENDBRANCH   1   2
BRANCH   1  10
ATOM     10  C   UNL     1       9.269  28.595 -13.113  1.00  0.00     0.000 C 
BRANCH  10  11
ATOM     11  C   UNL     1       7.791  29.024 -13.114  1.00  0.00    -0.000 C 
BRANCH  11  12
ATOM     12  C   UNL     1       6.997  28.408 -14.277  1.00  0.00    -0.000 C 
BRANCH  12  13
ATOM     13  C   UNL     1       6.329  29.470 -15.165  1.00  0.00    -0.000 C 
BRANCH  13  14
ATOM     14  C   UNL     1       6.153  30.817 -14.449  1.00  0.00    -0.000 C 
BRANCH  14  15
ATOM     15  C   UNL     1       5.473  31.841 -15.365  1.00  0.00    -0.003 C 
ATOM     16  C   UNL     1       6.015  31.753 -16.789  1.00  0.00     0.004 C 
ENDBRANCH  14  15
ENDBRANCH  13  14
ENDBRANCH  12  13
ENDBRANCH  11  12
ENDBRANCH  10  11
ENDBRANCH   1  10
TORSDOF 12
ENDMDL
MODEL 6
REMARK VINA RESULT:    -4.366      2.597      3.474
REMARK INTER + INTRA:          -8.581
REMARK INTER:                  -7.895
REMARK INTRA:                  -0.685
REMARK UNBOUND:                -1.152
REMARK SMILES CCCCCCCCCCCCCC(=O)[O-]
REMARK SMILES IDX 8 1 9 2 10 3 11 4 12 5 13 6 14 7 15 8 16 9 7 10 6 11 5 12
REMARK SMILES IDX 4 13 3 14 2 15 1 16
REMARK H PARENT
REMARK Flexibility Score: inf
ROOT
ATOM      1  C   UNL     1       7.442  30.015 -13.349  1.00  0.00     0.000 C 
ENDROOT
BRANCH   1   2
ATOM      2  C   UNL     1       6.980  30.079 -14.813  1.00  0.00     0.000 C 
BRANCH   2   3
ATOM      3  C   UNL     1       5.502  30.490 -14.956  1.00  0.00     0.000 C 
BRANCH   3   4
ATOM      4  C   UNL     1       5.240  32.009 -14.930  1.00  0.00     0.000 C 
BRANCH   4   5
ATOM      5  C   UNL     1       4.230  32.479 -13.866  1.00  0.00     0.006 C 
BRANCH   5   6
ATOM      6  C   UNL     1       4.847  32.583 -12.466  1.00  0.00     0.053 C 
BRANCH   6   7
ATOM      7  C   UNL     1       4.075  33.554 -11.628  1.00  0.00     0.041 C 
ATOM      8  O   UNL     1       2.906  33.886 -11.958  1.00  0.00    -0.550 OA
ATOM      9  O   UNL     1       4.627  34.053 -10.456  1.00  0.00    -0.550 OA
ENDBRANCH   6   7
ENDBRANCH   5   6
ENDBRANCH   4   5
ENDBRANCH   3   4
ENDBRANCH   2   3
ENDBRANCH   1   2
BRANCH   1  10
ATOM     10  C   UNL     1       7.911  28.598 -12.985  1.00  0.00     0.000 C 
BRANCH  10  11
ATOM     11  C   UNL     1       6.974  27.505 -13.528  1.00  0.00    -0.000 C 
BRANCH  11  12
ATOM     12  C   UNL     1       7.223  26.135 -12.874  1.00  0.00    -0.000 C 
BRANCH  12  13
ATOM     13  C   UNL     1       8.687  25.682 -12.993  1.00  0.00    -0.000 C 
BRANCH  13  14
ATOM     14  C   UNL     1       9.188  24.956 -11.735  1.00  0.00    -0.000 C 
BRANCH  14  15
ATOM     15  C   UNL     1       8.524  23.583 -11.594  1.00  0.00    -0.003 C 
ATOM     16  C   UNL     1       8.042  23.346 -10.165  1.00  0.00     0.004 C 
ENDBRANCH  14  15
ENDBRANCH  13  14
ENDBRANCH  12  13
ENDBRANCH  11  12
ENDBRANCH  10  11
ENDBRANCH   1  10
TORSDOF 12
ENDMDL
MODEL 7
REMARK VINA RESULT:    -4.334      9.364     11.858
REMARK INTER + INTRA:          -8.526
REMARK INTER:                  -7.975
REMARK INTRA:                  -0.551
REMARK UNBOUND:                -1.152
REMARK SMILES CCCCCCCCCCCCCC(=O)[O-]
REMARK SMILES IDX 8 1 9 2 10 3 11 4 12 5 13 6 14 7 15 8 16 9 7 10 6 11 5 12
REMARK SMILES IDX 4 13 3 14 2 15 1 16
REMARK H PARENT
REMARK Flexibility Score: inf
ROOT
ATOM      1  C   UNL     1       2.867  22.036 -14.854  1.00  0.00     0.000 C 
ENDROOT
BRANCH   1   2
ATOM      2  C   UNL     1       2.451  20.579 -14.599  1.00  0.00     0.000 C 
BRANCH   2   3
ATOM      3  C   UNL     1       2.081  20.310 -13.128  1.00  0.00     0.000 C 
BRANCH   3   4
ATOM      4  C   UNL     1       2.307  18.863 -12.650  1.00  0.00     0.000 C 
BRANCH   4   5
ATOM      5  C   UNL     1       3.069  18.726 -11.319  1.00  0.00     0.006 C 
BRANCH   5   6
ATOM      6  C   UNL     1       2.214  19.101 -10.102  1.00  0.00     0.053 C 
BRANCH   6   7
ATOM      7  C   UNL     1       2.932  20.097  -9.247  1.00  0.00     0.041 C 
ATOM      8  O   UNL     1       3.182  19.832  -8.041  1.00  0.00    -0.550 OA
ATOM      9  O   UNL     1       3.368  21.297  -9.793  1.00  0.00    -0.550 OA
ENDBRANCH   6   7
ENDBRANCH   5   6
ENDBRANCH   4   5
ENDBRANCH   3   4
ENDBRANCH   2   3
ENDBRANCH   1   2
BRANCH   1  10
ATOM     10  C   UNL     1       3.164  22.267 -16.343  1.00  0.00     0.000 C 
BRANCH  10  11
ATOM     11  C   UNL     1       2.040  21.755 -17.260  1.00  0.00    -0.000 C 
BRANCH  11  12
ATOM     12  C   UNL     1       2.055  22.425 -18.644  1.00  0.00    -0.000 C 
BRANCH  12  13
ATOM     13  C   UNL     1       2.541  21.477 -19.753  1.00  0.00    -0.000 C 
BRANCH  13  14
ATOM     14  C   UNL     1       1.624  20.258 -19.936  1.00  0.00    -0.000 C 
BRANCH  14  15
ATOM     15  C   UNL     1       2.374  19.106 -20.613  1.00  0.00    -0.003 C 
ATOM     16  C   UNL     1       3.715  19.572 -21.174  1.00  0.00     0.004 C 
ENDBRANCH  14  15
ENDBRANCH  13  14
ENDBRANCH  12  13
ENDBRANCH  11  12
ENDBRANCH  10  11
ENDBRANCH   1  10
TORSDOF 12
ENDMDL
MODEL 8
REMARK VINA RESULT:    -4.285     10.774     12.582
REMARK INTER + INTRA:          -8.444
REMARK INTER:                  -6.564
REMARK INTRA:                  -1.880
REMARK UNBOUND:                -1.152
REMARK SMILES CCCCCCCCCCCCCC(=O)[O-]
REMARK SMILES IDX 8 1 9 2 10 3 11 4 12 5 13 6 14 7 15 8 16 9 7 10 6 11 5 12
REMARK SMILES IDX 4 13 3 14 2 15 1 16
REMARK H PARENT
REMARK Flexibility Score: inf
ROOT
ATOM      1  C   UNL     1       2.947  20.145  -7.673  1.00  0.00     0.000 C 
ENDROOT
BRANCH   1   2
ATOM      2  C   UNL     1       3.248  19.626  -9.087  1.00  0.00     0.000 C 
BRANCH   2   3
ATOM      3  C   UNL     1       2.831  18.157  -9.287  1.00  0.00     0.000 C 
BRANCH   3   4
ATOM      4  C   UNL     1       1.325  17.930  -9.525  1.00  0.00     0.000 C 
BRANCH   4   5
ATOM      5  C   UNL     1       0.687  18.844 -10.588  1.00  0.00     0.006 C 
BRANCH   5   6
ATOM      6  C   UNL     1       1.331  18.686 -11.971  1.00  0.00     0.053 C 
BRANCH   6   7
ATOM      7  C   UNL     1       1.778  20.016 -12.493  1.00  0.00     0.041 C 
ATOM      8  O   UNL     1       2.311  20.102 -13.631  1.00  0.00    -0.550 OA
ATOM      9  O   UNL     1       1.563  21.164 -11.744  1.00  0.00    -0.550 OA
ENDBRANCH   6   7
ENDBRANCH   5   6
ENDBRANCH   4   5
ENDBRANCH   3   4
ENDBRANCH   2   3
ENDBRANCH   1   2
BRANCH   1  10
ATOM     10  C   UNL     1       1.999  21.353  -7.724  1.00  0.00     0.000 C 
BRANCH  10  11
ATOM     11  C   UNL     1       0.531  20.966  -7.472  1.00  0.00    -0.000 C 
BRANCH  11  12
ATOM     12  C   UNL     1       0.143  21.056  -5.987  1.00  0.00    -0.000 C 
BRANCH  12  13
ATOM     13  C   UNL     1       0.193  19.691  -5.281  1.00  0.00    -0.000 C 
BRANCH  13  14
ATOM     14  C   UNL     1      -0.182  18.527  -6.210  1.00  0.00    -0.000 C 
BRANCH  14  15
ATOM     15  C   UNL     1       0.719  17.313  -5.960  1.00  0.00    -0.003 C 
ATOM     16  C   UNL     1       1.920  17.685  -5.094  1.00  0.00     0.004 C 
ENDBRANCH  14  15
ENDBRANCH  13  14
ENDBRANCH  12  13
ENDBRANCH  11  12
ENDBRANCH  10  11
ENDBRANCH   1  10
TORSDOF 12
ENDMDL
MODEL 9
REMARK VINA RESULT:    -4.283      1.679      2.524
REMARK INTER + INTRA:          -8.440
REMARK INTER:                  -7.409
REMARK INTRA:                  -1.031
REMARK UNBOUND:                -1.152
REMARK SMILES CCCCCCCCCCCCCC(=O)[O-]
REMARK SMILES IDX 8 1 9 2 10 3 11 4 12 5 13 6 14 7 15 8 16 9 7 10 6 11 5 12
REMARK SMILES IDX 4 13 3 14 2 15 1 16
REMARK H PARENT
REMARK Flexibility Score: inf
ROOT
ATOM      1  C   UNL     1       8.904  30.789 -13.450  1.00  0.00     0.000 C 
ENDROOT
BRANCH   1   2
ATOM      2  C   UNL     1       8.271  31.697 -12.385  1.00  0.00     0.000 C 
BRANCH   2   3
ATOM      3  C   UNL     1       7.225  32.665 -12.968  1.00  0.00     0.000 C 
BRANCH   3   4
ATOM      4  C   UNL     1       5.756  32.241 -12.769  1.00  0.00     0.000 C 
BRANCH   4   5
ATOM      5  C   UNL     1       4.975  31.963 -14.067  1.00  0.00     0.006 C 
BRANCH   5   6
ATOM      6  C   UNL     1       5.605  32.634 -15.295  1.00  0.00     0.053 C 
BRANCH   6   7
ATOM      7  C   UNL     1       5.928  31.611 -16.339  1.00  0.00     0.041 C 
ATOM      8  O   UNL     1       6.228  30.436 -16.002  1.00  0.00    -0.550 OA
ATOM      9  O   UNL     1       5.849  31.943 -17.684  1.00  0.00    -0.550 OA
ENDBRANCH   6   7
ENDBRANCH   5   6
ENDBRANCH   4   5
ENDBRANCH   3   4
ENDBRANCH   2   3
ENDBRANCH   1   2
BRANCH   1  10
ATOM     10  C   UNL     1       8.802  29.312 -13.040  1.00  0.00     0.000 C 
BRANCH  10  11
ATOM     11  C   UNL     1       7.354  28.792 -13.046  1.00  0.00    -0.000 C 
BRANCH  11  12
ATOM     12  C   UNL     1       7.278  27.257 -13.111  1.00  0.00    -0.000 C 
BRANCH  12  13
ATOM     13  C   UNL     1       8.624  26.585 -12.791  1.00  0.00    -0.000 C 
BRANCH  13  14
ATOM     14  C   UNL     1       8.488  25.078 -12.528  1.00  0.00    -0.000 C 
BRANCH  14  15
ATOM     15  C   UNL     1       9.112  24.699 -11.180  1.00  0.00    -0.003 C 
ATOM     16  C   UNL     1       8.291  23.622 -10.476  1.00  0.00     0.004 C 
ENDBRANCH  14  15
ENDBRANCH  13  14
ENDBRANCH  12  13
ENDBRANCH  11  12
ENDBRANCH  10  11
ENDBRANCH   1  10
TORSDOF 12
ENDMDL
