MODEL 1
REMARK VINA RESULT:    -3.549      0.000      0.000
REMARK INTER + INTRA:         -11.315
REMARK INTER:                  -7.697
REMARK INTRA:                  -3.617
REMARK UNBOUND:                -3.617
REMARK SMILES CCCCCCCCCCCCCCCCCCCCCC(=O)[O-]
REMARK SMILES IDX 12 1 11 2 10 3 9 4 8 5 7 6 6 7 5 8 4 9 3 10 2 11 1 12 13 13
REMARK SMILES IDX 14 14 15 15 16 16 17 17 18 18 19 19 20 20 21 21 22 22 23 23
REMARK SMILES IDX 24 24
REMARK H PARENT
REMARK Flexibility Score: inf
ROOT
ATOM      1  C   UNL     1      -3.299 -11.545  38.966  1.00  0.00     0.000 C 
ENDROOT
BRANCH   1   2
ATOM      2  C   UNL     1      -4.764 -11.074  38.958  1.00  0.00     0.000 C 
BRANCH   2   3
ATOM      3  C   UNL     1      -4.904  -9.564  38.692  1.00  0.00     0.000 C 
BRANCH   3   4
ATOM      4  C   UNL     1      -5.289  -8.721  39.923  1.00  0.00    -0.000 C 
BRANCH   4   5
ATOM      5  C   UNL     1      -5.985  -9.548  41.019  1.00  0.00    -0.000 C 
BRANCH   5   6
ATOM      6  C   UNL     1      -5.382  -9.310  42.413  1.00  0.00    -0.000 C 
BRANCH   6   7
ATOM      7  C   UNL     1      -4.827 -10.596  43.044  1.00  0.00    -0.000 C 
BRANCH   7   8
ATOM      8  C   UNL     1      -5.795 -11.769  42.835  1.00  0.00    -0.000 C 
BRANCH   8   9
ATOM      9  C   UNL     1      -5.212 -13.112  43.303  1.00  0.00    -0.000 C 
BRANCH   9  10
ATOM     10  C   UNL     1      -4.643 -13.946  42.142  1.00  0.00    -0.000 C 
BRANCH  10  11
ATOM     11  C   UNL     1      -3.602 -14.974  42.612  1.00  0.00    -0.003 C 
ATOM     12  C   UNL     1      -2.211 -14.367  42.794  1.00  0.00     0.004 C 
ENDBRANCH  10  11
ENDBRANCH   9  10
ENDBRANCH   8   9
ENDBRANCH   7   8
ENDBRANCH   6   7
ENDBRANCH   5   6
ENDBRANCH   4   5
ENDBRANCH   3   4
ENDBRANCH   2   3
ENDBRANCH   1   2
BRANCH   1  13
ATOM     13  C   UNL     1      -2.682 -11.537  40.374  1.00  0.00     0.000 C 
BRANCH  13  14
ATOM     14  C   UNL     1      -1.425 -10.658  40.469  1.00  0.00     0.000 C 
BRANCH  14  15
ATOM     15  C   UNL     1      -1.763  -9.283  41.064  1.00  0.00     0.000 C 
BRANCH  15  16
ATOM     16  C   UNL     1      -1.666  -8.143  40.032  1.00  0.00     0.000 C 
BRANCH  16  17
ATOM     17  C   UNL     1      -0.948  -8.510  38.716  1.00  0.00     0.000 C 
BRANCH  17  18
ATOM     18  C   UNL     1      -1.637  -8.009  37.433  1.00  0.00     0.000 C 
BRANCH  18  19
ATOM     19  C   UNL     1      -2.649  -6.885  37.699  1.00  0.00     0.000 C 
BRANCH  19  20
ATOM     20  C   UNL     1      -3.549  -6.655  36.475  1.00  0.00     0.006 C 
BRANCH  20  21
ATOM     21  C   UNL     1      -4.274  -5.304  36.534  1.00  0.00     0.053 C 
BRANCH  21  22
ATOM     22  C   UNL     1      -4.587  -4.780  35.164  1.00  0.00     0.041 C 
ATOM     23  O   UNL     1      -5.442  -5.362  34.445  1.00  0.00    -0.550 OA
ATOM     24  O   UNL     1      -3.919  -3.666  34.673  1.00  0.00    -0.550 OA
ENDBRANCH  21  22
ENDBRANCH  20  21
ENDBRANCH  19  20
ENDBRANCH  18  19
ENDBRANCH  17  18
ENDBRANCH  16  17
ENDBRANCH  15  16
ENDBRANCH  14  15
ENDBRANCH  13  14
ENDBRANCH   1  13
TORSDOF 20
ENDMDL
MODEL 2
REMARK VINA RESULT:    -3.539      1.472      3.765
REMARK INTER + INTRA:         -11.293
REMARK INTER:                  -7.226
REMARK INTRA:                  -4.067
REMARK UNBOUND:                -3.617
REMARK SMILES CCCCCCCCCCCCCCCCCCCCCC(=O)[O-]
REMARK SMILES IDX 12 1 11 2 10 3 9 4 8 5 7 6 6 7 5 8 4 9 3 10 2 11 1 12 13 13
REMARK SMILES IDX 14 14 15 15 16 16 17 17 18 18 19 19 20 20 21 21 22 22 23 23
REMARK SMILES IDX 24 24
REMARK H PARENT
REMARK Flexibility Score: inf
ROOT
ATOM      1  C   UNL     1      -4.643 -12.292  41.459  1.00  0.00     0.000 C 
ENDROOT
BRANCH   1   2
ATOM      2  C   UNL     1      -4.740 -11.984  42.963  1.00  0.00     0.000 C 
BRANCH   2   3
ATOM      3  C   UNL     1      -5.241 -10.555  43.249  1.00  0.00     0.000 C 
BRANCH   3   4
ATOM      4  C   UNL     1      -5.164  -9.589  42.051  1.00  0.00    -0.000 C 
BRANCH   4   5
ATOM      5  C   UNL     1      -6.491  -8.857  41.788  1.00  0.00    -0.000 C 
BRANCH   5   6
ATOM      6  C   UNL     1      -6.585  -8.298  40.359  1.00  0.00    -0.000 C 
BRANCH   6   7
ATOM      7  C   UNL     1      -5.232  -8.304  39.632  1.00  0.00    -0.000 C 
BRANCH   7   8
ATOM      8  C   UNL     1      -5.307  -9.133  38.343  1.00  0.00    -0.000 C 
BRANCH   8   9
ATOM      9  C   UNL     1      -4.450 -10.408  38.403  1.00  0.00    -0.000 C 
BRANCH   9  10
ATOM     10  C   UNL     1      -3.554 -10.576  37.164  1.00  0.00    -0.000 C 
BRANCH  10  11
ATOM     11  C   UNL     1      -2.556 -11.736  37.314  1.00  0.00    -0.003 C 
ATOM     12  C   UNL     1      -3.128 -13.073  36.841  1.00  0.00     0.004 C 
ENDBRANCH  10  11
ENDBRANCH   9  10
ENDBRANCH   8   9
ENDBRANCH   7   8
ENDBRANCH   6   7
ENDBRANCH   5   6
ENDBRANCH   4   5
ENDBRANCH   3   4
ENDBRANCH   2   3
ENDBRANCH   1   2
BRANCH   1  13
ATOM     13  C   UNL     1      -3.216 -12.658  41.020  1.00  0.00     0.000 C 
BRANCH  13  14
ATOM     14  C   UNL     1      -2.216 -12.662  42.187  1.00  0.00     0.000 C 
BRANCH  14  15
ATOM     15  C   UNL     1      -1.196 -11.524  42.036  1.00  0.00     0.000 C 
BRANCH  15  16
ATOM     16  C   UNL     1      -1.428 -10.675  40.773  1.00  0.00     0.000 C 
BRANCH  16  17
ATOM     17  C   UNL     1      -1.918  -9.234  41.031  1.00  0.00     0.000 C 
BRANCH  17  18
ATOM     18  C   UNL     1      -1.350  -8.169  40.075  1.00  0.00     0.000 C 
BRANCH  18  19
ATOM     19  C   UNL     1      -0.783  -8.770  38.780  1.00  0.00     0.000 C 
BRANCH  19  20
ATOM     20  C   UNL     1      -1.132  -7.891  37.569  1.00  0.00     0.006 C 
BRANCH  20  21
ATOM     21  C   UNL     1      -2.333  -6.975  37.843  1.00  0.00     0.053 C 
BRANCH  21  22
ATOM     22  C   UNL     1      -3.075  -6.639  36.584  1.00  0.00     0.041 C 
ATOM     23  O   UNL     1      -2.887  -7.317  35.539  1.00  0.00    -0.550 OA
ATOM     24  O   UNL     1      -3.954  -5.565  36.558  1.00  0.00    -0.550 OA
ENDBRANCH  21  22
ENDBRANCH  20  21
ENDBRANCH  19  20
ENDBRANCH  18  19
ENDBRANCH  17  18
ENDBRANCH  16  17
ENDBRANCH  15  16
ENDBRANCH  14  15
ENDBRANCH  13  14
ENDBRANCH   1  13
TORSDOF 20
ENDMDL
MODEL 3
REMARK VINA RESULT:    -3.442      1.344      3.365
REMARK INTER + INTRA:         -11.083
REMARK INTER:                  -7.377
REMARK INTRA:                  -3.706
REMARK UNBOUND:                -3.617
REMARK SMILES CCCCCCCCCCCCCCCCCCCCCC(=O)[O-]
REMARK SMILES IDX 12 1 11 2 10 3 9 4 8 5 7 6 6 7 5 8 4 9 3 10 2 11 1 12 13 13
REMARK SMILES IDX 14 14 15 15 16 16 17 17 18 18 19 19 20 20 21 21 22 22 23 23
REMARK SMILES IDX 24 24
REMARK H PARENT
REMARK Flexibility Score: inf
ROOT
ATOM      1  C   UNL     1      -1.396 -11.101  41.040  1.00  0.00     0.000 C 
ENDROOT
BRANCH   1   2
ATOM      2  C   UNL     1      -2.260 -12.036  41.905  1.00  0.00     0.000 C 
BRANCH   2   3
ATOM      3  C   UNL     1      -3.770 -11.821  41.690  1.00  0.00     0.000 C 
BRANCH   3   4
ATOM      4  C   UNL     1      -4.637 -12.005  42.951  1.00  0.00    -0.000 C 
BRANCH   4   5
ATOM      5  C   UNL     1      -5.512 -10.776  43.257  1.00  0.00    -0.000 C 
BRANCH   5   6
ATOM      6  C   UNL     1      -5.207  -9.587  42.333  1.00  0.00    -0.000 C 
BRANCH   6   7
ATOM      7  C   UNL     1      -6.478  -8.882  41.838  1.00  0.00    -0.000 C 
BRANCH   7   8
ATOM      8  C   UNL     1      -6.288  -8.350  40.410  1.00  0.00    -0.000 C 
BRANCH   8   9
ATOM      9  C   UNL     1      -5.009  -8.881  39.742  1.00  0.00    -0.000 C 
BRANCH   9  10
ATOM     10  C   UNL     1      -5.290 -10.034  38.762  1.00  0.00    -0.000 C 
BRANCH  10  11
ATOM     11  C   UNL     1      -4.071 -10.374  37.890  1.00  0.00    -0.003 C 
ATOM     12  C   UNL     1      -3.612 -11.823  38.052  1.00  0.00     0.004 C 
ENDBRANCH  10  11
ENDBRANCH   9  10
ENDBRANCH   8   9
ENDBRANCH   7   8
ENDBRANCH   6   7
ENDBRANCH   5   6
ENDBRANCH   4   5
ENDBRANCH   3   4
ENDBRANCH   2   3
ENDBRANCH   1   2
BRANCH   1  13
ATOM     13  C   UNL     1      -1.745  -9.618  41.241  1.00  0.00     0.000 C 
BRANCH  13  14
ATOM     14  C   UNL     1      -1.412  -8.755  40.014  1.00  0.00     0.000 C 
BRANCH  14  15
ATOM     15  C   UNL     1      -0.185  -9.309  39.273  1.00  0.00     0.000 C 
BRANCH  15  16
ATOM     16  C   UNL     1      -0.500  -9.726  37.824  1.00  0.00     0.000 C 
BRANCH  16  17
ATOM     17  C   UNL     1      -0.060  -8.719  36.741  1.00  0.00     0.000 C 
BRANCH  17  18
ATOM     18  C   UNL     1      -0.811  -7.374  36.756  1.00  0.00     0.000 C 
BRANCH  18  19
ATOM     19  C   UNL     1      -2.317  -7.528  36.498  1.00  0.00     0.000 C 
BRANCH  19  20
ATOM     20  C   UNL     1      -3.129  -6.608  37.423  1.00  0.00     0.006 C 
BRANCH  20  21
ATOM     21  C   UNL     1      -4.581  -6.446  36.952  1.00  0.00     0.053 C 
BRANCH  21  22
ATOM     22  C   UNL     1      -4.813  -5.109  36.314  1.00  0.00     0.041 C 
ATOM     23  O   UNL     1      -4.026  -4.687  35.425  1.00  0.00    -0.550 OA
ATOM     24  O   UNL     1      -5.883  -4.320  36.718  1.00  0.00    -0.550 OA
ENDBRANCH  21  22
ENDBRANCH  20  21
ENDBRANCH  19  20
ENDBRANCH  18  19
ENDBRANCH  17  18
ENDBRANCH  16  17
ENDBRANCH  15  16
ENDBRANCH  14  15
ENDBRANCH  13  14
ENDBRANCH   1  13
TORSDOF 20
ENDMDL
MODEL 4
REMARK VINA RESULT:    -3.439      3.866      8.305
REMARK INTER + INTRA:         -11.077
REMARK INTER:                  -7.650
REMARK INTRA:                  -3.427
REMARK UNBOUND:                -3.617
REMARK SMILES CCCCCCCCCCCCCCCCCCCCCC(=O)[O-]
REMARK SMILES IDX 12 1 11 2 10 3 9 4 8 5 7 6 6 7 5 8 4 9 3 10 2 11 1 12 13 13
REMARK SMILES IDX 14 14 15 15 16 16 17 17 18 18 19 19 20 20 21 21 22 22 23 23
REMARK SMILES IDX 24 24
REMARK H PARENT
REMARK Flexibility Score: inf
ROOT
ATOM      1  C   UNL     1      -3.048  -6.609  37.226  1.00  0.00     0.000 C 
ENDROOT
BRANCH   1   2
ATOM      2  C   UNL     1      -4.376  -7.312  36.896  1.00  0.00     0.000 C 
BRANCH   2   3
ATOM      3  C   UNL     1      -5.604  -6.414  37.140  1.00  0.00     0.000 C 
BRANCH   3   4
ATOM      4  C   UNL     1      -5.603  -5.087  36.357  1.00  0.00    -0.000 C 
BRANCH   4   5
ATOM      5  C   UNL     1      -5.841  -5.284  34.849  1.00  0.00    -0.000 C 
BRANCH   5   6
ATOM      6  C   UNL     1      -5.177  -4.190  33.998  1.00  0.00    -0.000 C 
BRANCH   6   7
ATOM      7  C   UNL     1      -3.651  -4.156  34.166  1.00  0.00    -0.000 C 
BRANCH   7   8
ATOM      8  C   UNL     1      -3.012  -5.441  33.619  1.00  0.00    -0.000 C 
BRANCH   8   9
ATOM      9  C   UNL     1      -3.313  -5.668  32.129  1.00  0.00    -0.000 C 
BRANCH   9  10
ATOM     10  C   UNL     1      -4.001  -7.020  31.865  1.00  0.00    -0.000 C 
BRANCH  10  11
ATOM     11  C   UNL     1      -3.824  -8.006  33.029  1.00  0.00    -0.003 C 
ATOM     12  C   UNL     1      -5.143  -8.644  33.470  1.00  0.00     0.004 C 
ENDBRANCH  10  11
ENDBRANCH   9  10
ENDBRANCH   8   9
ENDBRANCH   7   8
ENDBRANCH   6   7
ENDBRANCH   5   6
ENDBRANCH   4   5
ENDBRANCH   3   4
ENDBRANCH   2   3
ENDBRANCH   1   2
BRANCH   1  13
ATOM     13  C   UNL     1      -1.844  -7.262  36.529  1.00  0.00     0.000 C 
BRANCH  13  14
ATOM     14  C   UNL     1      -2.106  -8.721  36.126  1.00  0.00     0.000 C 
BRANCH  14  15
ATOM     15  C   UNL     1      -1.009  -9.646  36.673  1.00  0.00     0.000 C 
BRANCH  15  16
ATOM     16  C   UNL     1      -0.045  -8.927  37.635  1.00  0.00     0.000 C 
BRANCH  16  17
ATOM     17  C   UNL     1      -0.191  -9.314  39.121  1.00  0.00     0.000 C 
BRANCH  17  18
ATOM     18  C   UNL     1      -1.211  -8.479  39.917  1.00  0.00     0.000 C 
BRANCH  18  19
ATOM     19  C   UNL     1      -2.589  -9.152  40.011  1.00  0.00     0.000 C 
BRANCH  19  20
ATOM     20  C   UNL     1      -2.861  -9.651  41.438  1.00  0.00     0.006 C 
BRANCH  20  21
ATOM     21  C   UNL     1      -3.293 -11.124  41.466  1.00  0.00     0.053 C 
BRANCH  21  22
ATOM     22  C   UNL     1      -2.168 -12.026  41.874  1.00  0.00     0.041 C 
ATOM     23  O   UNL     1      -2.356 -13.268  41.968  1.00  0.00    -0.550 OA
ATOM     24  O   UNL     1      -0.919 -11.494  42.172  1.00  0.00    -0.550 OA
ENDBRANCH  21  22
ENDBRANCH  20  21
ENDBRANCH  19  20
ENDBRANCH  18  19
ENDBRANCH  17  18
ENDBRANCH  16  17
ENDBRANCH  15  16
ENDBRANCH  14  15
ENDBRANCH  13  14
ENDBRANCH   1  13
TORSDOF 20
ENDMDL
MODEL 5
REMARK VINA RESULT:    -3.393      4.237      8.001
REMARK INTER + INTRA:         -10.977
REMARK INTER:                  -7.524
REMARK INTRA:                  -3.454
REMARK UNBOUND:                -3.617
REMARK SMILES CCCCCCCCCCCCCCCCCCCCCC(=O)[O-]
REMARK SMILES IDX 12 1 11 2 10 3 9 4 8 5 7 6 6 7 5 8 4 9 3 10 2 11 1 12 13 13
REMARK SMILES IDX 14 14 15 15 16 16 17 17 18 18 19 19 20 20 21 21 22 22 23 23
REMARK SMILES IDX 24 24
REMARK H PARENT
REMARK Flexibility Score: inf
ROOT
ATOM      1  C   UNL     1      -3.524 -10.225  36.249  1.00  0.00     0.000 C 
ENDROOT
BRANCH   1   2
ATOM      2  C   UNL     1      -3.732  -9.251  35.077  1.00  0.00     0.000 C 
BRANCH   2   3
ATOM      3  C   UNL     1      -2.408  -8.810  34.425  1.00  0.00     0.000 C 
BRANCH   3   4
ATOM      4  C   UNL     1      -2.075  -7.314  34.581  1.00  0.00    -0.000 C 
BRANCH   4   5
ATOM      5  C   UNL     1      -1.961  -6.584  33.232  1.00  0.00    -0.000 C 
BRANCH   5   6
ATOM      6  C   UNL     1      -3.131  -5.620  32.980  1.00  0.00    -0.000 C 
BRANCH   6   7
ATOM      7  C   UNL     1      -3.348  -4.638  34.140  1.00  0.00    -0.000 C 
BRANCH   7   8
ATOM      8  C   UNL     1      -4.810  -4.173  34.198  1.00  0.00    -0.000 C 
BRANCH   8   9
ATOM      9  C   UNL     1      -5.510  -4.570  35.507  1.00  0.00    -0.000 C 
BRANCH   9  10
ATOM     10  C   UNL     1      -5.349  -6.065  35.834  1.00  0.00    -0.000 C 
BRANCH  10  11
ATOM     11  C   UNL     1      -4.553  -6.301  37.127  1.00  0.00    -0.003 C 
ATOM     12  C   UNL     1      -5.175  -7.379  38.016  1.00  0.00     0.004 C 
ENDBRANCH  10  11
ENDBRANCH   9  10
ENDBRANCH   8   9
ENDBRANCH   7   8
ENDBRANCH   6   7
ENDBRANCH   5   6
ENDBRANCH   4   5
ENDBRANCH   3   4
ENDBRANCH   2   3
ENDBRANCH   1   2
BRANCH   1  13
ATOM     13  C   UNL     1      -2.306 -11.142  36.050  1.00  0.00     0.000 C 
BRANCH  13  14
ATOM     14  C   UNL     1      -1.361 -11.150  37.262  1.00  0.00     0.000 C 
BRANCH  14  15
ATOM     15  C   UNL     1      -0.142 -10.251  37.011  1.00  0.00     0.000 C 
BRANCH  15  16
ATOM     16  C   UNL     1      -0.001  -9.129  38.057  1.00  0.00     0.000 C 
BRANCH  16  17
ATOM     17  C   UNL     1      -1.216  -8.185  38.174  1.00  0.00     0.000 C 
BRANCH  17  18
ATOM     18  C   UNL     1      -1.728  -7.953  39.608  1.00  0.00     0.000 C 
BRANCH  18  19
ATOM     19  C   UNL     1      -2.663  -9.069  40.095  1.00  0.00     0.000 C 
BRANCH  19  20
ATOM     20  C   UNL     1      -2.093  -9.756  41.345  1.00  0.00     0.006 C 
BRANCH  20  21
ATOM     21  C   UNL     1      -1.500 -11.137  41.030  1.00  0.00     0.053 C 
BRANCH  21  22
ATOM     22  C   UNL     1      -1.332 -11.966  42.267  1.00  0.00     0.041 C 
ATOM     23  O   UNL     1      -0.576 -11.571  43.195  1.00  0.00    -0.550 OA
ATOM     24  O   UNL     1      -1.990 -13.183  42.387  1.00  0.00    -0.550 OA
ENDBRANCH  21  22
ENDBRANCH  20  21
ENDBRANCH  19  20
ENDBRANCH  18  19
ENDBRANCH  17  18
ENDBRANCH  16  17
ENDBRANCH  15  16
ENDBRANCH  14  15
ENDBRANCH  13  14
ENDBRANCH   1  13
TORSDOF 20
ENDMDL
MODEL 6
REMARK VINA RESULT:    -3.388      1.322      3.760
REMARK INTER + INTRA:         -10.967
REMARK INTER:                  -8.125
REMARK INTRA:                  -2.842
REMARK UNBOUND:                -3.617
REMARK SMILES CCCCCCCCCCCCCCCCCCCCCC(=O)[O-]
REMARK SMILES IDX 12 1 11 2 10 3 9 4 8 5 7 6 6 7 5 8 4 9 3 10 2 11 1 12 13 13
REMARK SMILES IDX 14 14 15 15 16 16 17 17 18 18 19 19 20 20 21 21 22 22 23 23
REMARK SMILES IDX 24 24
REMARK H PARENT
REMARK Flexibility Score: inf
ROOT
ATOM      1  C   UNL     1      -1.521  -8.128  39.460  1.00  0.00     0.000 C 
ENDROOT
BRANCH   1   2
ATOM      2  C   UNL     1      -2.583  -8.975  40.181  1.00  0.00     0.000 C 
BRANCH   2   3
ATOM      3  C   UNL     1      -2.050  -9.635  41.467  1.00  0.00     0.000 C 
BRANCH   3   4
ATOM      4  C   UNL     1      -1.753 -11.142  41.347  1.00  0.00    -0.000 C 
BRANCH   4   5
ATOM      5  C   UNL     1      -2.886 -11.920  40.655  1.00  0.00    -0.000 C 
BRANCH   5   6
ATOM      6  C   UNL     1      -3.324 -13.160  41.451  1.00  0.00    -0.000 C 
BRANCH   6   7
ATOM      7  C   UNL     1      -4.288 -12.818  42.597  1.00  0.00    -0.000 C 
BRANCH   7   8
ATOM      8  C   UNL     1      -5.296 -11.745  42.160  1.00  0.00    -0.000 C 
BRANCH   8   9
ATOM      9  C   UNL     1      -5.276 -10.505  43.069  1.00  0.00    -0.000 C 
BRANCH   9  10
ATOM     10  C   UNL     1      -5.699  -9.224  42.329  1.00  0.00    -0.000 C 
BRANCH  10  11
ATOM     11  C   UNL     1      -6.085  -9.491  40.866  1.00  0.00    -0.003 C 
ATOM     12  C   UNL     1      -6.261  -8.205  40.056  1.00  0.00     0.004 C 
ENDBRANCH  10  11
ENDBRANCH   9  10
ENDBRANCH   8   9
ENDBRANCH   7   8
ENDBRANCH   6   7
ENDBRANCH   5   6
ENDBRANCH   4   5
ENDBRANCH   3   4
ENDBRANCH   2   3
ENDBRANCH   1   2
BRANCH   1  13
ATOM     13  C   UNL     1      -0.307  -8.958  39.011  1.00  0.00     0.000 C 
BRANCH  13  14
ATOM     14  C   UNL     1      -0.080  -8.907  37.492  1.00  0.00     0.000 C 
BRANCH  14  15
ATOM     15  C   UNL     1      -0.830  -7.723  36.865  1.00  0.00     0.000 C 
BRANCH  15  16
ATOM     16  C   UNL     1      -1.480  -8.074  35.514  1.00  0.00     0.000 C 
BRANCH  16  17
ATOM     17  C   UNL     1      -2.789  -7.318  35.200  1.00  0.00     0.000 C 
BRANCH  17  18
ATOM     18  C   UNL     1      -4.033  -7.825  35.952  1.00  0.00     0.000 C 
BRANCH  18  19
ATOM     19  C   UNL     1      -4.531  -6.835  37.016  1.00  0.00     0.000 C 
BRANCH  19  20
ATOM     20  C   UNL     1      -4.081  -5.403  36.688  1.00  0.00     0.006 C 
BRANCH  20  21
ATOM     21  C   UNL     1      -5.200  -4.577  36.039  1.00  0.00     0.053 C 
BRANCH  21  22
ATOM     22  C   UNL     1      -4.853  -4.173  34.638  1.00  0.00     0.041 C 
ATOM     23  O   UNL     1      -5.639  -4.438  33.690  1.00  0.00    -0.550 OA
ATOM     24  O   UNL     1      -3.652  -3.526  34.375  1.00  0.00    -0.550 OA
ENDBRANCH  21  22
ENDBRANCH  20  21
ENDBRANCH  19  20
ENDBRANCH  18  19
ENDBRANCH  17  18
ENDBRANCH  16  17
ENDBRANCH  15  16
ENDBRANCH  14  15
ENDBRANCH  13  14
ENDBRANCH   1  13
TORSDOF 20
ENDMDL
MODEL 7
REMARK VINA RESULT:    -3.363      2.425      5.287
REMARK INTER + INTRA:         -10.911
REMARK INTER:                  -7.096
REMARK INTRA:                  -3.815
REMARK UNBOUND:                -3.617
REMARK SMILES CCCCCCCCCCCCCCCCCCCCCC(=O)[O-]
REMARK SMILES IDX 12 1 11 2 10 3 9 4 8 5 7 6 6 7 5 8 4 9 3 10 2 11 1 12 13 13
REMARK SMILES IDX 14 14 15 15 16 16 17 17 18 18 19 19 20 20 21 21 22 22 23 23
REMARK SMILES IDX 24 24
REMARK H PARENT
REMARK Flexibility Score: inf
ROOT
ATOM      1  C   UNL     1      -4.037  -7.737  36.822  1.00  0.00     0.000 C 
ENDROOT
BRANCH   1   2
ATOM      2  C   UNL     1      -4.038  -8.940  37.780  1.00  0.00     0.000 C 
BRANCH   2   3
ATOM      3  C   UNL     1      -3.847 -10.284  37.052  1.00  0.00     0.000 C 
BRANCH   3   4
ATOM      4  C   UNL     1      -2.676 -11.141  37.568  1.00  0.00    -0.000 C 
BRANCH   4   5
ATOM      5  C   UNL     1      -1.411 -11.007  36.703  1.00  0.00    -0.000 C 
BRANCH   5   6
ATOM      6  C   UNL     1      -0.190 -10.538  37.509  1.00  0.00    -0.000 C 
BRANCH   6   7
ATOM      7  C   UNL     1      -0.533 -10.224  38.973  1.00  0.00    -0.000 C 
BRANCH   7   8
ATOM      8  C   UNL     1      -0.498  -8.711  39.231  1.00  0.00    -0.000 C 
BRANCH   8   9
ATOM      9  C   UNL     1      -1.526  -8.262  40.281  1.00  0.00    -0.000 C 
BRANCH   9  10
ATOM     10  C   UNL     1      -1.924  -9.397  41.241  1.00  0.00    -0.000 C 
BRANCH  10  11
ATOM     11  C   UNL     1      -3.445  -9.608  41.302  1.00  0.00    -0.003 C 
ATOM     12  C   UNL     1      -3.851 -11.062  41.053  1.00  0.00     0.004 C 
ENDBRANCH  10  11
ENDBRANCH   9  10
ENDBRANCH   8   9
ENDBRANCH   7   8
ENDBRANCH   6   7
ENDBRANCH   5   6
ENDBRANCH   4   5
ENDBRANCH   3   4
ENDBRANCH   2   3
ENDBRANCH   1   2
BRANCH   1  13
ATOM     13  C   UNL     1      -2.693  -6.992  36.808  1.00  0.00     0.000 C 
BRANCH  13  14
ATOM     14  C   UNL     1      -1.758  -7.468  35.684  1.00  0.00     0.000 C 
BRANCH  14  15
ATOM     15  C   UNL     1      -2.524  -7.608  34.360  1.00  0.00     0.000 C 
BRANCH  15  16
ATOM     16  C   UNL     1      -2.075  -6.587  33.298  1.00  0.00     0.000 C 
BRANCH  16  17
ATOM     17  C   UNL     1      -3.109  -5.491  32.963  1.00  0.00     0.000 C 
BRANCH  17  18
ATOM     18  C   UNL     1      -3.271  -4.395  34.032  1.00  0.00     0.000 C 
BRANCH  18  19
ATOM     19  C   UNL     1      -4.724  -3.923  34.187  1.00  0.00     0.000 C 
BRANCH  19  20
ATOM     20  C   UNL     1      -5.544  -4.930  35.009  1.00  0.00     0.006 C 
BRANCH  20  21
ATOM     21  C   UNL     1      -5.837  -4.420  36.427  1.00  0.00     0.053 C 
BRANCH  21  22
ATOM     22  C   UNL     1      -7.065  -5.057  37.004  1.00  0.00     0.041 C 
ATOM     23  O   UNL     1      -7.411  -6.211  36.637  1.00  0.00    -0.550 OA
ATOM     24  O   UNL     1      -7.840  -4.368  37.928  1.00  0.00    -0.550 OA
ENDBRANCH  21  22
ENDBRANCH  20  21
ENDBRANCH  19  20
ENDBRANCH  18  19
ENDBRANCH  17  18
ENDBRANCH  16  17
ENDBRANCH  15  16
ENDBRANCH  14  15
ENDBRANCH  13  14
ENDBRANCH   1  13
TORSDOF 20
ENDMDL
MODEL 8
REMARK VINA RESULT:    -3.362      2.800      6.294
REMARK INTER + INTRA:         -10.910
REMARK INTER:                  -6.798
REMARK INTRA:                  -4.112
REMARK UNBOUND:                -3.617
REMARK SMILES CCCCCCCCCCCCCCCCCCCCCC(=O)[O-]
REMARK SMILES IDX 12 1 11 2 10 3 9 4 8 5 7 6 6 7 5 8 4 9 3 10 2 11 1 12 13 13
REMARK SMILES IDX 14 14 15 15 16 16 17 17 18 18 19 19 20 20 21 21 22 22 23 23
REMARK SMILES IDX 24 24
REMARK H PARENT
REMARK Flexibility Score: inf
ROOT
ATOM      1  C   UNL     1      -4.702 -12.154  41.634  1.00  0.00     0.000 C 
ENDROOT
BRANCH   1   2
ATOM      2  C   UNL     1      -3.323 -12.588  41.109  1.00  0.00     0.000 C 
BRANCH   2   3
ATOM      3  C   UNL     1      -2.245 -12.611  42.209  1.00  0.00     0.000 C 
BRANCH   3   4
ATOM      4  C   UNL     1      -1.141 -11.548  42.059  1.00  0.00    -0.000 C 
BRANCH   4   5
ATOM      5  C   UNL     1      -1.372 -10.613  40.859  1.00  0.00    -0.000 C 
BRANCH   5   6
ATOM      6  C   UNL     1      -1.746  -9.184  41.286  1.00  0.00    -0.000 C 
BRANCH   6   7
ATOM      7  C   UNL     1      -1.371  -8.134  40.228  1.00  0.00    -0.000 C 
BRANCH   7   8
ATOM      8  C   UNL     1      -0.608  -8.780  39.063  1.00  0.00    -0.000 C 
BRANCH   8   9
ATOM      9  C   UNL     1      -0.914  -8.117  37.711  1.00  0.00    -0.000 C 
BRANCH   9  10
ATOM     10  C   UNL     1      -2.069  -7.104  37.797  1.00  0.00    -0.000 C 
BRANCH  10  11
ATOM     11  C   UNL     1      -2.812  -6.945  36.462  1.00  0.00    -0.003 C 
ATOM     12  C   UNL     1      -2.084  -7.615  35.296  1.00  0.00     0.004 C 
ENDBRANCH  10  11
ENDBRANCH   9  10
ENDBRANCH   8   9
ENDBRANCH   7   8
ENDBRANCH   6   7
ENDBRANCH   5   6
ENDBRANCH   4   5
ENDBRANCH   3   4
ENDBRANCH   2   3
ENDBRANCH   1   2
BRANCH   1  13
ATOM     13  C   UNL     1      -4.606 -11.211  42.844  1.00  0.00     0.000 C 
BRANCH  13  14
ATOM     14  C   UNL     1      -5.098  -9.789  42.534  1.00  0.00     0.000 C 
BRANCH  14  15
ATOM     15  C   UNL     1      -6.247  -9.818  41.515  1.00  0.00     0.000 C 
BRANCH  15  16
ATOM     16  C   UNL     1      -6.207  -8.633  40.533  1.00  0.00     0.000 C 
BRANCH  16  17
ATOM     17  C   UNL     1      -4.921  -8.526  39.686  1.00  0.00     0.000 C 
BRANCH  17  18
ATOM     18  C   UNL     1      -4.941  -9.315  38.364  1.00  0.00     0.000 C 
BRANCH  18  19
ATOM     19  C   UNL     1      -3.884 -10.429  38.317  1.00  0.00     0.000 C 
BRANCH  19  20
ATOM     20  C   UNL     1      -3.506 -10.766  36.866  1.00  0.00     0.006 C 
BRANCH  20  21
ATOM     21  C   UNL     1      -2.982 -12.202  36.721  1.00  0.00     0.053 C 
BRANCH  21  22
ATOM     22  C   UNL     1      -1.545 -12.229  36.296  1.00  0.00     0.041 C 
ATOM     23  O   UNL     1      -0.694 -11.521  36.897  1.00  0.00    -0.550 OA
ATOM     24  O   UNL     1      -1.150 -13.017  35.222  1.00  0.00    -0.550 OA
ENDBRANCH  21  22
ENDBRANCH  20  21
ENDBRANCH  19  20
ENDBRANCH  18  19
ENDBRANCH  17  18
ENDBRANCH  16  17
ENDBRANCH  15  16
ENDBRANCH  14  15
ENDBRANCH  13  14
ENDBRANCH   1  13
TORSDOF 20
ENDMDL
MODEL 9
REMARK VINA RESULT:    -3.304      3.673      8.111
REMARK INTER + INTRA:         -10.783
REMARK INTER:                  -7.395
REMARK INTRA:                  -3.388
REMARK UNBOUND:                -3.617
REMARK SMILES CCCCCCCCCCCCCCCCCCCCCC(=O)[O-]
REMARK SMILES IDX 12 1 11 2 10 3 9 4 8 5 7 6 6 7 5 8 4 9 3 10 2 11 1 12 13 13
REMARK SMILES IDX 14 14 15 15 16 16 17 17 18 18 19 19 20 20 21 21 22 22 23 23
REMARK SMILES IDX 24 24
REMARK H PARENT
REMARK Flexibility Score: inf
ROOT
ATOM      1  C   UNL     1      -0.445  -8.833  36.671  1.00  0.00     0.000 C 
ENDROOT
BRANCH   1   2
ATOM      2  C   UNL     1      -1.641  -8.162  35.972  1.00  0.00     0.000 C 
BRANCH   2   3
ATOM      3  C   UNL     1      -2.235  -6.999  36.789  1.00  0.00     0.000 C 
BRANCH   3   4
ATOM      4  C   UNL     1      -3.603  -7.291  37.434  1.00  0.00    -0.000 C 
BRANCH   4   5
ATOM      5  C   UNL     1      -4.768  -6.604  36.699  1.00  0.00    -0.000 C 
BRANCH   5   6
ATOM      6  C   UNL     1      -4.536  -5.098  36.501  1.00  0.00    -0.000 C 
BRANCH   6   7
ATOM      7  C   UNL     1      -5.066  -4.592  35.151  1.00  0.00    -0.000 C 
BRANCH   7   8
ATOM      8  C   UNL     1      -3.943  -3.936  34.334  1.00  0.00    -0.000 C 
BRANCH   8   9
ATOM      9  C   UNL     1      -2.938  -4.956  33.776  1.00  0.00    -0.000 C 
BRANCH   9  10
ATOM     10  C   UNL     1      -3.446  -5.648  32.500  1.00  0.00    -0.000 C 
BRANCH  10  11
ATOM     11  C   UNL     1      -3.247  -7.172  32.539  1.00  0.00    -0.003 C 
ATOM     12  C   UNL     1      -4.335  -7.890  33.339  1.00  0.00     0.004 C 
ENDBRANCH  10  11
ENDBRANCH   9  10
ENDBRANCH   8   9
ENDBRANCH   7   8
ENDBRANCH   6   7
ENDBRANCH   5   6
ENDBRANCH   4   5
ENDBRANCH   3   4
ENDBRANCH   2   3
ENDBRANCH   1   2
BRANCH   1  13
ATOM     13  C   UNL     1      -0.850 -10.083  37.469  1.00  0.00     0.000 C 
BRANCH  13  14
ATOM     14  C   UNL     1      -0.366 -10.043  38.927  1.00  0.00     0.000 C 
BRANCH  14  15
ATOM     15  C   UNL     1      -0.265  -8.596  39.430  1.00  0.00     0.000 C 
BRANCH  15  16
ATOM     16  C   UNL     1      -1.432  -8.200  40.354  1.00  0.00     0.000 C 
BRANCH  16  17
ATOM     17  C   UNL     1      -2.321  -9.371  40.825  1.00  0.00     0.000 C 
BRANCH  17  18
ATOM     18  C   UNL     1      -3.797  -9.287  40.394  1.00  0.00     0.000 C 
BRANCH  18  19
ATOM     19  C   UNL     1      -4.245 -10.497  39.561  1.00  0.00     0.000 C 
BRANCH  19  20
ATOM     20  C   UNL     1      -3.350 -11.715  39.837  1.00  0.00     0.006 C 
BRANCH  20  21
ATOM     21  C   UNL     1      -4.099 -12.827  40.586  1.00  0.00     0.053 C 
BRANCH  21  22
ATOM     22  C   UNL     1      -3.810 -12.798  42.057  1.00  0.00     0.041 C 
ATOM     23  O   UNL     1      -3.168 -13.740  42.594  1.00  0.00    -0.550 OA
ATOM     24  O   UNL     1      -4.269 -11.745  42.838  1.00  0.00    -0.550 OA
ENDBRANCH  21  22
ENDBRANCH  20  21
ENDBRANCH  19  20
ENDBRANCH  18  19
ENDBRANCH  17  18
ENDBRANCH  16  17
ENDBRANCH  15  16
ENDBRANCH  14  15
ENDBRANCH  13  14
ENDBRANCH   1  13
TORSDOF 20
ENDMDL
