MODEL 1
REMARK VINA RESULT:    -4.253      0.000      0.000
REMARK INTER + INTRA:         -10.044
REMARK INTER:                  -7.734
REMARK INTRA:                  -2.310
REMARK UNBOUND:                -2.310
REMARK SMILES CCCCCCCCCCCCCCCC(=O)[O-]
REMARK SMILES IDX 9 1 10 2 11 3 12 4 13 5 14 6 15 7 16 8 17 9 18 10 8 11 7 12
REMARK SMILES IDX 6 13 5 14 4 15 3 16 2 17 1 18
REMARK H PARENT
REMARK Flexibility Score: inf
ROOT
ATOM      1  C   UNL     1     114.601 119.749 128.484  1.00  0.00     0.000 C 
ENDROOT
BRANCH   1   2
ATOM      2  C   UNL     1     114.179 120.927 127.599  1.00  0.00     0.000 C 
BRANCH   2   3
ATOM      3  C   UNL     1     113.792 122.145 128.451  1.00  0.00     0.000 C 
BRANCH   3   4
ATOM      4  C   UNL     1     114.607 123.399 128.097  1.00  0.00     0.000 C 
BRANCH   4   5
ATOM      5  C   UNL     1     115.763 123.101 127.129  1.00  0.00     0.000 C 
BRANCH   5   6
ATOM      6  C   UNL     1     117.043 123.830 127.562  1.00  0.00     0.006 C 
BRANCH   6   7
ATOM      7  C   UNL     1     117.860 124.332 126.364  1.00  0.00     0.053 C 
BRANCH   7   8
ATOM      8  C   UNL     1     119.102 125.048 126.799  1.00  0.00     0.041 C 
ATOM      9  O   UNL     1     120.095 124.396 127.217  1.00  0.00    -0.550 OA
ATOM     10  O   UNL     1     119.174 126.432 126.709  1.00  0.00    -0.550 OA
ENDBRANCH   7   8
ENDBRANCH   6   7
ENDBRANCH   5   6
ENDBRANCH   4   5
ENDBRANCH   3   4
ENDBRANCH   2   3
ENDBRANCH   1   2
BRANCH   1  11
ATOM     11  C   UNL     1     116.029 119.295 128.156  1.00  0.00     0.000 C 
BRANCH  11  12
ATOM     12  C   UNL     1     117.062 120.130 128.927  1.00  0.00    -0.000 C 
BRANCH  12  13
ATOM     13  C   UNL     1     116.664 120.360 130.394  1.00  0.00    -0.000 C 
BRANCH  13  14
ATOM     14  C   UNL     1     116.717 121.845 130.795  1.00  0.00    -0.000 C 
BRANCH  14  15
ATOM     15  C   UNL     1     115.565 122.245 131.729  1.00  0.00    -0.000 C 
BRANCH  15  16
ATOM     16  C   UNL     1     114.551 121.110 131.944  1.00  0.00    -0.000 C 
BRANCH  16  17
ATOM     17  C   UNL     1     114.344 120.836 133.437  1.00  0.00    -0.003 C 
ATOM     18  C   UNL     1     115.544 120.107 134.036  1.00  0.00     0.004 C 
ENDBRANCH  16  17
ENDBRANCH  15  16
ENDBRANCH  14  15
ENDBRANCH  13  14
ENDBRANCH  12  13
ENDBRANCH  11  12
ENDBRANCH   1  11
TORSDOF 14
ENDMDL
MODEL 2
REMARK VINA RESULT:    -4.241      1.259      2.110
REMARK INTER + INTRA:         -10.022
REMARK INTER:                  -7.903
REMARK INTRA:                  -2.119
REMARK UNBOUND:                -2.310
REMARK SMILES CCCCCCCCCCCCCCCC(=O)[O-]
REMARK SMILES IDX 9 1 10 2 11 3 12 4 13 5 14 6 15 7 16 8 17 9 18 10 8 11 7 12
REMARK SMILES IDX 6 13 5 14 4 15 3 16 2 17 1 18
REMARK H PARENT
REMARK Flexibility Score: inf
ROOT
ATOM      1  C   UNL     1     115.716 119.522 127.840  1.00  0.00     0.000 C 
ENDROOT
BRANCH   1   2
ATOM      2  C   UNL     1     114.276 120.042 127.746  1.00  0.00     0.000 C 
BRANCH   2   3
ATOM      3  C   UNL     1     113.975 120.576 126.338  1.00  0.00     0.000 C 
BRANCH   3   4
ATOM      4  C   UNL     1     113.950 122.112 126.278  1.00  0.00     0.000 C 
BRANCH   4   5
ATOM      5  C   UNL     1     113.827 122.756 127.668  1.00  0.00     0.000 C 
BRANCH   5   6
ATOM      6  C   UNL     1     114.925 123.808 127.884  1.00  0.00     0.006 C 
BRANCH   6   7
ATOM      7  C   UNL     1     116.192 123.501 127.073  1.00  0.00     0.053 C 
BRANCH   7   8
ATOM      8  C   UNL     1     117.435 123.846 127.834  1.00  0.00     0.041 C 
ATOM      9  O   UNL     1     118.556 123.821 127.260  1.00  0.00    -0.550 OA
ATOM     10  O   UNL     1     117.353 124.227 129.167  1.00  0.00    -0.550 OA
ENDBRANCH   7   8
ENDBRANCH   6   7
ENDBRANCH   5   6
ENDBRANCH   4   5
ENDBRANCH   3   4
ENDBRANCH   2   3
ENDBRANCH   1   2
BRANCH   1  11
ATOM     11  C   UNL     1     116.562 120.402 128.767  1.00  0.00     0.000 C 
BRANCH  11  12
ATOM     12  C   UNL     1     116.138 120.223 130.233  1.00  0.00    -0.000 C 
BRANCH  12  13
ATOM     13  C   UNL     1     115.522 121.497 130.834  1.00  0.00    -0.000 C 
BRANCH  13  14
ATOM     14  C   UNL     1     114.041 121.318 131.208  1.00  0.00    -0.000 C 
BRANCH  14  15
ATOM     15  C   UNL     1     113.843 120.346 132.382  1.00  0.00    -0.000 C 
BRANCH  15  16
ATOM     16  C   UNL     1     114.483 120.849 133.685  1.00  0.00    -0.000 C 
BRANCH  16  17
ATOM     17  C   UNL     1     115.641 119.941 134.113  1.00  0.00    -0.003 C 
ATOM     18  C   UNL     1     116.931 120.736 134.286  1.00  0.00     0.004 C 
ENDBRANCH  16  17
ENDBRANCH  15  16
ENDBRANCH  14  15
ENDBRANCH  13  14
ENDBRANCH  12  13
ENDBRANCH  11  12
ENDBRANCH   1  11
TORSDOF 14
ENDMDL
MODEL 3
REMARK VINA RESULT:    -4.215      1.478      4.275
REMARK INTER + INTRA:          -9.976
REMARK INTER:                  -7.589
REMARK INTRA:                  -2.387
REMARK UNBOUND:                -2.310
REMARK SMILES CCCCCCCCCCCCCCCC(=O)[O-]
REMARK SMILES IDX 9 1 10 2 11 3 12 4 13 5 14 6 15 7 16 8 17 9 18 10 8 11 7 12
REMARK SMILES IDX 6 13 5 14 4 15 3 16 2 17 1 18
REMARK H PARENT
REMARK Flexibility Score: inf
ROOT
ATOM      1  C   UNL     1     116.951 120.875 133.564  1.00  0.00     0.000 C 
ENDROOT
BRANCH   1   2
ATOM      2  C   UNL     1     117.736 120.116 132.487  1.00  0.00     0.000 C 
BRANCH   2   3
ATOM      3  C   UNL     1     117.696 120.863 131.146  1.00  0.00     0.000 C 
BRANCH   3   4
ATOM      4  C   UNL     1     117.326 122.347 131.304  1.00  0.00     0.000 C 
BRANCH   4   5
ATOM      5  C   UNL     1     117.801 123.204 130.121  1.00  0.00     0.000 C 
BRANCH   5   6
ATOM      6  C   UNL     1     117.654 122.441 128.797  1.00  0.00     0.006 C 
BRANCH   6   7
ATOM      7  C   UNL     1     116.641 123.104 127.853  1.00  0.00     0.053 C 
BRANCH   7   8
ATOM      8  C   UNL     1     117.222 124.303 127.168  1.00  0.00     0.041 C 
ATOM      9  O   UNL     1     118.065 124.158 126.244  1.00  0.00    -0.550 OA
ATOM     10  O   UNL     1     116.806 125.579 127.527  1.00  0.00    -0.550 OA
ENDBRANCH   7   8
ENDBRANCH   6   7
ENDBRANCH   5   6
ENDBRANCH   4   5
ENDBRANCH   3   4
ENDBRANCH   2   3
ENDBRANCH   1   2
BRANCH   1  11
ATOM     11  C   UNL     1     115.715 120.085 134.007  1.00  0.00     0.000 C 
BRANCH  11  12
ATOM     12  C   UNL     1     114.424 120.791 133.566  1.00  0.00    -0.000 C 
BRANCH  12  13
ATOM     13  C   UNL     1     113.991 120.404 132.143  1.00  0.00    -0.000 C 
BRANCH  13  14
ATOM     14  C   UNL     1     113.835 121.626 131.220  1.00  0.00    -0.000 C 
BRANCH  14  15
ATOM     15  C   UNL     1     114.036 121.274 129.738  1.00  0.00    -0.000 C 
BRANCH  15  16
ATOM     16  C   UNL     1     114.593 119.857 129.533  1.00  0.00    -0.000 C 
BRANCH  16  17
ATOM     17  C   UNL     1     115.061 119.657 128.087  1.00  0.00    -0.003 C 
ATOM     18  C   UNL     1     114.176 120.424 127.109  1.00  0.00     0.004 C 
ENDBRANCH  16  17
ENDBRANCH  15  16
ENDBRANCH  14  15
ENDBRANCH  13  14
ENDBRANCH  12  13
ENDBRANCH  11  12
ENDBRANCH   1  11
TORSDOF 14
ENDMDL
MODEL 4
REMARK VINA RESULT:    -4.166      2.488      5.675
REMARK INTER + INTRA:          -9.885
REMARK INTER:                  -7.712
REMARK INTRA:                  -2.173
REMARK UNBOUND:                -2.310
REMARK SMILES CCCCCCCCCCCCCCCC(=O)[O-]
REMARK SMILES IDX 9 1 10 2 11 3 12 4 13 5 14 6 15 7 16 8 17 9 18 10 8 11 7 12
REMARK SMILES IDX 6 13 5 14 4 15 3 16 2 17 1 18
REMARK H PARENT
REMARK Flexibility Score: inf
ROOT
ATOM      1  C   UNL     1     115.458 121.235 130.537  1.00  0.00     0.000 C 
ENDROOT
BRANCH   1   2
ATOM      2  C   UNL     1     113.984 121.052 130.920  1.00  0.00     0.000 C 
BRANCH   2   3
ATOM      3  C   UNL     1     113.847 120.215 132.200  1.00  0.00     0.000 C 
BRANCH   3   4
ATOM      4  C   UNL     1     114.433 120.918 133.434  1.00  0.00     0.000 C 
BRANCH   4   5
ATOM      5  C   UNL     1     115.530 120.091 134.122  1.00  0.00     0.000 C 
BRANCH   5   6
ATOM      6  C   UNL     1     116.900 120.772 133.983  1.00  0.00     0.006 C 
BRANCH   6   7
ATOM      7  C   UNL     1     117.946 119.849 133.344  1.00  0.00     0.053 C 
BRANCH   7   8
ATOM      8  C   UNL     1     118.799 120.578 132.352  1.00  0.00     0.041 C 
ATOM      9  O   UNL     1     119.657 119.952 131.674  1.00  0.00    -0.550 OA
ATOM     10  O   UNL     1     118.623 121.941 132.152  1.00  0.00    -0.550 OA
ENDBRANCH   7   8
ENDBRANCH   6   7
ENDBRANCH   5   6
ENDBRANCH   4   5
ENDBRANCH   3   4
ENDBRANCH   2   3
ENDBRANCH   1   2
BRANCH   1  11
ATOM     11  C   UNL     1     116.019 119.968 129.880  1.00  0.00     0.000 C 
BRANCH  11  12
ATOM     12  C   UNL     1     114.984 119.331 128.942  1.00  0.00    -0.000 C 
BRANCH  12  13
ATOM     13  C   UNL     1     115.103 119.835 127.494  1.00  0.00    -0.000 C 
BRANCH  13  14
ATOM     14  C   UNL     1     113.882 120.662 127.054  1.00  0.00    -0.000 C 
BRANCH  14  15
ATOM     15  C   UNL     1     114.266 122.073 126.581  1.00  0.00    -0.000 C 
BRANCH  15  16
ATOM     16  C   UNL     1     113.988 123.152 127.639  1.00  0.00    -0.000 C 
BRANCH  16  17
ATOM     17  C   UNL     1     115.270 123.913 127.995  1.00  0.00    -0.003 C 
ATOM     18  C   UNL     1     116.482 123.315 127.288  1.00  0.00     0.004 C 
ENDBRANCH  16  17
ENDBRANCH  15  16
ENDBRANCH  14  15
ENDBRANCH  13  14
ENDBRANCH  12  13
ENDBRANCH  11  12
ENDBRANCH   1  11
TORSDOF 14
ENDMDL
MODEL 5
REMARK VINA RESULT:    -4.160      3.042      5.622
REMARK INTER + INTRA:          -9.874
REMARK INTER:                  -7.676
REMARK INTRA:                  -2.199
REMARK UNBOUND:                -2.310
REMARK SMILES CCCCCCCCCCCCCCCC(=O)[O-]
REMARK SMILES IDX 9 1 10 2 11 3 12 4 13 5 14 6 15 7 16 8 17 9 18 10 8 11 7 12
REMARK SMILES IDX 6 13 5 14 4 15 3 16 2 17 1 18
REMARK H PARENT
REMARK Flexibility Score: inf
ROOT
ATOM      1  C   UNL     1     115.425 119.710 128.611  1.00  0.00     0.000 C 
ENDROOT
BRANCH   1   2
ATOM      2  C   UNL     1     115.597 120.146 130.071  1.00  0.00     0.000 C 
BRANCH   2   3
ATOM      3  C   UNL     1     114.304 120.771 130.615  1.00  0.00     0.000 C 
BRANCH   3   4
ATOM      4  C   UNL     1     114.507 121.470 131.969  1.00  0.00     0.000 C 
BRANCH   4   5
ATOM      5  C   UNL     1     114.195 120.553 133.161  1.00  0.00     0.000 C 
BRANCH   5   6
ATOM      6  C   UNL     1     115.488 120.091 133.850  1.00  0.00     0.006 C 
BRANCH   6   7
ATOM      7  C   UNL     1     116.512 121.225 133.987  1.00  0.00     0.053 C 
BRANCH   7   8
ATOM      8  C   UNL     1     117.864 120.817 133.488  1.00  0.00     0.041 C 
ATOM      9  O   UNL     1     117.977 119.866 132.671  1.00  0.00    -0.550 OA
ATOM     10  O   UNL     1     118.996 121.509 133.900  1.00  0.00    -0.550 OA
ENDBRANCH   7   8
ENDBRANCH   6   7
ENDBRANCH   5   6
ENDBRANCH   4   5
ENDBRANCH   3   4
ENDBRANCH   2   3
ENDBRANCH   1   2
BRANCH   1  11
ATOM     11  C   UNL     1     114.081 120.186 128.047  1.00  0.00     0.000 C 
BRANCH  11  12
ATOM     12  C   UNL     1     114.202 120.530 126.555  1.00  0.00    -0.000 C 
BRANCH  12  13
ATOM     13  C   UNL     1     114.176 122.045 126.290  1.00  0.00    -0.000 C 
BRANCH  13  14
ATOM     14  C   UNL     1     113.822 122.858 127.547  1.00  0.00    -0.000 C 
BRANCH  14  15
ATOM     15  C   UNL     1     114.905 123.888 127.907  1.00  0.00    -0.000 C 
BRANCH  15  16
ATOM     16  C   UNL     1     116.296 123.256 128.071  1.00  0.00    -0.000 C 
BRANCH  16  17
ATOM     17  C   UNL     1     116.941 123.688 129.392  1.00  0.00    -0.003 C 
ATOM     18  C   UNL     1     115.925 124.362 130.309  1.00  0.00     0.004 C 
ENDBRANCH  16  17
ENDBRANCH  15  16
ENDBRANCH  14  15
ENDBRANCH  13  14
ENDBRANCH  12  13
ENDBRANCH  11  12
ENDBRANCH   1  11
TORSDOF 14
ENDMDL
MODEL 6
REMARK VINA RESULT:    -4.159      2.255      4.901
REMARK INTER + INTRA:          -9.873
REMARK INTER:                  -7.868
REMARK INTRA:                  -2.006
REMARK UNBOUND:                -2.310
REMARK SMILES CCCCCCCCCCCCCCCC(=O)[O-]
REMARK SMILES IDX 9 1 10 2 11 3 12 4 13 5 14 6 15 7 16 8 17 9 18 10 8 11 7 12
REMARK SMILES IDX 6 13 5 14 4 15 3 16 2 17 1 18
REMARK H PARENT
REMARK Flexibility Score: inf
ROOT
ATOM      1  C   UNL     1     115.511 120.134 133.967  1.00  0.00     0.000 C 
ENDROOT
BRANCH   1   2
ATOM      2  C   UNL     1     116.845 120.887 133.894  1.00  0.00     0.000 C 
BRANCH   2   3
ATOM      3  C   UNL     1     117.442 120.813 132.481  1.00  0.00     0.000 C 
BRANCH   3   4
ATOM      4  C   UNL     1     117.440 122.172 131.764  1.00  0.00     0.000 C 
BRANCH   4   5
ATOM      5  C   UNL     1     117.625 122.040 130.244  1.00  0.00     0.000 C 
BRANCH   5   6
ATOM      6  C   UNL     1     117.416 123.392 129.546  1.00  0.00     0.006 C 
BRANCH   6   7
ATOM      7  C   UNL     1     116.268 124.197 130.169  1.00  0.00     0.053 C 
BRANCH   7   8
ATOM      8  C   UNL     1     116.487 125.672 130.038  1.00  0.00     0.041 C 
ATOM      9  O   UNL     1     116.935 126.335 131.010  1.00  0.00    -0.550 OA
ATOM     10  O   UNL     1     116.230 126.309 128.830  1.00  0.00    -0.550 OA
ENDBRANCH   7   8
ENDBRANCH   6   7
ENDBRANCH   5   6
ENDBRANCH   4   5
ENDBRANCH   3   4
ENDBRANCH   2   3
ENDBRANCH   1   2
BRANCH   1  11
ATOM     11  C   UNL     1     114.379 120.951 133.333  1.00  0.00     0.000 C 
BRANCH  11  12
ATOM     12  C   UNL     1     113.755 120.199 132.149  1.00  0.00    -0.000 C 
BRANCH  12  13
ATOM     13  C   UNL     1     114.124 120.817 130.790  1.00  0.00    -0.000 C 
BRANCH  13  14
ATOM     14  C   UNL     1     114.669 119.777 129.796  1.00  0.00    -0.000 C 
BRANCH  14  15
ATOM     15  C   UNL     1     114.264 120.081 128.344  1.00  0.00    -0.000 C 
BRANCH  15  16
ATOM     16  C   UNL     1     114.824 121.418 127.837  1.00  0.00    -0.000 C 
BRANCH  16  17
ATOM     17  C   UNL     1     113.798 122.145 126.961  1.00  0.00    -0.003 C 
ATOM     18  C   UNL     1     113.298 123.418 127.637  1.00  0.00     0.004 C 
ENDBRANCH  16  17
ENDBRANCH  15  16
ENDBRANCH  14  15
ENDBRANCH  13  14
ENDBRANCH  12  13
ENDBRANCH  11  12
ENDBRANCH   1  11
TORSDOF 14
ENDMDL
MODEL 7
REMARK VINA RESULT:    -4.156      1.171      2.571
REMARK INTER + INTRA:          -9.868
REMARK INTER:                  -8.179
REMARK INTRA:                  -1.689
REMARK UNBOUND:                -2.310
REMARK SMILES CCCCCCCCCCCCCCCC(=O)[O-]
REMARK SMILES IDX 9 1 10 2 11 3 12 4 13 5 14 6 15 7 16 8 17 9 18 10 8 11 7 12
REMARK SMILES IDX 6 13 5 14 4 15 3 16 2 17 1 18
REMARK H PARENT
REMARK Flexibility Score: inf
ROOT
ATOM      1  C   UNL     1     114.623 120.117 129.723  1.00  0.00     0.000 C 
ENDROOT
BRANCH   1   2
ATOM      2  C   UNL     1     114.161 120.630 128.354  1.00  0.00     0.000 C 
BRANCH   2   3
ATOM      3  C   UNL     1     113.920 122.146 128.387  1.00  0.00     0.000 C 
BRANCH   3   4
ATOM      4  C   UNL     1     114.746 122.902 127.334  1.00  0.00     0.000 C 
BRANCH   4   5
ATOM      5  C   UNL     1     116.258 122.815 127.594  1.00  0.00     0.000 C 
BRANCH   5   6
ATOM      6  C   UNL     1     116.942 124.159 127.304  1.00  0.00     0.006 C 
BRANCH   6   7
ATOM      7  C   UNL     1     118.208 123.996 126.453  1.00  0.00     0.053 C 
BRANCH   7   8
ATOM      8  C   UNL     1     119.089 125.205 126.530  1.00  0.00     0.041 C 
ATOM      9  O   UNL     1     120.333 125.093 126.370  1.00  0.00    -0.550 OA
ATOM     10  O   UNL     1     118.533 126.459 126.744  1.00  0.00    -0.550 OA
ENDBRANCH   7   8
ENDBRANCH   6   7
ENDBRANCH   5   6
ENDBRANCH   4   5
ENDBRANCH   3   4
ENDBRANCH   2   3
ENDBRANCH   1   2
BRANCH   1  11
ATOM     11  C   UNL     1     114.006 120.940 130.860  1.00  0.00     0.000 C 
BRANCH  11  12
ATOM     12  C   UNL     1     113.862 120.095 132.134  1.00  0.00    -0.000 C 
BRANCH  12  13
ATOM     13  C   UNL     1     114.339 120.835 133.395  1.00  0.00    -0.000 C 
BRANCH  13  14
ATOM     14  C   UNL     1     115.635 120.242 133.973  1.00  0.00    -0.000 C 
BRANCH  14  15
ATOM     15  C   UNL     1     116.891 120.984 133.488  1.00  0.00    -0.000 C 
BRANCH  15  16
ATOM     16  C   UNL     1     117.626 120.237 132.365  1.00  0.00    -0.000 C 
BRANCH  16  17
ATOM     17  C   UNL     1     117.838 121.146 131.149  1.00  0.00    -0.003 C 
ATOM     18  C   UNL     1     117.154 122.496 131.344  1.00  0.00     0.004 C 
ENDBRANCH  16  17
ENDBRANCH  15  16
ENDBRANCH  14  15
ENDBRANCH  13  14
ENDBRANCH  12  13
ENDBRANCH  11  12
ENDBRANCH   1  11
TORSDOF 14
ENDMDL
MODEL 8
REMARK VINA RESULT:    -4.152      1.527      3.711
REMARK INTER + INTRA:          -9.861
REMARK INTER:                  -7.541
REMARK INTRA:                  -2.320
REMARK UNBOUND:                -2.310
REMARK SMILES CCCCCCCCCCCCCCCC(=O)[O-]
REMARK SMILES IDX 9 1 10 2 11 3 12 4 13 5 14 6 15 7 16 8 17 9 18 10 8 11 7 12
REMARK SMILES IDX 6 13 5 14 4 15 3 16 2 17 1 18
REMARK H PARENT
REMARK Flexibility Score: inf
ROOT
ATOM      1  C   UNL     1     113.863 120.129 132.196  1.00  0.00     0.000 C 
ENDROOT
BRANCH   1   2
ATOM      2  C   UNL     1     114.161 120.817 130.859  1.00  0.00     0.000 C 
BRANCH   2   3
ATOM      3  C   UNL     1     114.504 119.786 129.773  1.00  0.00     0.000 C 
BRANCH   3   4
ATOM      4  C   UNL     1     114.286 120.326 128.351  1.00  0.00     0.000 C 
BRANCH   4   5
ATOM      5  C   UNL     1     114.006 121.837 128.329  1.00  0.00     0.000 C 
BRANCH   5   6
ATOM      6  C   UNL     1     115.035 122.573 127.458  1.00  0.00     0.006 C 
BRANCH   6   7
ATOM      7  C   UNL     1     115.467 123.910 128.074  1.00  0.00     0.053 C 
BRANCH   7   8
ATOM      8  C   UNL     1     116.692 124.459 127.408  1.00  0.00     0.041 C 
ATOM      9  O   UNL     1     117.496 123.685 126.825  1.00  0.00    -0.550 OA
ATOM     10  O   UNL     1     116.927 125.828 127.403  1.00  0.00    -0.550 OA
ENDBRANCH   7   8
ENDBRANCH   6   7
ENDBRANCH   5   6
ENDBRANCH   4   5
ENDBRANCH   3   4
ENDBRANCH   2   3
ENDBRANCH   1   2
BRANCH   1  11
ATOM     11  C   UNL     1     114.514 120.883 133.362  1.00  0.00     0.000 C 
BRANCH  11  12
ATOM     12  C   UNL     1     115.624 120.042 134.009  1.00  0.00    -0.000 C 
BRANCH  12  13
ATOM     13  C   UNL     1     117.018 120.667 133.842  1.00  0.00    -0.000 C 
BRANCH  13  14
ATOM     14  C   UNL     1     117.570 120.507 132.415  1.00  0.00    -0.000 C 
BRANCH  14  15
ATOM     15  C   UNL     1     117.834 121.858 131.730  1.00  0.00    -0.000 C 
BRANCH  15  16
ATOM     16  C   UNL     1     117.635 121.802 130.208  1.00  0.00    -0.000 C 
BRANCH  16  17
ATOM     17  C   UNL     1     118.058 120.439 129.649  1.00  0.00    -0.003 C 
ATOM     18  C   UNL     1     118.028 120.433 128.124  1.00  0.00     0.004 C 
ENDBRANCH  16  17
ENDBRANCH  15  16
ENDBRANCH  14  15
ENDBRANCH  13  14
ENDBRANCH  12  13
ENDBRANCH  11  12
ENDBRANCH   1  11
TORSDOF 14
ENDMDL
MODEL 9
REMARK VINA RESULT:    -4.151      2.084      3.327
REMARK INTER + INTRA:          -9.859
REMARK INTER:                  -7.882
REMARK INTRA:                  -1.978
REMARK UNBOUND:                -2.310
REMARK SMILES CCCCCCCCCCCCCCCC(=O)[O-]
REMARK SMILES IDX 9 1 10 2 11 3 12 4 13 5 14 6 15 7 16 8 17 9 18 10 8 11 7 12
REMARK SMILES IDX 6 13 5 14 4 15 3 16 2 17 1 18
REMARK H PARENT
REMARK Flexibility Score: inf
ROOT
ATOM      1  C   UNL     1     114.389 119.781 129.730  1.00  0.00     0.000 C 
ENDROOT
BRANCH   1   2
ATOM      2  C   UNL     1     114.364 120.422 128.337  1.00  0.00     0.000 C 
BRANCH   2   3
ATOM      3  C   UNL     1     114.531 121.946 128.430  1.00  0.00     0.000 C 
BRANCH   3   4
ATOM      4  C   UNL     1     115.237 122.541 127.201  1.00  0.00     0.000 C 
BRANCH   4   5
ATOM      5  C   UNL     1     116.341 123.541 127.579  1.00  0.00     0.000 C 
BRANCH   5   6
ATOM      6  C   UNL     1     115.793 124.639 128.502  1.00  0.00     0.006 C 
BRANCH   6   7
ATOM      7  C   UNL     1     116.651 124.824 129.760  1.00  0.00     0.053 C 
BRANCH   7   8
ATOM      8  C   UNL     1     116.866 126.271 130.079  1.00  0.00     0.041 C 
ATOM      9  O   UNL     1     117.566 126.603 131.073  1.00  0.00    -0.550 OA
ATOM     10  O   UNL     1     116.323 127.253 129.260  1.00  0.00    -0.550 OA
ENDBRANCH   7   8
ENDBRANCH   6   7
ENDBRANCH   5   6
ENDBRANCH   4   5
ENDBRANCH   3   4
ENDBRANCH   2   3
ENDBRANCH   1   2
BRANCH   1  11
ATOM     11  C   UNL     1     114.145 120.827 130.824  1.00  0.00     0.000 C 
BRANCH  11  12
ATOM     12  C   UNL     1     113.817 120.153 132.165  1.00  0.00    -0.000 C 
BRANCH  12  13
ATOM     13  C   UNL     1     114.418 120.899 133.368  1.00  0.00    -0.000 C 
BRANCH  13  14
ATOM     14  C   UNL     1     115.587 120.136 134.013  1.00  0.00    -0.000 C 
BRANCH  14  15
ATOM     15  C   UNL     1     116.943 120.817 133.768  1.00  0.00    -0.000 C 
BRANCH  15  16
ATOM     16  C   UNL     1     117.583 120.404 132.434  1.00  0.00    -0.000 C 
BRANCH  16  17
ATOM     17  C   UNL     1     117.649 121.592 131.467  1.00  0.00    -0.003 C 
ATOM     18  C   UNL     1     117.849 121.122 130.029  1.00  0.00     0.004 C 
ENDBRANCH  16  17
ENDBRANCH  15  16
ENDBRANCH  14  15
ENDBRANCH  13  14
ENDBRANCH  12  13
ENDBRANCH  11  12
ENDBRANCH   1  11
TORSDOF 14
ENDMDL
