MODEL 1
REMARK VINA RESULT:     5.741      0.000      0.000
REMARK INTER + INTRA:           7.027
REMARK INTER:                   6.916
REMARK INTRA:                   0.111
REMARK UNBOUND:                 0.111
REMARK SMILES Oc1cc(O)c2cc(O)c(-c3ccc(O)c(O)c3)[o+]c2c1.[Cl-]
REMARK SMILES IDX 10 1 19 2 20 3 21 4 2 5 3 6 4 7 6 8 7 9 8 10 11 11 12 12
REMARK SMILES IDX 13 13 14 14 18 15 16 16 15 17 17 19 9 21 1 23 5 25
REMARK H PARENT 15 18 17 20 9 22 1 24 5 26
REMARK Flexibility Score: inf
ROOT
ATOM      1  C   UNL     1      -8.045  35.367   0.251  1.00  0.00     0.402 A 
ATOM      2  O   UNL     1      -7.389  36.336   0.884  1.00  0.00    -0.202 OA
ATOM      3  C   UNL     1      -6.267  36.134   1.567  1.00  0.00     0.368 A 
ATOM      4  C   UNL     1      -5.652  37.217   2.201  1.00  0.00     0.162 A 
ATOM      5  C   UNL     1      -4.475  37.032   2.928  1.00  0.00     0.128 A 
ATOM      6  C   UNL     1      -3.908  35.757   3.024  1.00  0.00     0.093 A 
ATOM      7  C   UNL     1      -4.505  34.656   2.399  1.00  0.00     0.136 A 
ATOM      8  C   UNL     1      -5.700  34.840   1.656  1.00  0.00     0.125 A 
ATOM      9  C   UNL     1      -6.360  33.797   0.985  1.00  0.00     0.078 A 
ATOM     10  C   UNL     1      -7.534  34.056   0.269  1.00  0.00     0.223 A 
ENDROOT
BRANCH   1  11
ATOM     11  C   UNL     1      -9.290  35.717  -0.468  1.00  0.00     0.087 A 
ATOM     12  C   UNL     1      -9.403  36.975  -1.078  1.00  0.00     0.022 A 
ATOM     13  C   UNL     1     -10.576  37.333  -1.745  1.00  0.00     0.051 A 
ATOM     14  C   UNL     1     -11.661  36.453  -1.805  1.00  0.00     0.157 A 
ATOM     15  C   UNL     1     -10.386  34.839  -0.508  1.00  0.00     0.068 A 
ATOM     16  C   UNL     1     -11.568  35.191  -1.172  1.00  0.00     0.158 A 
BRANCH  14  17
ATOM     17  O   UNL     1     -12.802  36.869  -2.495  1.00  0.00    -0.504 OA
ATOM     18  H   UNL     1     -13.733  36.855  -2.105  1.00  0.00     0.293 HD
ENDBRANCH  14  17
BRANCH  16  19
ATOM     19  O   UNL     1     -12.616  34.268  -1.172  1.00  0.00    -0.504 OA
ATOM     20  H   UNL     1     -13.013  33.865  -2.008  1.00  0.00     0.293 HD
ENDBRANCH  16  19
ENDBRANCH   1  11
BRANCH  10  21
ATOM     21  O   UNL     1      -8.162  33.031  -0.438  1.00  0.00    -0.500 OA
ATOM     22  H   UNL     1      -9.044  32.637  -0.133  1.00  0.00     0.294 HD
ENDBRANCH  10  21
BRANCH   5  23
ATOM     23  O   UNL     1      -3.877  38.125   3.553  1.00  0.00    -0.507 OA
ATOM     24  H   UNL     1      -4.430  38.867   3.964  1.00  0.00     0.293 HD
ENDBRANCH   5  23
BRANCH   7  25
ATOM     25  O   UNL     1      -3.879  33.415   2.545  1.00  0.00    -0.507 OA
ATOM     26  H   UNL     1      -3.540  32.852   1.777  1.00  0.00     0.293 HD
ENDBRANCH   7  25
TORSDOF 6
ENDMDL
MODEL 2
REMARK VINA RESULT:     6.010     11.510     14.431
REMARK INTER + INTRA:           7.352
REMARK INTER:                   7.700
REMARK INTRA:                  -0.349
REMARK UNBOUND:                 0.111
REMARK SMILES Oc1cc(O)c2cc(O)c(-c3ccc(O)c(O)c3)[o+]c2c1.[Cl-]
REMARK SMILES IDX 10 1 19 2 20 3 21 4 2 5 3 6 4 7 6 8 7 9 8 10 11 11 12 12
REMARK SMILES IDX 13 13 14 14 18 15 16 16 15 17 17 19 9 21 1 23 5 25
REMARK H PARENT 15 18 17 20 9 22 1 24 5 26
REMARK Flexibility Score: inf
ROOT
ATOM      1  C   UNL     1     -18.033  34.015  -9.532  1.00  0.00     0.402 A 
ATOM      2  O   UNL     1     -16.961  34.441  -8.868  1.00  0.00    -0.202 OA
ATOM      3  C   UNL     1     -15.755  34.542  -9.417  1.00  0.00     0.368 A 
ATOM      4  C   UNL     1     -14.689  34.998  -8.636  1.00  0.00     0.162 A 
ATOM      5  C   UNL     1     -13.411  35.111  -9.186  1.00  0.00     0.128 A 
ATOM      6  C   UNL     1     -13.195  34.764 -10.524  1.00  0.00     0.093 A 
ATOM      7  C   UNL     1     -14.246  34.304 -11.326  1.00  0.00     0.136 A 
ATOM      8  C   UNL     1     -15.547  34.191 -10.772  1.00  0.00     0.125 A 
ATOM      9  C   UNL     1     -16.662  33.752 -11.505  1.00  0.00     0.078 A 
ATOM     10  C   UNL     1     -17.917  33.671 -10.891  1.00  0.00     0.223 A 
ENDROOT
BRANCH   1  11
ATOM     11  C   UNL     1     -19.321  33.938  -8.807  1.00  0.00     0.087 A 
ATOM     12  C   UNL     1     -19.681  32.743  -8.166  1.00  0.00     0.022 A 
ATOM     13  C   UNL     1     -20.900  32.643  -7.493  1.00  0.00     0.051 A 
ATOM     14  C   UNL     1     -21.788  33.724  -7.458  1.00  0.00     0.157 A 
ATOM     15  C   UNL     1     -20.220  35.018  -8.793  1.00  0.00     0.068 A 
ATOM     16  C   UNL     1     -21.447  34.925  -8.123  1.00  0.00     0.158 A 
BRANCH  14  17
ATOM     17  O   UNL     1     -22.987  33.561  -6.761  1.00  0.00    -0.504 OA
ATOM     18  H   UNL     1     -23.290  32.688  -6.354  1.00  0.00     0.293 HD
ENDBRANCH  14  17
BRANCH  16  19
ATOM     19  O   UNL     1     -22.290  36.038  -8.149  1.00  0.00    -0.504 OA
ATOM     20  H   UNL     1     -21.977  36.986  -8.003  1.00  0.00     0.293 HD
ENDBRANCH  16  19
ENDBRANCH   1  11
BRANCH  10  21
ATOM     21  O   UNL     1     -19.033  33.283 -11.631  1.00  0.00    -0.500 OA
ATOM     22  H   UNL     1     -19.692  33.960 -11.996  1.00  0.00     0.294 HD
ENDBRANCH  10  21
BRANCH   5  23
ATOM     23  O   UNL     1     -12.361  35.568  -8.391  1.00  0.00    -0.507 OA
ATOM     24  H   UNL     1     -11.399  35.515  -8.705  1.00  0.00     0.293 HD
ENDBRANCH   5  23
BRANCH   7  25
ATOM     25  O   UNL     1     -13.947  33.975 -12.652  1.00  0.00    -0.507 OA
ATOM     26  H   UNL     1     -13.711  33.046 -12.970  1.00  0.00     0.293 HD
ENDBRANCH   7  25
TORSDOF 6
ENDMDL
MODEL 3
REMARK VINA RESULT:     7.608     12.765     16.485
REMARK INTER + INTRA:           9.276
REMARK INTER:                   9.611
REMARK INTRA:                  -0.335
REMARK UNBOUND:                 0.111
REMARK SMILES Oc1cc(O)c2cc(O)c(-c3ccc(O)c(O)c3)[o+]c2c1.[Cl-]
REMARK SMILES IDX 10 1 19 2 20 3 21 4 2 5 3 6 4 7 6 8 7 9 8 10 11 11 12 12
REMARK SMILES IDX 13 13 14 14 18 15 16 16 15 17 17 19 9 21 1 23 5 25
REMARK H PARENT 15 18 17 20 9 22 1 24 5 26
REMARK Flexibility Score: inf
ROOT
ATOM      1  C   UNL     1     -19.448  34.168  -8.971  1.00  0.00     0.402 A 
ATOM      2  O   UNL     1     -20.131  35.301  -9.116  1.00  0.00    -0.202 OA
ATOM      3  C   UNL     1     -21.375  35.464  -8.678  1.00  0.00     0.368 A 
ATOM      4  C   UNL     1     -22.011  36.692  -8.881  1.00  0.00     0.162 A 
ATOM      5  C   UNL     1     -23.318  36.890  -8.433  1.00  0.00     0.128 A 
ATOM      6  C   UNL     1     -23.996  35.855  -7.779  1.00  0.00     0.093 A 
ATOM      7  C   UNL     1     -23.380  34.617  -7.564  1.00  0.00     0.136 A 
ATOM      8  C   UNL     1     -22.050  34.412  -8.015  1.00  0.00     0.125 A 
ATOM      9  C   UNL     1     -21.350  33.209  -7.831  1.00  0.00     0.078 A 
ATOM     10  C   UNL     1     -20.038  33.082  -8.300  1.00  0.00     0.223 A 
ENDROOT
BRANCH   1  11
ATOM     11  C   UNL     1     -18.071  34.106  -9.512  1.00  0.00     0.087 A 
ATOM     12  C   UNL     1     -17.873  33.744 -10.852  1.00  0.00     0.022 A 
ATOM     13  C   UNL     1     -16.582  33.661 -11.377  1.00  0.00     0.051 A 
ATOM     14  C   UNL     1     -15.465  33.922 -10.575  1.00  0.00     0.157 A 
ATOM     15  C   UNL     1     -16.952  34.348  -8.697  1.00  0.00     0.068 A 
ATOM     16  C   UNL     1     -15.653  34.264  -9.215  1.00  0.00     0.158 A 
BRANCH  14  17
ATOM     17  O   UNL     1     -14.202  33.829 -11.163  1.00  0.00    -0.504 OA
ATOM     18  H   UNL     1     -13.428  33.324 -10.758  1.00  0.00     0.293 HD
ENDBRANCH  14  17
BRANCH  16  19
ATOM     19  O   UNL     1     -14.588  34.519  -8.348  1.00  0.00    -0.504 OA
ATOM     20  H   UNL     1     -13.848  35.177  -8.541  1.00  0.00     0.293 HD
ENDBRANCH  16  19
ENDBRANCH   1  11
BRANCH  10  21
ATOM     21  O   UNL     1     -19.325  31.904  -8.073  1.00  0.00    -0.500 OA
ATOM     22  H   UNL     1     -19.592  31.252  -7.347  1.00  0.00     0.294 HD
ENDBRANCH  10  21
BRANCH   5  23
ATOM     23  O   UNL     1     -23.936  38.122  -8.645  1.00  0.00    -0.507 OA
ATOM     24  H   UNL     1     -23.563  38.976  -8.248  1.00  0.00     0.293 HD
ENDBRANCH   5  23
BRANCH   7  25
ATOM     25  O   UNL     1     -24.125  33.634  -6.906  1.00  0.00    -0.507 OA
ATOM     26  H   UNL     1     -24.571  33.761  -6.008  1.00  0.00     0.293 HD
ENDBRANCH   7  25
TORSDOF 6
ENDMDL
MODEL 4
REMARK VINA RESULT:     7.713      2.868      5.805
REMARK INTER + INTRA:           9.403
REMARK INTER:                   9.618
REMARK INTRA:                  -0.215
REMARK UNBOUND:                 0.111
REMARK SMILES Oc1cc(O)c2cc(O)c(-c3ccc(O)c(O)c3)[o+]c2c1.[Cl-]
REMARK SMILES IDX 10 1 19 2 20 3 21 4 2 5 3 6 4 7 6 8 7 9 8 10 11 11 12 12
REMARK SMILES IDX 13 13 14 14 18 15 16 16 15 17 17 19 9 21 1 23 5 25
REMARK H PARENT 15 18 17 20 9 22 1 24 5 26
REMARK Flexibility Score: inf
ROOT
ATOM      1  C   UNL     1      -6.906  33.547   1.027  1.00  0.00     0.402 A 
ATOM      2  O   UNL     1      -7.833  34.266   0.400  1.00  0.00    -0.202 OA
ATOM      3  C   UNL     1      -7.618  35.495  -0.058  1.00  0.00     0.368 A 
ATOM      4  C   UNL     1      -8.657  36.173  -0.701  1.00  0.00     0.162 A 
ATOM      5  C   UNL     1      -8.459  37.465  -1.190  1.00  0.00     0.128 A 
ATOM      6  C   UNL     1      -7.215  38.087  -1.032  1.00  0.00     0.093 A 
ATOM      7  C   UNL     1      -6.159  37.429  -0.391  1.00  0.00     0.136 A 
ATOM      8  C   UNL     1      -6.355  36.114   0.103  1.00  0.00     0.125 A 
ATOM      9  C   UNL     1      -5.350  35.374   0.747  1.00  0.00     0.078 A 
ATOM     10  C   UNL     1      -5.616  34.079   1.204  1.00  0.00     0.223 A 
ENDROOT
BRANCH   1  11
ATOM     11  C   UNL     1      -7.271  32.192   1.499  1.00  0.00     0.087 A 
ATOM     12  C   UNL     1      -7.285  31.922   2.875  1.00  0.00     0.022 A 
ATOM     13  C   UNL     1      -7.608  30.646   3.340  1.00  0.00     0.051 A 
ATOM     14  C   UNL     1      -7.908  29.613   2.445  1.00  0.00     0.157 A 
ATOM     15  C   UNL     1      -7.550  31.151   0.596  1.00  0.00     0.068 A 
ATOM     16  C   UNL     1      -7.872  29.867   1.054  1.00  0.00     0.158 A 
BRANCH  14  17
ATOM     17  O   UNL     1      -8.231  28.362   2.976  1.00  0.00    -0.504 OA
ATOM     18  H   UNL     1      -9.158  28.098   3.275  1.00  0.00     0.293 HD
ENDBRANCH  14  17
BRANCH  16  19
ATOM     19  O   UNL     1      -8.139  28.883   0.101  1.00  0.00    -0.504 OA
ATOM     20  H   UNL     1      -7.778  27.942   0.144  1.00  0.00     0.293 HD
ENDBRANCH  16  19
ENDBRANCH   1  11
BRANCH  10  21
ATOM     21  O   UNL     1      -4.604  33.325   1.799  1.00  0.00    -0.500 OA
ATOM     22  H   UNL     1      -3.649  33.659   1.846  1.00  0.00     0.294 HD
ENDBRANCH  10  21
BRANCH   5  23
ATOM     23  O   UNL     1      -9.508  38.125  -1.828  1.00  0.00    -0.507 OA
ATOM     24  H   UNL     1     -10.076  37.662  -2.527  1.00  0.00     0.293 HD
ENDBRANCH   5  23
BRANCH   7  25
ATOM     25  O   UNL     1      -4.949  38.120  -0.272  1.00  0.00    -0.507 OA
ATOM     26  H   UNL     1      -4.750  38.803   0.445  1.00  0.00     0.293 HD
ENDBRANCH   7  25
TORSDOF 6
ENDMDL
MODEL 5
REMARK VINA RESULT:     7.769     18.189     19.431
REMARK INTER + INTRA:           9.470
REMARK INTER:                   9.816
REMARK INTRA:                  -0.346
REMARK UNBOUND:                 0.111
REMARK SMILES Oc1cc(O)c2cc(O)c(-c3ccc(O)c(O)c3)[o+]c2c1.[Cl-]
REMARK SMILES IDX 10 1 19 2 20 3 21 4 2 5 3 6 4 7 6 8 7 9 8 10 11 11 12 12
REMARK SMILES IDX 13 13 14 14 18 15 16 16 15 17 17 19 9 21 1 23 5 25
REMARK H PARENT 15 18 17 20 9 22 1 24 5 26
REMARK Flexibility Score: inf
ROOT
ATOM      1  C   UNL     1     -22.068  25.686  -7.713  1.00  0.00     0.402 A 
ATOM      2  O   UNL     1     -22.805  25.775  -6.608  1.00  0.00    -0.202 OA
ATOM      3  C   UNL     1     -22.427  25.277  -5.436  1.00  0.00     0.368 A 
ATOM      4  C   UNL     1     -23.272  25.419  -4.332  1.00  0.00     0.162 A 
ATOM      5  C   UNL     1     -22.901  24.903  -3.089  1.00  0.00     0.128 A 
ATOM      6  C   UNL     1     -21.678  24.239  -2.948  1.00  0.00     0.093 A 
ATOM      7  C   UNL     1     -20.814  24.083  -4.038  1.00  0.00     0.136 A 
ATOM      8  C   UNL     1     -21.186  24.609  -5.302  1.00  0.00     0.125 A 
ATOM      9  C   UNL     1     -20.377  24.513  -6.447  1.00  0.00     0.078 A 
ATOM     10  C   UNL     1     -20.810  25.060  -7.659  1.00  0.00     0.223 A 
ENDROOT
BRANCH   1  11
ATOM     11  C   UNL     1     -22.604  26.273  -8.962  1.00  0.00     0.087 A 
ATOM     12  C   UNL     1     -23.294  25.455  -9.868  1.00  0.00     0.022 A 
ATOM     13  C   UNL     1     -23.791  25.985 -11.060  1.00  0.00     0.051 A 
ATOM     14  C   UNL     1     -23.596  27.333 -11.379  1.00  0.00     0.157 A 
ATOM     15  C   UNL     1     -22.387  27.623  -9.289  1.00  0.00     0.068 A 
ATOM     16  C   UNL     1     -22.878  28.161 -10.485  1.00  0.00     0.158 A 
BRANCH  14  17
ATOM     17  O   UNL     1     -24.124  27.801 -12.584  1.00  0.00    -0.504 OA
ATOM     18  H   UNL     1     -24.321  28.773 -12.774  1.00  0.00     0.293 HD
ENDBRANCH  14  17
BRANCH  16  19
ATOM     19  O   UNL     1     -22.627  29.510 -10.744  1.00  0.00    -0.504 OA
ATOM     20  H   UNL     1     -21.730  29.872 -11.034  1.00  0.00     0.293 HD
ENDBRANCH  16  19
ENDBRANCH   1  11
BRANCH  10  21
ATOM     21  O   UNL     1     -19.985  25.007  -8.783  1.00  0.00    -0.500 OA
ATOM     22  H   UNL     1     -19.141  25.562  -8.851  1.00  0.00     0.294 HD
ENDBRANCH  10  21
BRANCH   5  23
ATOM     23  O   UNL     1     -23.758  25.055  -2.001  1.00  0.00    -0.507 OA
ATOM     24  H   UNL     1     -24.672  24.618  -1.983  1.00  0.00     0.293 HD
ENDBRANCH   5  23
BRANCH   7  25
ATOM     25  O   UNL     1     -19.612  23.405  -3.815  1.00  0.00    -0.507 OA
ATOM     26  H   UNL     1     -19.106  22.892  -4.522  1.00  0.00     0.293 HD
ENDBRANCH   7  25
TORSDOF 6
ENDMDL
MODEL 6
REMARK VINA RESULT:     7.866     13.524     15.847
REMARK INTER + INTRA:           9.587
REMARK INTER:                   9.874
REMARK INTRA:                  -0.287
REMARK UNBOUND:                 0.111
REMARK SMILES Oc1cc(O)c2cc(O)c(-c3ccc(O)c(O)c3)[o+]c2c1.[Cl-]
REMARK SMILES IDX 10 1 19 2 20 3 21 4 2 5 3 6 4 7 6 8 7 9 8 10 11 11 12 12
REMARK SMILES IDX 13 13 14 14 18 15 16 16 15 17 17 19 9 21 1 23 5 25
REMARK H PARENT 15 18 17 20 9 22 1 24 5 26
REMARK Flexibility Score: inf
ROOT
ATOM      1  C   UNL     1     -19.013  33.919  -9.173  1.00  0.00     0.402 A 
ATOM      2  O   UNL     1     -18.971  33.793 -10.497  1.00  0.00    -0.202 OA
ATOM      3  C   UNL     1     -17.839  33.728 -11.188  1.00  0.00     0.368 A 
ATOM      4  C   UNL     1     -17.898  33.598 -12.579  1.00  0.00     0.162 A 
ATOM      5  C   UNL     1     -16.724  33.530 -13.331  1.00  0.00     0.128 A 
ATOM      6  C   UNL     1     -15.481  33.596 -12.690  1.00  0.00     0.093 A 
ATOM      7  C   UNL     1     -15.396  33.726 -11.299  1.00  0.00     0.136 A 
ATOM      8  C   UNL     1     -16.587  33.792 -10.531  1.00  0.00     0.125 A 
ATOM      9  C   UNL     1     -16.597  33.909  -9.131  1.00  0.00     0.078 A 
ATOM     10  C   UNL     1     -17.813  33.964  -8.441  1.00  0.00     0.223 A 
ENDROOT
BRANCH   1  11
ATOM     11  C   UNL     1     -20.338  33.990  -8.517  1.00  0.00     0.087 A 
ATOM     12  C   UNL     1     -20.838  32.863  -7.848  1.00  0.00     0.022 A 
ATOM     13  C   UNL     1     -22.094  32.903  -7.240  1.00  0.00     0.051 A 
ATOM     14  C   UNL     1     -22.881  34.058  -7.299  1.00  0.00     0.157 A 
ATOM     15  C   UNL     1     -21.136  35.145  -8.598  1.00  0.00     0.068 A 
ATOM     16  C   UNL     1     -22.398  35.192  -7.994  1.00  0.00     0.158 A 
BRANCH  14  17
ATOM     17  O   UNL     1     -24.124  34.034  -6.664  1.00  0.00    -0.504 OA
ATOM     18  H   UNL     1     -24.250  34.117  -5.666  1.00  0.00     0.293 HD
ENDBRANCH  14  17
BRANCH  16  19
ATOM     19  O   UNL     1     -23.135  36.373  -8.113  1.00  0.00    -0.504 OA
ATOM     20  H   UNL     1     -23.659  36.790  -7.358  1.00  0.00     0.293 HD
ENDBRANCH  16  19
ENDBRANCH   1  11
BRANCH  10  21
ATOM     21  O   UNL     1     -17.823  34.030  -7.048  1.00  0.00    -0.500 OA
ATOM     22  H   UNL     1     -16.999  33.817  -6.498  1.00  0.00     0.294 HD
ENDBRANCH  10  21
BRANCH   5  23
ATOM     23  O   UNL     1     -16.803  33.401 -14.716  1.00  0.00    -0.507 OA
ATOM     24  H   UNL     1     -16.471  32.569 -15.189  1.00  0.00     0.293 HD
ENDBRANCH   5  23
BRANCH   7  25
ATOM     25  O   UNL     1     -14.118  33.787 -10.736  1.00  0.00    -0.507 OA
ATOM     26  H   UNL     1     -13.360  34.349 -11.098  1.00  0.00     0.293 HD
ENDBRANCH   7  25
TORSDOF 6
ENDMDL
