MODEL 1
REMARK VINA RESULT:    -2.719      0.000      0.000
REMARK INTER + INTRA:          -5.759
REMARK INTER:                  -4.387
REMARK INTRA:                  -1.372
REMARK UNBOUND:                -1.372
REMARK SMILES CCCCCCCCCCCCO
REMARK SMILES IDX 7 1 6 2 5 3 4 4 3 5 2 6 1 7 8 8 9 9 10 10 11 11 12 12 13 13
REMARK H PARENT 13 14
REMARK Flexibility Score: inf
ROOT
ATOM      1  C   UNL     1     110.622 111.018 105.449  1.00  0.00     0.000 C 
ENDROOT
BRANCH   1   2
ATOM      2  C   UNL     1     111.115 110.522 104.078  1.00  0.00    -0.000 C 
BRANCH   2   3
ATOM      3  C   UNL     1     112.584 110.070 104.105  1.00  0.00    -0.000 C 
BRANCH   3   4
ATOM      4  C   UNL     1     112.732 108.540 104.033  1.00  0.00    -0.000 C 
BRANCH   4   5
ATOM      5  C   UNL     1     113.291 107.940 105.333  1.00  0.00    -0.000 C 
BRANCH   5   6
ATOM      6  C   UNL     1     112.237 107.852 106.446  1.00  0.00    -0.003 C 
ATOM      7  C   UNL     1     112.677 108.632 107.683  1.00  0.00     0.004 C 
ENDBRANCH   5   6
ENDBRANCH   4   5
ENDBRANCH   3   4
ENDBRANCH   2   3
ENDBRANCH   1   2
BRANCH   1   8
ATOM      8  C   UNL     1     109.375 110.262 105.934  1.00  0.00     0.000 C 
BRANCH   8   9
ATOM      9  C   UNL     1     108.709 109.443 104.812  1.00  0.00     0.000 C 
BRANCH   9  10
ATOM     10  C   UNL     1     108.592 107.947 105.155  1.00  0.00     0.002 C 
BRANCH  10  11
ATOM     11  C   UNL     1     108.541 107.629 106.662  1.00  0.00     0.028 C 
BRANCH  11  12
ATOM     12  C   UNL     1     107.248 106.931 107.106  1.00  0.00     0.156 C 
BRANCH  12  13
ATOM     13  O   UNL     1     107.004 105.783 106.337  1.00  0.00    -0.396 OA
ATOM     14  H   UNL     1     106.170 105.377 106.691  1.00  0.00     0.210 HD
ENDBRANCH  12  13
ENDBRANCH  11  12
ENDBRANCH  10  11
ENDBRANCH   9  10
ENDBRANCH   8   9
ENDBRANCH   1   8
TORSDOF 11
ENDMDL
MODEL 2
REMARK VINA RESULT:    -2.714      3.432      5.574
REMARK INTER + INTRA:          -5.752
REMARK INTER:                  -4.385
REMARK INTRA:                  -1.367
REMARK UNBOUND:                -1.372
REMARK SMILES CCCCCCCCCCCCO
REMARK SMILES IDX 7 1 6 2 5 3 4 4 3 5 2 6 1 7 8 8 9 9 10 10 11 11 12 12 13 13
REMARK H PARENT 13 14
REMARK Flexibility Score: inf
ROOT
ATOM      1  C   UNL     1     112.069 109.478 105.180  1.00  0.00     0.000 C 
ENDROOT
BRANCH   1   2
ATOM      2  C   UNL     1     111.742 108.080 104.626  1.00  0.00    -0.000 C 
BRANCH   2   3
ATOM      3  C   UNL     1     110.233 107.856 104.435  1.00  0.00    -0.000 C 
BRANCH   3   4
ATOM      4  C   UNL     1     109.429 108.136 105.716  1.00  0.00    -0.000 C 
BRANCH   4   5
ATOM      5  C   UNL     1     108.132 108.915 105.441  1.00  0.00    -0.000 C 
BRANCH   5   6
ATOM      6  C   UNL     1     108.037 109.413 103.992  1.00  0.00    -0.003 C 
ATOM      7  C   UNL     1     107.353 110.776 103.923  1.00  0.00     0.004 C 
ENDBRANCH   5   6
ENDBRANCH   4   5
ENDBRANCH   3   4
ENDBRANCH   2   3
ENDBRANCH   1   2
BRANCH   1   8
ATOM      8  C   UNL     1     111.696 110.601 104.199  1.00  0.00     0.000 C 
BRANCH   8   9
ATOM      9  C   UNL     1     110.891 111.728 104.872  1.00  0.00     0.000 C 
BRANCH   9  10
ATOM     10  C   UNL     1     110.954 111.670 106.409  1.00  0.00     0.002 C 
BRANCH  10  11
ATOM     11  C   UNL     1     111.634 112.882 107.076  1.00  0.00     0.028 C 
BRANCH  11  12
ATOM     12  C   UNL     1     113.004 113.231 106.480  1.00  0.00     0.156 C 
BRANCH  12  13
ATOM     13  O   UNL     1     113.469 114.461 106.968  1.00  0.00    -0.396 OA
ATOM     14  H   UNL     1     113.309 115.130 106.252  1.00  0.00     0.210 HD
ENDBRANCH  12  13
ENDBRANCH  11  12
ENDBRANCH  10  11
ENDBRANCH   9  10
ENDBRANCH   8   9
ENDBRANCH   1   8
TORSDOF 11
ENDMDL
MODEL 3
REMARK VINA RESULT:    -2.694      2.897      4.724
REMARK INTER + INTRA:          -5.719
REMARK INTER:                  -4.321
REMARK INTRA:                  -1.398
REMARK UNBOUND:                -1.372
REMARK SMILES CCCCCCCCCCCCO
REMARK SMILES IDX 7 1 6 2 5 3 4 4 3 5 2 6 1 7 8 8 9 9 10 10 11 11 12 12 13 13
REMARK H PARENT 13 14
REMARK Flexibility Score: inf
ROOT
ATOM      1  C   UNL     1     112.640 112.246 104.439  1.00  0.00     0.000 C 
ENDROOT
BRANCH   1   2
ATOM      2  C   UNL     1     112.140 113.087 105.627  1.00  0.00    -0.000 C 
BRANCH   2   3
ATOM      3  C   UNL     1     111.764 112.228 106.846  1.00  0.00    -0.000 C 
BRANCH   3   4
ATOM      4  C   UNL     1     110.267 112.315 107.188  1.00  0.00    -0.000 C 
BRANCH   4   5
ATOM      5  C   UNL     1     109.593 110.934 107.241  1.00  0.00    -0.000 C 
BRANCH   5   6
ATOM      6  C   UNL     1     108.445 110.796 106.231  1.00  0.00    -0.003 C 
ATOM      7  C   UNL     1     108.315 112.051 105.372  1.00  0.00     0.004 C 
ENDBRANCH   5   6
ENDBRANCH   4   5
ENDBRANCH   3   4
ENDBRANCH   2   3
ENDBRANCH   1   2
BRANCH   1   8
ATOM      8  C   UNL     1     111.705 111.069 104.119  1.00  0.00     0.000 C 
BRANCH   8   9
ATOM      9  C   UNL     1     112.421 109.709 104.198  1.00  0.00     0.000 C 
BRANCH   9  10
ATOM     10  C   UNL     1     111.802 108.768 105.246  1.00  0.00     0.002 C 
BRANCH  10  11
ATOM     11  C   UNL     1     112.617 108.618 106.545  1.00  0.00     0.028 C 
BRANCH  11  12
ATOM     12  C   UNL     1     113.156 107.201 106.781  1.00  0.00     0.156 C 
BRANCH  12  13
ATOM     13  O   UNL     1     114.482 107.084 106.338  1.00  0.00    -0.396 OA
ATOM     14  H   UNL     1     114.581 106.164 105.979  1.00  0.00     0.210 HD
ENDBRANCH  12  13
ENDBRANCH  11  12
ENDBRANCH  10  11
ENDBRANCH   9  10
ENDBRANCH   8   9
ENDBRANCH   1   8
TORSDOF 11
ENDMDL
MODEL 4
REMARK VINA RESULT:    -2.691      1.152      2.685
REMARK INTER + INTRA:          -5.715
REMARK INTER:                  -4.255
REMARK INTRA:                  -1.460
REMARK UNBOUND:                -1.372
REMARK SMILES CCCCCCCCCCCCO
REMARK SMILES IDX 7 1 6 2 5 3 4 4 3 5 2 6 1 7 8 8 9 9 10 10 11 11 12 12 13 13
REMARK H PARENT 13 14
REMARK Flexibility Score: inf
ROOT
ATOM      1  C   UNL     1     111.415 108.128 106.151  1.00  0.00     0.000 C 
ENDROOT
BRANCH   1   2
ATOM      2  C   UNL     1     112.717 108.694 105.556  1.00  0.00    -0.000 C 
BRANCH   2   3
ATOM      3  C   UNL     1     112.561 109.123 104.088  1.00  0.00    -0.000 C 
BRANCH   3   4
ATOM      4  C   UNL     1     112.592 110.651 103.913  1.00  0.00    -0.000 C 
BRANCH   4   5
ATOM      5  C   UNL     1     111.185 111.269 103.875  1.00  0.00    -0.000 C 
BRANCH   5   6
ATOM      6  C   UNL     1     110.994 112.371 104.928  1.00  0.00    -0.003 C 
ATOM      7  C   UNL     1     112.161 112.400 105.911  1.00  0.00     0.004 C 
ENDBRANCH   5   6
ENDBRANCH   4   5
ENDBRANCH   3   4
ENDBRANCH   2   3
ENDBRANCH   1   2
BRANCH   1   8
ATOM      8  C   UNL     1     110.685 109.146 107.040  1.00  0.00     0.000 C 
BRANCH   8   9
ATOM      9  C   UNL     1     109.219 109.353 106.617  1.00  0.00     0.000 C 
BRANCH   9  10
ATOM     10  C   UNL     1     108.892 108.700 105.262  1.00  0.00     0.002 C 
BRANCH  10  11
ATOM     11  C   UNL     1     107.794 107.620 105.311  1.00  0.00     0.028 C 
BRANCH  11  12
ATOM     12  C   UNL     1     107.665 106.926 106.674  1.00  0.00     0.156 C 
BRANCH  12  13
ATOM     13  O   UNL     1     106.827 105.804 106.592  1.00  0.00    -0.396 OA
ATOM     14  H   UNL     1     106.815 105.393 107.496  1.00  0.00     0.210 HD
ENDBRANCH  12  13
ENDBRANCH  11  12
ENDBRANCH  10  11
ENDBRANCH   9  10
ENDBRANCH   8   9
ENDBRANCH   1   8
TORSDOF 11
ENDMDL
MODEL 5
REMARK VINA RESULT:    -2.691      2.682      4.547
REMARK INTER + INTRA:          -5.715
REMARK INTER:                  -4.488
REMARK INTRA:                  -1.228
REMARK UNBOUND:                -1.372
REMARK SMILES CCCCCCCCCCCCO
REMARK SMILES IDX 7 1 6 2 5 3 4 4 3 5 2 6 1 7 8 8 9 9 10 10 11 11 12 12 13 13
REMARK H PARENT 13 14
REMARK Flexibility Score: inf
ROOT
ATOM      1  C   UNL     1     109.278 109.084 104.370  1.00  0.00     0.000 C 
ENDROOT
BRANCH   1   2
ATOM      2  C   UNL     1     108.638 109.865 105.532  1.00  0.00    -0.000 C 
BRANCH   2   3
ATOM      3  C   UNL     1     109.025 111.353 105.530  1.00  0.00    -0.000 C 
BRANCH   3   4
ATOM      4  C   UNL     1     109.583 111.815 104.172  1.00  0.00    -0.000 C 
BRANCH   4   5
ATOM      5  C   UNL     1     110.939 112.528 104.302  1.00  0.00    -0.000 C 
BRANCH   5   6
ATOM      6  C   UNL     1     111.792 111.972 105.451  1.00  0.00    -0.003 C 
ATOM      7  C   UNL     1     112.543 113.091 106.168  1.00  0.00     0.004 C 
ENDBRANCH   5   6
ENDBRANCH   4   5
ENDBRANCH   3   4
ENDBRANCH   2   3
ENDBRANCH   1   2
BRANCH   1   8
ATOM      8  C   UNL     1     110.434 108.184 104.833  1.00  0.00     0.000 C 
BRANCH   8   9
ATOM      9  C   UNL     1     111.715 108.399 104.006  1.00  0.00     0.000 C 
BRANCH   9  10
ATOM     10  C   UNL     1     112.993 108.344 104.862  1.00  0.00     0.002 C 
BRANCH  10  11
ATOM     11  C   UNL     1     112.762 108.461 106.381  1.00  0.00     0.028 C 
BRANCH  11  12
ATOM     12  C   UNL     1     113.231 107.236 107.177  1.00  0.00     0.156 C 
BRANCH  12  13
ATOM     13  O   UNL     1     114.467 106.769 106.706  1.00  0.00    -0.396 OA
ATOM     14  H   UNL     1     114.294 105.889 106.281  1.00  0.00     0.210 HD
ENDBRANCH  12  13
ENDBRANCH  11  12
ENDBRANCH  10  11
ENDBRANCH   9  10
ENDBRANCH   8   9
ENDBRANCH   1   8
TORSDOF 11
ENDMDL
MODEL 6
REMARK VINA RESULT:    -2.683      1.477      3.312
REMARK INTER + INTRA:          -5.702
REMARK INTER:                  -4.302
REMARK INTRA:                  -1.400
REMARK UNBOUND:                -1.372
REMARK SMILES CCCCCCCCCCCCO
REMARK SMILES IDX 7 1 6 2 5 3 4 4 3 5 2 6 1 7 8 8 9 9 10 10 11 11 12 12 13 13
REMARK H PARENT 13 14
REMARK Flexibility Score: inf
ROOT
ATOM      1  C   UNL     1     111.730 108.903 105.105  1.00  0.00     0.000 C 
ENDROOT
BRANCH   1   2
ATOM      2  C   UNL     1     111.914 110.420 105.288  1.00  0.00    -0.000 C 
BRANCH   2   3
ATOM      3  C   UNL     1     111.139 111.241 104.244  1.00  0.00    -0.000 C 
BRANCH   3   4
ATOM      4  C   UNL     1     109.985 112.046 104.867  1.00  0.00    -0.000 C 
BRANCH   4   5
ATOM      5  C   UNL     1     108.620 111.690 104.255  1.00  0.00    -0.000 C 
BRANCH   5   6
ATOM      6  C   UNL     1     107.570 111.336 105.318  1.00  0.00    -0.003 C 
ATOM      7  C   UNL     1     108.128 111.523 106.726  1.00  0.00     0.004 C 
ENDBRANCH   5   6
ENDBRANCH   4   5
ENDBRANCH   3   4
ENDBRANCH   2   3
ENDBRANCH   1   2
BRANCH   1   8
ATOM      8  C   UNL     1     110.408 108.396 105.701  1.00  0.00     0.000 C 
BRANCH   8   9
ATOM      9  C   UNL     1     109.385 108.007 104.619  1.00  0.00     0.000 C 
BRANCH   9  10
ATOM     10  C   UNL     1     108.032 107.567 105.207  1.00  0.00     0.002 C 
BRANCH  10  11
ATOM     11  C   UNL     1     107.865 107.832 106.716  1.00  0.00     0.028 C 
BRANCH  11  12
ATOM     12  C   UNL     1     107.132 106.711 107.466  1.00  0.00     0.156 C 
BRANCH  12  13
ATOM     13  O   UNL     1     106.811 105.652 106.605  1.00  0.00    -0.396 OA
ATOM     14  H   UNL     1     107.651 105.146 106.453  1.00  0.00     0.210 HD
ENDBRANCH  12  13
ENDBRANCH  11  12
ENDBRANCH  10  11
ENDBRANCH   9  10
ENDBRANCH   8   9
ENDBRANCH   1   8
TORSDOF 11
ENDMDL
MODEL 7
REMARK VINA RESULT:    -2.665      3.536      5.211
REMARK INTER + INTRA:          -5.673
REMARK INTER:                  -4.492
REMARK INTRA:                  -1.181
REMARK UNBOUND:                -1.372
REMARK SMILES CCCCCCCCCCCCO
REMARK SMILES IDX 7 1 6 2 5 3 4 4 3 5 2 6 1 7 8 8 9 9 10 10 11 11 12 12 13 13
REMARK H PARENT 13 14
REMARK Flexibility Score: inf
ROOT
ATOM      1  C   UNL     1     108.533 111.603 105.706  1.00  0.00     0.000 C 
ENDROOT
BRANCH   1   2
ATOM      2  C   UNL     1     108.041 110.149 105.586  1.00  0.00    -0.000 C 
BRANCH   2   3
ATOM      3  C   UNL     1     108.058 109.635 104.137  1.00  0.00    -0.000 C 
BRANCH   3   4
ATOM      4  C   UNL     1     108.895 108.354 103.976  1.00  0.00    -0.000 C 
BRANCH   4   5
ATOM      5  C   UNL     1     110.174 108.374 104.829  1.00  0.00    -0.000 C 
BRANCH   5   6
ATOM      6  C   UNL     1     111.448 108.510 103.983  1.00  0.00    -0.003 C 
ATOM      7  C   UNL     1     112.684 108.646 104.868  1.00  0.00     0.004 C 
ENDBRANCH   5   6
ENDBRANCH   4   5
ENDBRANCH   3   4
ENDBRANCH   2   3
ENDBRANCH   1   2
BRANCH   1   8
ATOM      8  C   UNL     1     108.799 112.247 104.336  1.00  0.00     0.000 C 
BRANCH   8   9
ATOM      9  C   UNL     1     110.294 112.528 104.099  1.00  0.00     0.000 C 
BRANCH   9  10
ATOM     10  C   UNL     1     111.185 112.037 105.254  1.00  0.00     0.002 C 
BRANCH  10  11
ATOM     11  C   UNL     1     112.551 112.740 105.364  1.00  0.00     0.028 C 
BRANCH  11  12
ATOM     12  C   UNL     1     112.888 113.226 106.780  1.00  0.00     0.156 C 
BRANCH  12  13
ATOM     13  O   UNL     1     113.370 114.543 106.762  1.00  0.00    -0.396 OA
ATOM     14  H   UNL     1     112.846 115.027 106.072  1.00  0.00     0.210 HD
ENDBRANCH  12  13
ENDBRANCH  11  12
ENDBRANCH  10  11
ENDBRANCH   9  10
ENDBRANCH   8   9
ENDBRANCH   1   8
TORSDOF 11
ENDMDL
MODEL 8
REMARK VINA RESULT:    -2.640      2.464      4.137
REMARK INTER + INTRA:          -5.632
REMARK INTER:                  -4.264
REMARK INTRA:                  -1.368
REMARK UNBOUND:                -1.372
REMARK SMILES CCCCCCCCCCCCO
REMARK SMILES IDX 7 1 6 2 5 3 4 4 3 5 2 6 1 7 8 8 9 9 10 10 11 11 12 12 13 13
REMARK H PARENT 13 14
REMARK Flexibility Score: inf
ROOT
ATOM      1  C   UNL     1     112.086 110.079 106.596  1.00  0.00     0.000 C 
ENDROOT
BRANCH   1   2
ATOM      2  C   UNL     1     112.140 109.108 105.403  1.00  0.00    -0.000 C 
BRANCH   2   3
ATOM      3  C   UNL     1     110.951 108.133 105.379  1.00  0.00    -0.000 C 
BRANCH   3   4
ATOM      4  C   UNL     1     110.103 108.270 104.102  1.00  0.00    -0.000 C 
BRANCH   4   5
ATOM      5  C   UNL     1     108.594 108.291 104.395  1.00  0.00    -0.000 C 
BRANCH   5   6
ATOM      6  C   UNL     1     108.278 108.101 105.885  1.00  0.00    -0.003 C 
ATOM      7  C   UNL     1     107.483 106.819 106.119  1.00  0.00     0.004 C 
ENDBRANCH   5   6
ENDBRANCH   4   5
ENDBRANCH   3   4
ENDBRANCH   2   3
ENDBRANCH   1   2
BRANCH   1   8
ATOM      8  C   UNL     1     110.931 111.087 106.480  1.00  0.00     0.000 C 
BRANCH   8   9
ATOM      9  C   UNL     1     110.931 111.831 105.133  1.00  0.00     0.000 C 
BRANCH   9  10
ATOM     10  C   UNL     1     109.512 112.121 104.612  1.00  0.00     0.002 C 
BRANCH  10  11
ATOM     11  C   UNL     1     108.380 111.820 105.612  1.00  0.00     0.028 C 
BRANCH  11  12
ATOM     12  C   UNL     1     106.981 111.801 104.982  1.00  0.00     0.156 C 
BRANCH  12  13
ATOM     13  O   UNL     1     106.067 112.531 105.756  1.00  0.00    -0.396 OA
ATOM     14  H   UNL     1     105.189 112.080 105.658  1.00  0.00     0.210 HD
ENDBRANCH  12  13
ENDBRANCH  11  12
ENDBRANCH  10  11
ENDBRANCH   9  10
ENDBRANCH   8   9
ENDBRANCH   1   8
TORSDOF 11
ENDMDL
MODEL 9
REMARK VINA RESULT:    -2.616      2.873      4.333
REMARK INTER + INTRA:          -5.593
REMARK INTER:                  -4.182
REMARK INTRA:                  -1.411
REMARK UNBOUND:                -1.372
REMARK SMILES CCCCCCCCCCCCO
REMARK SMILES IDX 7 1 6 2 5 3 4 4 3 5 2 6 1 7 8 8 9 9 10 10 11 11 12 12 13 13
REMARK H PARENT 13 14
REMARK Flexibility Score: inf
ROOT
ATOM      1  C   UNL     1     110.520 109.352 106.513  1.00  0.00     0.000 C 
ENDROOT
BRANCH   1   2
ATOM      2  C   UNL     1     112.025 109.585 106.732  1.00  0.00    -0.000 C 
BRANCH   2   3
ATOM      3  C   UNL     1     112.312 110.791 107.641  1.00  0.00    -0.000 C 
BRANCH   3   4
ATOM      4  C   UNL     1     111.566 112.059 107.190  1.00  0.00    -0.000 C 
BRANCH   4   5
ATOM      5  C   UNL     1     112.434 112.973 106.309  1.00  0.00    -0.000 C 
BRANCH   5   6
ATOM      6  C   UNL     1     111.904 113.089 104.873  1.00  0.00    -0.003 C 
ATOM      7  C   UNL     1     112.597 112.091 103.949  1.00  0.00     0.004 C 
ENDBRANCH   5   6
ENDBRANCH   4   5
ENDBRANCH   3   4
ENDBRANCH   2   3
ENDBRANCH   1   2
BRANCH   1   8
ATOM      8  C   UNL     1     110.154 109.237 105.025  1.00  0.00     0.000 C 
BRANCH   8   9
ATOM      9  C   UNL     1     109.259 110.395 104.547  1.00  0.00     0.000 C 
BRANCH   9  10
ATOM     10  C   UNL     1     108.097 110.688 105.513  1.00  0.00     0.002 C 
BRANCH  10  11
ATOM     11  C   UNL     1     108.128 112.085 106.160  1.00  0.00     0.028 C 
BRANCH  11  12
ATOM     12  C   UNL     1     106.738 112.691 106.400  1.00  0.00     0.156 C 
BRANCH  12  13
ATOM     13  O   UNL     1     105.862 112.379 105.350  1.00  0.00    -0.396 OA
ATOM     14  H   UNL     1     106.166 112.901 104.562  1.00  0.00     0.210 HD
ENDBRANCH  12  13
ENDBRANCH  11  12
ENDBRANCH  10  11
ENDBRANCH   9  10
ENDBRANCH   8   9
ENDBRANCH   1   8
TORSDOF 11
ENDMDL
