MODEL 1
REMARK VINA RESULT:    -1.296      0.000      0.000
REMARK INTER + INTRA:          -1.296
REMARK INTER:                  -1.296
REMARK INTRA:                   0.000
REMARK UNBOUND:                 0.000
REMARK SMILES CC1=CC[C@]2(C)CCCC(C)(C)[C@]23C[C@H]13
REMARK SMILES IDX 1 1 2 2 3 3 4 4 5 5 7 6 8 7 9 8 10 9 13 10 15 11 14 12 11 13
REMARK SMILES IDX 12 14 6 15
REMARK H PARENT
REMARK Flexibility Score: inf
ROOT
ATOM      1  C   UNL     1       2.437   9.588  13.459  1.00  0.00     0.039 C 
ATOM      2  C   UNL     1       3.599   8.994  12.712  1.00  0.00    -0.074 C 
ATOM      3  C   UNL     1       4.131   9.675  11.675  1.00  0.00    -0.027 C 
ATOM      4  C   UNL     1       5.290   9.133  10.876  1.00  0.00     0.034 C 
ATOM      5  C   UNL     1       6.259   8.314  11.779  1.00  0.00    -0.022 C 
ATOM      6  C   UNL     1       7.324   7.636  10.885  1.00  0.00     0.008 C 
ATOM      7  C   UNL     1       8.248   6.678  11.660  1.00  0.00     0.001 C 
ATOM      8  C   UNL     1       7.468   5.589  12.413  1.00  0.00     0.007 C 
ATOM      9  C   UNL     1       6.365   6.122  13.374  1.00  0.00    -0.029 C 
ATOM     10  C   UNL     1       5.493   7.186  12.582  1.00  0.00    -0.012 C 
ATOM     11  C   UNL     1       4.139   7.641  13.150  1.00  0.00     0.022 C 
ATOM     12  C   UNL     1       4.161   6.634  12.002  1.00  0.00     0.017 C 
ATOM     13  C   UNL     1       5.577   4.875  13.872  1.00  0.00     0.012 C 
ATOM     14  C   UNL     1       6.998   6.758  14.637  1.00  0.00     0.012 C 
ATOM     15  C   UNL     1       6.935   9.342  12.739  1.00  0.00     0.012 C 
ENDROOT
TORSDOF 0
ENDMDL
MODEL 2
REMARK VINA RESULT:    -0.926      3.932      6.329
REMARK INTER + INTRA:          -0.926
REMARK INTER:                  -0.926
REMARK INTRA:                   0.000
REMARK UNBOUND:                 0.000
REMARK SMILES CC1=CC[C@]2(C)CCCC(C)(C)[C@]23C[C@H]13
REMARK SMILES IDX 1 1 2 2 3 3 4 4 5 5 7 6 8 7 9 8 10 9 13 10 15 11 14 12 11 13
REMARK SMILES IDX 12 14 6 15
REMARK H PARENT
REMARK Flexibility Score: inf
ROOT
ATOM      1  C   UNL     1       2.867  16.425  11.584  1.00  0.00     0.039 C 
ATOM      2  C   UNL     1       3.072  14.939  11.497  1.00  0.00    -0.074 C 
ATOM      3  C   UNL     1       4.234  14.463  11.001  1.00  0.00    -0.027 C 
ATOM      4  C   UNL     1       4.502  12.983  10.876  1.00  0.00     0.034 C 
ATOM      5  C   UNL     1       3.832  12.193  12.038  1.00  0.00    -0.022 C 
ATOM      6  C   UNL     1       3.984  10.677  11.765  1.00  0.00     0.008 C 
ATOM      7  C   UNL     1       3.227   9.798  12.778  1.00  0.00     0.001 C 
ATOM      8  C   UNL     1       1.731  10.140  12.851  1.00  0.00     0.007 C 
ATOM      9  C   UNL     1       1.417  11.637  13.140  1.00  0.00    -0.029 C 
ATOM     10  C   UNL     1       2.290  12.524  12.154  1.00  0.00    -0.012 C 
ATOM     11  C   UNL     1       1.961  14.014  11.972  1.00  0.00     0.022 C 
ATOM     12  C   UNL     1       1.538  13.024  10.889  1.00  0.00     0.017 C 
ATOM     13  C   UNL     1      -0.123  11.803  12.975  1.00  0.00     0.012 C 
ATOM     14  C   UNL     1       1.726  11.987  14.618  1.00  0.00     0.012 C 
ATOM     15  C   UNL     1       4.603  12.588  13.336  1.00  0.00     0.012 C 
ENDROOT
TORSDOF 0
ENDMDL
MODEL 3
REMARK VINA RESULT:    -0.758      2.691      6.254
REMARK INTER + INTRA:          -0.758
REMARK INTER:                  -0.758
REMARK INTRA:                   0.000
REMARK UNBOUND:                 0.000
REMARK SMILES CC1=CC[C@]2(C)CCCC(C)(C)[C@]23C[C@H]13
REMARK SMILES IDX 1 1 2 2 3 3 4 4 5 5 7 6 8 7 9 8 10 9 13 10 15 11 14 12 11 13
REMARK SMILES IDX 12 14 6 15
REMARK H PARENT
REMARK Flexibility Score: inf
ROOT
ATOM      1  C   UNL     1       6.224   8.904  12.407  1.00  0.00     0.039 C 
ATOM      2  C   UNL     1       4.947   9.556  11.956  1.00  0.00    -0.074 C 
ATOM      3  C   UNL     1       3.994   8.801  11.371  1.00  0.00    -0.027 C 
ATOM      4  C   UNL     1       2.693   9.393  10.885  1.00  0.00     0.034 C 
ATOM      5  C   UNL     1       2.229  10.558  11.808  1.00  0.00    -0.022 C 
ATOM      6  C   UNL     1       0.997  11.242  11.169  1.00  0.00     0.008 C 
ATOM      7  C   UNL     1       0.543  12.506  11.924  1.00  0.00     0.001 C 
ATOM      8  C   UNL     1       1.668  13.543  12.063  1.00  0.00     0.007 C 
ATOM      9  C   UNL     1       2.976  13.004  12.711  1.00  0.00    -0.029 C 
ATOM     10  C   UNL     1       3.364  11.647  11.985  1.00  0.00    -0.012 C 
ATOM     11  C   UNL     1       4.769  11.051  12.174  1.00  0.00     0.022 C 
ATOM     12  C   UNL     1       4.443  11.786  10.876  1.00  0.00     0.017 C 
ATOM     13  C   UNL     1       4.034  14.140  12.575  1.00  0.00     0.012 C 
ATOM     14  C   UNL     1       2.785  12.782  14.232  1.00  0.00     0.012 C 
ATOM     15  C   UNL     1       1.840   9.907  13.171  1.00  0.00     0.012 C 
ENDROOT
TORSDOF 0
ENDMDL
MODEL 4
REMARK VINA RESULT:    -0.554      1.284      4.232
REMARK INTER + INTRA:          -0.554
REMARK INTER:                  -0.554
REMARK INTRA:                   0.000
REMARK UNBOUND:                 0.000
REMARK SMILES CC1=CC[C@]2(C)CCCC(C)(C)[C@]23C[C@H]13
REMARK SMILES IDX 1 1 2 2 3 3 4 4 5 5 7 6 8 7 9 8 10 9 13 10 15 11 14 12 11 13
REMARK SMILES IDX 12 14 6 15
REMARK H PARENT
REMARK Flexibility Score: inf
ROOT
ATOM      1  C   UNL     1       9.534   8.625  13.686  1.00  0.00     0.039 C 
ATOM      2  C   UNL     1       8.480   7.707  13.133  1.00  0.00    -0.074 C 
ATOM      3  C   UNL     1       8.774   6.402  12.949  1.00  0.00    -0.027 C 
ATOM      4  C   UNL     1       7.767   5.428  12.387  1.00  0.00     0.034 C 
ATOM      5  C   UNL     1       6.324   5.788  12.848  1.00  0.00    -0.022 C 
ATOM      6  C   UNL     1       5.319   4.875  12.105  1.00  0.00     0.008 C 
ATOM      7  C   UNL     1       3.848   5.244  12.373  1.00  0.00     0.001 C 
ATOM      8  C   UNL     1       3.537   6.708  12.025  1.00  0.00     0.007 C 
ATOM      9  C   UNL     1       4.459   7.754  12.717  1.00  0.00    -0.029 C 
ATOM     10  C   UNL     1       5.965   7.293  12.516  1.00  0.00    -0.012 C 
ATOM     11  C   UNL     1       7.111   8.279  12.796  1.00  0.00     0.022 C 
ATOM     12  C   UNL     1       6.712   7.997  11.349  1.00  0.00     0.017 C 
ATOM     13  C   UNL     1       4.110   9.134  12.084  1.00  0.00     0.012 C 
ATOM     14  C   UNL     1       4.116   7.878  14.223  1.00  0.00     0.012 C 
ATOM     15  C   UNL     1       6.273   5.511  14.383  1.00  0.00     0.012 C 
ENDROOT
TORSDOF 0
ENDMDL
MODEL 5
REMARK VINA RESULT:     0.526      1.070      2.985
REMARK INTER + INTRA:           0.526
REMARK INTER:                   0.526
REMARK INTRA:                   0.000
REMARK UNBOUND:                 0.000
REMARK SMILES CC1=CC[C@]2(C)CCCC(C)(C)[C@]23C[C@H]13
REMARK SMILES IDX 1 1 2 2 3 3 4 4 5 5 7 6 8 7 9 8 10 9 13 10 15 11 14 12 11 13
REMARK SMILES IDX 12 14 6 15
REMARK H PARENT
REMARK Flexibility Score: inf
ROOT
ATOM      1  C   UNL     1       4.377  10.721  10.875  1.00  0.00     0.039 C 
ATOM      2  C   UNL     1       4.592   9.519  11.752  1.00  0.00    -0.074 C 
ATOM      3  C   UNL     1       3.520   8.874  12.259  1.00  0.00    -0.027 C 
ATOM      4  C   UNL     1       3.664   7.668  13.154  1.00  0.00     0.034 C 
ATOM      5  C   UNL     1       4.899   6.811  12.746  1.00  0.00    -0.022 C 
ATOM      6  C   UNL     1       5.105   5.696  13.798  1.00  0.00     0.008 C 
ATOM      7  C   UNL     1       6.390   4.877  13.573  1.00  0.00     0.001 C 
ATOM      8  C   UNL     1       7.649   5.758  13.533  1.00  0.00     0.007 C 
ATOM      9  C   UNL     1       7.599   6.922  12.501  1.00  0.00    -0.029 C 
ATOM     10  C   UNL     1       6.218   7.684  12.683  1.00  0.00    -0.012 C 
ATOM     11  C   UNL     1       6.016   9.066  12.042  1.00  0.00     0.022 C 
ATOM     12  C   UNL     1       6.295   8.978  13.540  1.00  0.00     0.017 C 
ATOM     13  C   UNL     1       8.863   7.794  12.761  1.00  0.00     0.012 C 
ATOM     14  C   UNL     1       7.745   6.382  11.056  1.00  0.00     0.012 C 
ATOM     15  C   UNL     1       4.558   6.188  11.356  1.00  0.00     0.012 C 
ENDROOT
TORSDOF 0
ENDMDL
MODEL 6
REMARK VINA RESULT:     1.181      3.485      6.822
REMARK INTER + INTRA:           1.181
REMARK INTER:                   1.181
REMARK INTRA:                   0.000
REMARK UNBOUND:                 0.000
REMARK SMILES CC1=CC[C@]2(C)CCCC(C)(C)[C@]23C[C@H]13
REMARK SMILES IDX 1 1 2 2 3 3 4 4 5 5 7 6 8 7 9 8 10 9 13 10 15 11 14 12 11 13
REMARK SMILES IDX 12 14 6 15
REMARK H PARENT
REMARK Flexibility Score: inf
ROOT
ATOM      1  C   UNL     1       3.422   8.434  13.756  1.00  0.00     0.039 C 
ATOM      2  C   UNL     1       2.596   9.430  12.990  1.00  0.00    -0.074 C 
ATOM      3  C   UNL     1       1.268   9.223  12.862  1.00  0.00    -0.027 C 
ATOM      4  C   UNL     1       0.382  10.176  12.098  1.00  0.00     0.034 C 
ATOM      5  C   UNL     1       0.876  11.645  12.251  1.00  0.00    -0.022 C 
ATOM      6  C   UNL     1       0.048  12.552  11.310  1.00  0.00     0.008 C 
ATOM      7  C   UNL     1       0.550  14.007  11.270  1.00  0.00     0.001 C 
ATOM      8  C   UNL     1       2.032  14.106  10.875  1.00  0.00     0.007 C 
ATOM      9  C   UNL     1       2.999  13.256  11.750  1.00  0.00    -0.029 C 
ATOM     10  C   UNL     1       2.402  11.789  11.863  1.00  0.00    -0.012 C 
ATOM     11  C   UNL     1       3.285  10.642  12.380  1.00  0.00     0.022 C 
ATOM     12  C   UNL     1       3.022  10.756  10.880  1.00  0.00     0.017 C 
ATOM     13  C   UNL     1       4.397  13.340  11.067  1.00  0.00     0.012 C 
ATOM     14  C   UNL     1       3.173  13.891  13.152  1.00  0.00     0.012 C 
ATOM     15  C   UNL     1       0.623  12.037  13.741  1.00  0.00     0.012 C 
ENDROOT
TORSDOF 0
ENDMDL
MODEL 7
REMARK VINA RESULT:     1.432      2.429      6.096
REMARK INTER + INTRA:           1.432
REMARK INTER:                   1.432
REMARK INTRA:                   0.000
REMARK UNBOUND:                 0.000
REMARK SMILES CC1=CC[C@]2(C)CCCC(C)(C)[C@]23C[C@H]13
REMARK SMILES IDX 1 1 2 2 3 3 4 4 5 5 7 6 8 7 9 8 10 9 13 10 15 11 14 12 11 13
REMARK SMILES IDX 12 14 6 15
REMARK H PARENT
REMARK Flexibility Score: inf
ROOT
ATOM      1  C   UNL     1       5.596   8.074  13.161  1.00  0.00     0.039 C 
ATOM      2  C   UNL     1       4.345   8.843  12.838  1.00  0.00    -0.074 C 
ATOM      3  C   UNL     1       3.145   8.306  13.145  1.00  0.00    -0.027 C 
ATOM      4  C   UNL     1       1.850   9.018  12.840  1.00  0.00     0.034 C 
ATOM      5  C   UNL     1       2.012  10.560  12.984  1.00  0.00    -0.022 C 
ATOM      6  C   UNL     1       0.717  11.248  12.489  1.00  0.00     0.008 C 
ATOM      7  C   UNL     1       0.822  12.784  12.447  1.00  0.00     0.001 C 
ATOM      8  C   UNL     1       1.999  13.269  11.587  1.00  0.00     0.007 C 
ATOM      9  C   UNL     1       3.383  12.675  11.980  1.00  0.00    -0.029 C 
ATOM     10  C   UNL     1       3.222  11.102  12.120  1.00  0.00    -0.012 C 
ATOM     11  C   UNL     1       4.471  10.206  12.174  1.00  0.00     0.022 C 
ATOM     12  C   UNL     1       3.671  10.287  10.875  1.00  0.00     0.017 C 
ATOM     13  C   UNL     1       4.386  13.131  10.878  1.00  0.00     0.012 C 
ATOM     14  C   UNL     1       3.894  13.298  13.303  1.00  0.00     0.012 C 
ATOM     15  C   UNL     1       2.224  10.838  14.505  1.00  0.00     0.012 C 
ENDROOT
TORSDOF 0
ENDMDL
MODEL 8
REMARK VINA RESULT:     1.467      3.733      6.202
REMARK INTER + INTRA:           1.467
REMARK INTER:                   1.467
REMARK INTRA:                   0.000
REMARK UNBOUND:                 0.000
REMARK SMILES CC1=CC[C@]2(C)CCCC(C)(C)[C@]23C[C@H]13
REMARK SMILES IDX 1 1 2 2 3 3 4 4 5 5 7 6 8 7 9 8 10 9 13 10 15 11 14 12 11 13
REMARK SMILES IDX 12 14 6 15
REMARK H PARENT
REMARK Flexibility Score: inf
ROOT
ATOM      1  C   UNL     1       4.200  15.374  10.916  1.00  0.00     0.039 C 
ATOM      2  C   UNL     1       3.844  14.300  11.906  1.00  0.00    -0.074 C 
ATOM      3  C   UNL     1       3.432  14.654  13.141  1.00  0.00    -0.027 C 
ATOM      4  C   UNL     1       3.069  13.627  14.186  1.00  0.00     0.034 C 
ATOM      5  C   UNL     1       2.414  12.373  13.535  1.00  0.00    -0.022 C 
ATOM      6  C   UNL     1       2.228  11.285  14.620  1.00  0.00     0.008 C 
ATOM      7  C   UNL     1       1.723   9.944  14.056  1.00  0.00     0.001 C 
ATOM      8  C   UNL     1       2.636   9.390  12.951  1.00  0.00     0.007 C 
ATOM      9  C   UNL     1       2.903  10.370  11.772  1.00  0.00    -0.029 C 
ATOM     10  C   UNL     1       3.319  11.775  12.384  1.00  0.00    -0.012 C 
ATOM     11  C   UNL     1       3.959  12.843  11.482  1.00  0.00     0.022 C 
ATOM     12  C   UNL     1       4.850  12.040  12.427  1.00  0.00     0.017 C 
ATOM     13  C   UNL     1       3.992   9.700  10.882  1.00  0.00     0.012 C 
ATOM     14  C   UNL     1       1.647  10.508  10.877  1.00  0.00     0.012 C 
ATOM     15  C   UNL     1       1.027  12.837  12.992  1.00  0.00     0.012 C 
ENDROOT
TORSDOF 0
ENDMDL
MODEL 9
REMARK VINA RESULT:     1.700      1.463      3.733
REMARK INTER + INTRA:           1.700
REMARK INTER:                   1.700
REMARK INTRA:                   0.000
REMARK UNBOUND:                 0.000
REMARK SMILES CC1=CC[C@]2(C)CCCC(C)(C)[C@]23C[C@H]13
REMARK SMILES IDX 1 1 2 2 3 3 4 4 5 5 7 6 8 7 9 8 10 9 13 10 15 11 14 12 11 13
REMARK SMILES IDX 12 14 6 15
REMARK H PARENT
REMARK Flexibility Score: inf
ROOT
ATOM      1  C   UNL     1      10.420   8.255  14.254  1.00  0.00     0.039 C 
ATOM      2  C   UNL     1       8.989   8.337  13.800  1.00  0.00    -0.074 C 
ATOM      3  C   UNL     1       8.572   9.436  13.137  1.00  0.00    -0.027 C 
ATOM      4  C   UNL     1       7.148   9.589  12.663  1.00  0.00     0.034 C 
ATOM      5  C   UNL     1       6.548   8.215  12.239  1.00  0.00    -0.022 C 
ATOM      6  C   UNL     1       5.042   8.398  11.935  1.00  0.00     0.008 C 
ATOM      7  C   UNL     1       4.313   7.072  11.649  1.00  0.00     0.001 C 
ATOM      8  C   UNL     1       4.467   6.058  12.793  1.00  0.00     0.007 C 
ATOM      9  C   UNL     1       5.938   5.754  13.202  1.00  0.00    -0.029 C 
ATOM     10  C   UNL     1       6.694   7.137  13.388  1.00  0.00    -0.012 C 
ATOM     11  C   UNL     1       8.055   7.176  14.104  1.00  0.00     0.022 C 
ATOM     12  C   UNL     1       6.806   7.627  14.859  1.00  0.00     0.017 C 
ATOM     13  C   UNL     1       5.863   4.875  14.487  1.00  0.00     0.012 C 
ATOM     14  C   UNL     1       6.637   4.881  12.130  1.00  0.00     0.012 C 
ATOM     15  C   UNL     1       7.312   7.785  10.948  1.00  0.00     0.012 C 
ENDROOT
TORSDOF 0
ENDMDL
