MODEL 1
REMARK VINA RESULT:    -5.578      0.000      0.000
REMARK INTER + INTRA:          -5.741
REMARK INTER:                  -5.741
REMARK INTRA:                   0.000
REMARK UNBOUND:                 0.000
REMARK SMILES O=c1ccc2ccc(O)cc2o1
REMARK SMILES IDX 6 1 7 2 8 3 10 4 11 5 5 6 4 7 3 8 2 9 1 10 12 11 9 12
REMARK H PARENT 9 13
REMARK Flexibility Score: inf
ROOT
ATOM      1  C   UNL     1      21.496  -0.497 -22.545  1.00  0.00     0.016 A 
ATOM      2  C   UNL     1      21.884   0.716 -23.125  1.00  0.00     0.047 A 
ATOM      3  C   UNL     1      21.872   1.896 -22.372  1.00  0.00     0.119 A 
ATOM      4  C   UNL     1      21.471   1.865 -21.029  1.00  0.00     0.094 A 
ATOM      5  C   UNL     1      21.082   0.656 -20.439  1.00  0.00     0.142 A 
ATOM      6  C   UNL     1      21.093  -0.532 -21.202  1.00  0.00     0.018 A 
ATOM      7  C   UNL     1      20.699  -1.724 -20.587  1.00  0.00     0.019 A 
ATOM      8  C   UNL     1      20.308  -1.705 -19.248  1.00  0.00     0.094 A 
ATOM      9  C   UNL     1      20.321  -0.491 -18.555  1.00  0.00     0.336 A 
ATOM     10  O   UNL     1      19.972  -0.453 -17.345  1.00  0.00    -0.246 OA
ATOM     11  O   UNL     1      20.701   0.630 -19.164  1.00  0.00    -0.423 OA
ENDROOT
BRANCH   3  12
ATOM     12  O   UNL     1      22.262   3.093 -22.967  1.00  0.00    -0.508 OA
ATOM     13  H   UNL     1      21.816   3.436 -23.810  1.00  0.00     0.293 HD
ENDBRANCH   3  12
TORSDOF 1
ENDMDL
MODEL 2
REMARK VINA RESULT:    -5.325      1.014      4.227
REMARK INTER + INTRA:          -5.481
REMARK INTER:                  -5.481
REMARK INTRA:                   0.000
REMARK UNBOUND:                 0.000
REMARK SMILES O=c1ccc2ccc(O)cc2o1
REMARK SMILES IDX 6 1 7 2 8 3 10 4 11 5 5 6 4 7 3 8 2 9 1 10 12 11 9 12
REMARK H PARENT 9 13
REMARK Flexibility Score: inf
ROOT
ATOM      1  C   UNL     1      20.127  -1.875 -20.258  1.00  0.00     0.016 A 
ATOM      2  C   UNL     1      19.817  -1.625 -18.917  1.00  0.00     0.047 A 
ATOM      3  C   UNL     1      20.094  -0.377 -18.348  1.00  0.00     0.119 A 
ATOM      4  C   UNL     1      20.686   0.630 -19.124  1.00  0.00     0.094 A 
ATOM      5  C   UNL     1      21.000   0.390 -20.467  1.00  0.00     0.142 A 
ATOM      6  C   UNL     1      20.719  -0.872 -21.037  1.00  0.00     0.018 A 
ATOM      7  C   UNL     1      21.044  -1.083 -22.381  1.00  0.00     0.019 A 
ATOM      8  C   UNL     1      21.632  -0.051 -23.113  1.00  0.00     0.094 A 
ATOM      9  C   UNL     1      21.881   1.172 -22.481  1.00  0.00     0.336 A 
ATOM     10  O   UNL     1      22.410   2.116 -23.125  1.00  0.00    -0.246 OA
ATOM     11  O   UNL     1      21.562   1.347 -21.201  1.00  0.00    -0.423 OA
ENDROOT
BRANCH   3  12
ATOM     12  O   UNL     1      19.777  -0.147 -17.011  1.00  0.00    -0.508 OA
ATOM     13  H   UNL     1      19.022  -0.643 -16.552  1.00  0.00     0.293 HD
ENDBRANCH   3  12
TORSDOF 1
ENDMDL
MODEL 3
REMARK VINA RESULT:    -5.030     16.654     19.404
REMARK INTER + INTRA:          -5.177
REMARK INTER:                  -5.177
REMARK INTRA:                   0.000
REMARK UNBOUND:                 0.000
REMARK SMILES O=c1ccc2ccc(O)cc2o1
REMARK SMILES IDX 6 1 7 2 8 3 10 4 11 5 5 6 4 7 3 8 2 9 1 10 12 11 9 12
REMARK H PARENT 9 13
REMARK Flexibility Score: inf
ROOT
ATOM      1  C   UNL     1       8.183  -7.983  -6.599  1.00  0.00     0.016 A 
ATOM      2  C   UNL     1       7.623  -7.093  -5.675  1.00  0.00     0.047 A 
ATOM      3  C   UNL     1       8.109  -5.785  -5.568  1.00  0.00     0.119 A 
ATOM      4  C   UNL     1       9.164  -5.361  -6.390  1.00  0.00     0.094 A 
ATOM      5  C   UNL     1       9.730  -6.243  -7.318  1.00  0.00     0.142 A 
ATOM      6  C   UNL     1       9.237  -7.563  -7.422  1.00  0.00     0.018 A 
ATOM      7  C   UNL     1       9.823  -8.422  -8.357  1.00  0.00     0.019 A 
ATOM      8  C   UNL     1      10.869  -7.954  -9.153  1.00  0.00     0.094 A 
ATOM      9  C   UNL     1      11.306  -6.635  -8.994  1.00  0.00     0.336 A 
ATOM     10  O   UNL     1      12.249  -6.195  -9.703  1.00  0.00    -0.246 OA
ATOM     11  O   UNL     1      10.731  -5.838  -8.096  1.00  0.00    -0.423 OA
ENDROOT
BRANCH   3  12
ATOM     12  O   UNL     1       7.539  -4.915  -4.643  1.00  0.00    -0.508 OA
ATOM     13  H   UNL     1       6.606  -5.067  -4.276  1.00  0.00     0.293 HD
ENDBRANCH   3  12
TORSDOF 1
ENDMDL
MODEL 4
REMARK VINA RESULT:    -4.876     17.066     18.752
REMARK INTER + INTRA:          -5.018
REMARK INTER:                  -5.018
REMARK INTRA:                   0.000
REMARK UNBOUND:                 0.000
REMARK SMILES O=c1ccc2ccc(O)cc2o1
REMARK SMILES IDX 6 1 7 2 8 3 10 4 11 5 5 6 4 7 3 8 2 9 1 10 12 11 9 12
REMARK H PARENT 9 13
REMARK Flexibility Score: inf
ROOT
ATOM      1  C   UNL     1       7.715  -6.862  -7.350  1.00  0.00     0.016 A 
ATOM      2  C   UNL     1       8.378  -6.071  -6.405  1.00  0.00     0.047 A 
ATOM      3  C   UNL     1       9.680  -5.621  -6.647  1.00  0.00     0.119 A 
ATOM      4  C   UNL     1      10.328  -5.963  -7.844  1.00  0.00     0.094 A 
ATOM      5  C   UNL     1       9.673  -6.753  -8.796  1.00  0.00     0.142 A 
ATOM      6  C   UNL     1       8.359  -7.206  -8.547  1.00  0.00     0.018 A 
ATOM      7  C   UNL     1       7.730  -7.994  -9.516  1.00  0.00     0.019 A 
ATOM      8  C   UNL     1       8.414  -8.307 -10.691  1.00  0.00     0.094 A 
ATOM      9  C   UNL     1       9.714  -7.824 -10.869  1.00  0.00     0.336 A 
ATOM     10  O   UNL     1      10.348  -8.096 -11.923  1.00  0.00    -0.246 OA
ATOM     11  O   UNL     1      10.290  -7.075  -9.930  1.00  0.00    -0.423 OA
ENDROOT
BRANCH   3  12
ATOM     12  O   UNL     1      10.324  -4.835  -5.694  1.00  0.00    -0.508 OA
ATOM     13  H   UNL     1      11.193  -4.358  -5.900  1.00  0.00     0.293 HD
ENDBRANCH   3  12
TORSDOF 1
ENDMDL
MODEL 5
REMARK VINA RESULT:    -4.810     15.759     18.488
REMARK INTER + INTRA:          -4.951
REMARK INTER:                  -4.951
REMARK INTRA:                   0.000
REMARK UNBOUND:                 0.000
REMARK SMILES O=c1ccc2ccc(O)cc2o1
REMARK SMILES IDX 6 1 7 2 8 3 10 4 11 5 5 6 4 7 3 8 2 9 1 10 12 11 9 12
REMARK H PARENT 9 13
REMARK Flexibility Score: inf
ROOT
ATOM      1  C   UNL     1      12.789   4.359  -3.349  1.00  0.00     0.016 A 
ATOM      2  C   UNL     1      11.634   3.727  -2.876  1.00  0.00     0.047 A 
ATOM      3  C   UNL     1      10.991   2.755  -3.652  1.00  0.00     0.119 A 
ATOM      4  C   UNL     1      11.506   2.412  -4.911  1.00  0.00     0.094 A 
ATOM      5  C   UNL     1      12.662   3.038  -5.392  1.00  0.00     0.142 A 
ATOM      6  C   UNL     1      13.307   4.019  -4.606  1.00  0.00     0.018 A 
ATOM      7  C   UNL     1      14.458   4.628  -5.113  1.00  0.00     0.019 A 
ATOM      8  C   UNL     1      14.934   4.253  -6.370  1.00  0.00     0.094 A 
ATOM      9  C   UNL     1      14.242   3.275  -7.093  1.00  0.00     0.336 A 
ATOM     10  O   UNL     1      14.655   2.923  -8.229  1.00  0.00    -0.246 OA
ATOM     11  O   UNL     1      13.148   2.711  -6.587  1.00  0.00    -0.423 OA
ENDROOT
BRANCH   3  12
ATOM     12  O   UNL     1       9.842   2.137  -3.164  1.00  0.00    -0.508 OA
ATOM     13  H   UNL     1       9.761   1.127  -3.124  1.00  0.00     0.293 HD
ENDBRANCH   3  12
TORSDOF 1
ENDMDL
MODEL 6
REMARK VINA RESULT:    -4.776     18.656     20.417
REMARK INTER + INTRA:          -4.916
REMARK INTER:                  -4.916
REMARK INTRA:                   0.000
REMARK UNBOUND:                 0.000
REMARK SMILES O=c1ccc2ccc(O)cc2o1
REMARK SMILES IDX 6 1 7 2 8 3 10 4 11 5 5 6 4 7 3 8 2 9 1 10 12 11 9 12
REMARK H PARENT 9 13
REMARK Flexibility Score: inf
ROOT
ATOM      1  C   UNL     1       4.942   3.798  -7.254  1.00  0.00     0.016 A 
ATOM      2  C   UNL     1       5.999   2.882  -7.205  1.00  0.00     0.047 A 
ATOM      3  C   UNL     1       7.028   2.938  -8.152  1.00  0.00     0.119 A 
ATOM      4  C   UNL     1       7.003   3.917  -9.156  1.00  0.00     0.094 A 
ATOM      5  C   UNL     1       5.951   4.838  -9.213  1.00  0.00     0.142 A 
ATOM      6  C   UNL     1       4.913   4.778  -8.256  1.00  0.00     0.018 A 
ATOM      7  C   UNL     1       3.875   5.711  -8.339  1.00  0.00     0.019 A 
ATOM      8  C   UNL     1       3.894   6.666  -9.355  1.00  0.00     0.094 A 
ATOM      9  C   UNL     1       4.953   6.665 -10.267  1.00  0.00     0.336 A 
ATOM     10  O   UNL     1       4.988   7.520 -11.191  1.00  0.00    -0.246 OA
ATOM     11  O   UNL     1       5.930   5.766 -10.166  1.00  0.00    -0.423 OA
ENDROOT
BRANCH   3  12
ATOM     12  O   UNL     1       8.072   2.017  -8.086  1.00  0.00    -0.508 OA
ATOM     13  H   UNL     1       8.261   1.490  -7.242  1.00  0.00     0.293 HD
ENDBRANCH   3  12
TORSDOF 1
ENDMDL
MODEL 7
REMARK VINA RESULT:    -4.746      1.879      4.985
REMARK INTER + INTRA:          -4.885
REMARK INTER:                  -4.885
REMARK INTRA:                   0.000
REMARK UNBOUND:                 0.000
REMARK SMILES O=c1ccc2ccc(O)cc2o1
REMARK SMILES IDX 6 1 7 2 8 3 10 4 11 5 5 6 4 7 3 8 2 9 1 10 12 11 9 12
REMARK H PARENT 9 13
REMARK Flexibility Score: inf
ROOT
ATOM      1  C   UNL     1      19.850  -0.130 -18.178  1.00  0.00     0.016 A 
ATOM      2  C   UNL     1      19.211  -1.284 -17.711  1.00  0.00     0.047 A 
ATOM      3  C   UNL     1      19.151  -2.432 -18.510  1.00  0.00     0.119 A 
ATOM      4  C   UNL     1      19.735  -2.428 -19.785  1.00  0.00     0.094 A 
ATOM      5  C   UNL     1      20.377  -1.278 -20.261  1.00  0.00     0.142 A 
ATOM      6  C   UNL     1      20.434  -0.122 -19.452  1.00  0.00     0.018 A 
ATOM      7  C   UNL     1      21.081   1.012 -19.954  1.00  0.00     0.019 A 
ATOM      8  C   UNL     1      21.647   0.968 -21.228  1.00  0.00     0.094 A 
ATOM      9  C   UNL     1      21.551  -0.212 -21.973  1.00  0.00     0.336 A 
ATOM     10  O   UNL     1      22.056  -0.272 -23.125  1.00  0.00    -0.246 OA
ATOM     11  O   UNL     1      20.929  -1.277 -21.471  1.00  0.00    -0.423 OA
ENDROOT
BRANCH   3  12
ATOM     12  O   UNL     1      18.511  -3.571 -18.028  1.00  0.00    -0.508 OA
ATOM     13  H   UNL     1      17.783  -4.034 -18.559  1.00  0.00     0.293 HD
ENDBRANCH   3  12
TORSDOF 1
ENDMDL
MODEL 8
REMARK VINA RESULT:    -4.690     15.485     18.169
REMARK INTER + INTRA:          -4.827
REMARK INTER:                  -4.827
REMARK INTRA:                   0.000
REMARK UNBOUND:                 0.000
REMARK SMILES O=c1ccc2ccc(O)cc2o1
REMARK SMILES IDX 6 1 7 2 8 3 10 4 11 5 5 6 4 7 3 8 2 9 1 10 12 11 9 12
REMARK H PARENT 9 13
REMARK Flexibility Score: inf
ROOT
ATOM      1  C   UNL     1       8.904  -6.225  -6.979  1.00  0.00     0.016 A 
ATOM      2  C   UNL     1       7.598  -5.722  -6.997  1.00  0.00     0.047 A 
ATOM      3  C   UNL     1       7.098  -5.094  -8.143  1.00  0.00     0.119 A 
ATOM      4  C   UNL     1       7.908  -4.967  -9.282  1.00  0.00     0.094 A 
ATOM      5  C   UNL     1       9.214  -5.468  -9.274  1.00  0.00     0.142 A 
ATOM      6  C   UNL     1       9.716  -6.100  -8.115  1.00  0.00     0.018 A 
ATOM      7  C   UNL     1      11.025  -6.590  -8.136  1.00  0.00     0.019 A 
ATOM      8  C   UNL     1      11.793  -6.441  -9.292  1.00  0.00     0.094 A 
ATOM      9  C   UNL     1      11.230  -5.803 -10.402  1.00  0.00     0.336 A 
ATOM     10  O   UNL     1      11.906  -5.660 -11.455  1.00  0.00    -0.246 OA
ATOM     11  O   UNL     1       9.980  -5.346 -10.355  1.00  0.00    -0.423 OA
ENDROOT
BRANCH   3  12
ATOM     12  O   UNL     1       5.796  -4.599  -8.142  1.00  0.00    -0.508 OA
ATOM     13  H   UNL     1       5.030  -5.125  -7.737  1.00  0.00     0.293 HD
ENDBRANCH   3  12
TORSDOF 1
ENDMDL
MODEL 9
REMARK VINA RESULT:    -4.633     16.974     18.742
REMARK INTER + INTRA:          -4.769
REMARK INTER:                  -4.769
REMARK INTRA:                   0.000
REMARK UNBOUND:                 0.000
REMARK SMILES O=c1ccc2ccc(O)cc2o1
REMARK SMILES IDX 6 1 7 2 8 3 10 4 11 5 5 6 4 7 3 8 2 9 1 10 12 11 9 12
REMARK H PARENT 9 13
REMARK Flexibility Score: inf
ROOT
ATOM      1  C   UNL     1       8.029  -4.897 -10.541  1.00  0.00     0.016 A 
ATOM      2  C   UNL     1       8.121  -5.482 -11.809  1.00  0.00     0.047 A 
ATOM      3  C   UNL     1       8.142  -6.875 -11.946  1.00  0.00     0.119 A 
ATOM      4  C   UNL     1       8.070  -7.691 -10.808  1.00  0.00     0.094 A 
ATOM      5  C   UNL     1       7.976  -7.116  -9.535  1.00  0.00     0.142 A 
ATOM      6  C   UNL     1       7.957  -5.710  -9.401  1.00  0.00     0.018 A 
ATOM      7  C   UNL     1       7.864  -5.164  -8.117  1.00  0.00     0.019 A 
ATOM      8  C   UNL     1       7.793  -6.016  -7.015  1.00  0.00     0.094 A 
ATOM      9  C   UNL     1       7.819  -7.399  -7.224  1.00  0.00     0.336 A 
ATOM     10  O   UNL     1       7.756  -8.184  -6.242  1.00  0.00    -0.246 OA
ATOM     11  O   UNL     1       7.908  -7.893  -8.457  1.00  0.00    -0.423 OA
ENDROOT
BRANCH   3  12
ATOM     12  O   UNL     1       8.234  -7.438 -13.217  1.00  0.00    -0.508 OA
ATOM     13  H   UNL     1       9.131  -7.625 -13.649  1.00  0.00     0.293 HD
ENDBRANCH   3  12
TORSDOF 1
ENDMDL
