MODEL 1
REMARK VINA RESULT:     1.177      0.000      0.000
REMARK INTER + INTRA:           1.717
REMARK INTER:                   1.418
REMARK INTRA:                   0.299
REMARK UNBOUND:                 0.299
REMARK SMILES Oc1cc(O)c2c(c1)O[C@H](c1ccc(O)c(O)c1)[C@@H](O)C2
REMARK SMILES IDX 21 1 19 2 10 3 9 4 7 5 8 6 2 7 3 8 4 9 6 10 20 11 11 13
REMARK SMILES IDX 18 14 12 15 16 16 13 17 14 18 17 19 15 21 5 23 1 25
REMARK H PARENT 20 12 17 20 15 22 5 24 1 26
REMARK Flexibility Score: inf
ROOT
ATOM      1  C   UNL     1      -9.703  35.047 -11.946  1.00  0.00     0.079 C 
ATOM      2  C   UNL     1      -8.291  35.650 -11.817  1.00  0.00     0.164 C 
ATOM      3  C   UNL     1      -7.261  34.741 -12.520  1.00  0.00     0.232 C 
ATOM      4  O   UNL     1      -7.335  33.416 -11.988  1.00  0.00    -0.482 OA
ATOM      5  C   UNL     1      -8.544  32.827 -11.602  1.00  0.00     0.131 A 
ATOM      6  C   UNL     1      -8.564  31.474 -11.251  1.00  0.00     0.093 A 
ATOM      7  C   UNL     1      -9.763  30.863 -10.864  1.00  0.00     0.122 A 
ATOM      8  C   UNL     1     -10.944  31.610 -10.828  1.00  0.00     0.092 A 
ATOM      9  C   UNL     1     -10.936  32.970 -11.173  1.00  0.00     0.126 A 
ATOM     10  C   UNL     1      -9.729  33.591 -11.543  1.00  0.00     0.039 A 
ENDROOT
BRANCH   2  11
ATOM     11  O   UNL     1      -8.263  36.956 -12.337  1.00  0.00    -0.389 OA
ATOM     12  H   UNL     1      -7.981  36.897 -13.287  1.00  0.00     0.211 HD
ENDBRANCH   2  11
BRANCH   3  13
ATOM     13  C   UNL     1      -5.859  35.279 -12.355  1.00  0.00    -0.001 A 
ATOM     14  C   UNL     1      -4.807  34.416 -12.008  1.00  0.00     0.057 A 
ATOM     15  C   UNL     1      -5.583  36.636 -12.594  1.00  0.00     0.012 A 
ATOM     16  C   UNL     1      -3.500  34.902 -11.881  1.00  0.00     0.157 A 
ATOM     17  C   UNL     1      -4.280  37.124 -12.467  1.00  0.00     0.050 A 
ATOM     18  C   UNL     1      -3.234  36.263 -12.109  1.00  0.00     0.157 A 
BRANCH  16  19
ATOM     19  O   UNL     1      -2.480  34.018 -11.529  1.00  0.00    -0.504 OA
ATOM     20  H   UNL     1      -1.930  34.138 -10.687  1.00  0.00     0.293 HD
ENDBRANCH  16  19
BRANCH  18  21
ATOM     21  O   UNL     1      -1.936  36.752 -11.983  1.00  0.00    -0.504 OA
ATOM     22  H   UNL     1      -1.497  36.869 -11.077  1.00  0.00     0.293 HD
ENDBRANCH  18  21
ENDBRANCH   3  13
BRANCH   9  23
ATOM     23  O   UNL     1     -12.122  33.702 -11.147  1.00  0.00    -0.507 OA
ATOM     24  H   UNL     1     -12.127  34.703 -10.989  1.00  0.00     0.293 HD
ENDBRANCH   9  23
BRANCH   7  25
ATOM     25  O   UNL     1      -9.792  29.514 -10.515  1.00  0.00    -0.508 OA
ATOM     26  H   UNL     1     -10.398  29.171  -9.780  1.00  0.00     0.293 HD
ENDBRANCH   7  25
TORSDOF 6
ENDMDL
MODEL 2
REMARK VINA RESULT:     2.266      6.262      7.874
REMARK INTER + INTRA:           3.029
REMARK INTER:                   2.615
REMARK INTRA:                   0.414
REMARK UNBOUND:                 0.299
REMARK SMILES Oc1cc(O)c2c(c1)O[C@H](c1ccc(O)c(O)c1)[C@@H](O)C2
REMARK SMILES IDX 21 1 19 2 10 3 9 4 7 5 8 6 2 7 3 8 4 9 6 10 20 11 11 13
REMARK SMILES IDX 18 14 12 15 16 16 13 17 14 18 17 19 15 21 5 23 1 25
REMARK H PARENT 20 12 17 20 15 22 5 24 1 26
REMARK Flexibility Score: inf
ROOT
ATOM      1  C   UNL     1      -8.011  36.500  -5.279  1.00  0.00     0.079 C 
ATOM      2  C   UNL     1      -8.450  36.470  -6.755  1.00  0.00     0.164 C 
ATOM      3  C   UNL     1      -9.841  37.123  -6.907  1.00  0.00     0.232 C 
ATOM      4  O   UNL     1     -10.782  36.473  -6.050  1.00  0.00    -0.482 OA
ATOM      5  C   UNL     1     -10.438  35.998  -4.779  1.00  0.00     0.131 A 
ATOM      6  C   UNL     1     -11.444  35.529  -3.929  1.00  0.00     0.093 A 
ATOM      7  C   UNL     1     -11.123  35.051  -2.653  1.00  0.00     0.122 A 
ATOM      8  C   UNL     1      -9.792  35.044  -2.227  1.00  0.00     0.092 A 
ATOM      9  C   UNL     1      -8.773  35.507  -3.073  1.00  0.00     0.126 A 
ATOM     10  C   UNL     1      -9.090  35.969  -4.363  1.00  0.00     0.039 A 
ENDROOT
BRANCH   2  11
ATOM     11  O   UNL     1      -7.493  37.104  -7.567  1.00  0.00    -0.389 OA
ATOM     12  H   UNL     1      -7.563  36.711  -8.477  1.00  0.00     0.211 HD
ENDBRANCH   2  11
BRANCH   3  13
ATOM     13  C   UNL     1     -10.321  37.050  -8.337  1.00  0.00    -0.001 A 
ATOM     14  C   UNL     1      -9.400  37.097  -9.396  1.00  0.00     0.057 A 
ATOM     15  C   UNL     1     -11.687  36.885  -8.624  1.00  0.00     0.012 A 
ATOM     16  C   UNL     1      -9.835  37.002 -10.724  1.00  0.00     0.157 A 
ATOM     17  C   UNL     1     -12.125  36.791  -9.948  1.00  0.00     0.050 A 
ATOM     18  C   UNL     1     -11.204  36.850 -11.002  1.00  0.00     0.157 A 
BRANCH  16  19
ATOM     19  O   UNL     1      -8.893  37.058 -11.751  1.00  0.00    -0.504 OA
ATOM     20  H   UNL     1      -9.075  36.674 -12.670  1.00  0.00     0.293 HD
ENDBRANCH  16  19
BRANCH  18  21
ATOM     21  O   UNL     1     -11.643  36.756 -12.321  1.00  0.00    -0.504 OA
ATOM     22  H   UNL     1     -12.433  36.175 -12.578  1.00  0.00     0.293 HD
ENDBRANCH  18  21
ENDBRANCH   3  13
BRANCH   9  23
ATOM     23  O   UNL     1      -7.449  35.509  -2.632  1.00  0.00    -0.507 OA
ATOM     24  H   UNL     1      -6.783  34.812  -2.947  1.00  0.00     0.293 HD
ENDBRANCH   9  23
BRANCH   7  25
ATOM     25  O   UNL     1     -12.120  34.584  -1.799  1.00  0.00    -0.508 OA
ATOM     26  H   UNL     1     -12.297  35.021  -0.902  1.00  0.00     0.293 HD
ENDBRANCH   7  25
TORSDOF 6
ENDMDL
