MODEL 1
REMARK VINA RESULT:    -3.149      0.000      0.000
REMARK INTER + INTRA:          -3.954
REMARK INTER:                  -3.701
REMARK INTRA:                  -0.253
REMARK UNBOUND:                -0.253
REMARK SMILES [NH3+][C@H](CO)C(=O)[O-]
REMARK SMILES IDX 3 1 2 2 1 3 5 7 6 8 7 9 4 10
REMARK H PARENT 1 4 1 5 1 6 4 11
REMARK Flexibility Score: inf
ROOT
ATOM      1  C   UNL     1      66.527  -2.648   4.394  1.00  0.00     0.227 C 
ENDROOT
BRANCH   1   2
ATOM      2  C   UNL     1      65.131  -2.995   3.843  1.00  0.00     0.253 C 
BRANCH   2   3
ATOM      3  N   UNL     1      64.653  -4.281   4.364  1.00  0.00    -0.348 N 
ATOM      4  H   UNL     1      64.775  -5.025   3.638  1.00  0.00     0.345 HD
ATOM      5  H   UNL     1      65.176  -4.556   5.227  1.00  0.00     0.345 HD
ATOM      6  H   UNL     1      63.635  -4.211   4.592  1.00  0.00     0.345 HD
ENDBRANCH   2   3
BRANCH   2   7
ATOM      7  C   UNL     1      64.149  -1.895   4.147  1.00  0.00     0.102 C 
ATOM      8  O   UNL     1      63.330  -1.519   3.267  1.00  0.00    -0.544 OA
ATOM      9  O   UNL     1      64.164  -1.258   5.383  1.00  0.00    -0.544 OA
ENDBRANCH   2   7
ENDBRANCH   1   2
BRANCH   1  10
ATOM     10  O   UNL     1      66.827  -1.290   4.206  1.00  0.00    -0.390 OA
ATOM     11  H   UNL     1      66.134  -0.923   3.595  1.00  0.00     0.210 HD
ENDBRANCH   1  10
TORSDOF 4
ENDMDL
MODEL 2
REMARK VINA RESULT:    -3.134     13.345     14.160
REMARK INTER + INTRA:          -3.937
REMARK INTER:                  -3.704
REMARK INTRA:                  -0.233
REMARK UNBOUND:                -0.253
REMARK SMILES [NH3+][C@H](CO)C(=O)[O-]
REMARK SMILES IDX 3 1 2 2 1 3 5 7 6 8 7 9 4 10
REMARK H PARENT 1 4 1 5 1 6 4 11
REMARK Flexibility Score: inf
ROOT
ATOM      1  C   UNL     1      59.093   9.434  -2.812  1.00  0.00     0.227 C 
ENDROOT
BRANCH   1   2
ATOM      2  C   UNL     1      60.631   9.499  -2.784  1.00  0.00     0.253 C 
BRANCH   2   3
ATOM      3  N   UNL     1      61.115  10.870  -2.981  1.00  0.00    -0.348 N 
ATOM      4  H   UNL     1      61.777  10.899  -3.790  1.00  0.00     0.345 HD
ATOM      5  H   UNL     1      60.322  11.527  -3.165  1.00  0.00     0.345 HD
ATOM      6  H   UNL     1      61.628  11.188  -2.127  1.00  0.00     0.345 HD
ENDBRANCH   2   3
BRANCH   2   7
ATOM      7  C   UNL     1      61.167   8.921  -1.500  1.00  0.00     0.102 C 
ATOM      8  O   UNL     1      61.688   9.675  -0.637  1.00  0.00    -0.544 OA
ATOM      9  O   UNL     1      61.128   7.549  -1.276  1.00  0.00    -0.544 OA
ENDBRANCH   2   7
ENDBRANCH   1   2
BRANCH   1  10
ATOM     10  O   UNL     1      58.632   8.129  -2.579  1.00  0.00    -0.390 OA
ATOM     11  H   UNL     1      57.720   8.071  -2.968  1.00  0.00     0.210 HD
ENDBRANCH   1  10
TORSDOF 4
ENDMDL
MODEL 3
REMARK VINA RESULT:    -3.126      1.420      1.959
REMARK INTER + INTRA:          -3.927
REMARK INTER:                  -3.703
REMARK INTRA:                  -0.224
REMARK UNBOUND:                -0.253
REMARK SMILES [NH3+][C@H](CO)C(=O)[O-]
REMARK SMILES IDX 3 1 2 2 1 3 5 7 6 8 7 9 4 10
REMARK H PARENT 1 4 1 5 1 6 4 11
REMARK Flexibility Score: inf
ROOT
ATOM      1  C   UNL     1      65.493  -3.485   2.371  1.00  0.00     0.227 C 
ENDROOT
BRANCH   1   2
ATOM      2  C   UNL     1      64.876  -3.402   3.780  1.00  0.00     0.253 C 
BRANCH   2   3
ATOM      3  N   UNL     1      65.866  -3.711   4.819  1.00  0.00    -0.348 N 
ATOM      4  H   UNL     1      65.379  -4.022   5.691  1.00  0.00     0.345 HD
ATOM      5  H   UNL     1      66.519  -4.464   4.505  1.00  0.00     0.345 HD
ATOM      6  H   UNL     1      66.421  -2.852   5.042  1.00  0.00     0.345 HD
ENDBRANCH   2   3
BRANCH   2   7
ATOM      7  C   UNL     1      64.260  -2.047   4.013  1.00  0.00     0.102 C 
ATOM      8  O   UNL     1      63.373  -1.614   3.230  1.00  0.00    -0.544 OA
ATOM      9  O   UNL     1      64.692  -1.249   5.066  1.00  0.00    -0.544 OA
ENDBRANCH   2   7
ENDBRANCH   1   2
BRANCH   1  10
ATOM     10  O   UNL     1      64.500  -3.509   1.380  1.00  0.00    -0.390 OA
ATOM     11  H   UNL     1      63.649  -3.243   1.817  1.00  0.00     0.210 HD
ENDBRANCH   1  10
TORSDOF 4
ENDMDL
MODEL 4
REMARK VINA RESULT:    -3.067      1.481      2.886
REMARK INTER + INTRA:          -3.858
REMARK INTER:                  -3.652
REMARK INTRA:                  -0.206
REMARK UNBOUND:                -0.253
REMARK SMILES [NH3+][C@H](CO)C(=O)[O-]
REMARK SMILES IDX 3 1 2 2 1 3 5 7 6 8 7 9 4 10
REMARK H PARENT 1 4 1 5 1 6 4 11
REMARK Flexibility Score: inf
ROOT
ATOM      1  C   UNL     1      64.134  -1.998   4.433  1.00  0.00     0.227 C 
ENDROOT
BRANCH   1   2
ATOM      2  C   UNL     1      65.110  -3.172   4.228  1.00  0.00     0.253 C 
BRANCH   2   3
ATOM      3  N   UNL     1      64.489  -4.454   4.582  1.00  0.00    -0.348 N 
ATOM      4  H   UNL     1      65.144  -5.012   5.177  1.00  0.00     0.345 HD
ATOM      5  H   UNL     1      63.593  -4.309   5.101  1.00  0.00     0.345 HD
ATOM      6  H   UNL     1      64.292  -5.001   3.712  1.00  0.00     0.345 HD
ENDBRANCH   2   3
BRANCH   2   7
ATOM      7  C   UNL     1      65.623  -3.197   2.812  1.00  0.00     0.102 C 
ATOM      8  O   UNL     1      66.824  -2.905   2.571  1.00  0.00    -0.544 OA
ATOM      9  O   UNL     1      64.769  -3.503   1.759  1.00  0.00    -0.544 OA
ENDBRANCH   2   7
ENDBRANCH   1   2
BRANCH   1  10
ATOM     10  O   UNL     1      63.366  -1.764   3.282  1.00  0.00    -0.390 OA
ATOM     11  H   UNL     1      63.986  -1.816   2.507  1.00  0.00     0.210 HD
ENDBRANCH   1  10
TORSDOF 4
ENDMDL
MODEL 5
REMARK VINA RESULT:    -3.057      1.915      2.150
REMARK INTER + INTRA:          -3.846
REMARK INTER:                  -3.610
REMARK INTRA:                  -0.236
REMARK UNBOUND:                -0.253
REMARK SMILES [NH3+][C@H](CO)C(=O)[O-]
REMARK SMILES IDX 3 1 2 2 1 3 5 7 6 8 7 9 4 10
REMARK H PARENT 1 4 1 5 1 6 4 11
REMARK Flexibility Score: inf
ROOT
ATOM      1  C   UNL     1      65.557  -3.742   3.908  1.00  0.00     0.227 C 
ENDROOT
BRANCH   1   2
ATOM      2  C   UNL     1      65.744  -2.389   4.619  1.00  0.00     0.253 C 
BRANCH   2   3
ATOM      3  N   UNL     1      66.819  -1.602   4.002  1.00  0.00    -0.348 N 
ATOM      4  H   UNL     1      66.415  -0.759   3.533  1.00  0.00     0.345 HD
ATOM      5  H   UNL     1      67.519  -1.295   4.715  1.00  0.00     0.345 HD
ATOM      6  H   UNL     1      67.304  -2.179   3.276  1.00  0.00     0.345 HD
ENDBRANCH   2   3
BRANCH   2   7
ATOM      7  C   UNL     1      64.454  -1.613   4.638  1.00  0.00     0.102 C 
ATOM      8  O   UNL     1      63.665  -1.676   3.659  1.00  0.00    -0.544 OA
ATOM      9  O   UNL     1      64.143  -0.790   5.715  1.00  0.00    -0.544 OA
ENDBRANCH   2   7
ENDBRANCH   1   2
BRANCH   1  10
ATOM     10  O   UNL     1      64.461  -4.447   4.431  1.00  0.00    -0.390 OA
ATOM     11  H   UNL     1      63.698  -4.291   3.815  1.00  0.00     0.210 HD
ENDBRANCH   1  10
TORSDOF 4
ENDMDL
MODEL 6
REMARK VINA RESULT:    -3.023      1.191      2.407
REMARK INTER + INTRA:          -3.806
REMARK INTER:                  -3.572
REMARK INTRA:                  -0.235
REMARK UNBOUND:                -0.253
REMARK SMILES [NH3+][C@H](CO)C(=O)[O-]
REMARK SMILES IDX 3 1 2 2 1 3 5 7 6 8 7 9 4 10
REMARK H PARENT 1 4 1 5 1 6 4 11
REMARK Flexibility Score: inf
ROOT
ATOM      1  C   UNL     1      64.524  -2.745   3.246  1.00  0.00     0.227 C 
ENDROOT
BRANCH   1   2
ATOM      2  C   UNL     1      65.058  -2.952   4.676  1.00  0.00     0.253 C 
BRANCH   2   3
ATOM      3  N   UNL     1      66.249  -3.810   4.685  1.00  0.00    -0.348 N 
ATOM      4  H   UNL     1      66.473  -4.115   3.709  1.00  0.00     0.345 HD
ATOM      5  H   UNL     1      67.073  -3.306   5.084  1.00  0.00     0.345 HD
ATOM      6  H   UNL     1      66.062  -4.664   5.259  1.00  0.00     0.345 HD
ENDBRANCH   2   3
BRANCH   2   7
ATOM      7  C   UNL     1      65.345  -1.629   5.335  1.00  0.00     0.102 C 
ATOM      8  O   UNL     1      66.535  -1.269   5.537  1.00  0.00    -0.544 OA
ATOM      9  O   UNL     1      64.302  -0.815   5.763  1.00  0.00    -0.544 OA
ENDBRANCH   2   7
ENDBRANCH   1   2
BRANCH   1  10
ATOM     10  O   UNL     1      63.422  -1.876   3.234  1.00  0.00    -0.390 OA
ATOM     11  H   UNL     1      63.781  -0.957   3.119  1.00  0.00     0.210 HD
ENDBRANCH   1  10
TORSDOF 4
ENDMDL
MODEL 7
REMARK VINA RESULT:    -3.022      1.938      2.327
REMARK INTER + INTRA:          -3.806
REMARK INTER:                  -3.557
REMARK INTRA:                  -0.248
REMARK UNBOUND:                -0.253
REMARK SMILES [NH3+][C@H](CO)C(=O)[O-]
REMARK SMILES IDX 3 1 2 2 1 3 5 7 6 8 7 9 4 10
REMARK H PARENT 1 4 1 5 1 6 4 11
REMARK Flexibility Score: inf
ROOT
ATOM      1  C   UNL     1      65.888  -1.861   5.167  1.00  0.00     0.227 C 
ENDROOT
BRANCH   1   2
ATOM      2  C   UNL     1      64.704  -2.445   4.374  1.00  0.00     0.253 C 
BRANCH   2   3
ATOM      3  N   UNL     1      63.767  -1.394   3.957  1.00  0.00    -0.348 N 
ATOM      4  H   UNL     1      62.877  -1.478   4.500  1.00  0.00     0.345 HD
ATOM      5  H   UNL     1      64.174  -0.444   4.111  1.00  0.00     0.345 HD
ATOM      6  H   UNL     1      63.543  -1.507   2.941  1.00  0.00     0.345 HD
ENDBRANCH   2   3
BRANCH   2   7
ATOM      7  C   UNL     1      65.192  -3.231   3.186  1.00  0.00     0.102 C 
ATOM      8  O   UNL     1      64.543  -3.212   2.106  1.00  0.00    -0.544 OA
ATOM      9  O   UNL     1      66.335  -4.016   3.283  1.00  0.00    -0.544 OA
ENDBRANCH   2   7
ENDBRANCH   1   2
BRANCH   1  10
ATOM     10  O   UNL     1      66.851  -1.304   4.310  1.00  0.00    -0.390 OA
ATOM     11  H   UNL     1      66.358  -0.891   3.553  1.00  0.00     0.210 HD
ENDBRANCH   1  10
TORSDOF 4
ENDMDL
MODEL 8
REMARK VINA RESULT:    -3.007     13.257     13.846
REMARK INTER + INTRA:          -3.788
REMARK INTER:                  -3.539
REMARK INTRA:                  -0.249
REMARK UNBOUND:                -0.253
REMARK SMILES [NH3+][C@H](CO)C(=O)[O-]
REMARK SMILES IDX 3 1 2 2 1 3 5 7 6 8 7 9 4 10
REMARK H PARENT 1 4 1 5 1 6 4 11
REMARK Flexibility Score: inf
ROOT
ATOM      1  C   UNL     1      62.249  10.771  -1.996  1.00  0.00     0.227 C 
ENDROOT
BRANCH   1   2
ATOM      2  C   UNL     1      61.632   9.682  -2.893  1.00  0.00     0.253 C 
BRANCH   2   3
ATOM      3  N   UNL     1      62.658   8.766  -3.407  1.00  0.00    -0.348 N 
ATOM      4  H   UNL     1      63.370   8.579  -2.665  1.00  0.00     0.345 HD
ATOM      5  H   UNL     1      62.235   7.860  -3.712  1.00  0.00     0.345 HD
ATOM      6  H   UNL     1      63.143   9.205  -4.223  1.00  0.00     0.345 HD
ENDBRANCH   2   3
BRANCH   2   7
ATOM      7  C   UNL     1      60.561   8.925  -2.153  1.00  0.00     0.102 C 
ATOM      8  O   UNL     1      59.372   9.339  -2.166  1.00  0.00    -0.544 OA
ATOM      9  O   UNL     1      60.881   7.789  -1.417  1.00  0.00    -0.544 OA
ENDBRANCH   2   7
ENDBRANCH   1   2
BRANCH   1  10
ATOM     10  O   UNL     1      62.395  10.323  -0.674  1.00  0.00    -0.390 OA
ATOM     11  H   UNL     1      61.652   9.686  -0.502  1.00  0.00     0.210 HD
ENDBRANCH   1  10
TORSDOF 4
ENDMDL
MODEL 9
REMARK VINA RESULT:    -2.974     13.816     14.553
REMARK INTER + INTRA:          -3.748
REMARK INTER:                  -3.381
REMARK INTRA:                  -0.367
REMARK UNBOUND:                -0.253
REMARK SMILES [NH3+][C@H](CO)C(=O)[O-]
REMARK SMILES IDX 3 1 2 2 1 3 5 7 6 8 7 9 4 10
REMARK H PARENT 1 4 1 5 1 6 4 11
REMARK Flexibility Score: inf
ROOT
ATOM      1  C   UNL     1      61.172   8.891  -1.770  1.00  0.00     0.227 C 
ENDROOT
BRANCH   1   2
ATOM      2  C   UNL     1      61.695   9.610  -3.027  1.00  0.00     0.253 C 
BRANCH   2   3
ATOM      3  N   UNL     1      62.945   9.009  -3.509  1.00  0.00    -0.348 N 
ATOM      4  H   UNL     1      62.731   8.255  -4.202  1.00  0.00     0.345 HD
ATOM      5  H   UNL     1      63.558   9.725  -3.961  1.00  0.00     0.345 HD
ATOM      6  H   UNL     1      63.460   8.579  -2.706  1.00  0.00     0.345 HD
ENDBRANCH   2   3
BRANCH   2   7
ATOM      7  C   UNL     1      60.651   9.617  -4.113  1.00  0.00     0.102 C 
ATOM      8  O   UNL     1      60.732   8.805  -5.072  1.00  0.00    -0.544 OA
ATOM      9  O   UNL     1      59.615  10.544  -4.087  1.00  0.00    -0.544 OA
ENDBRANCH   2   7
ENDBRANCH   1   2
BRANCH   1  10
ATOM     10  O   UNL     1      59.933   8.277  -2.012  1.00  0.00    -0.390 OA
ATOM     11  H   UNL     1      60.115   7.313  -2.172  1.00  0.00     0.210 HD
ENDBRANCH   1  10
TORSDOF 4
ENDMDL
