MODEL 1
REMARK VINA RESULT:    -3.088      0.000      0.000
REMARK INTER + INTRA:          -4.034
REMARK INTER:                  -3.900
REMARK INTRA:                  -0.134
REMARK UNBOUND:                -0.134
REMARK SMILES CCCCCCO
REMARK SMILES IDX 4 1 3 2 2 3 1 4 5 5 6 6 7 7
REMARK H PARENT 7 8
REMARK Flexibility Score: inf
ROOT
ATOM      1  C   UNL     1     144.946 127.064 116.679  1.00  0.00     0.002 C 
ENDROOT
BRANCH   1   2
ATOM      2  C   UNL     1     146.013 126.928 115.577  1.00  0.00    -0.000 C 
BRANCH   2   3
ATOM      3  C   UNL     1     145.616 127.527 114.215  1.00  0.00    -0.003 C 
ATOM      4  C   UNL     1     145.372 129.034 114.273  1.00  0.00     0.004 C 
ENDBRANCH   2   3
ENDBRANCH   1   2
BRANCH   1   5
ATOM      5  C   UNL     1     145.510 127.627 117.990  1.00  0.00     0.028 C 
BRANCH   5   6
ATOM      6  C   UNL     1     145.408 129.154 118.022  1.00  0.00     0.156 C 
BRANCH   6   7
ATOM      7  O   UNL     1     146.187 129.670 119.067  1.00  0.00    -0.396 OA
ATOM      8  H   UNL     1     145.601 129.706 119.868  1.00  0.00     0.210 HD
ENDBRANCH   6   7
ENDBRANCH   5   6
ENDBRANCH   1   5
TORSDOF 5
ENDMDL
MODEL 2
REMARK VINA RESULT:    -3.076      2.565      3.254
REMARK INTER + INTRA:          -4.019
REMARK INTER:                  -3.973
REMARK INTRA:                  -0.046
REMARK UNBOUND:                -0.134
REMARK SMILES CCCCCCO
REMARK SMILES IDX 4 1 3 2 2 3 1 4 5 5 6 6 7 7
REMARK H PARENT 7 8
REMARK Flexibility Score: inf
ROOT
ATOM      1  C   UNL     1     146.083 129.871 115.904  1.00  0.00     0.002 C 
ENDROOT
BRANCH   1   2
ATOM      2  C   UNL     1     145.464 129.341 114.597  1.00  0.00    -0.000 C 
BRANCH   2   3
ATOM      3  C   UNL     1     144.992 127.877 114.653  1.00  0.00    -0.003 C 
ATOM      4  C   UNL     1     146.070 126.884 114.223  1.00  0.00     0.004 C 
ENDBRANCH   2   3
ENDBRANCH   1   2
BRANCH   1   5
ATOM      5  C   UNL     1     146.812 131.210 115.720  1.00  0.00     0.028 C 
BRANCH   5   6
ATOM      6  C   UNL     1     146.012 132.361 116.336  1.00  0.00     0.156 C 
BRANCH   6   7
ATOM      7  O   UNL     1     146.879 133.297 116.916  1.00  0.00    -0.396 OA
ATOM      8  H   UNL     1     146.984 133.036 117.869  1.00  0.00     0.210 HD
ENDBRANCH   6   7
ENDBRANCH   5   6
ENDBRANCH   1   5
TORSDOF 5
ENDMDL
MODEL 3
REMARK VINA RESULT:    -3.048      1.336      2.158
REMARK INTER + INTRA:          -3.984
REMARK INTER:                  -3.838
REMARK INTRA:                  -0.146
REMARK UNBOUND:                -0.134
REMARK SMILES CCCCCCO
REMARK SMILES IDX 4 1 3 2 2 3 1 4 5 5 6 6 7 7
REMARK H PARENT 7 8
REMARK Flexibility Score: inf
ROOT
ATOM      1  C   UNL     1     145.132 130.082 115.335  1.00  0.00     0.002 C 
ENDROOT
BRANCH   1   2
ATOM      2  C   UNL     1     145.416 129.030 114.246  1.00  0.00    -0.000 C 
BRANCH   2   3
ATOM      3  C   UNL     1     144.990 127.596 114.606  1.00  0.00    -0.003 C 
ATOM      4  C   UNL     1     143.519 127.490 115.004  1.00  0.00     0.004 C 
ENDBRANCH   2   3
ENDBRANCH   1   2
BRANCH   1   5
ATOM      5  C   UNL     1     146.059 129.947 116.552  1.00  0.00     0.028 C 
BRANCH   5   6
ATOM      6  C   UNL     1     145.255 129.722 117.834  1.00  0.00     0.156 C 
BRANCH   6   7
ATOM      7  O   UNL     1     146.076 129.888 118.957  1.00  0.00    -0.396 OA
ATOM      8  H   UNL     1     145.549 130.404 119.622  1.00  0.00     0.210 HD
ENDBRANCH   6   7
ENDBRANCH   5   6
ENDBRANCH   1   5
TORSDOF 5
ENDMDL
MODEL 4
REMARK VINA RESULT:    -2.829     17.935     18.330
REMARK INTER + INTRA:          -3.707
REMARK INTER:                  -3.536
REMARK INTRA:                  -0.170
REMARK UNBOUND:                -0.134
REMARK SMILES CCCCCCO
REMARK SMILES IDX 4 1 3 2 2 3 1 4 5 5 6 6 7 7
REMARK H PARENT 7 8
REMARK Flexibility Score: inf
ROOT
ATOM      1  C   UNL     1     128.702 133.048 114.646  1.00  0.00     0.002 C 
ENDROOT
BRANCH   1   2
ATOM      2  C   UNL     1     128.124 132.324 113.415  1.00  0.00    -0.000 C 
BRANCH   2   3
ATOM      3  C   UNL     1     127.676 130.874 113.671  1.00  0.00    -0.003 C 
ATOM      4  C   UNL     1     128.352 130.244 114.887  1.00  0.00     0.004 C 
ENDBRANCH   2   3
ENDBRANCH   1   2
BRANCH   1   5
ATOM      5  C   UNL     1     127.670 133.935 115.356  1.00  0.00     0.028 C 
BRANCH   5   6
ATOM      6  C   UNL     1     127.818 133.843 116.877  1.00  0.00     0.156 C 
BRANCH   6   7
ATOM      7  O   UNL     1     127.218 132.669 117.352  1.00  0.00    -0.396 OA
ATOM      8  H   UNL     1     126.560 132.387 116.663  1.00  0.00     0.210 HD
ENDBRANCH   6   7
ENDBRANCH   5   6
ENDBRANCH   1   5
TORSDOF 5
ENDMDL
MODEL 5
REMARK VINA RESULT:    -2.782     21.738     22.477
REMARK INTER + INTRA:          -3.647
REMARK INTER:                  -3.477
REMARK INTRA:                  -0.170
REMARK UNBOUND:                -0.134
REMARK SMILES CCCCCCO
REMARK SMILES IDX 4 1 3 2 2 3 1 4 5 5 6 6 7 7
REMARK H PARENT 7 8
REMARK Flexibility Score: inf
ROOT
ATOM      1  C   UNL     1     130.542 143.385 114.763  1.00  0.00     0.002 C 
ENDROOT
BRANCH   1   2
ATOM      2  C   UNL     1     129.369 143.607 113.789  1.00  0.00    -0.000 C 
BRANCH   2   3
ATOM      3  C   UNL     1     127.972 143.527 114.431  1.00  0.00    -0.003 C 
ATOM      4  C   UNL     1     127.768 142.263 115.264  1.00  0.00     0.004 C 
ENDBRANCH   2   3
ENDBRANCH   1   2
BRANCH   1   5
ATOM      5  C   UNL     1     131.132 144.698 115.296  1.00  0.00     0.028 C 
BRANCH   5   6
ATOM      6  C   UNL     1     131.202 144.689 116.825  1.00  0.00     0.156 C 
BRANCH   6   7
ATOM      7  O   UNL     1     129.918 144.829 117.370  1.00  0.00    -0.396 OA
ATOM      8  H   UNL     1     129.296 144.948 116.605  1.00  0.00     0.210 HD
ENDBRANCH   6   7
ENDBRANCH   5   6
ENDBRANCH   1   5
TORSDOF 5
ENDMDL
MODEL 6
REMARK VINA RESULT:    -2.738     17.575     17.858
REMARK INTER + INTRA:          -3.593
REMARK INTER:                  -3.444
REMARK INTRA:                  -0.149
REMARK UNBOUND:                -0.134
REMARK SMILES CCCCCCO
REMARK SMILES IDX 4 1 3 2 2 3 1 4 5 5 6 6 7 7
REMARK H PARENT 7 8
REMARK Flexibility Score: inf
ROOT
ATOM      1  C   UNL     1     128.897 131.023 115.856  1.00  0.00     0.002 C 
ENDROOT
BRANCH   1   2
ATOM      2  C   UNL     1     128.225 130.698 114.509  1.00  0.00    -0.000 C 
BRANCH   2   3
ATOM      3  C   UNL     1     128.113 131.888 113.539  1.00  0.00    -0.003 C 
ATOM      4  C   UNL     1     129.448 132.592 113.299  1.00  0.00     0.004 C 
ENDBRANCH   2   3
ENDBRANCH   1   2
BRANCH   1   5
ATOM      5  C   UNL     1     127.917 131.595 116.890  1.00  0.00     0.028 C 
BRANCH   5   6
ATOM      6  C   UNL     1     128.136 133.097 117.084  1.00  0.00     0.156 C 
BRANCH   6   7
ATOM      7  O   UNL     1     126.908 133.772 117.074  1.00  0.00    -0.396 OA
ATOM      8  H   UNL     1     126.964 134.476 117.773  1.00  0.00     0.210 HD
ENDBRANCH   6   7
ENDBRANCH   5   6
ENDBRANCH   1   5
TORSDOF 5
ENDMDL
MODEL 7
REMARK VINA RESULT:    -2.735     21.131     21.929
REMARK INTER + INTRA:          -3.588
REMARK INTER:                  -3.502
REMARK INTRA:                  -0.086
REMARK UNBOUND:                -0.134
REMARK SMILES CCCCCCO
REMARK SMILES IDX 4 1 3 2 2 3 1 4 5 5 6 6 7 7
REMARK H PARENT 7 8
REMARK Flexibility Score: inf
ROOT
ATOM      1  C   UNL     1     130.339 143.934 114.916  1.00  0.00     0.002 C 
ENDROOT
BRANCH   1   2
ATOM      2  C   UNL     1     130.044 143.445 113.486  1.00  0.00    -0.000 C 
BRANCH   2   3
ATOM      3  C   UNL     1     130.900 142.253 113.021  1.00  0.00    -0.003 C 
ATOM      4  C   UNL     1     130.385 140.910 113.533  1.00  0.00     0.004 C 
ENDBRANCH   2   3
ENDBRANCH   1   2
BRANCH   1   5
ATOM      5  C   UNL     1     129.221 143.585 115.909  1.00  0.00     0.028 C 
BRANCH   5   6
ATOM      6  C   UNL     1     129.617 143.962 117.338  1.00  0.00     0.156 C 
BRANCH   6   7
ATOM      7  O   UNL     1     128.680 144.850 117.883  1.00  0.00    -0.396 OA
ATOM      8  H   UNL     1     128.659 145.644 117.286  1.00  0.00     0.210 HD
ENDBRANCH   6   7
ENDBRANCH   5   6
ENDBRANCH   1   5
TORSDOF 5
ENDMDL
MODEL 8
REMARK VINA RESULT:    -2.730      2.730      3.337
REMARK INTER + INTRA:          -3.582
REMARK INTER:                  -3.463
REMARK INTRA:                  -0.118
REMARK UNBOUND:                -0.134
REMARK SMILES CCCCCCO
REMARK SMILES IDX 4 1 3 2 2 3 1 4 5 5 6 6 7 7
REMARK H PARENT 7 8
REMARK Flexibility Score: inf
ROOT
ATOM      1  C   UNL     1     144.935 127.604 114.679  1.00  0.00     0.002 C 
ENDROOT
BRANCH   1   2
ATOM      2  C   UNL     1     145.380 129.020 114.271  1.00  0.00    -0.000 C 
BRANCH   2   3
ATOM      3  C   UNL     1     146.045 129.838 115.394  1.00  0.00    -0.003 C 
ATOM      4  C   UNL     1     145.296 131.129 115.717  1.00  0.00     0.004 C 
ENDBRANCH   2   3
ENDBRANCH   1   2
BRANCH   1   5
ATOM      5  C   UNL     1     143.438 127.519 115.007  1.00  0.00     0.028 C 
BRANCH   5   6
ATOM      6  C   UNL     1     143.207 127.457 116.519  1.00  0.00     0.156 C 
BRANCH   6   7
ATOM      7  O   UNL     1     141.912 126.999 116.793  1.00  0.00    -0.396 OA
ATOM      8  H   UNL     1     141.673 127.342 117.694  1.00  0.00     0.210 HD
ENDBRANCH   6   7
ENDBRANCH   5   6
ENDBRANCH   1   5
TORSDOF 5
ENDMDL
MODEL 9
REMARK VINA RESULT:    -2.704      2.509      3.273
REMARK INTER + INTRA:          -3.549
REMARK INTER:                  -3.353
REMARK INTRA:                  -0.196
REMARK UNBOUND:                -0.134
REMARK SMILES CCCCCCO
REMARK SMILES IDX 4 1 3 2 2 3 1 4 5 5 6 6 7 7
REMARK H PARENT 7 8
REMARK Flexibility Score: inf
ROOT
ATOM      1  C   UNL     1     143.647 129.500 114.785  1.00  0.00     0.002 C 
ENDROOT
BRANCH   1   2
ATOM      2  C   UNL     1     145.112 129.065 114.594  1.00  0.00    -0.000 C 
BRANCH   2   3
ATOM      3  C   UNL     1     145.315 127.556 114.370  1.00  0.00    -0.003 C 
ATOM      4  C   UNL     1     146.058 126.875 115.518  1.00  0.00     0.004 C 
ENDBRANCH   2   3
ENDBRANCH   1   2
BRANCH   1   5
ATOM      5  C   UNL     1     142.717 128.329 115.132  1.00  0.00     0.028 C 
BRANCH   5   6
ATOM      6  C   UNL     1     142.440 128.273 116.636  1.00  0.00     0.156 C 
BRANCH   6   7
ATOM      7  O   UNL     1     142.750 127.002 117.139  1.00  0.00    -0.396 OA
ATOM      8  H   UNL     1     141.899 126.611 117.471  1.00  0.00     0.210 HD
ENDBRANCH   6   7
ENDBRANCH   5   6
ENDBRANCH   1   5
TORSDOF 5
ENDMDL
