MODEL 1
REMARK VINA RESULT:     7.064      0.000      0.000
REMARK INTER + INTRA:          12.316
REMARK INTER:                  13.259
REMARK INTRA:                  -0.943
REMARK UNBOUND:                -0.943
REMARK SMILES CCCCCCCCC=CCCCCCCCC(=O)[O-]
REMARK SMILES IDX 10 1 9 2 11 3 12 4 13 5 14 6 15 7 16 8 17 9 18 10 19 11
REMARK SMILES IDX 20 12 8 13 7 14 6 15 5 16 4 17 3 18 2 19 1 20
REMARK H PARENT
REMARK Flexibility Score: inf
ROOT
ATOM      1  C   UNL     1       0.052   2.407  -2.091  1.00  0.00    -0.031 C 
ATOM      2  C   UNL     1      -0.361   3.357  -2.949  1.00  0.00    -0.031 C 
ENDROOT
BRANCH   1   3
ATOM      3  C   UNL     1      -0.669   1.106  -1.832  1.00  0.00     0.027 C 
BRANCH   3   4
ATOM      4  C   UNL     1       0.225  -0.120  -2.092  1.00  0.00     0.004 C 
BRANCH   4   5
ATOM      5  C   UNL     1      -0.149  -1.366  -1.267  1.00  0.00     0.000 C 
BRANCH   5   6
ATOM      6  C   UNL     1      -0.239  -2.641  -2.118  1.00  0.00     0.000 C 
BRANCH   6   7
ATOM      7  C   UNL     1       0.284  -2.389  -3.541  1.00  0.00     0.000 C 
BRANCH   7   8
ATOM      8  C   UNL     1       1.720  -2.897  -3.745  1.00  0.00     0.006 C 
BRANCH   8   9
ATOM      9  C   UNL     1       2.309  -3.528  -2.476  1.00  0.00     0.053 C 
BRANCH   9  10
ATOM     10  C   UNL     1       3.423  -2.683  -1.943  1.00  0.00     0.041 C 
ATOM     11  O   UNL     1       3.460  -1.450  -2.197  1.00  0.00    -0.550 OA
ATOM     12  O   UNL     1       4.449  -3.266  -1.210  1.00  0.00    -0.550 OA
ENDBRANCH   9  10
ENDBRANCH   8   9
ENDBRANCH   7   8
ENDBRANCH   6   7
ENDBRANCH   5   6
ENDBRANCH   4   5
ENDBRANCH   3   4
ENDBRANCH   1   3
BRANCH   2  13
ATOM     13  C   UNL     1      -1.560   3.232  -3.856  1.00  0.00     0.027 C 
BRANCH  13  14
ATOM     14  C   UNL     1      -2.060   4.614  -4.288  1.00  0.00     0.004 C 
BRANCH  14  15
ATOM     15  C   UNL     1      -2.269   5.527  -3.075  1.00  0.00     0.000 C 
BRANCH  15  16
ATOM     16  C   UNL     1      -2.445   6.990  -3.509  1.00  0.00     0.000 C 
BRANCH  16  17
ATOM     17  C   UNL     1      -2.944   7.892  -2.368  1.00  0.00    -0.000 C 
BRANCH  17  18
ATOM     18  C   UNL     1      -3.873   7.151  -1.392  1.00  0.00    -0.000 C 
BRANCH  18  19
ATOM     19  C   UNL     1      -4.638   8.109  -0.466  1.00  0.00    -0.003 C 
ATOM     20  C   UNL     1      -4.386   7.832   1.016  1.00  0.00     0.004 C 
ENDBRANCH  18  19
ENDBRANCH  17  18
ENDBRANCH  16  17
ENDBRANCH  15  16
ENDBRANCH  14  15
ENDBRANCH  13  14
ENDBRANCH   2  13
TORSDOF 15
ENDMDL
MODEL 2
REMARK VINA RESULT:     7.798      4.323     10.237
REMARK INTER + INTRA:          13.693
REMARK INTER:                  14.142
REMARK INTRA:                  -0.449
REMARK UNBOUND:                -0.943
REMARK SMILES CCCCCCCCC=CCCCCCCCC(=O)[O-]
REMARK SMILES IDX 10 1 9 2 11 3 12 4 13 5 14 6 15 7 16 8 17 9 18 10 19 11
REMARK SMILES IDX 20 12 8 13 7 14 6 15 5 16 4 17 3 18 2 19 1 20
REMARK H PARENT
REMARK Flexibility Score: inf
ROOT
ATOM      1  C   UNL     1      -0.244   2.616  -2.615  1.00  0.00    -0.031 C 
ATOM      2  C   UNL     1       0.254   1.540  -1.979  1.00  0.00    -0.031 C 
ENDROOT
BRANCH   1   3
ATOM      3  C   UNL     1      -1.563   2.651  -3.348  1.00  0.00     0.027 C 
BRANCH   3   4
ATOM      4  C   UNL     1      -1.616   3.768  -4.406  1.00  0.00     0.004 C 
BRANCH   4   5
ATOM      5  C   UNL     1      -2.563   4.931  -4.056  1.00  0.00     0.000 C 
BRANCH   5   6
ATOM      6  C   UNL     1      -1.868   6.052  -3.268  1.00  0.00     0.000 C 
BRANCH   6   7
ATOM      7  C   UNL     1      -2.696   7.345  -3.307  1.00  0.00     0.000 C 
BRANCH   7   8
ATOM      8  C   UNL     1      -3.825   7.359  -2.264  1.00  0.00     0.006 C 
BRANCH   8   9
ATOM      9  C   UNL     1      -3.347   7.827  -0.883  1.00  0.00     0.053 C 
BRANCH   9  10
ATOM     10  C   UNL     1      -4.498   7.896   0.071  1.00  0.00     0.041 C 
ATOM     11  O   UNL     1      -5.662   8.111  -0.357  1.00  0.00    -0.550 OA
ATOM     12  O   UNL     1      -4.278   7.776   1.437  1.00  0.00    -0.550 OA
ENDBRANCH   9  10
ENDBRANCH   8   9
ENDBRANCH   7   8
ENDBRANCH   6   7
ENDBRANCH   5   6
ENDBRANCH   4   5
ENDBRANCH   3   4
ENDBRANCH   1   3
BRANCH   2  13
ATOM     13  C   UNL     1      -0.470   0.227  -1.819  1.00  0.00     0.027 C 
BRANCH  13  14
ATOM     14  C   UNL     1       0.512  -0.947  -1.893  1.00  0.00     0.004 C 
BRANCH  14  15
ATOM     15  C   UNL     1       0.003  -2.030  -2.851  1.00  0.00     0.000 C 
BRANCH  15  16
ATOM     16  C   UNL     1       1.169  -2.701  -3.593  1.00  0.00     0.000 C 
BRANCH  16  17
ATOM     17  C   UNL     1       2.129  -3.438  -2.644  1.00  0.00    -0.000 C 
BRANCH  17  18
ATOM     18  C   UNL     1       3.277  -2.540  -2.151  1.00  0.00    -0.000 C 
BRANCH  18  19
ATOM     19  C   UNL     1       3.967  -3.102  -0.899  1.00  0.00    -0.003 C 
ATOM     20  C   UNL     1       5.229  -3.901  -1.223  1.00  0.00     0.004 C 
ENDBRANCH  18  19
ENDBRANCH  17  18
ENDBRANCH  16  17
ENDBRANCH  15  16
ENDBRANCH  14  15
ENDBRANCH  13  14
ENDBRANCH   2  13
TORSDOF 15
ENDMDL
MODEL 3
REMARK VINA RESULT:     8.390      0.723      1.584
REMARK INTER + INTRA:          14.804
REMARK INTER:                  15.549
REMARK INTRA:                  -0.744
REMARK UNBOUND:                -0.943
REMARK SMILES CCCCCCCCC=CCCCCCCCC(=O)[O-]
REMARK SMILES IDX 10 1 9 2 11 3 12 4 13 5 14 6 15 7 16 8 17 9 18 10 19 11
REMARK SMILES IDX 20 12 8 13 7 14 6 15 5 16 4 17 3 18 2 19 1 20
REMARK H PARENT
REMARK Flexibility Score: inf
ROOT
ATOM      1  C   UNL     1      -1.406   2.489  -3.616  1.00  0.00    -0.031 C 
ATOM      2  C   UNL     1      -1.910   3.457  -4.404  1.00  0.00    -0.031 C 
ENDROOT
BRANCH   1   3
ATOM      3  C   UNL     1      -0.288   2.682  -2.621  1.00  0.00     0.027 C 
BRANCH   3   4
ATOM      4  C   UNL     1       0.380   1.353  -2.225  1.00  0.00     0.004 C 
BRANCH   4   5
ATOM      5  C   UNL     1      -0.545   0.374  -1.478  1.00  0.00     0.000 C 
BRANCH   5   6
ATOM      6  C   UNL     1      -0.165  -1.097  -1.704  1.00  0.00     0.000 C 
BRANCH   6   7
ATOM      7  C   UNL     1       0.494  -1.289  -3.078  1.00  0.00     0.000 C 
BRANCH   7   8
ATOM      8  C   UNL     1       1.075  -2.699  -3.267  1.00  0.00     0.006 C 
BRANCH   8   9
ATOM      9  C   UNL     1       1.841  -3.192  -2.033  1.00  0.00     0.053 C 
BRANCH   9  10
ATOM     10  C   UNL     1       3.225  -2.623  -2.016  1.00  0.00     0.041 C 
ATOM     11  O   UNL     1       4.219  -3.380  -1.864  1.00  0.00    -0.550 OA
ATOM     12  O   UNL     1       3.413  -1.250  -2.115  1.00  0.00    -0.550 OA
ENDBRANCH   9  10
ENDBRANCH   8   9
ENDBRANCH   7   8
ENDBRANCH   6   7
ENDBRANCH   5   6
ENDBRANCH   4   5
ENDBRANCH   3   4
ENDBRANCH   1   3
BRANCH   2  13
ATOM     13  C   UNL     1      -1.500   4.907  -4.350  1.00  0.00     0.027 C 
BRANCH  13  14
ATOM     14  C   UNL     1      -2.342   5.670  -3.322  1.00  0.00     0.004 C 
BRANCH  14  15
ATOM     15  C   UNL     1      -2.167   7.185  -3.484  1.00  0.00     0.000 C 
BRANCH  15  16
ATOM     16  C   UNL     1      -3.093   7.952  -2.529  1.00  0.00     0.000 C 
BRANCH  16  17
ATOM     17  C   UNL     1      -4.114   7.038  -1.831  1.00  0.00    -0.000 C 
BRANCH  17  18
ATOM     18  C   UNL     1      -4.909   7.769  -0.735  1.00  0.00    -0.000 C 
BRANCH  18  19
ATOM     19  C   UNL     1      -4.050   8.093   0.497  1.00  0.00    -0.003 C 
ATOM     20  C   UNL     1      -4.858   8.125   1.794  1.00  0.00     0.004 C 
ENDBRANCH  18  19
ENDBRANCH  17  18
ENDBRANCH  16  17
ENDBRANCH  15  16
ENDBRANCH  14  15
ENDBRANCH  13  14
ENDBRANCH   2  13
TORSDOF 15
ENDMDL
MODEL 4
REMARK VINA RESULT:     8.577      4.256     10.081
REMARK INTER + INTRA:          15.155
REMARK INTER:                  16.047
REMARK INTRA:                  -0.892
REMARK UNBOUND:                -0.943
REMARK SMILES CCCCCCCCC=CCCCCCCCC(=O)[O-]
REMARK SMILES IDX 10 1 9 2 11 3 12 4 13 5 14 6 15 7 16 8 17 9 18 10 19 11
REMARK SMILES IDX 20 12 8 13 7 14 6 15 5 16 4 17 3 18 2 19 1 20
REMARK H PARENT
REMARK Flexibility Score: inf
ROOT
ATOM      1  C   UNL     1      -0.741   3.126  -2.808  1.00  0.00    -0.031 C 
ATOM      2  C   UNL     1      -0.083   2.134  -2.180  1.00  0.00    -0.031 C 
ENDROOT
BRANCH   1   3
ATOM      3  C   UNL     1      -1.689   2.933  -3.967  1.00  0.00     0.027 C 
BRANCH   3   4
ATOM      4  C   UNL     1      -2.109   4.268  -4.607  1.00  0.00     0.004 C 
BRANCH   4   5
ATOM      5  C   UNL     1      -3.008   5.146  -3.717  1.00  0.00     0.000 C 
BRANCH   5   6
ATOM      6  C   UNL     1      -2.246   6.304  -3.055  1.00  0.00     0.000 C 
BRANCH   6   7
ATOM      7  C   UNL     1      -3.197   7.460  -2.708  1.00  0.00     0.000 C 
BRANCH   7   8
ATOM      8  C   UNL     1      -3.253   7.751  -1.201  1.00  0.00     0.006 C 
BRANCH   8   9
ATOM      9  C   UNL     1      -4.688   7.923  -0.686  1.00  0.00     0.053 C 
BRANCH   9  10
ATOM     10  C   UNL     1      -4.696   8.040   0.806  1.00  0.00     0.041 C 
ATOM     11  O   UNL     1      -5.787   8.118   1.429  1.00  0.00    -0.550 OA
ATOM     12  O   UNL     1      -3.498   8.117   1.504  1.00  0.00    -0.550 OA
ENDBRANCH   9  10
ENDBRANCH   8   9
ENDBRANCH   7   8
ENDBRANCH   6   7
ENDBRANCH   5   6
ENDBRANCH   4   5
ENDBRANCH   3   4
ENDBRANCH   1   3
BRANCH   2  13
ATOM     13  C   UNL     1      -0.261   0.665  -2.475  1.00  0.00     0.027 C 
BRANCH  13  14
ATOM     14  C   UNL     1       0.043  -0.178  -1.232  1.00  0.00     0.004 C 
BRANCH  14  15
ATOM     15  C   UNL     1      -0.068  -1.675  -1.543  1.00  0.00     0.000 C 
BRANCH  15  16
ATOM     16  C   UNL     1      -0.362  -1.907  -3.033  1.00  0.00     0.000 C 
BRANCH  16  17
ATOM     17  C   UNL     1       0.823  -2.545  -3.779  1.00  0.00    -0.000 C 
BRANCH  17  18
ATOM     18  C   UNL     1       1.740  -3.357  -2.847  1.00  0.00    -0.000 C 
BRANCH  18  19
ATOM     19  C   UNL     1       3.174  -2.807  -2.809  1.00  0.00    -0.003 C 
ATOM     20  C   UNL     1       3.783  -2.831  -1.408  1.00  0.00     0.004 C 
ENDBRANCH  18  19
ENDBRANCH  17  18
ENDBRANCH  16  17
ENDBRANCH  15  16
ENDBRANCH  14  15
ENDBRANCH  13  14
ENDBRANCH   2  13
TORSDOF 15
ENDMDL
MODEL 5
REMARK VINA RESULT:     9.562      1.823      2.058
REMARK INTER + INTRA:          17.004
REMARK INTER:                  17.545
REMARK INTRA:                  -0.540
REMARK UNBOUND:                -0.943
REMARK SMILES CCCCCCCCC=CCCCCCCCC(=O)[O-]
REMARK SMILES IDX 10 1 9 2 11 3 12 4 13 5 14 6 15 7 16 8 17 9 18 10 19 11
REMARK SMILES IDX 20 12 8 13 7 14 6 15 5 16 4 17 3 18 2 19 1 20
REMARK H PARENT
REMARK Flexibility Score: inf
ROOT
ATOM      1  C   UNL     1      -0.014   2.562  -2.253  1.00  0.00    -0.031 C 
ATOM      2  C   UNL     1      -0.637   3.628  -2.789  1.00  0.00    -0.031 C 
ENDROOT
BRANCH   1   3
ATOM      3  C   UNL     1      -0.270   1.127  -2.643  1.00  0.00     0.027 C 
BRANCH   3   4
ATOM      4  C   UNL     1      -0.396   0.201  -1.419  1.00  0.00     0.004 C 
BRANCH   4   5
ATOM      5  C   UNL     1       0.016  -1.259  -1.682  1.00  0.00     0.000 C 
BRANCH   5   6
ATOM      6  C   UNL     1       1.203  -1.380  -2.649  1.00  0.00     0.000 C 
BRANCH   6   7
ATOM      7  C   UNL     1       0.993  -2.542  -3.632  1.00  0.00     0.000 C 
BRANCH   7   8
ATOM      8  C   UNL     1       0.626  -3.858  -2.928  1.00  0.00     0.006 C 
BRANCH   8   9
ATOM      9  C   UNL     1       1.418  -4.074  -1.631  1.00  0.00     0.053 C 
BRANCH   9  10
ATOM     10  C   UNL     1       0.591  -4.824  -0.635  1.00  0.00     0.041 C 
ATOM     11  O   UNL     1       1.089  -5.789   0.002  1.00  0.00    -0.550 OA
ATOM     12  O   UNL     1      -0.744  -4.492  -0.448  1.00  0.00    -0.550 OA
ENDBRANCH   9  10
ENDBRANCH   8   9
ENDBRANCH   7   8
ENDBRANCH   6   7
ENDBRANCH   5   6
ENDBRANCH   4   5
ENDBRANCH   3   4
ENDBRANCH   1   3
BRANCH   2  13
ATOM     13  C   UNL     1      -1.623   3.561  -3.928  1.00  0.00     0.027 C 
BRANCH  13  14
ATOM     14  C   UNL     1      -2.129   4.962  -4.290  1.00  0.00     0.004 C 
BRANCH  14  15
ATOM     15  C   UNL     1      -2.218   5.852  -3.045  1.00  0.00     0.000 C 
BRANCH  15  16
ATOM     16  C   UNL     1      -2.606   7.289  -3.422  1.00  0.00     0.000 C 
BRANCH  16  17
ATOM     17  C   UNL     1      -3.127   8.098  -2.222  1.00  0.00    -0.000 C 
BRANCH  17  18
ATOM     18  C   UNL     1      -4.008   7.257  -1.281  1.00  0.00    -0.000 C 
BRANCH  18  19
ATOM     19  C   UNL     1      -4.890   8.125  -0.370  1.00  0.00    -0.003 C 
ATOM     20  C   UNL     1      -4.463   8.072   1.096  1.00  0.00     0.004 C 
ENDBRANCH  18  19
ENDBRANCH  17  18
ENDBRANCH  16  17
ENDBRANCH  15  16
ENDBRANCH  14  15
ENDBRANCH  13  14
ENDBRANCH   2  13
TORSDOF 15
ENDMDL
MODEL 6
REMARK VINA RESULT:     9.839      4.246      9.875
REMARK INTER + INTRA:          17.523
REMARK INTER:                  18.179
REMARK INTRA:                  -0.656
REMARK UNBOUND:                -0.943
REMARK SMILES CCCCCCCCC=CCCCCCCCC(=O)[O-]
REMARK SMILES IDX 10 1 9 2 11 3 12 4 13 5 14 6 15 7 16 8 17 9 18 10 19 11
REMARK SMILES IDX 20 12 8 13 7 14 6 15 5 16 4 17 3 18 2 19 1 20
REMARK H PARENT
REMARK Flexibility Score: inf
ROOT
ATOM      1  C   UNL     1      -0.721   1.690  -1.566  1.00  0.00    -0.031 C 
ATOM      2  C   UNL     1      -0.406   0.390  -1.415  1.00  0.00    -0.031 C 
ENDROOT
BRANCH   1   3
ATOM      3  C   UNL     1      -0.261   2.561  -2.710  1.00  0.00     0.027 C 
BRANCH   3   4
ATOM      4  C   UNL     1      -1.399   2.887  -3.693  1.00  0.00     0.004 C 
BRANCH   4   5
ATOM      5  C   UNL     1      -1.537   4.382  -4.034  1.00  0.00     0.000 C 
BRANCH   5   6
ATOM      6  C   UNL     1      -2.583   5.098  -3.168  1.00  0.00     0.000 C 
BRANCH   6   7
ATOM      7  C   UNL     1      -2.383   6.621  -3.212  1.00  0.00     0.000 C 
BRANCH   7   8
ATOM      8  C   UNL     1      -3.517   7.391  -2.517  1.00  0.00     0.006 C 
BRANCH   8   9
ATOM      9  C   UNL     1      -3.121   7.892  -1.122  1.00  0.00     0.053 C 
BRANCH   9  10
ATOM     10  C   UNL     1      -4.298   7.847  -0.199  1.00  0.00     0.041 C 
ATOM     11  O   UNL     1      -4.144   7.528   1.009  1.00  0.00    -0.550 OA
ATOM     12  O   UNL     1      -5.574   8.105  -0.685  1.00  0.00    -0.550 OA
ENDBRANCH   9  10
ENDBRANCH   8   9
ENDBRANCH   7   8
ENDBRANCH   6   7
ENDBRANCH   5   6
ENDBRANCH   4   5
ENDBRANCH   3   4
ENDBRANCH   1   3
BRANCH   2  13
ATOM     13  C   UNL     1       0.380  -0.424  -2.412  1.00  0.00     0.027 C 
BRANCH  13  14
ATOM     14  C   UNL     1       1.749  -0.806  -1.841  1.00  0.00     0.004 C 
BRANCH  14  15
ATOM     15  C   UNL     1       2.429  -1.871  -2.710  1.00  0.00     0.000 C 
BRANCH  15  16
ATOM     16  C   UNL     1       1.475  -2.386  -3.798  1.00  0.00     0.000 C 
BRANCH  16  17
ATOM     17  C   UNL     1       0.737  -3.669  -3.381  1.00  0.00    -0.000 C 
BRANCH  17  18
ATOM     18  C   UNL     1      -0.496  -3.383  -2.506  1.00  0.00    -0.000 C 
BRANCH  18  19
ATOM     19  C   UNL     1      -0.370  -3.983  -1.098  1.00  0.00    -0.003 C 
ATOM     20  C   UNL     1       0.987  -4.642  -0.852  1.00  0.00     0.004 C 
ENDBRANCH  18  19
ENDBRANCH  17  18
ENDBRANCH  16  17
ENDBRANCH  15  16
ENDBRANCH  14  15
ENDBRANCH  13  14
ENDBRANCH   2  13
TORSDOF 15
ENDMDL
