MODEL 1
REMARK VINA RESULT:    -5.576      0.000      0.000
REMARK INTER + INTRA:          -8.588
REMARK INTER:                  -7.532
REMARK INTRA:                  -1.056
REMARK UNBOUND:                -1.056
REMARK SMILES O=c1c(-c2ccc(O)cc2)coc2c([C@H]3O[C@@H](CO)[C@@H](O)[C@@H](O)[C@@H]3O)c(O)ccc12
REMARK SMILES IDX 3 1 11 2 12 3 13 4 30 5 2 6 1 7 29 8 28 9 26 10 14 11 4 12
REMARK SMILES IDX 5 13 6 14 7 15 10 16 9 17 8 18 15 20 24 21 16 22 22 23 17 24
REMARK SMILES IDX 20 25 25 26 23 28 18 30 19 31 21 33 27 35
REMARK H PARENT 8 19 25 27 23 29 19 32 21 34 27 36
REMARK Flexibility Score: inf
ROOT
ATOM      1  C   UNL     1      63.757  51.433  34.687  1.00  0.00     0.065 A 
ATOM      2  C   UNL     1      63.817  50.880  35.980  1.00  0.00     0.208 A 
ATOM      3  O   UNL     1      64.982  50.676  36.584  1.00  0.00    -0.463 OA
ATOM      4  C   UNL     1      66.156  50.918  36.002  1.00  0.00     0.147 A 
ATOM      5  C   UNL     1      66.196  51.382  34.671  1.00  0.00     0.066 A 
ATOM      6  C   UNL     1      64.983  51.717  34.042  1.00  0.00     0.200 A 
ATOM      7  O   UNL     1      65.001  52.336  32.941  1.00  0.00    -0.288 OA
ATOM      8  C   UNL     1      67.442  51.564  34.037  1.00  0.00     0.020 A 
ATOM      9  C   UNL     1      68.614  51.174  34.682  1.00  0.00     0.047 A 
ATOM     10  C   UNL     1      68.579  50.705  35.998  1.00  0.00     0.125 A 
ATOM     11  C   UNL     1      67.355  50.685  36.709  1.00  0.00     0.069 A 
ENDROOT
BRANCH   1  12
ATOM     12  C   UNL     1      62.428  51.704  34.050  1.00  0.00    -0.011 A 
ATOM     13  C   UNL     1      61.982  50.909  32.972  1.00  0.00     0.013 A 
ATOM     14  C   UNL     1      60.774  51.194  32.326  1.00  0.00     0.047 A 
ATOM     15  C   UNL     1      59.971  52.251  32.768  1.00  0.00     0.115 A 
ATOM     16  C   UNL     1      61.608  52.774  34.478  1.00  0.00     0.013 A 
ATOM     17  C   UNL     1      60.379  53.024  33.860  1.00  0.00     0.047 A 
BRANCH  15  18
ATOM     18  O   UNL     1      58.767  52.544  32.127  1.00  0.00    -0.508 OA
ATOM     19  H   UNL     1      58.378  53.481  32.125  1.00  0.00     0.293 HD
ENDBRANCH  15  18
ENDBRANCH   1  12
BRANCH  11  20
ATOM     20  C   UNL     1      67.319  50.551  38.223  1.00  0.00     0.188 C 
ATOM     21  C   UNL     1      66.667  49.224  38.695  1.00  0.00     0.179 C 
ATOM     22  O   UNL     1      66.651  51.684  38.746  1.00  0.00    -0.362 OA
ATOM     23  C   UNL     1      65.761  49.443  39.930  1.00  0.00     0.177 C 
ATOM     24  C   UNL     1      66.868  51.771  40.147  1.00  0.00     0.176 C 
ATOM     25  C   UNL     1      66.362  50.490  40.897  1.00  0.00     0.177 C 
BRANCH  21  26
ATOM     26  O   UNL     1      67.694  48.327  39.032  1.00  0.00    -0.387 OA
ATOM     27  H   UNL     1      68.366  48.338  38.303  1.00  0.00     0.211 HD
ENDBRANCH  21  26
BRANCH  23  28
ATOM     28  O   UNL     1      64.482  49.857  39.513  1.00  0.00    -0.387 OA
ATOM     29  H   UNL     1      63.831  49.494  40.171  1.00  0.00     0.211 HD
ENDBRANCH  23  28
BRANCH  24  30
ATOM     30  C   UNL     1      66.245  53.087  40.634  1.00  0.00     0.191 C 
BRANCH  30  31
ATOM     31  O   UNL     1      64.861  53.079  40.379  1.00  0.00    -0.394 OA
ATOM     32  H   UNL     1      64.732  52.693  39.474  1.00  0.00     0.210 HD
ENDBRANCH  30  31
ENDBRANCH  24  30
BRANCH  25  33
ATOM     33  O   UNL     1      65.425  50.808  41.895  1.00  0.00    -0.388 OA
ATOM     34  H   UNL     1      65.694  50.320  42.716  1.00  0.00     0.211 HD
ENDBRANCH  25  33
ENDBRANCH  11  20
BRANCH  10  35
ATOM     35  O   UNL     1      69.772  50.240  36.550  1.00  0.00    -0.507 OA
ATOM     36  H   UNL     1      70.673  50.648  36.350  1.00  0.00     0.293 HD
ENDBRANCH  10  35
TORSDOF 9
ENDMDL
MODEL 2
REMARK VINA RESULT:    -5.515      3.195     10.476
REMARK INTER + INTRA:          -8.506
REMARK INTER:                  -7.342
REMARK INTRA:                  -1.164
REMARK UNBOUND:                -1.056
REMARK SMILES O=c1c(-c2ccc(O)cc2)coc2c([C@H]3O[C@@H](CO)[C@@H](O)[C@@H](O)[C@@H]3O)c(O)ccc12
REMARK SMILES IDX 3 1 11 2 12 3 13 4 30 5 2 6 1 7 29 8 28 9 26 10 14 11 4 12
REMARK SMILES IDX 5 13 6 14 7 15 10 16 9 17 8 18 15 20 24 21 16 22 22 23 17 24
REMARK SMILES IDX 20 25 25 26 23 28 18 30 19 31 21 33 27 35
REMARK H PARENT 8 19 25 27 23 29 19 32 21 34 27 36
REMARK Flexibility Score: inf
ROOT
ATOM      1  C   UNL     1      62.452  51.484  33.766  1.00  0.00     0.065 A 
ATOM      2  C   UNL     1      62.064  50.566  32.772  1.00  0.00     0.208 A 
ATOM      3  O   UNL     1      60.944  50.740  32.080  1.00  0.00    -0.463 OA
ATOM      4  C   UNL     1      60.094  51.739  32.311  1.00  0.00     0.147 A 
ATOM      5  C   UNL     1      60.351  52.653  33.353  1.00  0.00     0.066 A 
ATOM      6  C   UNL     1      61.583  52.567  34.030  1.00  0.00     0.200 A 
ATOM      7  O   UNL     1      61.932  53.496  34.810  1.00  0.00    -0.288 OA
ATOM      8  C   UNL     1      59.411  53.663  33.639  1.00  0.00     0.020 A 
ATOM      9  C   UNL     1      58.185  53.680  32.976  1.00  0.00     0.047 A 
ATOM     10  C   UNL     1      57.921  52.772  31.948  1.00  0.00     0.125 A 
ATOM     11  C   UNL     1      58.926  51.866  31.528  1.00  0.00     0.069 A 
ENDROOT
BRANCH   1  12
ATOM     12  C   UNL     1      63.748  51.294  34.494  1.00  0.00    -0.011 A 
ATOM     13  C   UNL     1      63.750  50.874  35.842  1.00  0.00     0.013 A 
ATOM     14  C   UNL     1      64.951  50.758  36.552  1.00  0.00     0.047 A 
ATOM     15  C   UNL     1      66.171  51.020  35.921  1.00  0.00     0.115 A 
ATOM     16  C   UNL     1      64.991  51.564  33.874  1.00  0.00     0.013 A 
ATOM     17  C   UNL     1      66.189  51.399  34.575  1.00  0.00     0.047 A 
BRANCH  15  18
ATOM     18  O   UNL     1      67.372  50.911  36.623  1.00  0.00    -0.508 OA
ATOM     19  H   UNL     1      67.456  50.327  37.448  1.00  0.00     0.293 HD
ENDBRANCH  15  18
ENDBRANCH   1  12
BRANCH  11  20
ATOM     20  C   UNL     1      58.831  51.136  30.198  1.00  0.00     0.188 C 
ATOM     21  C   UNL     1      58.403  52.065  29.031  1.00  0.00     0.179 C 
ATOM     22  O   UNL     1      57.943  50.046  30.361  1.00  0.00    -0.362 OA
ATOM     23  C   UNL     1      57.406  51.361  28.080  1.00  0.00     0.177 C 
ATOM     24  C   UNL     1      58.063  49.156  29.261  1.00  0.00     0.176 C 
ATOM     25  C   UNL     1      57.755  49.865  27.898  1.00  0.00     0.177 C 
BRANCH  21  26
ATOM     26  O   UNL     1      59.555  52.419  28.308  1.00  0.00    -0.387 OA
ATOM     27  H   UNL     1      59.351  53.235  27.781  1.00  0.00     0.211 HD
ENDBRANCH  21  26
BRANCH  23  28
ATOM     28  O   UNL     1      56.098  51.488  28.585  1.00  0.00    -0.387 OA
ATOM     29  H   UNL     1      55.478  51.237  27.850  1.00  0.00     0.211 HD
ENDBRANCH  23  28
BRANCH  24  30
ATOM     30  C   UNL     1      57.188  47.930  29.558  1.00  0.00     0.191 C 
BRANCH  30  31
ATOM     31  O   UNL     1      55.832  48.306  29.569  1.00  0.00    -0.394 OA
ATOM     32  H   UNL     1      55.367  47.746  28.896  1.00  0.00     0.210 HD
ENDBRANCH  30  31
ENDBRANCH  24  30
BRANCH  25  33
ATOM     33  O   UNL     1      56.722  49.219  27.197  1.00  0.00    -0.388 OA
ATOM     34  H   UNL     1      56.434  49.830  26.471  1.00  0.00     0.211 HD
ENDBRANCH  25  33
ENDBRANCH  11  20
BRANCH  10  35
ATOM     35  O   UNL     1      56.642  52.779  31.392  1.00  0.00    -0.507 OA
ATOM     36  H   UNL     1      56.045  51.966  31.361  1.00  0.00     0.293 HD
ENDBRANCH  10  35
TORSDOF 9
ENDMDL
MODEL 3
REMARK VINA RESULT:    -5.411      2.071      3.615
REMARK INTER + INTRA:          -8.365
REMARK INTER:                  -7.196
REMARK INTRA:                  -1.168
REMARK UNBOUND:                -1.056
REMARK SMILES O=c1c(-c2ccc(O)cc2)coc2c([C@H]3O[C@@H](CO)[C@@H](O)[C@@H](O)[C@@H]3O)c(O)ccc12
REMARK SMILES IDX 3 1 11 2 12 3 13 4 30 5 2 6 1 7 29 8 28 9 26 10 14 11 4 12
REMARK SMILES IDX 5 13 6 14 7 15 10 16 9 17 8 18 15 20 24 21 16 22 22 23 17 24
REMARK SMILES IDX 20 25 25 26 23 28 18 30 19 31 21 33 27 35
REMARK H PARENT 8 19 25 27 23 29 19 32 21 34 27 36
REMARK Flexibility Score: inf
ROOT
ATOM      1  C   UNL     1      61.396  51.820  32.562  1.00  0.00     0.065 A 
ATOM      2  C   UNL     1      61.282  51.620  33.951  1.00  0.00     0.208 A 
ATOM      3  O   UNL     1      62.360  51.544  34.722  1.00  0.00    -0.463 OA
ATOM      4  C   UNL     1      63.602  51.591  34.243  1.00  0.00     0.147 A 
ATOM      5  C   UNL     1      63.814  51.692  32.853  1.00  0.00     0.066 A 
ATOM      6  C   UNL     1      62.698  51.890  32.018  1.00  0.00     0.200 A 
ATOM      7  O   UNL     1      62.873  52.200  30.806  1.00  0.00    -0.288 OA
ATOM      8  C   UNL     1      65.130  51.666  32.348  1.00  0.00     0.020 A 
ATOM      9  C   UNL     1      66.200  51.421  33.206  1.00  0.00     0.047 A 
ATOM     10  C   UNL     1      65.995  51.312  34.584  1.00  0.00     0.125 A 
ATOM     11  C   UNL     1      64.701  51.514  35.125  1.00  0.00     0.069 A 
ENDROOT
BRANCH   1  12
ATOM     12  C   UNL     1      60.162  51.956  31.722  1.00  0.00    -0.011 A 
ATOM     13  C   UNL     1      59.445  53.172  31.705  1.00  0.00     0.013 A 
ATOM     14  C   UNL     1      58.256  53.291  30.978  1.00  0.00     0.047 A 
ATOM     15  C   UNL     1      57.781  52.213  30.223  1.00  0.00     0.115 A 
ATOM     16  C   UNL     1      59.663  50.874  30.961  1.00  0.00     0.013 A 
ATOM     17  C   UNL     1      58.500  51.013  30.198  1.00  0.00     0.047 A 
BRANCH  15  18
ATOM     18  O   UNL     1      56.594  52.321  29.499  1.00  0.00    -0.508 OA
ATOM     19  H   UNL     1      56.180  51.523  29.030  1.00  0.00     0.293 HD
ENDBRANCH  15  18
ENDBRANCH   1  12
BRANCH  11  20
ATOM     20  C   UNL     1      64.494  51.779  36.607  1.00  0.00     0.188 C 
ATOM     21  C   UNL     1      65.147  53.106  37.079  1.00  0.00     0.179 C 
ATOM     22  O   UNL     1      64.987  50.663  37.324  1.00  0.00    -0.362 OA
ATOM     23  C   UNL     1      65.817  52.950  38.464  1.00  0.00     0.177 C 
ATOM     24  C   UNL     1      64.534  50.713  38.669  1.00  0.00     0.176 C 
ATOM     25  C   UNL     1      64.994  52.026  39.392  1.00  0.00     0.177 C 
BRANCH  21  26
ATOM     26  O   UNL     1      64.140  54.083  37.164  1.00  0.00    -0.387 OA
ATOM     27  H   UNL     1      63.266  53.621  37.242  1.00  0.00     0.211 HD
ENDBRANCH  21  26
BRANCH  23  28
ATOM     28  O   UNL     1      67.117  52.433  38.306  1.00  0.00    -0.387 OA
ATOM     29  H   UNL     1      67.633  52.694  39.116  1.00  0.00     0.211 HD
ENDBRANCH  23  28
BRANCH  24  30
ATOM     30  C   UNL     1      64.977  49.414  39.357  1.00  0.00     0.191 C 
BRANCH  30  31
ATOM     31  O   UNL     1      64.466  48.307  38.655  1.00  0.00    -0.394 OA
ATOM     32  H   UNL     1      65.127  48.074  37.952  1.00  0.00     0.210 HD
ENDBRANCH  30  31
ENDBRANCH  24  30
BRANCH  25  33
ATOM     33  O   UNL     1      65.728  51.748  40.558  1.00  0.00    -0.388 OA
ATOM     34  H   UNL     1      65.116  51.878  41.328  1.00  0.00     0.211 HD
ENDBRANCH  25  33
ENDBRANCH  11  20
BRANCH  10  35
ATOM     35  O   UNL     1      67.091  50.970  35.376  1.00  0.00    -0.507 OA
ATOM     36  H   UNL     1      67.184  50.080  35.841  1.00  0.00     0.293 HD
ENDBRANCH  10  35
TORSDOF 9
ENDMDL
MODEL 4
REMARK VINA RESULT:    -5.263      2.033      3.321
REMARK INTER + INTRA:          -8.165
REMARK INTER:                  -6.799
REMARK INTRA:                  -1.366
REMARK UNBOUND:                -1.056
REMARK SMILES O=c1c(-c2ccc(O)cc2)coc2c([C@H]3O[C@@H](CO)[C@@H](O)[C@@H](O)[C@@H]3O)c(O)ccc12
REMARK SMILES IDX 3 1 11 2 12 3 13 4 30 5 2 6 1 7 29 8 28 9 26 10 14 11 4 12
REMARK SMILES IDX 5 13 6 14 7 15 10 16 9 17 8 18 15 20 24 21 16 22 22 23 17 24
REMARK SMILES IDX 20 25 25 26 23 28 18 30 19 31 21 33 27 35
REMARK H PARENT 8 19 25 27 23 29 19 32 21 34 27 36
REMARK Flexibility Score: inf
ROOT
ATOM      1  C   UNL     1      62.413  51.040  32.377  1.00  0.00     0.065 A 
ATOM      2  C   UNL     1      62.113  50.959  33.750  1.00  0.00     0.208 A 
ATOM      3  O   UNL     1      63.064  51.087  34.667  1.00  0.00    -0.463 OA
ATOM      4  C   UNL     1      64.353  51.238  34.363  1.00  0.00     0.147 A 
ATOM      5  C   UNL     1      64.760  51.233  33.013  1.00  0.00     0.066 A 
ATOM      6  C   UNL     1      63.768  51.215  32.015  1.00  0.00     0.200 A 
ATOM      7  O   UNL     1      64.089  51.429  30.813  1.00  0.00    -0.288 OA
ATOM      8  C   UNL     1      66.132  51.319  32.702  1.00  0.00     0.020 A 
ATOM      9  C   UNL     1      67.080  51.286  33.723  1.00  0.00     0.047 A 
ATOM     10  C   UNL     1      66.683  51.283  35.063  1.00  0.00     0.125 A 
ATOM     11  C   UNL     1      65.308  51.378  35.393  1.00  0.00     0.069 A 
ENDROOT
BRANCH   1  12
ATOM     12  C   UNL     1      61.313  50.947  31.364  1.00  0.00    -0.011 A 
ATOM     13  C   UNL     1      60.643  52.113  30.934  1.00  0.00     0.013 A 
ATOM     14  C   UNL     1      59.570  52.031  30.039  1.00  0.00     0.047 A 
ATOM     15  C   UNL     1      59.171  50.792  29.527  1.00  0.00     0.115 A 
ATOM     16  C   UNL     1      60.890  49.701  30.843  1.00  0.00     0.013 A 
ATOM     17  C   UNL     1      59.850  49.631  29.913  1.00  0.00     0.047 A 
BRANCH  15  18
ATOM     18  O   UNL     1      58.100  50.702  28.638  1.00  0.00    -0.508 OA
ATOM     19  H   UNL     1      57.139  50.686  28.961  1.00  0.00     0.293 HD
ENDBRANCH  15  18
ENDBRANCH   1  12
BRANCH  11  20
ATOM     20  C   UNL     1      64.853  51.754  36.793  1.00  0.00     0.188 C 
ATOM     21  C   UNL     1      65.283  53.188  37.201  1.00  0.00     0.179 C 
ATOM     22  O   UNL     1      65.347  50.778  37.691  1.00  0.00    -0.362 OA
ATOM     23  C   UNL     1      65.749  53.245  38.675  1.00  0.00     0.177 C 
ATOM     24  C   UNL     1      64.694  50.899  38.946  1.00  0.00     0.176 C 
ATOM     25  C   UNL     1      64.898  52.320  39.576  1.00  0.00     0.177 C 
BRANCH  21  26
ATOM     26  O   UNL     1      64.178  54.040  37.037  1.00  0.00    -0.387 OA
ATOM     27  H   UNL     1      63.352  53.497  37.126  1.00  0.00     0.211 HD
ENDBRANCH  21  26
BRANCH  23  28
ATOM     28  O   UNL     1      67.106  52.876  38.758  1.00  0.00    -0.387 OA
ATOM     29  H   UNL     1      67.344  52.451  37.890  1.00  0.00     0.211 HD
ENDBRANCH  23  28
BRANCH  24  30
ATOM     30  C   UNL     1      65.163  49.733  39.828  1.00  0.00     0.191 C 
BRANCH  30  31
ATOM     31  O   UNL     1      64.265  49.555  40.896  1.00  0.00    -0.394 OA
ATOM     32  H   UNL     1      64.806  49.372  41.707  1.00  0.00     0.210 HD
ENDBRANCH  30  31
ENDBRANCH  24  30
BRANCH  25  33
ATOM     33  O   UNL     1      65.474  52.243  40.856  1.00  0.00    -0.388 OA
ATOM     34  H   UNL     1      64.792  51.850  41.461  1.00  0.00     0.211 HD
ENDBRANCH  25  33
ENDBRANCH  11  20
BRANCH  10  35
ATOM     35  O   UNL     1      67.677  51.152  36.032  1.00  0.00    -0.507 OA
ATOM     36  H   UNL     1      68.289  50.353  36.094  1.00  0.00     0.293 HD
ENDBRANCH  10  35
TORSDOF 9
ENDMDL
MODEL 5
REMARK VINA RESULT:    -5.054      2.954      8.407
REMARK INTER + INTRA:          -7.883
REMARK INTER:                  -6.511
REMARK INTRA:                  -1.371
REMARK UNBOUND:                -1.056
REMARK SMILES O=c1c(-c2ccc(O)cc2)coc2c([C@H]3O[C@@H](CO)[C@@H](O)[C@@H](O)[C@@H]3O)c(O)ccc12
REMARK SMILES IDX 3 1 11 2 12 3 13 4 30 5 2 6 1 7 29 8 28 9 26 10 14 11 4 12
REMARK SMILES IDX 5 13 6 14 7 15 10 16 9 17 8 18 15 20 24 21 16 22 22 23 17 24
REMARK SMILES IDX 20 25 25 26 23 28 18 30 19 31 21 33 27 35
REMARK H PARENT 8 19 25 27 23 29 19 32 21 34 27 36
REMARK Flexibility Score: inf
ROOT
ATOM      1  C   UNL     1      64.560  51.303  35.665  1.00  0.00     0.065 A 
ATOM      2  C   UNL     1      63.213  51.255  35.259  1.00  0.00     0.208 A 
ATOM      3  O   UNL     1      62.888  51.056  33.988  1.00  0.00    -0.463 OA
ATOM      4  C   UNL     1      63.791  50.950  33.014  1.00  0.00     0.147 A 
ATOM      5  C   UNL     1      65.163  51.082  33.312  1.00  0.00     0.066 A 
ATOM      6  C   UNL     1      65.548  51.178  34.662  1.00  0.00     0.200 A 
ATOM      7  O   UNL     1      66.769  51.078  34.971  1.00  0.00    -0.288 OA
ATOM      8  C   UNL     1      66.107  51.042  32.266  1.00  0.00     0.020 A 
ATOM      9  C   UNL     1      65.677  50.994  30.941  1.00  0.00     0.047 A 
ATOM     10  C   UNL     1      64.318  50.871  30.640  1.00  0.00     0.125 A 
ATOM     11  C   UNL     1      63.371  50.729  31.684  1.00  0.00     0.069 A 
ENDROOT
BRANCH   1  12
ATOM     12  C   UNL     1      64.899  51.474  37.115  1.00  0.00    -0.011 A 
ATOM     13  C   UNL     1      64.680  50.416  38.024  1.00  0.00     0.013 A 
ATOM     14  C   UNL     1      64.930  50.586  39.391  1.00  0.00     0.047 A 
ATOM     15  C   UNL     1      65.440  51.798  39.869  1.00  0.00     0.115 A 
ATOM     16  C   UNL     1      65.406  52.695  37.617  1.00  0.00     0.013 A 
ATOM     17  C   UNL     1      65.700  52.843  38.976  1.00  0.00     0.047 A 
BRANCH  15  18
ATOM     18  O   UNL     1      65.687  51.977  41.230  1.00  0.00    -0.508 OA
ATOM     19  H   UNL     1      65.676  51.200  41.881  1.00  0.00     0.293 HD
ENDBRANCH  15  18
ENDBRANCH   1  12
BRANCH  11  20
ATOM     20  C   UNL     1      61.964  50.222  31.416  1.00  0.00     0.188 C 
ATOM     21  C   UNL     1      61.911  48.688  31.181  1.00  0.00     0.179 C 
ATOM     22  O   UNL     1      61.441  50.944  30.317  1.00  0.00    -0.362 OA
ATOM     23  C   UNL     1      60.930  48.321  30.044  1.00  0.00     0.177 C 
ATOM     24  C   UNL     1      60.039  50.741  30.227  1.00  0.00     0.176 C 
ATOM     25  C   UNL     1      59.676  49.225  30.060  1.00  0.00     0.177 C 
BRANCH  21  26
ATOM     26  O   UNL     1      61.483  48.078  32.372  1.00  0.00    -0.387 OA
ATOM     27  H   UNL     1      60.491  48.078  32.380  1.00  0.00     0.211 HD
ENDBRANCH  21  26
BRANCH  23  28
ATOM     28  O   UNL     1      61.582  48.431  28.801  1.00  0.00    -0.387 OA
ATOM     29  H   UNL     1      61.827  49.388  28.685  1.00  0.00     0.211 HD
ENDBRANCH  23  28
BRANCH  24  30
ATOM     30  C   UNL     1      59.507  51.654  29.113  1.00  0.00     0.191 C 
BRANCH  30  31
ATOM     31  O   UNL     1      60.138  51.334  27.896  1.00  0.00    -0.394 OA
ATOM     32  H   UNL     1      59.625  50.590  27.487  1.00  0.00     0.210 HD
ENDBRANCH  30  31
ENDBRANCH  24  30
BRANCH  25  33
ATOM     33  O   UNL     1      58.911  48.998  28.902  1.00  0.00    -0.388 OA
ATOM     34  H   UNL     1      57.970  48.881  29.193  1.00  0.00     0.211 HD
ENDBRANCH  25  33
ENDBRANCH  11  20
BRANCH  10  35
ATOM     35  O   UNL     1      63.946  50.926  29.297  1.00  0.00    -0.507 OA
ATOM     36  H   UNL     1      63.375  50.225  28.850  1.00  0.00     0.293 HD
ENDBRANCH  10  35
TORSDOF 9
ENDMDL
MODEL 6
REMARK VINA RESULT:    -5.043      1.933      7.821
REMARK INTER + INTRA:          -7.868
REMARK INTER:                  -7.120
REMARK INTRA:                  -0.748
REMARK UNBOUND:                -1.056
REMARK SMILES O=c1c(-c2ccc(O)cc2)coc2c([C@H]3O[C@@H](CO)[C@@H](O)[C@@H](O)[C@@H]3O)c(O)ccc12
REMARK SMILES IDX 3 1 11 2 12 3 13 4 30 5 2 6 1 7 29 8 28 9 26 10 14 11 4 12
REMARK SMILES IDX 5 13 6 14 7 15 10 16 9 17 8 18 15 20 24 21 16 22 22 23 17 24
REMARK SMILES IDX 20 25 25 26 23 28 18 30 19 31 21 33 27 35
REMARK H PARENT 8 19 25 27 23 29 19 32 21 34 27 36
REMARK Flexibility Score: inf
ROOT
ATOM      1  C   UNL     1      65.769  50.380  37.417  1.00  0.00     0.065 A 
ATOM      2  C   UNL     1      64.382  50.528  37.223  1.00  0.00     0.208 A 
ATOM      3  O   UNL     1      63.892  50.921  36.054  1.00  0.00    -0.463 OA
ATOM      4  C   UNL     1      64.661  51.256  35.018  1.00  0.00     0.147 A 
ATOM      5  C   UNL     1      66.064  51.233  35.150  1.00  0.00     0.066 A 
ATOM      6  C   UNL     1      66.617  50.713  36.335  1.00  0.00     0.200 A 
ATOM      7  O   UNL     1      67.856  50.477  36.395  1.00  0.00    -0.288 OA
ATOM      8  C   UNL     1      66.869  51.661  34.075  1.00  0.00     0.020 A 
ATOM      9  C   UNL     1      66.278  52.213  32.940  1.00  0.00     0.047 A 
ATOM     10  C   UNL     1      64.888  52.246  32.807  1.00  0.00     0.125 A 
ATOM     11  C   UNL     1      64.068  51.657  33.801  1.00  0.00     0.069 A 
ENDROOT
BRANCH   1  12
ATOM     12  C   UNL     1      66.293  49.882  38.729  1.00  0.00    -0.011 A 
ATOM     13  C   UNL     1      65.634  50.221  39.931  1.00  0.00     0.013 A 
ATOM     14  C   UNL     1      66.151  49.817  41.167  1.00  0.00     0.047 A 
ATOM     15  C   UNL     1      67.311  49.037  41.225  1.00  0.00     0.115 A 
ATOM     16  C   UNL     1      67.469  49.100  38.807  1.00  0.00     0.013 A 
ATOM     17  C   UNL     1      67.954  48.659  40.042  1.00  0.00     0.047 A 
BRANCH  15  18
ATOM     18  O   UNL     1      67.835  48.634  42.454  1.00  0.00    -0.508 OA
ATOM     19  H   UNL     1      67.949  49.284  43.224  1.00  0.00     0.293 HD
ENDBRANCH  15  18
ENDBRANCH   1  12
BRANCH  11  20
ATOM     20  C   UNL     1      62.607  51.331  33.535  1.00  0.00     0.188 C 
ATOM     21  C   UNL     1      62.406  50.465  32.263  1.00  0.00     0.179 C 
ATOM     22  O   UNL     1      61.894  52.551  33.463  1.00  0.00    -0.362 OA
ATOM     23  C   UNL     1      61.170  50.922  31.454  1.00  0.00     0.177 C 
ATOM     24  C   UNL     1      60.498  52.301  33.536  1.00  0.00     0.176 C 
ATOM     25  C   UNL     1      60.012  51.358  32.382  1.00  0.00     0.177 C 
BRANCH  21  26
ATOM     26  O   UNL     1      62.223  49.131  32.667  1.00  0.00    -0.387 OA
ATOM     27  H   UNL     1      61.797  49.135  33.563  1.00  0.00     0.211 HD
ENDBRANCH  21  26
BRANCH  23  28
ATOM     28  O   UNL     1      61.527  51.985  30.603  1.00  0.00    -0.387 OA
ATOM     29  H   UNL     1      62.497  52.152  30.740  1.00  0.00     0.211 HD
ENDBRANCH  23  28
BRANCH  24  30
ATOM     30  C   UNL     1      59.785  53.660  33.596  1.00  0.00     0.191 C 
BRANCH  30  31
ATOM     31  O   UNL     1      58.488  53.492  34.114  1.00  0.00    -0.394 OA
ATOM     32  H   UNL     1      58.485  52.644  34.628  1.00  0.00     0.210 HD
ENDBRANCH  30  31
ENDBRANCH  24  30
BRANCH  25  33
ATOM     33  O   UNL     1      58.990  51.951  31.620  1.00  0.00    -0.388 OA
ATOM     34  H   UNL     1      59.213  51.802  30.665  1.00  0.00     0.211 HD
ENDBRANCH  25  33
ENDBRANCH  11  20
BRANCH  10  35
ATOM     35  O   UNL     1      64.360  52.898  31.694  1.00  0.00    -0.507 OA
ATOM     36  H   UNL     1      63.742  53.693  31.757  1.00  0.00     0.293 HD
ENDBRANCH  10  35
TORSDOF 9
ENDMDL
MODEL 7
REMARK VINA RESULT:    -4.962      1.864      3.116
REMARK INTER + INTRA:          -7.759
REMARK INTER:                  -6.363
REMARK INTRA:                  -1.396
REMARK UNBOUND:                -1.056
REMARK SMILES O=c1c(-c2ccc(O)cc2)coc2c([C@H]3O[C@@H](CO)[C@@H](O)[C@@H](O)[C@@H]3O)c(O)ccc12
REMARK SMILES IDX 3 1 11 2 12 3 13 4 30 5 2 6 1 7 29 8 28 9 26 10 14 11 4 12
REMARK SMILES IDX 5 13 6 14 7 15 10 16 9 17 8 18 15 20 24 21 16 22 22 23 17 24
REMARK SMILES IDX 20 25 25 26 23 28 18 30 19 31 21 33 27 35
REMARK H PARENT 8 19 25 27 23 29 19 32 21 34 27 36
REMARK Flexibility Score: inf
ROOT
ATOM      1  C   UNL     1      62.120  52.410  34.041  1.00  0.00     0.065 A 
ATOM      2  C   UNL     1      62.419  51.260  34.797  1.00  0.00     0.208 A 
ATOM      3  O   UNL     1      63.506  51.205  35.557  1.00  0.00    -0.463 OA
ATOM      4  C   UNL     1      64.406  52.186  35.614  1.00  0.00     0.147 A 
ATOM      5  C   UNL     1      64.239  53.337  34.817  1.00  0.00     0.066 A 
ATOM      6  C   UNL     1      63.044  53.479  34.088  1.00  0.00     0.200 A 
ATOM      7  O   UNL     1      62.773  54.587  33.544  1.00  0.00    -0.288 OA
ATOM      8  C   UNL     1      65.232  54.338  34.826  1.00  0.00     0.020 A 
ATOM      9  C   UNL     1      66.421  54.132  35.525  1.00  0.00     0.047 A 
ATOM     10  C   UNL     1      66.594  52.989  36.311  1.00  0.00     0.125 A 
ATOM     11  C   UNL     1      65.534  52.061  36.453  1.00  0.00     0.069 A 
ENDROOT
BRANCH   1  12
ATOM     12  C   UNL     1      60.859  52.468  33.235  1.00  0.00    -0.011 A 
ATOM     13  C   UNL     1      59.747  53.199  33.707  1.00  0.00     0.013 A 
ATOM     14  C   UNL     1      58.542  53.206  32.995  1.00  0.00     0.047 A 
ATOM     15  C   UNL     1      58.436  52.517  31.782  1.00  0.00     0.115 A 
ATOM     16  C   UNL     1      60.731  51.770  32.011  1.00  0.00     0.013 A 
ATOM     17  C   UNL     1      59.540  51.821  31.280  1.00  0.00     0.047 A 
BRANCH  15  18
ATOM     18  O   UNL     1      57.237  52.515  31.069  1.00  0.00    -0.508 OA
ATOM     19  H   UNL     1      56.339  52.585  31.535  1.00  0.00     0.293 HD
ENDBRANCH  15  18
ENDBRANCH   1  12
BRANCH  11  20
ATOM     20  C   UNL     1      65.529  51.026  37.567  1.00  0.00     0.188 C 
ATOM     21  C   UNL     1      65.432  51.663  38.979  1.00  0.00     0.179 C 
ATOM     22  O   UNL     1      66.688  50.227  37.425  1.00  0.00    -0.362 OA
ATOM     23  C   UNL     1      66.350  50.940  39.993  1.00  0.00     0.177 C 
ATOM     24  C   UNL     1      66.574  49.062  38.229  1.00  0.00     0.176 C 
ATOM     25  C   UNL     1      66.380  49.414  39.744  1.00  0.00     0.177 C 
BRANCH  21  26
ATOM     26  O   UNL     1      64.100  51.562  39.414  1.00  0.00    -0.387 OA
ATOM     27  H   UNL     1      63.712  50.732  39.034  1.00  0.00     0.211 HD
ENDBRANCH  21  26
BRANCH  23  28
ATOM     28  O   UNL     1      67.654  51.464  39.909  1.00  0.00    -0.387 OA
ATOM     29  H   UNL     1      67.573  52.453  39.961  1.00  0.00     0.211 HD
ENDBRANCH  23  28
BRANCH  24  30
ATOM     30  C   UNL     1      67.787  48.169  37.929  1.00  0.00     0.191 C 
BRANCH  30  31
ATOM     31  O   UNL     1      68.972  48.858  38.244  1.00  0.00    -0.394 OA
ATOM     32  H   UNL     1      69.559  48.812  37.445  1.00  0.00     0.210 HD
ENDBRANCH  30  31
ENDBRANCH  24  30
BRANCH  25  33
ATOM     33  O   UNL     1      67.371  48.821  40.547  1.00  0.00    -0.388 OA
ATOM     34  H   UNL     1      66.991  47.977  40.905  1.00  0.00     0.211 HD
ENDBRANCH  25  33
ENDBRANCH  11  20
BRANCH  10  35
ATOM     35  O   UNL     1      67.841  52.797  36.905  1.00  0.00    -0.507 OA
ATOM     36  H   UNL     1      68.618  53.427  36.781  1.00  0.00     0.293 HD
ENDBRANCH  10  35
TORSDOF 9
ENDMDL
MODEL 8
REMARK VINA RESULT:    -4.957      2.212      2.925
REMARK INTER + INTRA:          -7.751
REMARK INTER:                  -6.776
REMARK INTRA:                  -0.975
REMARK UNBOUND:                -1.056
REMARK SMILES O=c1c(-c2ccc(O)cc2)coc2c([C@H]3O[C@@H](CO)[C@@H](O)[C@@H](O)[C@@H]3O)c(O)ccc12
REMARK SMILES IDX 3 1 11 2 12 3 13 4 30 5 2 6 1 7 29 8 28 9 26 10 14 11 4 12
REMARK SMILES IDX 5 13 6 14 7 15 10 16 9 17 8 18 15 20 24 21 16 22 22 23 17 24
REMARK SMILES IDX 20 25 25 26 23 28 18 30 19 31 21 33 27 35
REMARK H PARENT 8 19 25 27 23 29 19 32 21 34 27 36
REMARK Flexibility Score: inf
ROOT
ATOM      1  C   UNL     1      63.305  50.575  32.451  1.00  0.00     0.065 A 
ATOM      2  C   UNL     1      63.294  50.545  33.859  1.00  0.00     0.208 A 
ATOM      3  O   UNL     1      64.385  50.832  34.558  1.00  0.00    -0.463 OA
ATOM      4  C   UNL     1      65.561  51.104  33.993  1.00  0.00     0.147 A 
ATOM      5  C   UNL     1      65.691  51.062  32.590  1.00  0.00     0.066 A 
ATOM      6  C   UNL     1      64.531  50.875  31.815  1.00  0.00     0.200 A 
ATOM      7  O   UNL     1      64.581  51.050  30.565  1.00  0.00    -0.288 OA
ATOM      8  C   UNL     1      66.955  51.279  32.003  1.00  0.00     0.020 A 
ATOM      9  C   UNL     1      68.083  51.412  32.811  1.00  0.00     0.047 A 
ATOM     10  C   UNL     1      67.961  51.446  34.202  1.00  0.00     0.125 A 
ATOM     11  C   UNL     1      66.677  51.410  34.801  1.00  0.00     0.069 A 
ENDROOT
BRANCH   1  12
ATOM     12  C   UNL     1      62.046  50.301  31.687  1.00  0.00    -0.011 A 
ATOM     13  C   UNL     1      61.131  51.344  31.429  1.00  0.00     0.013 A 
ATOM     14  C   UNL     1      59.920  51.088  30.775  1.00  0.00     0.047 A 
ATOM     15  C   UNL     1      59.619  49.795  30.332  1.00  0.00     0.115 A 
ATOM     16  C   UNL     1      61.720  48.999  31.240  1.00  0.00     0.013 A 
ATOM     17  C   UNL     1      60.532  48.758  30.545  1.00  0.00     0.047 A 
BRANCH  15  18
ATOM     18  O   UNL     1      58.412  49.531  29.683  1.00  0.00    -0.508 OA
ATOM     19  H   UNL     1      58.252  49.809  28.722  1.00  0.00     0.293 HD
ENDBRANCH  15  18
ENDBRANCH   1  12
BRANCH  11  20
ATOM     20  C   UNL     1      66.466  51.818  36.250  1.00  0.00     0.188 C 
ATOM     21  C   UNL     1      66.132  50.615  37.172  1.00  0.00     0.179 C 
ATOM     22  O   UNL     1      65.454  52.807  36.282  1.00  0.00    -0.362 OA
ATOM     23  C   UNL     1      65.036  50.975  38.203  1.00  0.00     0.177 C 
ATOM     24  C   UNL     1      65.441  53.445  37.550  1.00  0.00     0.176 C 
ATOM     25  C   UNL     1      65.194  52.426  38.715  1.00  0.00     0.177 C 
BRANCH  21  26
ATOM     26  O   UNL     1      67.303  50.249  37.856  1.00  0.00    -0.387 OA
ATOM     27  H   UNL     1      67.044  49.893  38.745  1.00  0.00     0.211 HD
ENDBRANCH  21  26
BRANCH  23  28
ATOM     28  O   UNL     1      63.765  50.810  37.622  1.00  0.00    -0.387 OA
ATOM     29  H   UNL     1      63.116  50.708  38.368  1.00  0.00     0.211 HD
ENDBRANCH  23  28
BRANCH  24  30
ATOM     30  C   UNL     1      64.427  54.596  37.480  1.00  0.00     0.191 C 
BRANCH  30  31
ATOM     31  O   UNL     1      63.381  54.255  36.603  1.00  0.00    -0.394 OA
ATOM     32  H   UNL     1      63.537  54.746  35.756  1.00  0.00     0.210 HD
ENDBRANCH  30  31
ENDBRANCH  24  30
BRANCH  25  33
ATOM     33  O   UNL     1      64.075  52.781  39.489  1.00  0.00    -0.388 OA
ATOM     34  H   UNL     1      63.910  53.748  39.338  1.00  0.00     0.211 HD
ENDBRANCH  25  33
ENDBRANCH  11  20
BRANCH  10  35
ATOM     35  O   UNL     1      69.135  51.484  34.954  1.00  0.00    -0.507 OA
ATOM     36  H   UNL     1      69.462  52.310  35.433  1.00  0.00     0.293 HD
ENDBRANCH  10  35
TORSDOF 9
ENDMDL
MODEL 9
REMARK VINA RESULT:    -4.826      3.161      6.846
REMARK INTER + INTRA:          -7.575
REMARK INTER:                  -6.395
REMARK INTRA:                  -1.181
REMARK UNBOUND:                -1.056
REMARK SMILES O=c1c(-c2ccc(O)cc2)coc2c([C@H]3O[C@@H](CO)[C@@H](O)[C@@H](O)[C@@H]3O)c(O)ccc12
REMARK SMILES IDX 3 1 11 2 12 3 13 4 30 5 2 6 1 7 29 8 28 9 26 10 14 11 4 12
REMARK SMILES IDX 5 13 6 14 7 15 10 16 9 17 8 18 15 20 24 21 16 22 22 23 17 24
REMARK SMILES IDX 20 25 25 26 23 28 18 30 19 31 21 33 27 35
REMARK H PARENT 8 19 25 27 23 29 19 32 21 34 27 36
REMARK Flexibility Score: inf
ROOT
ATOM      1  C   UNL     1      58.182  53.822  32.766  1.00  0.00     0.065 A 
ATOM      2  C   UNL     1      59.162  54.022  33.758  1.00  0.00     0.208 A 
ATOM      3  O   UNL     1      60.274  53.299  33.776  1.00  0.00    -0.463 OA
ATOM      4  C   UNL     1      60.515  52.311  32.915  1.00  0.00     0.147 A 
ATOM      5  C   UNL     1      59.548  51.973  31.946  1.00  0.00     0.066 A 
ATOM      6  C   UNL     1      58.409  52.792  31.824  1.00  0.00     0.200 A 
ATOM      7  O   UNL     1      57.640  52.647  30.833  1.00  0.00    -0.288 OA
ATOM      8  C   UNL     1      59.778  50.880  31.087  1.00  0.00     0.020 A 
ATOM      9  C   UNL     1      60.896  50.070  31.276  1.00  0.00     0.047 A 
ATOM     10  C   UNL     1      61.854  50.395  32.240  1.00  0.00     0.125 A 
ATOM     11  C   UNL     1      61.726  51.590  32.989  1.00  0.00     0.069 A 
ENDROOT
BRANCH   1  12
ATOM     12  C   UNL     1      56.961  54.689  32.735  1.00  0.00    -0.011 A 
ATOM     13  C   UNL     1      57.007  55.959  32.121  1.00  0.00     0.013 A 
ATOM     14  C   UNL     1      55.893  56.805  32.144  1.00  0.00     0.047 A 
ATOM     15  C   UNL     1      54.701  56.385  32.744  1.00  0.00     0.115 A 
ATOM     16  C   UNL     1      55.750  54.283  33.345  1.00  0.00     0.013 A 
ATOM     17  C   UNL     1      54.626  55.114  33.323  1.00  0.00     0.047 A 
BRANCH  15  18
ATOM     18  O   UNL     1      53.587  57.224  32.775  1.00  0.00    -0.508 OA
ATOM     19  H   UNL     1      53.564  58.059  33.350  1.00  0.00     0.293 HD
ENDBRANCH  15  18
ENDBRANCH   1  12
BRANCH  11  20
ATOM     20  C   UNL     1      62.901  52.173  33.758  1.00  0.00     0.188 C 
ATOM     21  C   UNL     1      64.051  52.648  32.831  1.00  0.00     0.179 C 
ATOM     22  O   UNL     1      63.338  51.202  34.690  1.00  0.00    -0.362 OA
ATOM     23  C   UNL     1      65.438  52.294  33.418  1.00  0.00     0.177 C 
ATOM     24  C   UNL     1      64.209  51.800  35.640  1.00  0.00     0.176 C 
ATOM     25  C   UNL     1      65.461  52.451  34.956  1.00  0.00     0.177 C 
BRANCH  21  26
ATOM     26  O   UNL     1      63.955  54.043  32.693  1.00  0.00    -0.387 OA
ATOM     27  H   UNL     1      62.993  54.286  32.669  1.00  0.00     0.211 HD
ENDBRANCH  21  26
BRANCH  23  28
ATOM     28  O   UNL     1      65.778  50.973  33.068  1.00  0.00    -0.387 OA
ATOM     29  H   UNL     1      65.997  50.978  32.098  1.00  0.00     0.211 HD
ENDBRANCH  23  28
BRANCH  24  30
ATOM     30  C   UNL     1      64.536  50.741  36.701  1.00  0.00     0.191 C 
BRANCH  30  31
ATOM     31  O   UNL     1      63.350  50.120  37.135  1.00  0.00    -0.394 OA
ATOM     32  H   UNL     1      63.189  50.415  38.068  1.00  0.00     0.210 HD
ENDBRANCH  30  31
ENDBRANCH  24  30
BRANCH  25  33
ATOM     33  O   UNL     1      66.662  51.931  35.470  1.00  0.00    -0.388 OA
ATOM     34  H   UNL     1      67.151  52.686  35.890  1.00  0.00     0.211 HD
ENDBRANCH  25  33
ENDBRANCH  11  20
BRANCH  10  35
ATOM     35  O   UNL     1      62.897  49.492  32.445  1.00  0.00    -0.507 OA
ATOM     36  H   UNL     1      63.871  49.740  32.359  1.00  0.00     0.293 HD
ENDBRANCH  10  35
TORSDOF 9
ENDMDL
