MODEL 1
REMARK VINA RESULT:    -4.434      0.000      0.000
REMARK INTER + INTRA:          -4.868
REMARK INTER:                  -4.823
REMARK INTRA:                  -0.046
REMARK UNBOUND:                -0.046
REMARK SMILES COc1ccccc1O
REMARK SMILES IDX 3 1 4 2 5 3 6 4 7 5 8 6 2 7 1 8 9 9
REMARK H PARENT 9 10
REMARK Flexibility Score: inf
ROOT
ATOM      1  C   UNL     1     -13.578 -41.269  -9.458  1.00  0.00     0.160 A 
ATOM      2  C   UNL     1     -14.044 -42.560  -9.776  1.00  0.00     0.050 A 
ATOM      3  C   UNL     1     -15.310 -42.732 -10.343  1.00  0.00     0.004 A 
ATOM      4  C   UNL     1     -16.121 -41.624 -10.597  1.00  0.00     0.004 A 
ATOM      5  C   UNL     1     -15.668 -40.341 -10.285  1.00  0.00     0.050 A 
ATOM      6  C   UNL     1     -14.399 -40.160  -9.716  1.00  0.00     0.157 A 
ENDROOT
BRANCH   1   7
ATOM      7  O   UNL     1     -12.314 -41.048  -8.888  1.00  0.00    -0.493 OA
ATOM      8  C   UNL     1     -11.093 -41.028  -9.622  1.00  0.00     0.278 C 
ENDBRANCH   1   7
BRANCH   6   9
ATOM      9  O   UNL     1     -13.946 -38.879  -9.404  1.00  0.00    -0.504 OA
ATOM     10  H   UNL     1     -14.464 -38.270  -8.781  1.00  0.00     0.293 HD
ENDBRANCH   6   9
TORSDOF 2
ENDMDL
MODEL 2
REMARK VINA RESULT:    -4.303      1.756      2.074
REMARK INTER + INTRA:          -4.726
REMARK INTER:                  -4.680
REMARK INTRA:                  -0.046
REMARK UNBOUND:                -0.046
REMARK SMILES COc1ccccc1O
REMARK SMILES IDX 3 1 4 2 5 3 6 4 7 5 8 6 2 7 1 8 9 9
REMARK H PARENT 9 10
REMARK Flexibility Score: inf
ROOT
ATOM      1  C   UNL     1     -14.599 -41.540  -8.395  1.00  0.00     0.160 A 
ATOM      2  C   UNL     1     -14.723 -42.699  -9.186  1.00  0.00     0.050 A 
ATOM      3  C   UNL     1     -15.464 -42.669 -10.370  1.00  0.00     0.004 A 
ATOM      4  C   UNL     1     -16.087 -41.487 -10.777  1.00  0.00     0.004 A 
ATOM      5  C   UNL     1     -15.970 -40.332 -10.000  1.00  0.00     0.050 A 
ATOM      6  C   UNL     1     -15.228 -40.355  -8.811  1.00  0.00     0.157 A 
ENDROOT
BRANCH   1   7
ATOM      7  O   UNL     1     -13.865 -41.524  -7.199  1.00  0.00    -0.493 OA
ATOM      8  C   UNL     1     -14.346 -42.018  -5.952  1.00  0.00     0.278 C 
ENDBRANCH   1   7
BRANCH   6   9
ATOM      9  O   UNL     1     -15.110 -39.203  -8.035  1.00  0.00    -0.504 OA
ATOM     10  H   UNL     1     -14.231 -38.942  -7.603  1.00  0.00     0.293 HD
ENDBRANCH   6   9
TORSDOF 2
ENDMDL
MODEL 3
REMARK VINA RESULT:    -4.155      9.134      9.908
REMARK INTER + INTRA:          -4.565
REMARK INTER:                  -4.532
REMARK INTRA:                  -0.033
REMARK UNBOUND:                -0.046
REMARK SMILES COc1ccccc1O
REMARK SMILES IDX 3 1 4 2 5 3 6 4 7 5 8 6 2 7 1 8 9 9
REMARK H PARENT 9 10
REMARK Flexibility Score: inf
ROOT
ATOM      1  C   UNL     1     -13.296 -47.937  -2.854  1.00  0.00     0.160 A 
ATOM      2  C   UNL     1     -12.455 -47.657  -3.949  1.00  0.00     0.050 A 
ATOM      3  C   UNL     1     -12.762 -48.153  -5.219  1.00  0.00     0.004 A 
ATOM      4  C   UNL     1     -13.907 -48.930  -5.410  1.00  0.00     0.004 A 
ATOM      5  C   UNL     1     -14.747 -49.213  -4.332  1.00  0.00     0.050 A 
ATOM      6  C   UNL     1     -14.445 -48.719  -3.054  1.00  0.00     0.157 A 
ENDROOT
BRANCH   1   7
ATOM      7  O   UNL     1     -13.028 -47.460  -1.562  1.00  0.00    -0.493 OA
ATOM      8  C   UNL     1     -12.596 -46.135  -1.266  1.00  0.00     0.278 C 
ENDBRANCH   1   7
BRANCH   6   9
ATOM      9  O   UNL     1     -15.284 -49.000  -1.977  1.00  0.00    -0.504 OA
ATOM     10  H   UNL     1     -16.029 -49.683  -2.049  1.00  0.00     0.293 HD
ENDBRANCH   6   9
TORSDOF 2
ENDMDL
MODEL 4
REMARK VINA RESULT:    -4.105      7.759      8.602
REMARK INTER + INTRA:          -4.511
REMARK INTER:                  -4.484
REMARK INTRA:                  -0.027
REMARK UNBOUND:                -0.046
REMARK SMILES COc1ccccc1O
REMARK SMILES IDX 3 1 4 2 5 3 6 4 7 5 8 6 2 7 1 8 9 9
REMARK H PARENT 9 10
REMARK Flexibility Score: inf
ROOT
ATOM      1  C   UNL     1     -12.569 -47.214  -4.471  1.00  0.00     0.160 A 
ATOM      2  C   UNL     1     -12.940 -47.888  -3.291  1.00  0.00     0.050 A 
ATOM      3  C   UNL     1     -13.879 -48.923  -3.335  1.00  0.00     0.004 A 
ATOM      4  C   UNL     1     -14.456 -49.295  -4.551  1.00  0.00     0.004 A 
ATOM      5  C   UNL     1     -14.095 -48.633  -5.727  1.00  0.00     0.050 A 
ATOM      6  C   UNL     1     -13.154 -47.594  -5.691  1.00  0.00     0.157 A 
ENDROOT
BRANCH   1   7
ATOM      7  O   UNL     1     -11.631 -46.171  -4.475  1.00  0.00    -0.493 OA
ATOM      8  C   UNL     1     -10.969 -45.680  -3.312  1.00  0.00     0.278 C 
ENDBRANCH   1   7
BRANCH   6   9
ATOM      9  O   UNL     1     -12.792 -46.933  -6.863  1.00  0.00    -0.504 OA
ATOM     10  H   UNL     1     -13.485 -46.632  -7.538  1.00  0.00     0.293 HD
ENDBRANCH   6   9
TORSDOF 2
ENDMDL
MODEL 5
REMARK VINA RESULT:    -4.095      9.879     10.923
REMARK INTER + INTRA:          -4.500
REMARK INTER:                  -4.471
REMARK INTRA:                  -0.029
REMARK UNBOUND:                -0.046
REMARK SMILES COc1ccccc1O
REMARK SMILES IDX 3 1 4 2 5 3 6 4 7 5 8 6 2 7 1 8 9 9
REMARK H PARENT 9 10
REMARK Flexibility Score: inf
ROOT
ATOM      1  C   UNL     1     -15.250 -47.408  -1.879  1.00  0.00     0.160 A 
ATOM      2  C   UNL     1     -14.993 -48.195  -3.020  1.00  0.00     0.050 A 
ATOM      3  C   UNL     1     -14.034 -49.210  -2.974  1.00  0.00     0.004 A 
ATOM      4  C   UNL     1     -13.323 -49.452  -1.796  1.00  0.00     0.004 A 
ATOM      5  C   UNL     1     -13.571 -48.677  -0.660  1.00  0.00     0.050 A 
ATOM      6  C   UNL     1     -14.531 -47.657  -0.698  1.00  0.00     0.157 A 
ENDROOT
BRANCH   1   7
ATOM      7  O   UNL     1     -16.203 -46.379  -1.879  1.00  0.00    -0.493 OA
ATOM      8  C   UNL     1     -16.578 -45.628  -3.031  1.00  0.00     0.278 C 
ENDBRANCH   1   7
BRANCH   6   9
ATOM      9  O   UNL     1     -14.780 -46.883   0.435  1.00  0.00    -0.504 OA
ATOM     10  H   UNL     1     -14.026 -46.539   1.017  1.00  0.00     0.293 HD
ENDBRANCH   6   9
TORSDOF 2
ENDMDL
MODEL 6
REMARK VINA RESULT:    -4.091     10.244     11.302
REMARK INTER + INTRA:          -4.496
REMARK INTER:                  -4.471
REMARK INTRA:                  -0.025
REMARK UNBOUND:                -0.046
REMARK SMILES COc1ccccc1O
REMARK SMILES IDX 3 1 4 2 5 3 6 4 7 5 8 6 2 7 1 8 9 9
REMARK H PARENT 9 10
REMARK Flexibility Score: inf
ROOT
ATOM      1  C   UNL     1     -14.670 -47.510  -1.170  1.00  0.00     0.160 A 
ATOM      2  C   UNL     1     -15.375 -47.449  -2.389  1.00  0.00     0.050 A 
ATOM      3  C   UNL     1     -15.000 -48.264  -3.461  1.00  0.00     0.004 A 
ATOM      4  C   UNL     1     -13.923 -49.144  -3.330  1.00  0.00     0.004 A 
ATOM      5  C   UNL     1     -13.219 -49.211  -2.126  1.00  0.00     0.050 A 
ATOM      6  C   UNL     1     -13.589 -48.397  -1.046  1.00  0.00     0.157 A 
ENDROOT
BRANCH   1   7
ATOM      7  O   UNL     1     -15.011 -46.712  -0.067  1.00  0.00    -0.493 OA
ATOM      8  C   UNL     1     -15.953 -47.084   0.935  1.00  0.00     0.278 C 
ENDBRANCH   1   7
BRANCH   6   9
ATOM      9  O   UNL     1     -12.887 -48.464   0.156  1.00  0.00    -0.504 OA
ATOM     10  H   UNL     1     -12.672 -49.351   0.597  1.00  0.00     0.293 HD
ENDBRANCH   6   9
TORSDOF 2
ENDMDL
MODEL 7
REMARK VINA RESULT:    -4.072      8.632      9.681
REMARK INTER + INTRA:          -4.475
REMARK INTER:                  -4.438
REMARK INTRA:                  -0.037
REMARK UNBOUND:                -0.046
REMARK SMILES COc1ccccc1O
REMARK SMILES IDX 3 1 4 2 5 3 6 4 7 5 8 6 2 7 1 8 9 9
REMARK H PARENT 9 10
REMARK Flexibility Score: inf
ROOT
ATOM      1  C   UNL     1     -13.504 -48.046  -3.018  1.00  0.00     0.160 A 
ATOM      2  C   UNL     1     -14.501 -48.936  -3.464  1.00  0.00     0.050 A 
ATOM      3  C   UNL     1     -14.591 -49.273  -4.818  1.00  0.00     0.004 A 
ATOM      4  C   UNL     1     -13.691 -48.729  -5.737  1.00  0.00     0.004 A 
ATOM      5  C   UNL     1     -12.699 -47.846  -5.305  1.00  0.00     0.050 A 
ATOM      6  C   UNL     1     -12.603 -47.503  -3.948  1.00  0.00     0.157 A 
ENDROOT
BRANCH   1   7
ATOM      7  O   UNL     1     -13.376 -47.680  -1.669  1.00  0.00    -0.493 OA
ATOM      8  C   UNL     1     -13.306 -48.605  -0.587  1.00  0.00     0.278 C 
ENDBRANCH   1   7
BRANCH   6   9
ATOM      9  O   UNL     1     -11.613 -46.623  -3.515  1.00  0.00    -0.504 OA
ATOM     10  H   UNL     1     -11.483 -45.716  -3.948  1.00  0.00     0.293 HD
ENDBRANCH   6   9
TORSDOF 2
ENDMDL
MODEL 8
REMARK VINA RESULT:    -4.023     10.291     11.197
REMARK INTER + INTRA:          -4.422
REMARK INTER:                  -4.385
REMARK INTRA:                  -0.036
REMARK UNBOUND:                -0.046
REMARK SMILES COc1ccccc1O
REMARK SMILES IDX 3 1 4 2 5 3 6 4 7 5 8 6 2 7 1 8 9 9
REMARK H PARENT 9 10
REMARK Flexibility Score: inf
ROOT
ATOM      1  C   UNL     1     -14.879 -47.770  -0.920  1.00  0.00     0.160 A 
ATOM      2  C   UNL     1     -13.888 -48.752  -0.719  1.00  0.00     0.050 A 
ATOM      3  C   UNL     1     -13.377 -49.469  -1.805  1.00  0.00     0.004 A 
ATOM      4  C   UNL     1     -13.846 -49.216  -3.096  1.00  0.00     0.004 A 
ATOM      5  C   UNL     1     -14.828 -48.245  -3.305  1.00  0.00     0.050 A 
ATOM      6  C   UNL     1     -15.346 -47.521  -2.221  1.00  0.00     0.157 A 
ENDROOT
BRANCH   1   7
ATOM      7  O   UNL     1     -15.420 -47.025   0.139  1.00  0.00    -0.493 OA
ATOM      8  C   UNL     1     -15.934 -47.592   1.342  1.00  0.00     0.278 C 
ENDBRANCH   1   7
BRANCH   6   9
ATOM      9  O   UNL     1     -16.325 -46.552  -2.428  1.00  0.00    -0.504 OA
ATOM     10  H   UNL     1     -16.983 -46.618  -3.195  1.00  0.00     0.293 HD
ENDBRANCH   6   9
TORSDOF 2
ENDMDL
MODEL 9
REMARK VINA RESULT:    -3.944      8.469      9.654
REMARK INTER + INTRA:          -4.336
REMARK INTER:                  -4.295
REMARK INTRA:                  -0.041
REMARK UNBOUND:                -0.046
REMARK SMILES COc1ccccc1O
REMARK SMILES IDX 3 1 4 2 5 3 6 4 7 5 8 6 2 7 1 8 9 9
REMARK H PARENT 9 10
REMARK Flexibility Score: inf
ROOT
ATOM      1  C   UNL     1     -15.155 -47.184  -3.388  1.00  0.00     0.160 A 
ATOM      2  C   UNL     1     -14.786 -46.692  -4.656  1.00  0.00     0.050 A 
ATOM      3  C   UNL     1     -14.174 -47.535  -5.588  1.00  0.00     0.004 A 
ATOM      4  C   UNL     1     -13.924 -48.871  -5.267  1.00  0.00     0.004 A 
ATOM      5  C   UNL     1     -14.287 -49.368  -4.013  1.00  0.00     0.050 A 
ATOM      6  C   UNL     1     -14.901 -48.528  -3.073  1.00  0.00     0.157 A 
ENDROOT
BRANCH   1   7
ATOM      7  O   UNL     1     -15.772 -46.374  -2.422  1.00  0.00    -0.493 OA
ATOM      8  C   UNL     1     -17.026 -45.722  -2.600  1.00  0.00     0.278 C 
ENDBRANCH   1   7
BRANCH   6   9
ATOM      9  O   UNL     1     -15.263 -49.023  -1.821  1.00  0.00    -0.504 OA
ATOM     10  H   UNL     1     -14.570 -49.238  -1.115  1.00  0.00     0.293 HD
ENDBRANCH   6   9
TORSDOF 2
ENDMDL
