MODEL 1
REMARK VINA RESULT:    -5.226      0.000      0.000
REMARK INTER + INTRA:          -6.056
REMARK INTER:                  -5.837
REMARK INTRA:                  -0.219
REMARK UNBOUND:                -0.219
REMARK SMILES CC(C)c1ccc(C(=O)[O-])cc1
REMARK SMILES IDX 7 1 6 2 11 3 5 4 12 5 4 6 8 7 9 8 10 9 2 10 1 11 3 12
REMARK H PARENT
REMARK Flexibility Score: inf
ROOT
ATOM      1  C   UNL     1      51.278  32.065  61.317  1.00  0.00    -0.003 A 
ATOM      2  C   UNL     1      49.949  32.494  61.470  1.00  0.00     0.010 A 
ATOM      3  C   UNL     1      51.937  32.311  60.100  1.00  0.00     0.010 A 
ATOM      4  C   UNL     1      49.293  33.157  60.429  1.00  0.00     0.004 A 
ATOM      5  C   UNL     1      51.281  32.974  59.059  1.00  0.00     0.004 A 
ATOM      6  C   UNL     1      49.951  33.404  59.211  1.00  0.00    -0.045 A 
ENDROOT
BRANCH   1   7
ATOM      7  C   UNL     1      51.977  31.362  62.415  1.00  0.00     0.071 C 
ATOM      8  O   UNL     1      52.998  30.662  62.180  1.00  0.00    -0.545 OA
ATOM      9  O   UNL     1      51.516  31.464  63.723  1.00  0.00    -0.545 OA
ENDBRANCH   1   7
BRANCH   6  10
ATOM     10  C   UNL     1      49.252  34.123  58.073  1.00  0.00     0.013 C 
ATOM     11  C   UNL     1      47.873  33.512  57.797  1.00  0.00     0.012 C 
ATOM     12  C   UNL     1      50.117  34.125  56.807  1.00  0.00     0.012 C 
ENDBRANCH   6  10
TORSDOF 2
ENDMDL
MODEL 2
REMARK VINA RESULT:    -4.816      2.934      4.346
REMARK INTER + INTRA:          -5.598
REMARK INTER:                  -5.392
REMARK INTRA:                  -0.205
REMARK UNBOUND:                -0.219
REMARK SMILES CC(C)c1ccc(C(=O)[O-])cc1
REMARK SMILES IDX 7 1 6 2 11 3 5 4 12 5 4 6 8 7 9 8 10 9 2 10 1 11 3 12
REMARK H PARENT
REMARK Flexibility Score: inf
ROOT
ATOM      1  C   UNL     1      50.161  32.206  64.592  1.00  0.00    -0.003 A 
ATOM      2  C   UNL     1      51.494  31.778  64.469  1.00  0.00     0.010 A 
ATOM      3  C   UNL     1      49.384  32.353  63.431  1.00  0.00     0.010 A 
ATOM      4  C   UNL     1      52.037  31.500  63.212  1.00  0.00     0.004 A 
ATOM      5  C   UNL     1      49.927  32.076  62.173  1.00  0.00     0.004 A 
ATOM      6  C   UNL     1      51.260  31.647  62.048  1.00  0.00    -0.045 A 
ENDROOT
BRANCH   1   7
ATOM      7  C   UNL     1      49.582  32.501  65.920  1.00  0.00     0.071 C 
ATOM      8  O   UNL     1      48.962  33.580  66.124  1.00  0.00    -0.545 OA
ATOM      9  O   UNL     1      49.713  31.593  66.964  1.00  0.00    -0.545 OA
ENDBRANCH   1   7
BRANCH   6  10
ATOM     10  C   UNL     1      51.836  31.349  60.677  1.00  0.00     0.013 C 
ATOM     11  C   UNL     1      51.650  32.539  59.729  1.00  0.00     0.012 C 
ATOM     12  C   UNL     1      51.224  30.073  60.087  1.00  0.00     0.012 C 
ENDBRANCH   6  10
TORSDOF 2
ENDMDL
MODEL 3
REMARK VINA RESULT:    -4.810      2.959      4.247
REMARK INTER + INTRA:          -5.591
REMARK INTER:                  -5.389
REMARK INTRA:                  -0.202
REMARK UNBOUND:                -0.219
REMARK SMILES CC(C)c1ccc(C(=O)[O-])cc1
REMARK SMILES IDX 7 1 6 2 11 3 5 4 12 5 4 6 8 7 9 8 10 9 2 10 1 11 3 12
REMARK H PARENT
REMARK Flexibility Score: inf
ROOT
ATOM      1  C   UNL     1      50.178  32.194  64.593  1.00  0.00    -0.003 A 
ATOM      2  C   UNL     1      49.387  32.302  63.437  1.00  0.00     0.010 A 
ATOM      3  C   UNL     1      51.519  31.793  64.466  1.00  0.00     0.010 A 
ATOM      4  C   UNL     1      49.925  32.017  62.179  1.00  0.00     0.004 A 
ATOM      5  C   UNL     1      52.057  31.508  63.208  1.00  0.00     0.004 A 
ATOM      6  C   UNL     1      51.268  31.616  62.050  1.00  0.00    -0.045 A 
ENDROOT
BRANCH   1   7
ATOM      7  C   UNL     1      49.613  32.495  65.926  1.00  0.00     0.071 C 
ATOM      8  O   UNL     1      48.974  33.563  66.125  1.00  0.00    -0.545 OA
ATOM      9  O   UNL     1      49.779  31.603  66.980  1.00  0.00    -0.545 OA
ENDBRANCH   1   7
BRANCH   6  10
ATOM     10  C   UNL     1      51.866  31.303  60.691  1.00  0.00     0.013 C 
ATOM     11  C   UNL     1      51.718  32.493  59.736  1.00  0.00     0.012 C 
ATOM     12  C   UNL     1      51.244  30.035  60.093  1.00  0.00     0.012 C 
ENDBRANCH   6  10
TORSDOF 2
ENDMDL
MODEL 4
REMARK VINA RESULT:    -4.636      3.042      5.233
REMARK INTER + INTRA:          -5.397
REMARK INTER:                  -5.176
REMARK INTRA:                  -0.221
REMARK UNBOUND:                -0.219
REMARK SMILES CC(C)c1ccc(C(=O)[O-])cc1
REMARK SMILES IDX 7 1 6 2 11 3 5 4 12 5 4 6 8 7 9 8 10 9 2 10 1 11 3 12
REMARK H PARENT
REMARK Flexibility Score: inf
ROOT
ATOM      1  C   UNL     1      49.750  33.231  59.058  1.00  0.00    -0.003 A 
ATOM      2  C   UNL     1      51.096  32.849  58.933  1.00  0.00     0.010 A 
ATOM      3  C   UNL     1      49.098  33.037  60.287  1.00  0.00     0.010 A 
ATOM      4  C   UNL     1      51.777  32.285  60.016  1.00  0.00     0.004 A 
ATOM      5  C   UNL     1      49.779  32.474  61.370  1.00  0.00     0.004 A 
ATOM      6  C   UNL     1      51.125  32.091  61.248  1.00  0.00    -0.045 A 
ENDROOT
BRANCH   1   7
ATOM      7  C   UNL     1      49.025  33.828  57.915  1.00  0.00     0.071 C 
ATOM      8  O   UNL     1      49.636  34.123  56.852  1.00  0.00    -0.545 OA
ATOM      9  O   UNL     1      47.658  34.071  57.996  1.00  0.00    -0.545 OA
ENDBRANCH   1   7
BRANCH   6  10
ATOM     10  C   UNL     1      51.852  31.481  62.432  1.00  0.00     0.013 C 
ATOM     11  C   UNL     1      52.952  30.518  61.969  1.00  0.00     0.012 C 
ATOM     12  C   UNL     1      50.870  30.782  63.380  1.00  0.00     0.012 C 
ENDBRANCH   6  10
TORSDOF 2
ENDMDL
MODEL 5
REMARK VINA RESULT:    -4.624      1.796      3.058
REMARK INTER + INTRA:          -5.383
REMARK INTER:                  -5.165
REMARK INTRA:                  -0.219
REMARK UNBOUND:                -0.219
REMARK SMILES CC(C)c1ccc(C(=O)[O-])cc1
REMARK SMILES IDX 7 1 6 2 11 3 5 4 12 5 4 6 8 7 9 8 10 9 2 10 1 11 3 12
REMARK H PARENT
REMARK Flexibility Score: inf
ROOT
ATOM      1  C   UNL     1      51.024  31.669  63.814  1.00  0.00    -0.003 A 
ATOM      2  C   UNL     1      51.936  31.310  62.807  1.00  0.00     0.010 A 
ATOM      3  C   UNL     1      49.842  32.339  63.454  1.00  0.00     0.010 A 
ATOM      4  C   UNL     1      51.672  31.614  61.469  1.00  0.00     0.004 A 
ATOM      5  C   UNL     1      49.578  32.643  62.116  1.00  0.00     0.004 A 
ATOM      6  C   UNL     1      50.489  32.285  61.107  1.00  0.00    -0.045 A 
ENDROOT
BRANCH   1   7
ATOM      7  C   UNL     1      51.299  31.350  65.231  1.00  0.00     0.071 C 
ATOM      8  O   UNL     1      51.996  30.345  65.538  1.00  0.00    -0.545 OA
ATOM      9  O   UNL     1      50.792  32.153  66.247  1.00  0.00    -0.545 OA
ENDBRANCH   1   7
BRANCH   6  10
ATOM     10  C   UNL     1      50.189  32.621  59.659  1.00  0.00     0.013 C 
ATOM     11  C   UNL     1      51.455  32.538  58.798  1.00  0.00     0.012 C 
ATOM     12  C   UNL     1      49.530  34.001  59.538  1.00  0.00     0.012 C 
ENDBRANCH   6  10
TORSDOF 2
ENDMDL
MODEL 6
REMARK VINA RESULT:    -4.623      4.630      6.609
REMARK INTER + INTRA:          -5.382
REMARK INTER:                  -5.178
REMARK INTRA:                  -0.204
REMARK UNBOUND:                -0.219
REMARK SMILES CC(C)c1ccc(C(=O)[O-])cc1
REMARK SMILES IDX 7 1 6 2 11 3 5 4 12 5 4 6 8 7 9 8 10 9 2 10 1 11 3 12
REMARK H PARENT
REMARK Flexibility Score: inf
ROOT
ATOM      1  C   UNL     1      49.581  31.959  64.103  1.00  0.00    -0.003 A 
ATOM      2  C   UNL     1      48.409  31.195  63.975  1.00  0.00     0.010 A 
ATOM      3  C   UNL     1      49.680  32.881  65.159  1.00  0.00     0.010 A 
ATOM      4  C   UNL     1      47.358  31.348  64.884  1.00  0.00     0.004 A 
ATOM      5  C   UNL     1      48.629  33.034  66.069  1.00  0.00     0.004 A 
ATOM      6  C   UNL     1      47.456  32.270  65.942  1.00  0.00    -0.045 A 
ENDROOT
BRANCH   1   7
ATOM      7  C   UNL     1      50.695  31.801  63.143  1.00  0.00     0.071 C 
ATOM      8  O   UNL     1      50.495  31.922  61.905  1.00  0.00    -0.545 OA
ATOM      9  O   UNL     1      51.979  31.517  63.594  1.00  0.00    -0.545 OA
ENDBRANCH   1   7
BRANCH   6  10
ATOM     10  C   UNL     1      46.325  32.447  66.937  1.00  0.00     0.013 C 
ATOM     11  C   UNL     1      45.754  33.868  66.878  1.00  0.00     0.012 C 
ATOM     12  C   UNL     1      46.780  32.094  68.358  1.00  0.00     0.012 C 
ENDBRANCH   6  10
TORSDOF 2
ENDMDL
MODEL 7
REMARK VINA RESULT:    -4.531      4.836      6.471
REMARK INTER + INTRA:          -5.279
REMARK INTER:                  -5.069
REMARK INTRA:                  -0.211
REMARK UNBOUND:                -0.219
REMARK SMILES CC(C)c1ccc(C(=O)[O-])cc1
REMARK SMILES IDX 7 1 6 2 11 3 5 4 12 5 4 6 8 7 9 8 10 9 2 10 1 11 3 12
REMARK H PARENT
REMARK Flexibility Score: inf
ROOT
ATOM      1  C   UNL     1      47.859  32.420  66.796  1.00  0.00    -0.003 A 
ATOM      2  C   UNL     1      47.297  31.631  65.778  1.00  0.00     0.010 A 
ATOM      3  C   UNL     1      49.082  33.068  66.558  1.00  0.00     0.010 A 
ATOM      4  C   UNL     1      47.944  31.495  64.546  1.00  0.00     0.004 A 
ATOM      5  C   UNL     1      49.730  32.932  65.326  1.00  0.00     0.004 A 
ATOM      6  C   UNL     1      49.169  32.144  64.306  1.00  0.00    -0.045 A 
ENDROOT
BRANCH   1   7
ATOM      7  C   UNL     1      47.177  32.567  68.100  1.00  0.00     0.071 C 
ATOM      8  O   UNL     1      46.910  31.554  68.801  1.00  0.00    -0.545 OA
ATOM      9  O   UNL     1      46.821  33.825  68.572  1.00  0.00    -0.545 OA
ENDBRANCH   1   7
BRANCH   6  10
ATOM     10  C   UNL     1      49.883  32.005  62.975  1.00  0.00     0.013 C 
ATOM     11  C   UNL     1      49.093  31.109  62.015  1.00  0.00     0.012 C 
ATOM     12  C   UNL     1      51.312  31.483  63.167  1.00  0.00     0.012 C 
ENDBRANCH   6  10
TORSDOF 2
ENDMDL
MODEL 8
REMARK VINA RESULT:    -4.496      3.528      5.523
REMARK INTER + INTRA:          -5.241
REMARK INTER:                  -5.026
REMARK INTRA:                  -0.215
REMARK UNBOUND:                -0.219
REMARK SMILES CC(C)c1ccc(C(=O)[O-])cc1
REMARK SMILES IDX 7 1 6 2 11 3 5 4 12 5 4 6 8 7 9 8 10 9 2 10 1 11 3 12
REMARK H PARENT
REMARK Flexibility Score: inf
ROOT
ATOM      1  C   UNL     1      51.274  31.509  62.786  1.00  0.00    -0.003 A 
ATOM      2  C   UNL     1      49.882  31.517  62.590  1.00  0.00     0.010 A 
ATOM      3  C   UNL     1      51.788  31.906  64.032  1.00  0.00     0.010 A 
ATOM      4  C   UNL     1      49.023  31.911  63.619  1.00  0.00     0.004 A 
ATOM      5  C   UNL     1      50.928  32.301  65.061  1.00  0.00     0.004 A 
ATOM      6  C   UNL     1      49.536  32.309  64.867  1.00  0.00    -0.045 A 
ENDROOT
BRANCH   1   7
ATOM      7  C   UNL     1      52.188  31.093  61.701  1.00  0.00     0.071 C 
ATOM      8  O   UNL     1      53.152  31.829  61.357  1.00  0.00    -0.545 OA
ATOM      9  O   UNL     1      51.996  29.884  61.042  1.00  0.00    -0.545 OA
ENDBRANCH   1   7
BRANCH   6  10
ATOM     10  C   UNL     1      48.615  32.739  65.994  1.00  0.00     0.013 C 
ATOM     11  C   UNL     1      49.125  32.235  67.348  1.00  0.00     0.012 C 
ATOM     12  C   UNL     1      47.176  32.273  65.738  1.00  0.00     0.012 C 
ENDBRANCH   6  10
TORSDOF 2
ENDMDL
MODEL 9
REMARK VINA RESULT:    -4.485      3.405      4.868
REMARK INTER + INTRA:          -5.228
REMARK INTER:                  -5.017
REMARK INTRA:                  -0.211
REMARK UNBOUND:                -0.219
REMARK SMILES CC(C)c1ccc(C(=O)[O-])cc1
REMARK SMILES IDX 7 1 6 2 11 3 5 4 12 5 4 6 8 7 9 8 10 9 2 10 1 11 3 12
REMARK H PARENT
REMARK Flexibility Score: inf
ROOT
ATOM      1  C   UNL     1      48.454  31.380  64.062  1.00  0.00    -0.003 A 
ATOM      2  C   UNL     1      48.441  30.428  63.029  1.00  0.00     0.010 A 
ATOM      3  C   UNL     1      49.533  32.276  64.149  1.00  0.00     0.010 A 
ATOM      4  C   UNL     1      49.484  30.374  62.100  1.00  0.00     0.004 A 
ATOM      5  C   UNL     1      50.576  32.223  63.219  1.00  0.00     0.004 A 
ATOM      6  C   UNL     1      50.564  31.271  62.185  1.00  0.00    -0.045 A 
ENDROOT
BRANCH   1   7
ATOM      7  C   UNL     1      47.353  31.440  65.048  1.00  0.00     0.071 C 
ATOM      8  O   UNL     1      47.136  32.496  65.702  1.00  0.00    -0.545 OA
ATOM      9  O   UNL     1      46.541  30.333  65.267  1.00  0.00    -0.545 OA
ENDBRANCH   1   7
BRANCH   6  10
ATOM     10  C   UNL     1      51.703  31.225  61.183  1.00  0.00     0.013 C 
ATOM     11  C   UNL     1      53.053  31.463  61.870  1.00  0.00     0.012 C 
ATOM     12  C   UNL     1      51.479  32.230  60.046  1.00  0.00     0.012 C 
ENDBRANCH   6  10
TORSDOF 2
ENDMDL
