MODEL 1
REMARK VINA RESULT:     0.000      0.000      0.000
REMARK INTER + INTRA:          -3.112
REMARK INTER:                   0.000
REMARK INTRA:                  -3.112
REMARK UNBOUND:                -3.112
REMARK SMILES O=C([O-])CCCCCCCCCCCCCCC(=O)[O-]
REMARK SMILES IDX 10 1 9 2 8 3 7 4 6 5 5 6 4 7 2 8 1 9 3 10 11 11 12 12 13 13
REMARK SMILES IDX 14 14 15 15 16 16 17 17 18 18 19 19 20 20
REMARK H PARENT
REMARK Flexibility Score: inf
ROOT
ATOM      1  C   UNL     1     181.603 182.651 184.351  1.00  0.00     0.000 C 
ENDROOT
BRANCH   1   2
ATOM      2  C   UNL     1     181.537 182.133 182.905  1.00  0.00     0.000 C 
BRANCH   2   3
ATOM      3  C   UNL     1     182.532 182.849 181.974  1.00  0.00     0.000 C 
BRANCH   3   4
ATOM      4  C   UNL     1     183.601 181.899 181.409  1.00  0.00     0.000 C 
BRANCH   4   5
ATOM      5  C   UNL     1     185.019 182.491 181.488  1.00  0.00     0.000 C 
BRANCH   5   6
ATOM      6  C   UNL     1     185.011 184.015 181.694  1.00  0.00     0.006 C 
BRANCH   6   7
ATOM      7  C   UNL     1     185.938 184.463 182.832  1.00  0.00     0.053 C 
BRANCH   7   8
ATOM      8  C   UNL     1     187.340 184.011 182.571  1.00  0.00     0.041 C 
ATOM      9  O   UNL     1     187.933 183.272 183.400  1.00  0.00    -0.550 OA
ATOM     10  O   UNL     1     188.010 184.446 181.434  1.00  0.00    -0.550 OA
ENDBRANCH   7   8
ENDBRANCH   6   7
ENDBRANCH   5   6
ENDBRANCH   4   5
ENDBRANCH   3   4
ENDBRANCH   2   3
ENDBRANCH   1   2
BRANCH   1  11
ATOM     11  C   UNL     1     182.506 183.885 184.500  1.00  0.00     0.000 C 
BRANCH  11  12
ATOM     12  C   UNL     1     183.536 183.677 185.621  1.00  0.00     0.000 C 
BRANCH  12  13
ATOM     13  C   UNL     1     183.872 182.194 185.850  1.00  0.00     0.000 C 
BRANCH  13  14
ATOM     14  C   UNL     1     185.193 181.777 185.180  1.00  0.00     0.000 C 
BRANCH  14  15
ATOM     15  C   UNL     1     185.113 180.395 184.505  1.00  0.00     0.000 C 
BRANCH  15  16
ATOM     16  C   UNL     1     183.796 179.626 184.739  1.00  0.00     0.006 C 
BRANCH  16  17
ATOM     17  C   UNL     1     183.253 178.896 183.502  1.00  0.00     0.053 C 
BRANCH  17  18
ATOM     18  C   UNL     1     184.320 178.112 182.799  1.00  0.00     0.041 C 
ATOM     19  O   UNL     1     184.651 178.410 181.622  1.00  0.00    -0.550 OA
ATOM     20  O   UNL     1     184.922 177.032 183.432  1.00  0.00    -0.550 OA
ENDBRANCH  17  18
ENDBRANCH  16  17
ENDBRANCH  15  16
ENDBRANCH  14  15
ENDBRANCH  13  14
ENDBRANCH  12  13
ENDBRANCH  11  12
ENDBRANCH   1  11
TORSDOF 15
ENDMDL
MODEL 2
REMARK VINA RESULT:     0.011      4.670      6.105
REMARK INTER + INTRA:          -3.092
REMARK INTER:                   0.000
REMARK INTRA:                  -3.092
REMARK UNBOUND:                -3.112
REMARK SMILES O=C([O-])CCCCCCCCCCCCCCC(=O)[O-]
REMARK SMILES IDX 10 1 9 2 8 3 7 4 6 5 5 6 4 7 2 8 1 9 3 10 11 11 12 12 13 13
REMARK SMILES IDX 14 14 15 15 16 16 17 17 18 18 19 19 20 20
REMARK H PARENT
REMARK Flexibility Score: inf
ROOT
ATOM      1  C   UNL     1     180.292 181.528 177.441  1.00  0.00     0.000 C 
ENDROOT
BRANCH   1   2
ATOM      2  C   UNL     1     181.097 182.089 176.257  1.00  0.00     0.000 C 
BRANCH   2   3
ATOM      3  C   UNL     1     182.150 183.123 176.694  1.00  0.00     0.000 C 
BRANCH   3   4
ATOM      4  C   UNL     1     183.585 182.584 176.588  1.00  0.00     0.000 C 
BRANCH   4   5
ATOM      5  C   UNL     1     184.448 182.957 177.807  1.00  0.00     0.000 C 
BRANCH   5   6
ATOM      6  C   UNL     1     183.757 183.976 178.728  1.00  0.00     0.006 C 
BRANCH   6   7
ATOM      7  C   UNL     1     183.969 183.667 180.216  1.00  0.00     0.053 C 
BRANCH   7   8
ATOM      8  C   UNL     1     183.074 184.521 181.058  1.00  0.00     0.041 C 
ATOM      9  O   UNL     1     181.997 184.971 180.584  1.00  0.00    -0.550 OA
ATOM     10  O   UNL     1     183.453 184.863 182.350  1.00  0.00    -0.550 OA
ENDBRANCH   7   8
ENDBRANCH   6   7
ENDBRANCH   5   6
ENDBRANCH   4   5
ENDBRANCH   3   4
ENDBRANCH   2   3
ENDBRANCH   1   2
BRANCH   1  11
ATOM     11  C   UNL     1     180.381 182.414 178.693  1.00  0.00     0.000 C 
BRANCH  11  12
ATOM     12  C   UNL     1     180.898 181.610 179.896  1.00  0.00     0.000 C 
BRANCH  12  13
ATOM     13  C   UNL     1     181.446 180.230 179.497  1.00  0.00     0.000 C 
BRANCH  13  14
ATOM     14  C   UNL     1     182.963 180.111 179.720  1.00  0.00     0.000 C 
BRANCH  14  15
ATOM     15  C   UNL     1     183.687 179.406 178.558  1.00  0.00     0.000 C 
BRANCH  15  16
ATOM     16  C   UNL     1     182.763 178.716 177.532  1.00  0.00     0.006 C 
BRANCH  16  17
ATOM     17  C   UNL     1     183.130 178.979 176.064  1.00  0.00     0.053 C 
BRANCH  17  18
ATOM     18  C   UNL     1     184.576 178.698 175.787  1.00  0.00     0.041 C 
ATOM     19  O   UNL     1     185.016 177.521 175.856  1.00  0.00    -0.550 OA
ATOM     20  O   UNL     1     185.443 179.742 175.489  1.00  0.00    -0.550 OA
ENDBRANCH  17  18
ENDBRANCH  16  17
ENDBRANCH  15  16
ENDBRANCH  14  15
ENDBRANCH  13  14
ENDBRANCH  12  13
ENDBRANCH  11  12
ENDBRANCH   1  11
TORSDOF 15
ENDMDL
MODEL 3
REMARK VINA RESULT:     0.011      7.770      9.514
REMARK INTER + INTRA:          -3.091
REMARK INTER:                   0.000
REMARK INTRA:                  -3.091
REMARK UNBOUND:                -3.112
REMARK SMILES O=C([O-])CCCCCCCCCCCCCCC(=O)[O-]
REMARK SMILES IDX 10 1 9 2 8 3 7 4 6 5 5 6 4 7 2 8 1 9 3 10 11 11 12 12 13 13
REMARK SMILES IDX 14 14 15 15 16 16 17 17 18 18 19 19 20 20
REMARK H PARENT
REMARK Flexibility Score: inf
ROOT
ATOM      1  C   UNL     1     180.893 179.674 174.523  1.00  0.00     0.000 C 
ENDROOT
BRANCH   1   2
ATOM      2  C   UNL     1     179.454 179.179 174.295  1.00  0.00     0.000 C 
BRANCH   2   3
ATOM      3  C   UNL     1     178.443 180.333 174.174  1.00  0.00     0.000 C 
BRANCH   3   4
ATOM      4  C   UNL     1     177.491 180.413 175.377  1.00  0.00     0.000 C 
BRANCH   4   5
ATOM      5  C   UNL     1     177.288 181.855 175.875  1.00  0.00     0.000 C 
BRANCH   5   6
ATOM      6  C   UNL     1     177.849 182.901 174.897  1.00  0.00     0.006 C 
BRANCH   6   7
ATOM      7  C   UNL     1     178.564 184.056 175.611  1.00  0.00     0.053 C 
BRANCH   7   8
ATOM      8  C   UNL     1     179.400 184.830 174.641  1.00  0.00     0.041 C 
ATOM      9  O   UNL     1     179.866 185.955 174.962  1.00  0.00    -0.550 OA
ATOM     10  O   UNL     1     179.622 184.332 173.363  1.00  0.00    -0.550 OA
ENDBRANCH   7   8
ENDBRANCH   6   7
ENDBRANCH   5   6
ENDBRANCH   4   5
ENDBRANCH   3   4
ENDBRANCH   2   3
ENDBRANCH   1   2
BRANCH   1  11
ATOM     11  C   UNL     1     181.067 181.165 174.195  1.00  0.00     0.000 C 
BRANCH  11  12
ATOM     12  C   UNL     1     181.640 181.926 175.400  1.00  0.00     0.000 C 
BRANCH  12  13
ATOM     13  C   UNL     1     181.568 181.115 176.704  1.00  0.00     0.000 C 
BRANCH  13  14
ATOM     14  C   UNL     1     180.546 181.689 177.700  1.00  0.00     0.000 C 
BRANCH  14  15
ATOM     15  C   UNL     1     179.697 180.600 178.382  1.00  0.00     0.000 C 
BRANCH  15  16
ATOM     16  C   UNL     1     180.189 179.154 178.167  1.00  0.00     0.006 C 
BRANCH  16  17
ATOM     17  C   UNL     1     179.081 178.146 177.827  1.00  0.00     0.053 C 
BRANCH  17  18
ATOM     18  C   UNL     1     177.936 178.223 178.789  1.00  0.00     0.041 C 
ATOM     19  O   UNL     1     176.798 178.585 178.391  1.00  0.00    -0.550 OA
ATOM     20  O   UNL     1     178.133 177.929 180.132  1.00  0.00    -0.550 OA
ENDBRANCH  17  18
ENDBRANCH  16  17
ENDBRANCH  15  16
ENDBRANCH  14  15
ENDBRANCH  13  14
ENDBRANCH  12  13
ENDBRANCH  11  12
ENDBRANCH   1  11
TORSDOF 15
ENDMDL
MODEL 4
REMARK VINA RESULT:     0.011      5.852      8.068
REMARK INTER + INTRA:          -3.091
REMARK INTER:                   0.000
REMARK INTRA:                  -3.091
REMARK UNBOUND:                -3.112
REMARK SMILES O=C([O-])CCCCCCCCCCCCCCC(=O)[O-]
REMARK SMILES IDX 10 1 9 2 8 3 7 4 6 5 5 6 4 7 2 8 1 9 3 10 11 11 12 12 13 13
REMARK SMILES IDX 14 14 15 15 16 16 17 17 18 18 19 19 20 20
REMARK H PARENT
REMARK Flexibility Score: inf
ROOT
ATOM      1  C   UNL     1     176.549 184.121 182.904  1.00  0.00     0.000 C 
ENDROOT
BRANCH   1   2
ATOM      2  C   UNL     1     176.240 184.999 181.679  1.00  0.00     0.000 C 
BRANCH   2   3
ATOM      3  C   UNL     1     176.530 184.282 180.349  1.00  0.00     0.000 C 
BRANCH   3   4
ATOM      4  C   UNL     1     177.456 183.067 180.522  1.00  0.00     0.000 C 
BRANCH   4   5
ATOM      5  C   UNL     1     178.839 183.283 179.883  1.00  0.00     0.000 C 
BRANCH   5   6
ATOM      6  C   UNL     1     179.982 182.727 180.749  1.00  0.00     0.006 C 
BRANCH   6   7
ATOM      7  C   UNL     1     179.478 182.033 182.021  1.00  0.00     0.053 C 
BRANCH   7   8
ATOM      8  C   UNL     1     180.381 182.339 183.174  1.00  0.00     0.041 C 
ATOM      9  O   UNL     1     181.544 182.775 182.971  1.00  0.00    -0.550 OA
ATOM     10  O   UNL     1     179.955 182.094 184.474  1.00  0.00    -0.550 OA
ENDBRANCH   7   8
ENDBRANCH   6   7
ENDBRANCH   5   6
ENDBRANCH   4   5
ENDBRANCH   3   4
ENDBRANCH   2   3
ENDBRANCH   1   2
BRANCH   1  11
ATOM     11  C   UNL     1     177.583 184.756 183.846  1.00  0.00     0.000 C 
BRANCH  11  12
ATOM     12  C   UNL     1     178.215 186.001 183.204  1.00  0.00     0.000 C 
BRANCH  12  13
ATOM     13  C   UNL     1     179.749 185.916 183.131  1.00  0.00     0.000 C 
BRANCH  13  14
ATOM     14  C   UNL     1     180.291 186.229 181.726  1.00  0.00     0.000 C 
BRANCH  14  15
ATOM     15  C   UNL     1     179.266 186.956 180.836  1.00  0.00     0.000 C 
BRANCH  15  16
ATOM     16  C   UNL     1     179.536 186.871 179.320  1.00  0.00     0.006 C 
BRANCH  16  17
ATOM     17  C   UNL     1     178.279 186.951 178.440  1.00  0.00     0.053 C 
BRANCH  17  18
ATOM     18  C   UNL     1     178.287 185.919 177.354  1.00  0.00     0.041 C 
ATOM     19  O   UNL     1     177.216 185.357 177.008  1.00  0.00    -0.550 OA
ATOM     20  O   UNL     1     179.483 185.553 176.749  1.00  0.00    -0.550 OA
ENDBRANCH  17  18
ENDBRANCH  16  17
ENDBRANCH  15  16
ENDBRANCH  14  15
ENDBRANCH  13  14
ENDBRANCH  12  13
ENDBRANCH  11  12
ENDBRANCH   1  11
TORSDOF 15
ENDMDL
MODEL 5
REMARK VINA RESULT:     0.014      8.427     11.174
REMARK INTER + INTRA:          -3.087
REMARK INTER:                   0.000
REMARK INTRA:                  -3.087
REMARK UNBOUND:                -3.112
REMARK SMILES O=C([O-])CCCCCCCCCCCCCCC(=O)[O-]
REMARK SMILES IDX 10 1 9 2 8 3 7 4 6 5 5 6 4 7 2 8 1 9 3 10 11 11 12 12 13 13
REMARK SMILES IDX 14 14 15 15 16 16 17 17 18 18 19 19 20 20
REMARK H PARENT
REMARK Flexibility Score: inf
ROOT
ATOM      1  C   UNL     1     178.817 176.577 184.051  1.00  0.00     0.000 C 
ENDROOT
BRANCH   1   2
ATOM      2  C   UNL     1     178.557 177.732 185.033  1.00  0.00     0.000 C 
BRANCH   2   3
ATOM      3  C   UNL     1     177.426 178.665 184.562  1.00  0.00     0.000 C 
BRANCH   3   4
ATOM      4  C   UNL     1     176.462 179.043 185.698  1.00  0.00     0.000 C 
BRANCH   4   5
ATOM      5  C   UNL     1     177.053 178.766 187.092  1.00  0.00     0.000 C 
BRANCH   5   6
ATOM      6  C   UNL     1     176.032 178.128 188.049  1.00  0.00     0.006 C 
BRANCH   6   7
ATOM      7  C   UNL     1     174.582 178.455 187.671  1.00  0.00     0.053 C 
BRANCH   7   8
ATOM      8  C   UNL     1     173.646 177.463 188.287  1.00  0.00     0.041 C 
ATOM      9  O   UNL     1     172.464 177.794 188.567  1.00  0.00    -0.550 OA
ATOM     10  O   UNL     1     174.095 176.185 188.599  1.00  0.00    -0.550 OA
ENDBRANCH   7   8
ENDBRANCH   6   7
ENDBRANCH   5   6
ENDBRANCH   4   5
ENDBRANCH   3   4
ENDBRANCH   2   3
ENDBRANCH   1   2
BRANCH   1  11
ATOM     11  C   UNL     1     178.386 175.213 184.610  1.00  0.00     0.000 C 
BRANCH  11  12
ATOM     12  C   UNL     1     178.047 175.316 186.105  1.00  0.00     0.000 C 
BRANCH  12  13
ATOM     13  C   UNL     1     176.608 174.872 186.419  1.00  0.00     0.000 C 
BRANCH  13  14
ATOM     14  C   UNL     1     175.740 174.746 185.155  1.00  0.00     0.000 C 
BRANCH  14  15
ATOM     15  C   UNL     1     174.662 175.842 185.058  1.00  0.00     0.000 C 
BRANCH  15  16
ATOM     16  C   UNL     1     174.537 176.519 183.678  1.00  0.00     0.006 C 
BRANCH  16  17
ATOM     17  C   UNL     1     175.359 175.855 182.563  1.00  0.00     0.053 C 
BRANCH  17  18
ATOM     18  C   UNL     1     175.973 176.864 181.640  1.00  0.00     0.041 C 
ATOM     19  O   UNL     1     176.994 176.567 180.967  1.00  0.00    -0.550 OA
ATOM     20  O   UNL     1     175.438 178.143 181.552  1.00  0.00    -0.550 OA
ENDBRANCH  17  18
ENDBRANCH  16  17
ENDBRANCH  15  16
ENDBRANCH  14  15
ENDBRANCH  13  14
ENDBRANCH  12  13
ENDBRANCH  11  12
ENDBRANCH   1  11
TORSDOF 15
ENDMDL
MODEL 6
REMARK VINA RESULT:     0.015      3.322      5.697
REMARK INTER + INTRA:          -3.085
REMARK INTER:                   0.000
REMARK INTRA:                  -3.085
REMARK UNBOUND:                -3.112
REMARK SMILES O=C([O-])CCCCCCCCCCCCCCC(=O)[O-]
REMARK SMILES IDX 10 1 9 2 8 3 7 4 6 5 5 6 4 7 2 8 1 9 3 10 11 11 12 12 13 13
REMARK SMILES IDX 14 14 15 15 16 16 17 17 18 18 19 19 20 20
REMARK H PARENT
REMARK Flexibility Score: inf
ROOT
ATOM      1  C   UNL     1     184.258 177.470 182.266  1.00  0.00     0.000 C 
ENDROOT
BRANCH   1   2
ATOM      2  C   UNL     1     184.096 176.793 183.637  1.00  0.00     0.000 C 
BRANCH   2   3
ATOM      3  C   UNL     1     182.735 177.096 184.290  1.00  0.00     0.000 C 
BRANCH   3   4
ATOM      4  C   UNL     1     182.842 177.304 185.809  1.00  0.00     0.000 C 
BRANCH   4   5
ATOM      5  C   UNL     1     184.289 177.188 186.320  1.00  0.00     0.000 C 
BRANCH   5   6
ATOM      6  C   UNL     1     184.533 178.017 187.592  1.00  0.00     0.006 C 
BRANCH   6   7
ATOM      7  C   UNL     1     186.008 178.395 187.779  1.00  0.00     0.053 C 
BRANCH   7   8
ATOM      8  C   UNL     1     186.135 179.846 188.121  1.00  0.00     0.041 C 
ATOM      9  O   UNL     1     185.220 180.430 188.759  1.00  0.00    -0.550 OA
ATOM     10  O   UNL     1     187.243 180.567 187.692  1.00  0.00    -0.550 OA
ENDBRANCH   7   8
ENDBRANCH   6   7
ENDBRANCH   5   6
ENDBRANCH   4   5
ENDBRANCH   3   4
ENDBRANCH   2   3
ENDBRANCH   1   2
BRANCH   1  11
ATOM     11  C   UNL     1     185.326 178.575 182.270  1.00  0.00     0.000 C 
BRANCH  11  12
ATOM     12  C   UNL     1     186.294 178.395 183.450  1.00  0.00     0.000 C 
BRANCH  12  13
ATOM     13  C   UNL     1     186.390 179.648 184.336  1.00  0.00     0.000 C 
BRANCH  13  14
ATOM     14  C   UNL     1     185.296 180.682 184.016  1.00  0.00     0.000 C 
BRANCH  14  15
ATOM     15  C   UNL     1     184.215 180.768 185.110  1.00  0.00     0.000 C 
BRANCH  15  16
ATOM     16  C   UNL     1     182.762 180.806 184.594  1.00  0.00     0.006 C 
BRANCH  16  17
ATOM     17  C   UNL     1     182.626 180.995 183.076  1.00  0.00     0.053 C 
BRANCH  17  18
ATOM     18  C   UNL     1     181.563 180.115 182.493  1.00  0.00     0.041 C 
ATOM     19  O   UNL     1     180.584 179.755 183.197  1.00  0.00    -0.550 OA
ATOM     20  O   UNL     1     181.672 179.665 181.183  1.00  0.00    -0.550 OA
ENDBRANCH  17  18
ENDBRANCH  16  17
ENDBRANCH  15  16
ENDBRANCH  14  15
ENDBRANCH  13  14
ENDBRANCH  12  13
ENDBRANCH  11  12
ENDBRANCH   1  11
TORSDOF 15
ENDMDL
MODEL 7
REMARK VINA RESULT:     0.015      3.314      6.032
REMARK INTER + INTRA:          -3.085
REMARK INTER:                   0.000
REMARK INTRA:                  -3.085
REMARK UNBOUND:                -3.112
REMARK SMILES O=C([O-])CCCCCCCCCCCCCCC(=O)[O-]
REMARK SMILES IDX 10 1 9 2 8 3 7 4 6 5 5 6 4 7 2 8 1 9 3 10 11 11 12 12 13 13
REMARK SMILES IDX 14 14 15 15 16 16 17 17 18 18 19 19 20 20
REMARK H PARENT
REMARK Flexibility Score: inf
ROOT
ATOM      1  C   UNL     1     188.653 182.793 184.856  1.00  0.00     0.000 C 
ENDROOT
BRANCH   1   2
ATOM      2  C   UNL     1     187.482 181.802 184.751  1.00  0.00     0.000 C 
BRANCH   2   3
ATOM      3  C   UNL     1     186.970 181.641 183.308  1.00  0.00     0.000 C 
BRANCH   3   4
ATOM      4  C   UNL     1     185.460 181.900 183.185  1.00  0.00     0.000 C 
BRANCH   4   5
ATOM      5  C   UNL     1     184.763 181.995 184.554  1.00  0.00     0.000 C 
BRANCH   5   6
ATOM      6  C   UNL     1     183.422 182.744 184.482  1.00  0.00     0.006 C 
BRANCH   6   7
ATOM      7  C   UNL     1     182.664 182.731 185.816  1.00  0.00     0.053 C 
BRANCH   7   8
ATOM      8  C   UNL     1     182.279 181.333 186.183  1.00  0.00     0.041 C 
ATOM      9  O   UNL     1     182.615 180.854 187.298  1.00  0.00    -0.550 OA
ATOM     10  O   UNL     1     181.591 180.540 185.272  1.00  0.00    -0.550 OA
ENDBRANCH   7   8
ENDBRANCH   6   7
ENDBRANCH   5   6
ENDBRANCH   4   5
ENDBRANCH   3   4
ENDBRANCH   2   3
ENDBRANCH   1   2
BRANCH   1  11
ATOM     11  C   UNL     1     188.824 183.647 183.590  1.00  0.00     0.000 C 
BRANCH  11  12
ATOM     12  C   UNL     1     188.343 185.086 183.832  1.00  0.00     0.000 C 
BRANCH  12  13
ATOM     13  C   UNL     1     186.988 185.379 183.166  1.00  0.00     0.000 C 
BRANCH  13  14
ATOM     14  C   UNL     1     185.851 185.547 184.188  1.00  0.00     0.000 C 
BRANCH  14  15
ATOM     15  C   UNL     1     186.362 185.701 185.632  1.00  0.00     0.000 C 
BRANCH  15  16
ATOM     16  C   UNL     1     185.553 184.937 186.700  1.00  0.00     0.006 C 
BRANCH  16  17
ATOM     17  C   UNL     1     186.378 183.957 187.548  1.00  0.00     0.053 C 
BRANCH  17  18
ATOM     18  C   UNL     1     185.528 182.875 188.142  1.00  0.00     0.041 C 
ATOM     19  O   UNL     1     184.535 183.170 188.856  1.00  0.00    -0.550 OA
ATOM     20  O   UNL     1     185.855 181.541 187.935  1.00  0.00    -0.550 OA
ENDBRANCH  17  18
ENDBRANCH  16  17
ENDBRANCH  15  16
ENDBRANCH  14  15
ENDBRANCH  13  14
ENDBRANCH  12  13
ENDBRANCH  11  12
ENDBRANCH   1  11
TORSDOF 15
ENDMDL
MODEL 8
REMARK VINA RESULT:     0.016      6.229      8.602
REMARK INTER + INTRA:          -3.082
REMARK INTER:                   0.000
REMARK INTRA:                  -3.082
REMARK UNBOUND:                -3.112
REMARK SMILES O=C([O-])CCCCCCCCCCCCCCC(=O)[O-]
REMARK SMILES IDX 10 1 9 2 8 3 7 4 6 5 5 6 4 7 2 8 1 9 3 10 11 11 12 12 13 13
REMARK SMILES IDX 14 14 15 15 16 16 17 17 18 18 19 19 20 20
REMARK H PARENT
REMARK Flexibility Score: inf
ROOT
ATOM      1  C   UNL     1     180.394 178.526 185.273  1.00  0.00     0.000 C 
ENDROOT
BRANCH   1   2
ATOM      2  C   UNL     1     180.763 179.814 184.519  1.00  0.00     0.000 C 
BRANCH   2   3
ATOM      3  C   UNL     1     179.538 180.506 183.894  1.00  0.00     0.000 C 
BRANCH   3   4
ATOM      4  C   UNL     1     178.210 179.885 184.356  1.00  0.00     0.000 C 
BRANCH   4   5
ATOM      5  C   UNL     1     177.199 179.729 183.206  1.00  0.00     0.000 C 
BRANCH   5   6
ATOM      6  C   UNL     1     176.706 178.281 183.047  1.00  0.00     0.006 C 
BRANCH   6   7
ATOM      7  C   UNL     1     176.089 178.014 181.668  1.00  0.00     0.053 C 
BRANCH   7   8
ATOM      8  C   UNL     1     176.485 176.659 181.174  1.00  0.00     0.041 C 
ATOM      9  O   UNL     1     176.503 175.676 181.961  1.00  0.00    -0.550 OA
ATOM     10  O   UNL     1     176.883 176.490 179.853  1.00  0.00    -0.550 OA
ENDBRANCH   7   8
ENDBRANCH   6   7
ENDBRANCH   5   6
ENDBRANCH   4   5
ENDBRANCH   3   4
ENDBRANCH   2   3
ENDBRANCH   1   2
BRANCH   1  11
ATOM     11  C   UNL     1     180.947 177.262 184.597  1.00  0.00     0.000 C 
BRANCH  11  12
ATOM     12  C   UNL     1     179.830 176.497 183.869  1.00  0.00     0.000 C 
BRANCH  12  13
ATOM     13  C   UNL     1     179.966 176.563 182.339  1.00  0.00     0.000 C 
BRANCH  13  14
ATOM     14  C   UNL     1     181.288 177.209 181.891  1.00  0.00     0.000 C 
BRANCH  14  15
ATOM     15  C   UNL     1     181.078 178.469 181.031  1.00  0.00     0.000 C 
BRANCH  15  16
ATOM     16  C   UNL     1     179.630 178.705 180.555  1.00  0.00     0.006 C 
BRANCH  16  17
ATOM     17  C   UNL     1     179.310 180.159 180.177  1.00  0.00     0.053 C 
BRANCH  17  18
ATOM     18  C   UNL     1     177.983 180.282 179.491  1.00  0.00     0.041 C 
ATOM     19  O   UNL     1     177.143 181.132 179.885  1.00  0.00    -0.550 OA
ATOM     20  O   UNL     1     177.662 179.433 178.439  1.00  0.00    -0.550 OA
ENDBRANCH  17  18
ENDBRANCH  16  17
ENDBRANCH  15  16
ENDBRANCH  14  15
ENDBRANCH  13  14
ENDBRANCH  12  13
ENDBRANCH  11  12
ENDBRANCH   1  11
TORSDOF 15
ENDMDL
MODEL 9
REMARK VINA RESULT:     0.022      4.928      6.980
REMARK INTER + INTRA:          -3.071
REMARK INTER:                   0.000
REMARK INTRA:                  -3.071
REMARK UNBOUND:                -3.112
REMARK SMILES O=C([O-])CCCCCCCCCCCCCCC(=O)[O-]
REMARK SMILES IDX 10 1 9 2 8 3 7 4 6 5 5 6 4 7 2 8 1 9 3 10 11 11 12 12 13 13
REMARK SMILES IDX 14 14 15 15 16 16 17 17 18 18 19 19 20 20
REMARK H PARENT
REMARK Flexibility Score: inf
ROOT
ATOM      1  C   UNL     1     183.653 174.018 180.481  1.00  0.00     0.000 C 
ENDROOT
BRANCH   1   2
ATOM      2  C   UNL     1     184.459 175.291 180.170  1.00  0.00     0.000 C 
BRANCH   2   3
ATOM      3  C   UNL     1     183.727 176.575 180.603  1.00  0.00     0.000 C 
BRANCH   3   4
ATOM      4  C   UNL     1     184.694 177.683 181.050  1.00  0.00     0.000 C 
BRANCH   4   5
ATOM      5  C   UNL     1     186.170 177.291 180.861  1.00  0.00     0.000 C 
BRANCH   5   6
ATOM      6  C   UNL     1     187.107 178.043 181.820  1.00  0.00     0.006 C 
BRANCH   6   7
ATOM      7  C   UNL     1     186.349 178.802 182.917  1.00  0.00     0.053 C 
BRANCH   7   8
ATOM      8  C   UNL     1     186.986 178.567 184.249  1.00  0.00     0.041 C 
ATOM      9  O   UNL     1     188.127 178.040 184.323  1.00  0.00    -0.550 OA
ATOM     10  O   UNL     1     186.299 178.885 185.415  1.00  0.00    -0.550 OA
ENDBRANCH   7   8
ENDBRANCH   6   7
ENDBRANCH   5   6
ENDBRANCH   4   5
ENDBRANCH   3   4
ENDBRANCH   2   3
ENDBRANCH   1   2
BRANCH   1  11
ATOM     11  C   UNL     1     184.462 172.982 181.275  1.00  0.00     0.000 C 
BRANCH  11  12
ATOM     12  C   UNL     1     185.887 173.489 181.544  1.00  0.00     0.000 C 
BRANCH  12  13
ATOM     13  C   UNL     1     186.252 173.470 183.037  1.00  0.00     0.000 C 
BRANCH  13  14
ATOM     14  C   UNL     1     186.458 174.881 183.613  1.00  0.00     0.000 C 
BRANCH  14  15
ATOM     15  C   UNL     1     185.473 175.214 184.750  1.00  0.00     0.000 C 
BRANCH  15  16
ATOM     16  C   UNL     1     184.220 176.006 184.323  1.00  0.00     0.006 C 
BRANCH  16  17
ATOM     17  C   UNL     1     183.008 175.136 183.958  1.00  0.00     0.053 C 
BRANCH  17  18
ATOM     18  C   UNL     1     182.802 174.020 184.936  1.00  0.00     0.041 C 
ATOM     19  O   UNL     1     182.405 174.267 186.104  1.00  0.00    -0.550 OA
ATOM     20  O   UNL     1     183.084 172.710 184.567  1.00  0.00    -0.550 OA
ENDBRANCH  17  18
ENDBRANCH  16  17
ENDBRANCH  15  16
ENDBRANCH  14  15
ENDBRANCH  13  14
ENDBRANCH  12  13
ENDBRANCH  11  12
ENDBRANCH   1  11
TORSDOF 15
ENDMDL
