MODEL 1
REMARK VINA RESULT:    -4.052      0.000      0.000
REMARK INTER + INTRA:          -4.311
REMARK INTER:                  -4.289
REMARK INTRA:                  -0.022
REMARK UNBOUND:                -0.022
REMARK SMILES O=C([O-])c1cccnc1
REMARK SMILES IDX 4 1 5 2 9 3 6 4 8 5 7 6 2 7 1 8 3 9
REMARK H PARENT
REMARK Flexibility Score: inf
ROOT
ATOM      1  C   UNL     1      -8.995  -2.231   1.762  1.00  0.00     0.016 A 
ATOM      2  C   UNL     1      -9.879  -3.322   1.766  1.00  0.00     0.013 A 
ATOM      3  C   UNL     1      -8.336  -1.907   0.563  1.00  0.00     0.120 A 
ATOM      4  C   UNL     1     -10.087  -4.058   0.598  1.00  0.00     0.021 A 
ATOM      5  N   UNL     1      -8.558  -2.642  -0.562  1.00  0.00    -0.264 NA
ATOM      6  C   UNL     1      -9.411  -3.699  -0.568  1.00  0.00     0.111 A 
ENDROOT
BRANCH   1   7
ATOM      7  C   UNL     1      -8.766  -1.443   2.992  1.00  0.00     0.073 C 
ATOM      8  O   UNL     1      -7.700  -0.788   3.145  1.00  0.00    -0.545 OA
ATOM      9  O   UNL     1      -9.724  -1.414   3.999  1.00  0.00    -0.545 OA
ENDBRANCH   1   7
TORSDOF 1
ENDMDL
MODEL 2
REMARK VINA RESULT:    -4.012      3.004      3.937
REMARK INTER + INTRA:          -4.269
REMARK INTER:                  -4.253
REMARK INTRA:                  -0.016
REMARK UNBOUND:                -0.022
REMARK SMILES O=C([O-])c1cccnc1
REMARK SMILES IDX 4 1 5 2 9 3 6 4 8 5 7 6 2 7 1 8 3 9
REMARK H PARENT
REMARK Flexibility Score: inf
ROOT
ATOM      1  C   UNL     1      -8.731  -2.936   0.562  1.00  0.00     0.016 A 
ATOM      2  C   UNL     1      -8.324  -1.729   1.153  1.00  0.00     0.013 A 
ATOM      3  C   UNL     1      -9.649  -3.745   1.255  1.00  0.00     0.120 A 
ATOM      4  C   UNL     1      -8.828  -1.356   2.401  1.00  0.00     0.021 A 
ATOM      5  N   UNL     1     -10.125  -3.357   2.470  1.00  0.00    -0.264 NA
ATOM      6  C   UNL     1      -9.737  -2.191   3.050  1.00  0.00     0.111 A 
ENDROOT
BRANCH   1   7
ATOM      7  C   UNL     1      -8.205  -3.343  -0.759  1.00  0.00     0.073 C 
ATOM      8  O   UNL     1      -8.829  -3.052  -1.815  1.00  0.00    -0.545 OA
ATOM      9  O   UNL     1      -7.014  -4.053  -0.854  1.00  0.00    -0.545 OA
ENDBRANCH   1   7
TORSDOF 1
ENDMDL
MODEL 3
REMARK VINA RESULT:    -4.008     15.421     16.244
REMARK INTER + INTRA:          -4.264
REMARK INTER:                  -4.247
REMARK INTRA:                  -0.017
REMARK UNBOUND:                -0.022
REMARK SMILES O=C([O-])c1cccnc1
REMARK SMILES IDX 4 1 5 2 9 3 6 4 8 5 7 6 2 7 1 8 3 9
REMARK H PARENT
REMARK Flexibility Score: inf
ROOT
ATOM      1  C   UNL     1       3.351  -6.311  -7.459  1.00  0.00     0.016 A 
ATOM      2  C   UNL     1       3.933  -6.792  -6.275  1.00  0.00     0.013 A 
ATOM      3  C   UNL     1       4.037  -6.508  -8.670  1.00  0.00     0.120 A 
ATOM      4  C   UNL     1       5.165  -7.449  -6.317  1.00  0.00     0.021 A 
ATOM      5  N   UNL     1       5.236  -7.151  -8.683  1.00  0.00    -0.264 NA
ATOM      6  C   UNL     1       5.808  -7.620  -7.543  1.00  0.00     0.111 A 
ENDROOT
BRANCH   1   7
ATOM      7  C   UNL     1       2.047  -5.615  -7.427  1.00  0.00     0.073 C 
ATOM      8  O   UNL     1       1.951  -4.454  -6.946  1.00  0.00    -0.545 OA
ATOM      9  O   UNL     1       0.906  -6.232  -7.928  1.00  0.00    -0.545 OA
ENDBRANCH   1   7
TORSDOF 1
ENDMDL
MODEL 4
REMARK VINA RESULT:    -3.950      2.744      3.775
REMARK INTER + INTRA:          -4.203
REMARK INTER:                  -4.186
REMARK INTRA:                  -0.018
REMARK UNBOUND:                -0.022
REMARK SMILES O=C([O-])c1cccnc1
REMARK SMILES IDX 4 1 5 2 9 3 6 4 8 5 7 6 2 7 1 8 3 9
REMARK H PARENT
REMARK Flexibility Score: inf
ROOT
ATOM      1  C   UNL     1      -8.803  -1.980   1.876  1.00  0.00     0.016 A 
ATOM      2  C   UNL     1      -9.998  -1.905   2.610  1.00  0.00     0.013 A 
ATOM      3  C   UNL     1      -7.714  -1.193   2.288  1.00  0.00     0.120 A 
ATOM      4  C   UNL     1     -10.085  -1.063   3.721  1.00  0.00     0.021 A 
ATOM      5  N   UNL     1      -7.825  -0.381   3.374  1.00  0.00    -0.264 NA
ATOM      6  C   UNL     1      -8.977  -0.302   4.092  1.00  0.00     0.111 A 
ENDROOT
BRANCH   1   7
ATOM      7  C   UNL     1      -8.698  -2.868   0.698  1.00  0.00     0.073 C 
ATOM      8  O   UNL     1      -8.808  -4.116   0.824  1.00  0.00    -0.545 OA
ATOM      9  O   UNL     1      -8.476  -2.336  -0.567  1.00  0.00    -0.545 OA
ENDBRANCH   1   7
TORSDOF 1
ENDMDL
MODEL 5
REMARK VINA RESULT:    -3.937     16.258     17.066
REMARK INTER + INTRA:          -4.189
REMARK INTER:                  -4.173
REMARK INTRA:                  -0.016
REMARK UNBOUND:                -0.022
REMARK SMILES O=C([O-])c1cccnc1
REMARK SMILES IDX 4 1 5 2 9 3 6 4 8 5 7 6 2 7 1 8 3 9
REMARK H PARENT
REMARK Flexibility Score: inf
ROOT
ATOM      1  C   UNL     1       5.084  -6.950  -6.844  1.00  0.00     0.016 A 
ATOM      2  C   UNL     1       3.754  -7.076  -6.411  1.00  0.00     0.013 A 
ATOM      3  C   UNL     1       5.403  -5.905  -7.729  1.00  0.00     0.120 A 
ATOM      4  C   UNL     1       2.784  -6.177  -6.858  1.00  0.00     0.021 A 
ATOM      5  N   UNL     1       4.437  -5.043  -8.150  1.00  0.00    -0.264 NA
ATOM      6  C   UNL     1       3.148  -5.157  -7.735  1.00  0.00     0.111 A 
ENDROOT
BRANCH   1   7
ATOM      7  C   UNL     1       6.121  -7.895  -6.377  1.00  0.00     0.073 C 
ATOM      8  O   UNL     1       6.335  -8.970  -6.999  1.00  0.00    -0.545 OA
ATOM      9  O   UNL     1       6.874  -7.611  -5.244  1.00  0.00    -0.545 OA
ENDBRANCH   1   7
TORSDOF 1
ENDMDL
MODEL 6
REMARK VINA RESULT:    -3.877     10.862     11.186
REMARK INTER + INTRA:          -4.126
REMARK INTER:                  -4.109
REMARK INTRA:                  -0.017
REMARK UNBOUND:                -0.022
REMARK SMILES O=C([O-])c1cccnc1
REMARK SMILES IDX 4 1 5 2 9 3 6 4 8 5 7 6 2 7 1 8 3 9
REMARK H PARENT
REMARK Flexibility Score: inf
ROOT
ATOM      1  C   UNL     1      -0.474  -8.128   3.585  1.00  0.00     0.016 A 
ATOM      2  C   UNL     1       0.299  -7.079   4.109  1.00  0.00     0.013 A 
ATOM      3  C   UNL     1       0.189  -9.217   2.993  1.00  0.00     0.120 A 
ATOM      4  C   UNL     1       1.693  -7.133   4.037  1.00  0.00     0.021 A 
ATOM      5  N   UNL     1       1.548  -9.244   2.936  1.00  0.00    -0.264 NA
ATOM      6  C   UNL     1       2.305  -8.235   3.441  1.00  0.00     0.111 A 
ENDROOT
BRANCH   1   7
ATOM      7  C   UNL     1      -1.950  -8.083   3.656  1.00  0.00     0.073 C 
ATOM      8  O   UNL     1      -2.577  -8.829   4.455  1.00  0.00    -0.545 OA
ATOM      9  O   UNL     1      -2.669  -7.216   2.841  1.00  0.00    -0.545 OA
ENDBRANCH   1   7
TORSDOF 1
ENDMDL
MODEL 7
REMARK VINA RESULT:    -3.861     11.052     11.778
REMARK INTER + INTRA:          -4.109
REMARK INTER:                  -4.093
REMARK INTRA:                  -0.016
REMARK UNBOUND:                -0.022
REMARK SMILES O=C([O-])c1cccnc1
REMARK SMILES IDX 4 1 5 2 9 3 6 4 8 5 7 6 2 7 1 8 3 9
REMARK H PARENT
REMARK Flexibility Score: inf
ROOT
ATOM      1  C   UNL     1      -0.906   5.078  -0.585  1.00  0.00     0.016 A 
ATOM      2  C   UNL     1      -0.584   3.747  -0.275  1.00  0.00     0.013 A 
ATOM      3  C   UNL     1       0.092   6.058  -0.440  1.00  0.00     0.120 A 
ATOM      4  C   UNL     1       0.701   3.421   0.165  1.00  0.00     0.021 A 
ATOM      5  N   UNL     1       1.336   5.714  -0.009  1.00  0.00    -0.264 NA
ATOM      6  C   UNL     1       1.657   4.428   0.292  1.00  0.00     0.111 A 
ENDROOT
BRANCH   1   7
ATOM      7  C   UNL     1      -2.262   5.436  -1.052  1.00  0.00     0.073 C 
ATOM      8  O   UNL     1      -3.070   6.023  -0.284  1.00  0.00    -0.545 OA
ATOM      9  O   UNL     1      -2.666   5.128  -2.346  1.00  0.00    -0.545 OA
ENDBRANCH   1   7
TORSDOF 1
ENDMDL
MODEL 8
REMARK VINA RESULT:    -3.859     10.944     11.661
REMARK INTER + INTRA:          -4.106
REMARK INTER:                  -4.090
REMARK INTRA:                  -0.016
REMARK UNBOUND:                -0.022
REMARK SMILES O=C([O-])c1cccnc1
REMARK SMILES IDX 4 1 5 2 9 3 6 4 8 5 7 6 2 7 1 8 3 9
REMARK H PARENT
REMARK Flexibility Score: inf
ROOT
ATOM      1  C   UNL     1      -0.096   4.326  -0.598  1.00  0.00     0.016 A 
ATOM      2  C   UNL     1      -1.494   4.262  -0.716  1.00  0.00     0.013 A 
ATOM      3  C   UNL     1       0.599   5.261  -1.385  1.00  0.00     0.120 A 
ATOM      4  C   UNL     1      -2.163   5.113  -1.598  1.00  0.00     0.021 A 
ATOM      5  N   UNL     1      -0.078   6.079  -2.237  1.00  0.00    -0.264 NA
ATOM      6  C   UNL     1      -1.430   6.025  -2.357  1.00  0.00     0.111 A 
ENDROOT
BRANCH   1   7
ATOM      7  C   UNL     1       0.623   3.431   0.332  1.00  0.00     0.073 C 
ATOM      8  O   UNL     1       0.660   3.684   1.566  1.00  0.00    -0.545 OA
ATOM      9  O   UNL     1       1.271   2.296  -0.142  1.00  0.00    -0.545 OA
ENDBRANCH   1   7
TORSDOF 1
ENDMDL
MODEL 9
REMARK VINA RESULT:    -3.818     11.557     12.480
REMARK INTER + INTRA:          -4.063
REMARK INTER:                  -4.045
REMARK INTRA:                  -0.018
REMARK UNBOUND:                -0.022
REMARK SMILES O=C([O-])c1cccnc1
REMARK SMILES IDX 4 1 5 2 9 3 6 4 8 5 7 6 2 7 1 8 3 9
REMARK H PARENT
REMARK Flexibility Score: inf
ROOT
ATOM      1  C   UNL     1      -0.453   5.781  -1.599  1.00  0.00     0.016 A 
ATOM      2  C   UNL     1      -1.166   6.071  -2.774  1.00  0.00     0.013 A 
ATOM      3  C   UNL     1      -1.151   5.769  -0.379  1.00  0.00     0.120 A 
ATOM      4  C   UNL     1      -2.535   6.338  -2.714  1.00  0.00     0.021 A 
ATOM      5  N   UNL     1      -2.486   6.032  -0.349  1.00  0.00    -0.264 NA
ATOM      6  C   UNL     1      -3.185   6.313  -1.480  1.00  0.00     0.111 A 
ENDROOT
BRANCH   1   7
ATOM      7  C   UNL     1       0.997   5.496  -1.649  1.00  0.00     0.073 C 
ATOM      8  O   UNL     1       1.463   4.450  -1.124  1.00  0.00    -0.545 OA
ATOM      9  O   UNL     1       1.867   6.380  -2.277  1.00  0.00    -0.545 OA
ENDBRANCH   1   7
TORSDOF 1
ENDMDL
