MODEL 1
REMARK VINA RESULT:    -1.096      0.000      0.000
REMARK INTER + INTRA:          -2.479
REMARK INTER:                  -1.608
REMARK INTRA:                  -0.870
REMARK UNBOUND:                -0.870
REMARK SMILES O=C([O-])CCCCCCCC(=O)[O-]
REMARK SMILES IDX 7 1 6 2 5 3 4 4 2 5 1 6 3 7 8 8 9 9 10 10 11 11 12 12 13 13
REMARK H PARENT
REMARK Flexibility Score: inf
ROOT
ATOM      1  C   UNL     1     -13.929 -22.392  84.986  1.00  0.00     0.000 C 
ENDROOT
BRANCH   1   2
ATOM      2  C   UNL     1     -14.213 -23.686  84.195  1.00  0.00     0.000 C 
BRANCH   2   3
ATOM      3  C   UNL     1     -15.705 -24.049  84.119  1.00  0.00     0.006 C 
BRANCH   3   4
ATOM      4  C   UNL     1     -16.621 -22.820  84.168  1.00  0.00     0.053 C 
BRANCH   4   5
ATOM      5  C   UNL     1     -17.830 -23.033  83.313  1.00  0.00     0.041 C 
ATOM      6  O   UNL     1     -18.527 -24.072  83.451  1.00  0.00    -0.550 OA
ATOM      7  O   UNL     1     -18.216 -22.062  82.398  1.00  0.00    -0.550 OA
ENDBRANCH   4   5
ENDBRANCH   3   4
ENDBRANCH   2   3
ENDBRANCH   1   2
BRANCH   1   8
ATOM      8  C   UNL     1     -12.984 -21.444  84.233  1.00  0.00     0.000 C 
BRANCH   8   9
ATOM      9  C   UNL     1     -12.950 -21.775  82.736  1.00  0.00     0.006 C 
BRANCH   9  10
ATOM     10  C   UNL     1     -13.574 -20.645  81.911  1.00  0.00     0.053 C 
BRANCH  10  11
ATOM     11  C   UNL     1     -14.842 -21.108  81.265  1.00  0.00     0.041 C 
ATOM     12  O   UNL     1     -15.022 -22.331  81.026  1.00  0.00    -0.550 OA
ATOM     13  O   UNL     1     -15.845 -20.193  80.970  1.00  0.00    -0.550 OA
ENDBRANCH  10  11
ENDBRANCH   9  10
ENDBRANCH   8   9
ENDBRANCH   1   8
TORSDOF 8
ENDMDL
MODEL 2
REMARK VINA RESULT:    -1.068      2.615      3.482
REMARK INTER + INTRA:          -2.439
REMARK INTER:                  -1.649
REMARK INTRA:                  -0.790
REMARK UNBOUND:                -0.870
REMARK SMILES O=C([O-])CCCCCCCC(=O)[O-]
REMARK SMILES IDX 7 1 6 2 5 3 4 4 2 5 1 6 3 7 8 8 9 9 10 10 11 11 12 12 13 13
REMARK H PARENT
REMARK Flexibility Score: inf
ROOT
ATOM      1  C   UNL     1     -14.016 -23.656  81.410  1.00  0.00     0.000 C 
ENDROOT
BRANCH   1   2
ATOM      2  C   UNL     1     -15.447 -23.449  81.950  1.00  0.00     0.000 C 
BRANCH   2   3
ATOM      3  C   UNL     1     -15.952 -24.612  82.821  1.00  0.00     0.006 C 
BRANCH   3   4
ATOM      4  C   UNL     1     -16.969 -24.167  83.879  1.00  0.00     0.053 C 
BRANCH   4   5
ATOM      5  C   UNL     1     -16.859 -25.021  85.102  1.00  0.00     0.041 C 
ATOM      6  O   UNL     1     -17.880 -25.269  85.795  1.00  0.00    -0.550 OA
ATOM      7  O   UNL     1     -15.638 -25.586  85.449  1.00  0.00    -0.550 OA
ENDBRANCH   4   5
ENDBRANCH   3   4
ENDBRANCH   2   3
ENDBRANCH   1   2
BRANCH   1   8
ATOM      8  C   UNL     1     -13.078 -22.502  81.792  1.00  0.00     0.000 C 
BRANCH   8   9
ATOM      9  C   UNL     1     -13.791 -21.488  82.695  1.00  0.00     0.006 C 
BRANCH   9  10
ATOM     10  C   UNL     1     -13.101 -21.387  84.058  1.00  0.00     0.053 C 
BRANCH  10  11
ATOM     11  C   UNL     1     -13.699 -22.364  85.021  1.00  0.00     0.041 C 
ATOM     12  O   UNL     1     -14.830 -22.141  85.529  1.00  0.00    -0.550 OA
ATOM     13  O   UNL     1     -13.030 -23.543  85.320  1.00  0.00    -0.550 OA
ENDBRANCH  10  11
ENDBRANCH   9  10
ENDBRANCH   8   9
ENDBRANCH   1   8
TORSDOF 8
ENDMDL
MODEL 3
REMARK VINA RESULT:    -1.062      2.886      3.829
REMARK INTER + INTRA:          -2.428
REMARK INTER:                  -1.657
REMARK INTRA:                  -0.771
REMARK UNBOUND:                -0.870
REMARK SMILES O=C([O-])CCCCCCCC(=O)[O-]
REMARK SMILES IDX 7 1 6 2 5 3 4 4 2 5 1 6 3 7 8 8 9 9 10 10 11 11 12 12 13 13
REMARK H PARENT
REMARK Flexibility Score: inf
ROOT
ATOM      1  C   UNL     1     -14.744 -22.703  81.029  1.00  0.00     0.000 C 
ENDROOT
BRANCH   1   2
ATOM      2  C   UNL     1     -14.516 -24.007  81.823  1.00  0.00     0.000 C 
BRANCH   2   3
ATOM      3  C   UNL     1     -15.724 -24.429  82.677  1.00  0.00     0.006 C 
BRANCH   3   4
ATOM      4  C   UNL     1     -15.638 -25.884  83.153  1.00  0.00     0.053 C 
BRANCH   4   5
ATOM      5  C   UNL     1     -15.000 -25.955  84.504  1.00  0.00     0.041 C 
ATOM      6  O   UNL     1     -13.828 -26.398  84.628  1.00  0.00    -0.550 OA
ATOM      7  O   UNL     1     -15.680 -25.486  85.621  1.00  0.00    -0.550 OA
ENDBRANCH   4   5
ENDBRANCH   3   4
ENDBRANCH   2   3
ENDBRANCH   1   2
BRANCH   1   8
ATOM      8  C   UNL     1     -14.117 -21.484  81.722  1.00  0.00     0.000 C 
BRANCH   8   9
ATOM      9  C   UNL     1     -12.954 -21.902  82.630  1.00  0.00     0.006 C 
BRANCH   9  10
ATOM     10  C   UNL     1     -13.109 -21.305  84.031  1.00  0.00     0.053 C 
BRANCH  10  11
ATOM     11  C   UNL     1     -13.626 -22.336  84.985  1.00  0.00     0.041 C 
ATOM     12  O   UNL     1     -12.877 -23.268  85.378  1.00  0.00    -0.550 OA
ATOM     13  O   UNL     1     -14.921 -22.238  85.478  1.00  0.00    -0.550 OA
ENDBRANCH  10  11
ENDBRANCH   9  10
ENDBRANCH   8   9
ENDBRANCH   1   8
TORSDOF 8
ENDMDL
MODEL 4
REMARK VINA RESULT:    -1.047      2.270      4.250
REMARK INTER + INTRA:          -2.407
REMARK INTER:                  -1.739
REMARK INTRA:                  -0.668
REMARK UNBOUND:                -0.870
REMARK SMILES O=C([O-])CCCCCCCC(=O)[O-]
REMARK SMILES IDX 7 1 6 2 5 3 4 4 2 5 1 6 3 7 8 8 9 9 10 10 11 11 12 12 13 13
REMARK H PARENT
REMARK Flexibility Score: inf
ROOT
ATOM      1  C   UNL     1     -14.539 -25.384  82.914  1.00  0.00     0.000 C 
ENDROOT
BRANCH   1   2
ATOM      2  C   UNL     1     -14.938 -24.175  82.040  1.00  0.00     0.000 C 
BRANCH   2   3
ATOM      3  C   UNL     1     -13.738 -23.361  81.528  1.00  0.00     0.006 C 
BRANCH   3   4
ATOM      4  C   UNL     1     -14.123 -22.349  80.443  1.00  0.00     0.053 C 
BRANCH   4   5
ATOM      5  C   UNL     1     -14.542 -21.053  81.061  1.00  0.00     0.041 C 
ATOM      6  O   UNL     1     -15.764 -20.782  81.197  1.00  0.00    -0.550 OA
ATOM      7  O   UNL     1     -13.583 -20.166  81.535  1.00  0.00    -0.550 OA
ENDBRANCH   4   5
ENDBRANCH   3   4
ENDBRANCH   2   3
ENDBRANCH   1   2
BRANCH   1   8
ATOM      8  C   UNL     1     -13.304 -25.093  83.780  1.00  0.00     0.000 C 
BRANCH   8   9
ATOM      9  C   UNL     1     -13.681 -24.996  85.263  1.00  0.00     0.006 C 
BRANCH   9  10
ATOM     10  C   UNL     1     -13.219 -23.664  85.860  1.00  0.00     0.053 C 
BRANCH  10  11
ATOM     11  C   UNL     1     -13.994 -22.529  85.268  1.00  0.00     0.041 C 
ATOM     12  O   UNL     1     -15.222 -22.403  85.515  1.00  0.00    -0.550 OA
ATOM     13  O   UNL     1     -13.348 -21.582  84.484  1.00  0.00    -0.550 OA
ENDBRANCH  10  11
ENDBRANCH   9  10
ENDBRANCH   8   9
ENDBRANCH   1   8
TORSDOF 8
ENDMDL
MODEL 5
REMARK VINA RESULT:    -1.042      2.331      4.397
REMARK INTER + INTRA:          -2.399
REMARK INTER:                  -1.560
REMARK INTRA:                  -0.839
REMARK UNBOUND:                -0.870
REMARK SMILES O=C([O-])CCCCCCCC(=O)[O-]
REMARK SMILES IDX 7 1 6 2 5 3 4 4 2 5 1 6 3 7 8 8 9 9 10 10 11 11 12 12 13 13
REMARK H PARENT
REMARK Flexibility Score: inf
ROOT
ATOM      1  C   UNL     1     -17.209 -24.640  83.943  1.00  0.00     0.000 C 
ENDROOT
BRANCH   1   2
ATOM      2  C   UNL     1     -16.501 -24.219  82.638  1.00  0.00     0.000 C 
BRANCH   2   3
ATOM      3  C   UNL     1     -16.490 -22.699  82.404  1.00  0.00     0.006 C 
BRANCH   3   4
ATOM      4  C   UNL     1     -15.742 -22.297  81.127  1.00  0.00     0.053 C 
BRANCH   4   5
ATOM      5  C   UNL     1     -14.362 -21.823  81.456  1.00  0.00     0.041 C 
ATOM      6  O   UNL     1     -13.405 -22.641  81.496  1.00  0.00    -0.550 OA
ATOM      7  O   UNL     1     -14.122 -20.471  81.668  1.00  0.00    -0.550 OA
ENDBRANCH   4   5
ENDBRANCH   3   4
ENDBRANCH   2   3
ENDBRANCH   1   2
BRANCH   1   8
ATOM      8  C   UNL     1     -17.317 -23.481  84.946  1.00  0.00     0.000 C 
BRANCH   8   9
ATOM      9  C   UNL     1     -16.228 -23.582  86.021  1.00  0.00     0.006 C 
BRANCH   9  10
ATOM     10  C   UNL     1     -15.273 -22.387  85.947  1.00  0.00     0.053 C 
BRANCH  10  11
ATOM     11  C   UNL     1     -14.040 -22.750  85.179  1.00  0.00     0.041 C 
ATOM     12  O   UNL     1     -13.246 -21.851  84.795  1.00  0.00    -0.550 OA
ATOM     13  O   UNL     1     -13.745 -24.084  84.929  1.00  0.00    -0.550 OA
ENDBRANCH  10  11
ENDBRANCH   9  10
ENDBRANCH   8   9
ENDBRANCH   1   8
TORSDOF 8
ENDMDL
MODEL 6
REMARK VINA RESULT:    -1.032      1.778      2.279
REMARK INTER + INTRA:          -2.385
REMARK INTER:                  -1.887
REMARK INTRA:                  -0.498
REMARK UNBOUND:                -0.870
REMARK SMILES O=C([O-])CCCCCCCC(=O)[O-]
REMARK SMILES IDX 7 1 6 2 5 3 4 4 2 5 1 6 3 7 8 8 9 9 10 10 11 11 12 12 13 13
REMARK H PARENT
REMARK Flexibility Score: inf
ROOT
ATOM      1  C   UNL     1     -13.289 -22.507  84.909  1.00  0.00     0.000 C 
ENDROOT
BRANCH   1   2
ATOM      2  C   UNL     1     -14.727 -22.383  85.457  1.00  0.00     0.000 C 
BRANCH   2   3
ATOM      3  C   UNL     1     -15.672 -23.492  84.967  1.00  0.00     0.006 C 
BRANCH   3   4
ATOM      4  C   UNL     1     -14.931 -24.773  84.563  1.00  0.00     0.053 C 
BRANCH   4   5
ATOM      5  C   UNL     1     -15.204 -25.105  83.130  1.00  0.00     0.041 C 
ATOM      6  O   UNL     1     -16.332 -25.549  82.787  1.00  0.00    -0.550 OA
ATOM      7  O   UNL     1     -14.232 -24.879  82.165  1.00  0.00    -0.550 OA
ENDBRANCH   4   5
ENDBRANCH   3   4
ENDBRANCH   2   3
ENDBRANCH   1   2
BRANCH   1   8
ATOM      8  C   UNL     1     -12.905 -21.322  84.010  1.00  0.00     0.000 C 
BRANCH   8   9
ATOM      9  C   UNL     1     -13.641 -21.388  82.666  1.00  0.00     0.006 C 
BRANCH   9  10
ATOM     10  C   UNL     1     -13.214 -20.238  81.750  1.00  0.00     0.053 C 
BRANCH  10  11
ATOM     11  C   UNL     1     -14.207 -20.052  80.646  1.00  0.00     0.041 C 
ATOM     12  O   UNL     1     -13.815 -19.830  79.471  1.00  0.00    -0.550 OA
ATOM     13  O   UNL     1     -15.566 -20.172  80.907  1.00  0.00    -0.550 OA
ENDBRANCH  10  11
ENDBRANCH   9  10
ENDBRANCH   8   9
ENDBRANCH   1   8
TORSDOF 8
ENDMDL
MODEL 7
REMARK VINA RESULT:    -0.987      1.951      2.662
REMARK INTER + INTRA:          -2.320
REMARK INTER:                  -1.441
REMARK INTRA:                  -0.878
REMARK UNBOUND:                -0.870
REMARK SMILES O=C([O-])CCCCCCCC(=O)[O-]
REMARK SMILES IDX 7 1 6 2 5 3 4 4 2 5 1 6 3 7 8 8 9 9 10 10 11 11 12 12 13 13
REMARK H PARENT
REMARK Flexibility Score: inf
ROOT
ATOM      1  C   UNL     1     -15.484 -22.403  85.910  1.00  0.00     0.000 C 
ENDROOT
BRANCH   1   2
ATOM      2  C   UNL     1     -16.564 -23.397  85.432  1.00  0.00     0.000 C 
BRANCH   2   3
ATOM      3  C   UNL     1     -15.992 -24.729  84.917  1.00  0.00     0.006 C 
BRANCH   3   4
ATOM      4  C   UNL     1     -16.903 -25.411  83.889  1.00  0.00     0.053 C 
BRANCH   4   5
ATOM      5  C   UNL     1     -16.271 -25.388  82.534  1.00  0.00     0.041 C 
ATOM      6  O   UNL     1     -16.761 -24.675  81.619  1.00  0.00    -0.550 OA
ATOM      7  O   UNL     1     -15.111 -26.114  82.293  1.00  0.00    -0.550 OA
ENDBRANCH   4   5
ENDBRANCH   3   4
ENDBRANCH   2   3
ENDBRANCH   1   2
BRANCH   1   8
ATOM      8  C   UNL     1     -14.062 -22.943  85.697  1.00  0.00     0.000 C 
BRANCH   8   9
ATOM      9  C   UNL     1     -13.311 -22.118  84.645  1.00  0.00     0.006 C 
BRANCH   9  10
ATOM     10  C   UNL     1     -12.879 -22.995  83.466  1.00  0.00     0.053 C 
BRANCH  10  11
ATOM     11  C   UNL     1     -13.773 -22.764  82.287  1.00  0.00     0.041 C 
ATOM     12  O   UNL     1     -13.529 -23.325  81.188  1.00  0.00    -0.550 OA
ATOM     13  O   UNL     1     -14.903 -21.967  82.418  1.00  0.00    -0.550 OA
ENDBRANCH  10  11
ENDBRANCH   9  10
ENDBRANCH   8   9
ENDBRANCH   1   8
TORSDOF 8
ENDMDL
MODEL 8
REMARK VINA RESULT:    -0.978      1.535      3.780
REMARK INTER + INTRA:          -2.306
REMARK INTER:                  -1.549
REMARK INTRA:                  -0.757
REMARK UNBOUND:                -0.870
REMARK SMILES O=C([O-])CCCCCCCC(=O)[O-]
REMARK SMILES IDX 7 1 6 2 5 3 4 4 2 5 1 6 3 7 8 8 9 9 10 10 11 11 12 12 13 13
REMARK H PARENT
REMARK Flexibility Score: inf
ROOT
ATOM      1  C   UNL     1     -16.021 -22.924  85.188  1.00  0.00     0.000 C 
ENDROOT
BRANCH   1   2
ATOM      2  C   UNL     1     -14.782 -23.184  86.071  1.00  0.00     0.000 C 
BRANCH   2   3
ATOM      3  C   UNL     1     -13.449 -22.873  85.371  1.00  0.00     0.006 C 
BRANCH   3   4
ATOM      4  C   UNL     1     -13.595 -21.855  84.233  1.00  0.00     0.053 C 
BRANCH   4   5
ATOM      5  C   UNL     1     -13.223 -22.475  82.924  1.00  0.00     0.041 C 
ATOM      6  O   UNL     1     -13.266 -23.726  82.781  1.00  0.00    -0.550 OA
ATOM      7  O   UNL     1     -12.877 -21.671  81.846  1.00  0.00    -0.550 OA
ENDBRANCH   4   5
ENDBRANCH   3   4
ENDBRANCH   2   3
ENDBRANCH   1   2
BRANCH   1   8
ATOM      8  C   UNL     1     -16.526 -24.203  84.503  1.00  0.00     0.000 C 
BRANCH   8   9
ATOM      9  C   UNL     1     -17.487 -23.870  83.356  1.00  0.00     0.006 C 
BRANCH   9  10
ATOM     10  C   UNL     1     -16.720 -23.405  82.115  1.00  0.00     0.053 C 
BRANCH  10  11
ATOM     11  C   UNL     1     -16.997 -21.960  81.840  1.00  0.00     0.041 C 
ATOM     12  O   UNL     1     -16.158 -21.262  81.213  1.00  0.00    -0.550 OA
ATOM     13  O   UNL     1     -18.204 -21.397  82.234  1.00  0.00    -0.550 OA
ENDBRANCH  10  11
ENDBRANCH   9  10
ENDBRANCH   8   9
ENDBRANCH   1   8
TORSDOF 8
ENDMDL
MODEL 9
REMARK VINA RESULT:    -0.962      1.337      4.054
REMARK INTER + INTRA:          -2.282
REMARK INTER:                  -1.646
REMARK INTRA:                  -0.636
REMARK UNBOUND:                -0.870
REMARK SMILES O=C([O-])CCCCCCCC(=O)[O-]
REMARK SMILES IDX 7 1 6 2 5 3 4 4 2 5 1 6 3 7 8 8 9 9 10 10 11 11 12 12 13 13
REMARK H PARENT
REMARK Flexibility Score: inf
ROOT
ATOM      1  C   UNL     1     -13.289 -21.503  83.799  1.00  0.00     0.000 C 
ENDROOT
BRANCH   1   2
ATOM      2  C   UNL     1     -12.875 -22.181  82.476  1.00  0.00     0.000 C 
BRANCH   2   3
ATOM      3  C   UNL     1     -14.065 -22.692  81.645  1.00  0.00     0.006 C 
BRANCH   3   4
ATOM      4  C   UNL     1     -14.284 -21.887  80.359  1.00  0.00     0.053 C 
BRANCH   4   5
ATOM      5  C   UNL     1     -14.970 -20.593  80.662  1.00  0.00     0.041 C 
ATOM      6  O   UNL     1     -14.373 -19.500  80.477  1.00  0.00    -0.550 OA
ATOM      7  O   UNL     1     -16.289 -20.590  81.101  1.00  0.00    -0.550 OA
ENDBRANCH   4   5
ENDBRANCH   3   4
ENDBRANCH   2   3
ENDBRANCH   1   2
BRANCH   1   8
ATOM      8  C   UNL     1     -13.305 -22.487  84.977  1.00  0.00     0.000 C 
BRANCH   8   9
ATOM      9  C   UNL     1     -14.719 -22.634  85.554  1.00  0.00     0.006 C 
BRANCH   9  10
ATOM     10  C   UNL     1     -15.355 -23.956  85.116  1.00  0.00     0.053 C 
BRANCH  10  11
ATOM     11  C   UNL     1     -16.677 -23.709  84.460  1.00  0.00     0.041 C 
ATOM     12  O   UNL     1     -17.604 -24.554  84.563  1.00  0.00    -0.550 OA
ATOM     13  O   UNL     1     -16.901 -22.522  83.774  1.00  0.00    -0.550 OA
ENDBRANCH  10  11
ENDBRANCH   9  10
ENDBRANCH   8   9
ENDBRANCH   1   8
TORSDOF 8
ENDMDL
