MODEL 1
REMARK VINA RESULT:    -6.873      0.000      0.000
REMARK INTER + INTRA:         -12.093
REMARK INTER:                  -9.887
REMARK INTRA:                  -2.207
REMARK UNBOUND:                -2.207
REMARK SMILES O=c1c(O[C@@H]2O[C@@H](CO)[C@@H](O)[C@@H](O)[C@@H]2O)c(-c2ccc(O)cc2)oc2cc(O)cc(O)c12
REMARK SMILES IDX 4 1 3 2 16 3 24 4 2 5 25 6 1 7 32 8 26 9 30 10 27 11 29 12
REMARK SMILES IDX 17 13 18 14 19 15 20 16 23 17 22 18 21 19 31 21 28 23 5 25
REMARK SMILES IDX 14 26 6 27 12 28 7 29 10 30 15 31 13 33 8 35 9 36 11 38
REMARK H PARENT 21 20 31 22 28 24 15 32 13 34 9 37 11 39
REMARK Flexibility Score: inf
ROOT
ATOM      1  O   UNL     1     -38.053   5.397  82.066  1.00  0.00    -0.454 OA
ENDROOT
BRANCH   1   2
ATOM      2  C   UNL     1     -38.841   4.802  81.057  1.00  0.00     0.214 A 
ATOM      3  C   UNL     1     -38.302   4.744  79.759  1.00  0.00     0.180 A 
ATOM      4  O   UNL     1     -39.025   4.264  78.756  1.00  0.00    -0.452 OA
ATOM      5  C   UNL     1     -40.142   4.283  81.265  1.00  0.00     0.239 A 
ATOM      6  C   UNL     1     -40.261   3.807  78.897  1.00  0.00     0.146 A 
ATOM      7  O   UNL     1     -40.599   4.202  82.433  1.00  0.00    -0.285 OA
ATOM      8  C   UNL     1     -40.899   3.816  80.164  1.00  0.00     0.111 A 
ATOM      9  C   UNL     1     -40.916   3.301  77.772  1.00  0.00     0.094 A 
ATOM     10  C   UNL     1     -42.241   3.333  80.249  1.00  0.00     0.134 A 
ATOM     11  C   UNL     1     -42.207   2.782  77.879  1.00  0.00     0.123 A 
ATOM     12  C   UNL     1     -42.856   2.793  79.112  1.00  0.00     0.093 A 
BRANCH   3  13
ATOM     13  C   UNL     1     -36.929   5.210  79.464  1.00  0.00     0.021 A 
ATOM     14  C   UNL     1     -36.697   6.467  78.879  1.00  0.00     0.016 A 
ATOM     15  C   UNL     1     -35.391   6.897  78.623  1.00  0.00     0.047 A 
ATOM     16  C   UNL     1     -34.305   6.087  78.964  1.00  0.00     0.115 A 
ATOM     17  C   UNL     1     -35.833   4.409  79.823  1.00  0.00     0.016 A 
ATOM     18  C   UNL     1     -34.527   4.841  79.567  1.00  0.00     0.047 A 
BRANCH  16  19
ATOM     19  O   UNL     1     -33.010   6.530  78.706  1.00  0.00    -0.508 OA
ATOM     20  H   UNL     1     -32.783   7.031  77.855  1.00  0.00     0.293 HD
ENDBRANCH  16  19
ENDBRANCH   3  13
BRANCH  10  21
ATOM     21  O   UNL     1     -43.023   3.389  81.407  1.00  0.00    -0.507 OA
ATOM     22  H   UNL     1     -42.681   3.234  82.344  1.00  0.00     0.293 HD
ENDBRANCH  10  21
BRANCH  11  23
ATOM     23  O   UNL     1     -42.858   2.261  76.764  1.00  0.00    -0.508 OA
ATOM     24  H   UNL     1     -43.300   1.350  76.786  1.00  0.00     0.293 HD
ENDBRANCH  11  23
ENDBRANCH   1   2
BRANCH   1  25
ATOM     25  C   UNL     1     -38.114   6.737  82.574  1.00  0.00     0.339 C 
ATOM     26  C   UNL     1     -38.384   6.777  84.107  1.00  0.00     0.214 C 
ATOM     27  O   UNL     1     -36.921   7.430  82.246  1.00  0.00    -0.332 OA
ATOM     28  C   UNL     1     -37.118   7.186  84.893  1.00  0.00     0.180 C 
ATOM     29  C   UNL     1     -35.764   6.783  82.764  1.00  0.00     0.179 C 
ATOM     30  C   UNL     1     -35.888   6.483  84.297  1.00  0.00     0.177 C 
BRANCH  26  31
ATOM     31  O   UNL     1     -38.830   5.522  84.559  1.00  0.00    -0.384 OA
ATOM     32  H   UNL     1     -39.340   5.681  85.397  1.00  0.00     0.211 HD
ENDBRANCH  26  31
BRANCH  28  33
ATOM     33  O   UNL     1     -36.937   8.579  84.837  1.00  0.00    -0.387 OA
ATOM     34  H   UNL     1     -36.133   8.742  84.277  1.00  0.00     0.211 HD
ENDBRANCH  28  33
BRANCH  29  35
ATOM     35  C   UNL     1     -34.552   7.657  82.410  1.00  0.00     0.191 C 
BRANCH  35  36
ATOM     36  O   UNL     1     -34.710   8.948  82.933  1.00  0.00    -0.394 OA
ATOM     37  H   UNL     1     -34.637   9.566  82.161  1.00  0.00     0.210 HD
ENDBRANCH  35  36
ENDBRANCH  29  35
BRANCH  30  38
ATOM     38  O   UNL     1     -34.732   6.857  85.004  1.00  0.00    -0.387 OA
ATOM     39  H   UNL     1     -34.376   6.036  85.433  1.00  0.00     0.211 HD
ENDBRANCH  30  38
ENDBRANCH   1  25
TORSDOF 11
ENDMDL
MODEL 2
REMARK VINA RESULT:    -6.213      1.312      1.986
REMARK INTER + INTRA:         -11.144
REMARK INTER:                  -9.889
REMARK INTRA:                  -1.255
REMARK UNBOUND:                -2.207
REMARK SMILES O=c1c(O[C@@H]2O[C@@H](CO)[C@@H](O)[C@@H](O)[C@@H]2O)c(-c2ccc(O)cc2)oc2cc(O)cc(O)c12
REMARK SMILES IDX 4 1 3 2 16 3 24 4 2 5 25 6 1 7 32 8 26 9 30 10 27 11 29 12
REMARK SMILES IDX 17 13 18 14 19 15 20 16 23 17 22 18 21 19 31 21 28 23 5 25
REMARK SMILES IDX 14 26 6 27 12 28 7 29 10 30 15 31 13 33 8 35 9 36 11 38
REMARK H PARENT 21 20 31 22 28 24 15 32 13 34 9 37 11 39
REMARK Flexibility Score: inf
ROOT
ATOM      1  O   UNL     1     -38.009   5.430  82.107  1.00  0.00    -0.454 OA
ENDROOT
BRANCH   1   2
ATOM      2  C   UNL     1     -38.790   4.835  81.092  1.00  0.00     0.214 A 
ATOM      3  C   UNL     1     -38.249   4.791  79.795  1.00  0.00     0.180 A 
ATOM      4  O   UNL     1     -38.965   4.312  78.787  1.00  0.00    -0.452 OA
ATOM      5  C   UNL     1     -40.085   4.302  81.295  1.00  0.00     0.239 A 
ATOM      6  C   UNL     1     -40.197   3.842  78.922  1.00  0.00     0.146 A 
ATOM      7  O   UNL     1     -40.544   4.207  82.461  1.00  0.00    -0.285 OA
ATOM      8  C   UNL     1     -40.837   3.835  80.188  1.00  0.00     0.111 A 
ATOM      9  C   UNL     1     -40.845   3.338  77.793  1.00  0.00     0.094 A 
ATOM     10  C   UNL     1     -42.174   3.339  80.268  1.00  0.00     0.134 A 
ATOM     11  C   UNL     1     -42.131   2.806  77.893  1.00  0.00     0.123 A 
ATOM     12  C   UNL     1     -42.782   2.801  79.126  1.00  0.00     0.093 A 
BRANCH   3  13
ATOM     13  C   UNL     1     -36.879   5.274  79.505  1.00  0.00     0.021 A 
ATOM     14  C   UNL     1     -36.651   6.582  79.046  1.00  0.00     0.016 A 
ATOM     15  C   UNL     1     -35.348   7.025  78.794  1.00  0.00     0.047 A 
ATOM     16  C   UNL     1     -34.262   6.173  79.014  1.00  0.00     0.115 A 
ATOM     17  C   UNL     1     -35.783   4.430  79.744  1.00  0.00     0.016 A 
ATOM     18  C   UNL     1     -34.481   4.874  79.491  1.00  0.00     0.047 A 
BRANCH  16  19
ATOM     19  O   UNL     1     -32.970   6.630  78.762  1.00  0.00    -0.508 OA
ATOM     20  H   UNL     1     -32.675   7.559  79.037  1.00  0.00     0.293 HD
ENDBRANCH  16  19
ENDBRANCH   3  13
BRANCH  10  21
ATOM     21  O   UNL     1     -42.958   3.378  81.425  1.00  0.00    -0.507 OA
ATOM     22  H   UNL     1     -43.857   3.833  81.500  1.00  0.00     0.293 HD
ENDBRANCH  10  21
BRANCH  11  23
ATOM     23  O   UNL     1     -42.776   2.287  76.774  1.00  0.00    -0.508 OA
ATOM     24  H   UNL     1     -43.545   2.775  76.332  1.00  0.00     0.293 HD
ENDBRANCH  11  23
ENDBRANCH   1   2
BRANCH   1  25
ATOM     25  C   UNL     1     -38.445   6.212  83.226  1.00  0.00     0.339 C 
ATOM     26  C   UNL     1     -37.253   6.790  84.045  1.00  0.00     0.214 C 
ATOM     27  O   UNL     1     -39.309   7.246  82.782  1.00  0.00    -0.332 OA
ATOM     28  C   UNL     1     -37.096   8.311  83.819  1.00  0.00     0.180 C 
ATOM     29  C   UNL     1     -38.684   8.096  81.828  1.00  0.00     0.179 C 
ATOM     30  C   UNL     1     -37.302   8.638  82.331  1.00  0.00     0.177 C 
BRANCH  26  31
ATOM     31  O   UNL     1     -36.057   6.140  83.694  1.00  0.00    -0.384 OA
ATOM     32  H   UNL     1     -36.100   5.226  84.079  1.00  0.00     0.211 HD
ENDBRANCH  26  31
BRANCH  28  33
ATOM     33  O   UNL     1     -38.035   9.019  84.590  1.00  0.00    -0.387 OA
ATOM     34  H   UNL     1     -37.925   8.713  85.528  1.00  0.00     0.211 HD
ENDBRANCH  28  33
BRANCH  29  35
ATOM     35  C   UNL     1     -39.684   9.209  81.479  1.00  0.00     0.191 C 
BRANCH  35  36
ATOM     36  O   UNL     1     -40.069   9.900  82.636  1.00  0.00    -0.394 OA
ATOM     37  H   UNL     1     -40.779   9.350  83.059  1.00  0.00     0.210 HD
ENDBRANCH  35  36
ENDBRANCH  29  35
BRANCH  30  38
ATOM     38  O   UNL     1     -37.168  10.021  82.121  1.00  0.00    -0.387 OA
ATOM     39  H   UNL     1     -36.559  10.140  81.346  1.00  0.00     0.211 HD
ENDBRANCH  30  38
ENDBRANCH   1  25
TORSDOF 11
ENDMDL
MODEL 3
REMARK VINA RESULT:    -6.021      2.915      5.015
REMARK INTER + INTRA:         -10.868
REMARK INTER:                  -8.919
REMARK INTRA:                  -1.950
REMARK UNBOUND:                -2.207
REMARK SMILES O=c1c(O[C@@H]2O[C@@H](CO)[C@@H](O)[C@@H](O)[C@@H]2O)c(-c2ccc(O)cc2)oc2cc(O)cc(O)c12
REMARK SMILES IDX 4 1 3 2 16 3 24 4 2 5 25 6 1 7 32 8 26 9 30 10 27 11 29 12
REMARK SMILES IDX 17 13 18 14 19 15 20 16 23 17 22 18 21 19 31 21 28 23 5 25
REMARK SMILES IDX 14 26 6 27 12 28 7 29 10 30 15 31 13 33 8 35 9 36 11 38
REMARK H PARENT 21 20 31 22 28 24 15 32 13 34 9 37 11 39
REMARK Flexibility Score: inf
ROOT
ATOM      1  O   UNL     1     -38.544   6.138  79.730  1.00  0.00    -0.454 OA
ENDROOT
BRANCH   1   2
ATOM      2  C   UNL     1     -38.547   5.154  80.742  1.00  0.00     0.214 A 
ATOM      3  C   UNL     1     -37.302   4.728  81.241  1.00  0.00     0.180 A 
ATOM      4  O   UNL     1     -37.240   3.753  82.138  1.00  0.00    -0.452 OA
ATOM      5  C   UNL     1     -39.718   4.557  81.268  1.00  0.00     0.239 A 
ATOM      6  C   UNL     1     -38.306   3.138  82.627  1.00  0.00     0.146 A 
ATOM      7  O   UNL     1     -40.845   5.005  80.940  1.00  0.00    -0.285 OA
ATOM      8  C   UNL     1     -39.611   3.492  82.196  1.00  0.00     0.111 A 
ATOM      9  C   UNL     1     -38.119   2.142  83.588  1.00  0.00     0.094 A 
ATOM     10  C   UNL     1     -40.721   2.776  82.739  1.00  0.00     0.134 A 
ATOM     11  C   UNL     1     -39.215   1.488  84.152  1.00  0.00     0.123 A 
ATOM     12  C   UNL     1     -40.504   1.813  83.734  1.00  0.00     0.093 A 
BRANCH   3  13
ATOM     13  C   UNL     1     -36.032   5.338  80.789  1.00  0.00     0.021 A 
ATOM     14  C   UNL     1     -35.194   4.680  79.872  1.00  0.00     0.016 A 
ATOM     15  C   UNL     1     -34.006   5.281  79.444  1.00  0.00     0.047 A 
ATOM     16  C   UNL     1     -33.651   6.550  79.913  1.00  0.00     0.115 A 
ATOM     17  C   UNL     1     -35.681   6.621  81.240  1.00  0.00     0.016 A 
ATOM     18  C   UNL     1     -34.492   7.220  80.811  1.00  0.00     0.047 A 
BRANCH  16  19
ATOM     19  O   UNL     1     -32.466   7.136  79.475  1.00  0.00    -0.508 OA
ATOM     20  H   UNL     1     -32.037   7.902  79.981  1.00  0.00     0.293 HD
ENDBRANCH  16  19
ENDBRANCH   3  13
BRANCH  10  21
ATOM     21  O   UNL     1     -42.045   2.945  82.322  1.00  0.00    -0.507 OA
ATOM     22  H   UNL     1     -42.451   2.521  81.501  1.00  0.00     0.293 HD
ENDBRANCH  10  21
BRANCH  11  23
ATOM     23  O   UNL     1     -39.034   0.507  85.123  1.00  0.00    -0.508 OA
ATOM     24  H   UNL     1     -39.481  -0.399  85.050  1.00  0.00     0.293 HD
ENDBRANCH  11  23
ENDBRANCH   1   2
BRANCH   1  25
ATOM     25  C   UNL     1     -38.528   5.957  78.308  1.00  0.00     0.339 C 
ATOM     26  C   UNL     1     -39.768   6.598  77.616  1.00  0.00     0.214 C 
ATOM     27  O   UNL     1     -37.320   6.470  77.771  1.00  0.00    -0.332 OA
ATOM     28  C   UNL     1     -39.384   7.881  76.845  1.00  0.00     0.180 C 
ATOM     29  C   UNL     1     -37.142   7.850  78.071  1.00  0.00     0.179 C 
ATOM     30  C   UNL     1     -38.393   8.709  77.679  1.00  0.00     0.177 C 
BRANCH  26  31
ATOM     31  O   UNL     1     -40.757   6.902  78.568  1.00  0.00    -0.384 OA
ATOM     32  H   UNL     1     -40.534   7.796  78.941  1.00  0.00     0.211 HD
ENDBRANCH  26  31
BRANCH  28  33
ATOM     33  O   UNL     1     -38.801   7.553  75.609  1.00  0.00    -0.387 OA
ATOM     34  H   UNL     1     -38.572   6.587  75.647  1.00  0.00     0.211 HD
ENDBRANCH  28  33
BRANCH  29  35
ATOM     35  C   UNL     1     -35.848   8.308  77.382  1.00  0.00     0.191 C 
BRANCH  35  36
ATOM     36  O   UNL     1     -35.336   9.449  78.014  1.00  0.00    -0.394 OA
ATOM     37  H   UNL     1     -34.591   9.132  78.588  1.00  0.00     0.210 HD
ENDBRANCH  35  36
ENDBRANCH  29  35
BRANCH  30  38
ATOM     38  O   UNL     1     -38.035   9.875  76.978  1.00  0.00    -0.387 OA
ATOM     39  H   UNL     1     -38.870  10.389  76.826  1.00  0.00     0.211 HD
ENDBRANCH  30  38
ENDBRANCH   1  25
TORSDOF 11
ENDMDL
MODEL 4
REMARK VINA RESULT:    -5.978      2.084      6.491
REMARK INTER + INTRA:         -10.806
REMARK INTER:                  -8.834
REMARK INTRA:                  -1.972
REMARK UNBOUND:                -2.207
REMARK SMILES O=c1c(O[C@@H]2O[C@@H](CO)[C@@H](O)[C@@H](O)[C@@H]2O)c(-c2ccc(O)cc2)oc2cc(O)cc(O)c12
REMARK SMILES IDX 4 1 3 2 16 3 24 4 2 5 25 6 1 7 32 8 26 9 30 10 27 11 29 12
REMARK SMILES IDX 17 13 18 14 19 15 20 16 23 17 22 18 21 19 31 21 28 23 5 25
REMARK SMILES IDX 14 26 6 27 12 28 7 29 10 30 15 31 13 33 8 35 9 36 11 38
REMARK H PARENT 21 20 31 22 28 24 15 32 13 34 9 37 11 39
REMARK Flexibility Score: inf
ROOT
ATOM      1  O   UNL     1     -38.346   5.248  81.769  1.00  0.00    -0.454 OA
ENDROOT
BRANCH   1   2
ATOM      2  C   UNL     1     -37.595   5.902  80.768  1.00  0.00     0.214 A 
ATOM      3  C   UNL     1     -37.842   5.544  79.430  1.00  0.00     0.180 A 
ATOM      4  O   UNL     1     -37.117   6.071  78.453  1.00  0.00    -0.452 OA
ATOM      5  C   UNL     1     -36.600   6.874  81.027  1.00  0.00     0.239 A 
ATOM      6  C   UNL     1     -36.148   6.952  78.652  1.00  0.00     0.146 A 
ATOM      7  O   UNL     1     -36.446   7.310  82.196  1.00  0.00    -0.285 OA
ATOM      8  C   UNL     1     -35.818   7.385  79.962  1.00  0.00     0.111 A 
ATOM      9  C   UNL     1     -35.468   7.458  77.542  1.00  0.00     0.094 A 
ATOM     10  C   UNL     1     -34.747   8.318  80.117  1.00  0.00     0.134 A 
ATOM     11  C   UNL     1     -34.461   8.410  77.702  1.00  0.00     0.123 A 
ATOM     12  C   UNL     1     -34.114   8.840  78.982  1.00  0.00     0.093 A 
BRANCH   3  13
ATOM     13  C   UNL     1     -38.903   4.579  79.065  1.00  0.00     0.021 A 
ATOM     14  C   UNL     1     -38.596   3.244  78.750  1.00  0.00     0.016 A 
ATOM     15  C   UNL     1     -39.614   2.343  78.424  1.00  0.00     0.047 A 
ATOM     16  C   UNL     1     -40.949   2.759  78.426  1.00  0.00     0.115 A 
ATOM     17  C   UNL     1     -40.247   4.986  79.085  1.00  0.00     0.016 A 
ATOM     18  C   UNL     1     -41.264   4.083  78.759  1.00  0.00     0.047 A 
BRANCH  16  19
ATOM     19  O   UNL     1     -41.952   1.849  78.102  1.00  0.00    -0.508 OA
ATOM     20  H   UNL     1     -41.849   1.202  77.329  1.00  0.00     0.293 HD
ENDBRANCH  16  19
ENDBRANCH   3  13
BRANCH  10  21
ATOM     21  O   UNL     1     -34.247   8.741  81.353  1.00  0.00    -0.507 OA
ATOM     22  H   UNL     1     -34.404   8.270  82.232  1.00  0.00     0.293 HD
ENDBRANCH  10  21
BRANCH  11  23
ATOM     23  O   UNL     1     -33.792   8.930  76.597  1.00  0.00    -0.508 OA
ATOM     24  H   UNL     1     -32.818   8.716  76.419  1.00  0.00     0.293 HD
ENDBRANCH  11  23
ENDBRANCH   1   2
BRANCH   1  25
ATOM     25  C   UNL     1     -38.096   3.977  82.384  1.00  0.00     0.339 C 
ATOM     26  C   UNL     1     -37.695   4.113  83.883  1.00  0.00     0.214 C 
ATOM     27  O   UNL     1     -39.230   3.139  82.233  1.00  0.00    -0.332 OA
ATOM     28  C   UNL     1     -38.838   3.658  84.818  1.00  0.00     0.180 C 
ATOM     29  C   UNL     1     -40.403   3.713  82.799  1.00  0.00     0.179 C 
ATOM     30  C   UNL     1     -40.183   4.173  84.281  1.00  0.00     0.177 C 
BRANCH  26  31
ATOM     31  O   UNL     1     -37.351   5.445  84.179  1.00  0.00    -0.384 OA
ATOM     32  H   UNL     1     -36.422   5.582  83.857  1.00  0.00     0.211 HD
ENDBRANCH  26  31
BRANCH  28  33
ATOM     33  O   UNL     1     -38.871   2.255  84.903  1.00  0.00    -0.387 OA
ATOM     34  H   UNL     1     -39.760   2.010  85.269  1.00  0.00     0.211 HD
ENDBRANCH  28  33
BRANCH  29  35
ATOM     35  C   UNL     1     -41.539   2.692  82.640  1.00  0.00     0.191 C 
BRANCH  35  36
ATOM     36  O   UNL     1     -41.193   1.478  83.248  1.00  0.00    -0.394 OA
ATOM     37  H   UNL     1     -41.791   0.793  82.851  1.00  0.00     0.210 HD
ENDBRANCH  35  36
ENDBRANCH  29  35
BRANCH  30  38
ATOM     38  O   UNL     1     -41.227   3.755  85.125  1.00  0.00    -0.387 OA
ATOM     39  H   UNL     1     -41.966   4.410  85.019  1.00  0.00     0.211 HD
ENDBRANCH  30  38
ENDBRANCH   1  25
TORSDOF 11
ENDMDL
MODEL 5
REMARK VINA RESULT:    -5.937      2.951      4.967
REMARK INTER + INTRA:         -10.747
REMARK INTER:                  -8.905
REMARK INTRA:                  -1.842
REMARK UNBOUND:                -2.207
REMARK SMILES O=c1c(O[C@@H]2O[C@@H](CO)[C@@H](O)[C@@H](O)[C@@H]2O)c(-c2ccc(O)cc2)oc2cc(O)cc(O)c12
REMARK SMILES IDX 4 1 3 2 16 3 24 4 2 5 25 6 1 7 32 8 26 9 30 10 27 11 29 12
REMARK SMILES IDX 17 13 18 14 19 15 20 16 23 17 22 18 21 19 31 21 28 23 5 25
REMARK SMILES IDX 14 26 6 27 12 28 7 29 10 30 15 31 13 33 8 35 9 36 11 38
REMARK H PARENT 21 20 31 22 28 24 15 32 13 34 9 37 11 39
REMARK Flexibility Score: inf
ROOT
ATOM      1  O   UNL     1     -36.716   5.585  79.687  1.00  0.00    -0.454 OA
ENDROOT
BRANCH   1   2
ATOM      2  C   UNL     1     -37.861   5.045  80.312  1.00  0.00     0.214 A 
ATOM      3  C   UNL     1     -39.115   5.549  79.922  1.00  0.00     0.180 A 
ATOM      4  O   UNL     1     -40.220   5.134  80.526  1.00  0.00    -0.452 OA
ATOM      5  C   UNL     1     -37.824   4.048  81.316  1.00  0.00     0.239 A 
ATOM      6  C   UNL     1     -40.229   4.234  81.498  1.00  0.00     0.146 A 
ATOM      7  O   UNL     1     -36.735   3.485  81.593  1.00  0.00    -0.285 OA
ATOM      8  C   UNL     1     -39.020   3.657  81.966  1.00  0.00     0.111 A 
ATOM      9  C   UNL     1     -41.457   3.853  82.042  1.00  0.00     0.094 A 
ATOM     10  C   UNL     1     -39.090   2.711  83.035  1.00  0.00     0.134 A 
ATOM     11  C   UNL     1     -41.518   2.888  83.048  1.00  0.00     0.123 A 
ATOM     12  C   UNL     1     -40.340   2.318  83.530  1.00  0.00     0.093 A 
BRANCH   3  13
ATOM     13  C   UNL     1     -39.249   6.551  78.840  1.00  0.00     0.021 A 
ATOM     14  C   UNL     1     -39.209   6.171  77.487  1.00  0.00     0.016 A 
ATOM     15  C   UNL     1     -39.355   7.130  76.480  1.00  0.00     0.047 A 
ATOM     16  C   UNL     1     -39.559   8.473  76.811  1.00  0.00     0.115 A 
ATOM     17  C   UNL     1     -39.474   7.898  79.167  1.00  0.00     0.016 A 
ATOM     18  C   UNL     1     -39.620   8.855  78.158  1.00  0.00     0.047 A 
BRANCH  16  19
ATOM     19  O   UNL     1     -39.705   9.415  75.797  1.00  0.00    -0.508 OA
ATOM     20  H   UNL     1     -39.735  10.408  75.998  1.00  0.00     0.293 HD
ENDBRANCH  16  19
ENDBRANCH   3  13
BRANCH  10  21
ATOM     21  O   UNL     1     -37.973   2.153  83.664  1.00  0.00    -0.507 OA
ATOM     22  H   UNL     1     -37.069   2.598  83.739  1.00  0.00     0.293 HD
ENDBRANCH  10  21
BRANCH  11  23
ATOM     23  O   UNL     1     -42.741   2.493  83.582  1.00  0.00    -0.508 OA
ATOM     24  H   UNL     1     -43.460   2.073  83.005  1.00  0.00     0.293 HD
ENDBRANCH  11  23
ENDBRANCH   1   2
BRANCH   1  25
ATOM     25  C   UNL     1     -35.627   6.301  80.285  1.00  0.00     0.339 C 
ATOM     26  C   UNL     1     -34.241   5.789  79.793  1.00  0.00     0.214 C 
ATOM     27  O   UNL     1     -35.774   7.691  80.041  1.00  0.00    -0.332 OA
ATOM     28  C   UNL     1     -33.575   6.796  78.828  1.00  0.00     0.180 C 
ATOM     29  C   UNL     1     -35.827   7.991  78.651  1.00  0.00     0.179 C 
ATOM     30  C   UNL     1     -34.628   7.361  77.862  1.00  0.00     0.177 C 
BRANCH  26  31
ATOM     31  O   UNL     1     -34.378   4.546  79.149  1.00  0.00    -0.384 OA
ATOM     32  H   UNL     1     -33.785   3.907  79.625  1.00  0.00     0.211 HD
ENDBRANCH  26  31
BRANCH  28  33
ATOM     33  O   UNL     1     -32.986   7.848  79.551  1.00  0.00    -0.387 OA
ATOM     34  H   UNL     1     -33.721   8.464  79.811  1.00  0.00     0.211 HD
ENDBRANCH  28  33
BRANCH  29  35
ATOM     35  C   UNL     1     -35.913   9.517  78.513  1.00  0.00     0.191 C 
BRANCH  35  36
ATOM     36  O   UNL     1     -34.782  10.124  79.077  1.00  0.00    -0.394 OA
ATOM     37  H   UNL     1     -35.125  10.831  79.682  1.00  0.00     0.210 HD
ENDBRANCH  35  36
ENDBRANCH  29  35
BRANCH  30  38
ATOM     38  O   UNL     1     -34.029   8.284  76.986  1.00  0.00    -0.387 OA
ATOM     39  H   UNL     1     -34.638   9.065  76.927  1.00  0.00     0.211 HD
ENDBRANCH  30  38
ENDBRANCH   1  25
TORSDOF 11
ENDMDL
MODEL 6
REMARK VINA RESULT:    -5.904      2.588      5.805
REMARK INTER + INTRA:         -10.700
REMARK INTER:                  -9.280
REMARK INTRA:                  -1.420
REMARK UNBOUND:                -2.207
REMARK SMILES O=c1c(O[C@@H]2O[C@@H](CO)[C@@H](O)[C@@H](O)[C@@H]2O)c(-c2ccc(O)cc2)oc2cc(O)cc(O)c12
REMARK SMILES IDX 4 1 3 2 16 3 24 4 2 5 25 6 1 7 32 8 26 9 30 10 27 11 29 12
REMARK SMILES IDX 17 13 18 14 19 15 20 16 23 17 22 18 21 19 31 21 28 23 5 25
REMARK SMILES IDX 14 26 6 27 12 28 7 29 10 30 15 31 13 33 8 35 9 36 11 38
REMARK H PARENT 21 20 31 22 28 24 15 32 13 34 9 37 11 39
REMARK Flexibility Score: inf
ROOT
ATOM      1  O   UNL     1     -38.111   4.670  80.588  1.00  0.00    -0.454 OA
ENDROOT
BRANCH   1   2
ATOM      2  C   UNL     1     -38.251   5.642  79.574  1.00  0.00     0.214 A 
ATOM      3  C   UNL     1     -39.319   5.491  78.670  1.00  0.00     0.180 A 
ATOM      4  O   UNL     1     -39.457   6.330  77.653  1.00  0.00    -0.452 OA
ATOM      5  C   UNL     1     -37.376   6.740  79.398  1.00  0.00     0.239 A 
ATOM      6  C   UNL     1     -38.639   7.347  77.425  1.00  0.00     0.146 A 
ATOM      7  O   UNL     1     -36.494   6.977  80.260  1.00  0.00    -0.285 OA
ATOM      8  C   UNL     1     -37.531   7.593  78.277  1.00  0.00     0.111 A 
ATOM      9  C   UNL     1     -38.899   8.181  76.336  1.00  0.00     0.094 A 
ATOM     10  C   UNL     1     -36.668   8.689  77.966  1.00  0.00     0.134 A 
ATOM     11  C   UNL     1     -38.081   9.280  76.075  1.00  0.00     0.123 A 
ATOM     12  C   UNL     1     -36.981   9.532  76.893  1.00  0.00     0.093 A 
BRANCH   3  13
ATOM     13  C   UNL     1     -40.314   4.405  78.815  1.00  0.00     0.021 A 
ATOM     14  C   UNL     1     -40.312   3.296  77.951  1.00  0.00     0.016 A 
ATOM     15  C   UNL     1     -41.249   2.271  78.115  1.00  0.00     0.047 A 
ATOM     16  C   UNL     1     -42.187   2.335  79.150  1.00  0.00     0.115 A 
ATOM     17  C   UNL     1     -41.245   4.454  79.865  1.00  0.00     0.016 A 
ATOM     18  C   UNL     1     -42.182   3.428  80.027  1.00  0.00     0.047 A 
BRANCH  16  19
ATOM     19  O   UNL     1     -43.113   1.306  79.302  1.00  0.00    -0.508 OA
ATOM     20  H   UNL     1     -44.084   1.425  79.036  1.00  0.00     0.293 HD
ENDBRANCH  16  19
ENDBRANCH   3  13
BRANCH  10  21
ATOM     21  O   UNL     1     -35.484   8.974  78.653  1.00  0.00    -0.507 OA
ATOM     22  H   UNL     1     -35.134   8.454  79.444  1.00  0.00     0.293 HD
ENDBRANCH  10  21
BRANCH  11  23
ATOM     23  O   UNL     1     -38.346  10.125  75.000  1.00  0.00    -0.508 OA
ATOM     24  H   UNL     1     -38.724  11.055  75.137  1.00  0.00     0.293 HD
ENDBRANCH  11  23
ENDBRANCH   1   2
BRANCH   1  25
ATOM     25  C   UNL     1     -38.690   4.660  81.900  1.00  0.00     0.339 C 
ATOM     26  C   UNL     1     -38.988   3.217  82.405  1.00  0.00     0.214 C 
ATOM     27  O   UNL     1     -37.844   5.353  82.804  1.00  0.00    -0.332 OA
ATOM     28  C   UNL     1     -37.991   2.785  83.503  1.00  0.00     0.180 C 
ATOM     29  C   UNL     1     -36.540   4.788  82.860  1.00  0.00     0.179 C 
ATOM     30  C   UNL     1     -36.573   3.244  83.126  1.00  0.00     0.177 C 
BRANCH  26  31
ATOM     31  O   UNL     1     -38.931   2.303  81.337  1.00  0.00    -0.384 OA
ATOM     32  H   UNL     1     -38.934   1.393  81.735  1.00  0.00     0.211 HD
ENDBRANCH  26  31
BRANCH  28  33
ATOM     33  O   UNL     1     -38.353   3.346  84.740  1.00  0.00    -0.387 OA
ATOM     34  H   UNL     1     -39.205   3.835  84.595  1.00  0.00     0.211 HD
ENDBRANCH  28  33
BRANCH  29  35
ATOM     35  C   UNL     1     -35.745   5.571  83.916  1.00  0.00     0.191 C 
BRANCH  35  36
ATOM     36  O   UNL     1     -36.513   5.748  85.074  1.00  0.00    -0.394 OA
ATOM     37  H   UNL     1     -36.125   6.532  85.542  1.00  0.00     0.210 HD
ENDBRANCH  35  36
ENDBRANCH  29  35
BRANCH  30  38
ATOM     38  O   UNL     1     -35.662   2.859  84.126  1.00  0.00    -0.387 OA
ATOM     39  H   UNL     1     -35.394   3.685  84.608  1.00  0.00     0.211 HD
ENDBRANCH  30  38
ENDBRANCH   1  25
TORSDOF 11
ENDMDL
MODEL 7
REMARK VINA RESULT:    -5.781      1.161      1.556
REMARK INTER + INTRA:         -10.522
REMARK INTER:                  -9.774
REMARK INTRA:                  -0.748
REMARK UNBOUND:                -2.207
REMARK SMILES O=c1c(O[C@@H]2O[C@@H](CO)[C@@H](O)[C@@H](O)[C@@H]2O)c(-c2ccc(O)cc2)oc2cc(O)cc(O)c12
REMARK SMILES IDX 4 1 3 2 16 3 24 4 2 5 25 6 1 7 32 8 26 9 30 10 27 11 29 12
REMARK SMILES IDX 17 13 18 14 19 15 20 16 23 17 22 18 21 19 31 21 28 23 5 25
REMARK SMILES IDX 14 26 6 27 12 28 7 29 10 30 15 31 13 33 8 35 9 36 11 38
REMARK H PARENT 21 20 31 22 28 24 15 32 13 34 9 37 11 39
REMARK Flexibility Score: inf
ROOT
ATOM      1  O   UNL     1     -38.334   5.838  81.646  1.00  0.00    -0.454 OA
ENDROOT
BRANCH   1   2
ATOM      2  C   UNL     1     -39.110   5.117  80.713  1.00  0.00     0.214 A 
ATOM      3  C   UNL     1     -38.612   5.002  79.402  1.00  0.00     0.180 A 
ATOM      4  O   UNL     1     -39.331   4.400  78.464  1.00  0.00    -0.452 OA
ATOM      5  C   UNL     1     -40.361   4.523  81.007  1.00  0.00     0.239 A 
ATOM      6  C   UNL     1     -40.524   3.868  78.684  1.00  0.00     0.146 A 
ATOM      7  O   UNL     1     -40.771   4.495  82.194  1.00  0.00    -0.285 OA
ATOM      8  C   UNL     1     -41.118   3.924  79.971  1.00  0.00     0.111 A 
ATOM      9  C   UNL     1     -41.178   3.236  77.624  1.00  0.00     0.094 A 
ATOM     10  C   UNL     1     -42.418   3.356  80.142  1.00  0.00     0.134 A 
ATOM     11  C   UNL     1     -42.423   2.637  77.817  1.00  0.00     0.123 A 
ATOM     12  C   UNL     1     -43.029   2.691  79.070  1.00  0.00     0.093 A 
BRANCH   3  13
ATOM     13  C   UNL     1     -37.287   5.542  79.022  1.00  0.00     0.021 A 
ATOM     14  C   UNL     1     -37.156   6.831  78.476  1.00  0.00     0.016 A 
ATOM     15  C   UNL     1     -35.894   7.330  78.140  1.00  0.00     0.047 A 
ATOM     16  C   UNL     1     -34.750   6.556  78.359  1.00  0.00     0.115 A 
ATOM     17  C   UNL     1     -36.133   4.777  79.258  1.00  0.00     0.016 A 
ATOM     18  C   UNL     1     -34.872   5.278  78.921  1.00  0.00     0.047 A 
BRANCH  16  19
ATOM     19  O   UNL     1     -33.500   7.068  78.020  1.00  0.00    -0.508 OA
ATOM     20  H   UNL     1     -32.662   6.784  78.514  1.00  0.00     0.293 HD
ENDBRANCH  16  19
ENDBRANCH   3  13
BRANCH  10  21
ATOM     21  O   UNL     1     -43.163   3.440  81.322  1.00  0.00    -0.507 OA
ATOM     22  H   UNL     1     -44.158   3.286  81.391  1.00  0.00     0.293 HD
ENDBRANCH  10  21
BRANCH  11  23
ATOM     23  O   UNL     1     -43.071   1.991  76.767  1.00  0.00    -0.508 OA
ATOM     24  H   UNL     1     -43.020   0.986  76.651  1.00  0.00     0.293 HD
ENDBRANCH  11  23
ENDBRANCH   1   2
BRANCH   1  25
ATOM     25  C   UNL     1     -38.093   5.538  83.027  1.00  0.00     0.339 C 
ATOM     26  C   UNL     1     -37.316   4.201  83.216  1.00  0.00     0.214 C 
ATOM     27  O   UNL     1     -37.408   6.618  83.641  1.00  0.00    -0.332 OA
ATOM     28  C   UNL     1     -35.853   4.453  83.645  1.00  0.00     0.180 C 
ATOM     29  C   UNL     1     -36.171   6.905  82.999  1.00  0.00     0.179 C 
ATOM     30  C   UNL     1     -35.274   5.630  82.843  1.00  0.00     0.177 C 
BRANCH  26  31
ATOM     31  O   UNL     1     -37.332   3.453  82.026  1.00  0.00    -0.384 OA
ATOM     32  H   UNL     1     -37.589   2.525  82.270  1.00  0.00     0.211 HD
ENDBRANCH  26  31
BRANCH  28  33
ATOM     33  O   UNL     1     -35.789   4.743  85.019  1.00  0.00    -0.387 OA
ATOM     34  H   UNL     1     -35.054   4.192  85.395  1.00  0.00     0.211 HD
ENDBRANCH  28  33
BRANCH  29  35
ATOM     35  C   UNL     1     -35.494   8.034  83.789  1.00  0.00     0.191 C 
BRANCH  35  36
ATOM     36  O   UNL     1     -35.309   7.653  85.125  1.00  0.00    -0.394 OA
ATOM     37  H   UNL     1     -35.208   6.666  85.116  1.00  0.00     0.210 HD
ENDBRANCH  35  36
ENDBRANCH  29  35
BRANCH  30  38
ATOM     38  O   UNL     1     -33.944   5.868  83.234  1.00  0.00    -0.387 OA
ATOM     39  H   UNL     1     -33.459   5.006  83.153  1.00  0.00     0.211 HD
ENDBRANCH  30  38
ENDBRANCH   1  25
TORSDOF 11
ENDMDL
MODEL 8
REMARK VINA RESULT:    -5.689      2.099      7.582
REMARK INTER + INTRA:         -10.390
REMARK INTER:                  -9.225
REMARK INTRA:                  -1.165
REMARK UNBOUND:                -2.207
REMARK SMILES O=c1c(O[C@@H]2O[C@@H](CO)[C@@H](O)[C@@H](O)[C@@H]2O)c(-c2ccc(O)cc2)oc2cc(O)cc(O)c12
REMARK SMILES IDX 4 1 3 2 16 3 24 4 2 5 25 6 1 7 32 8 26 9 30 10 27 11 29 12
REMARK SMILES IDX 17 13 18 14 19 15 20 16 23 17 22 18 21 19 31 21 28 23 5 25
REMARK SMILES IDX 14 26 6 27 12 28 7 29 10 30 15 31 13 33 8 35 9 36 11 38
REMARK H PARENT 21 20 31 22 28 24 15 32 13 34 9 37 11 39
REMARK Flexibility Score: inf
ROOT
ATOM      1  O   UNL     1     -37.076   4.018  80.445  1.00  0.00    -0.454 OA
ENDROOT
BRANCH   1   2
ATOM      2  C   UNL     1     -36.221   5.059  80.866  1.00  0.00     0.214 A 
ATOM      3  C   UNL     1     -36.572   5.756  82.038  1.00  0.00     0.180 A 
ATOM      4  O   UNL     1     -35.848   6.791  82.441  1.00  0.00    -0.452 OA
ATOM      5  C   UNL     1     -35.051   5.458  80.176  1.00  0.00     0.239 A 
ATOM      6  C   UNL     1     -34.771   7.225  81.804  1.00  0.00     0.146 A 
ATOM      7  O   UNL     1     -34.640   4.776  79.204  1.00  0.00    -0.285 OA
ATOM      8  C   UNL     1     -34.326   6.593  80.615  1.00  0.00     0.111 A 
ATOM      9  C   UNL     1     -34.072   8.310  82.339  1.00  0.00     0.094 A 
ATOM     10  C   UNL     1     -33.172   7.121  79.958  1.00  0.00     0.134 A 
ATOM     11  C   UNL     1     -32.916   8.782  81.718  1.00  0.00     0.123 A 
ATOM     12  C   UNL     1     -32.469   8.182  80.542  1.00  0.00     0.093 A 
BRANCH   3  13
ATOM     13  C   UNL     1     -37.746   5.369  82.852  1.00  0.00     0.021 A 
ATOM     14  C   UNL     1     -38.928   6.129  82.832  1.00  0.00     0.016 A 
ATOM     15  C   UNL     1     -40.032   5.738  83.595  1.00  0.00     0.047 A 
ATOM     16  C   UNL     1     -39.974   4.577  84.372  1.00  0.00     0.115 A 
ATOM     17  C   UNL     1     -37.700   4.193  83.618  1.00  0.00     0.016 A 
ATOM     18  C   UNL     1     -38.806   3.803  84.381  1.00  0.00     0.047 A 
BRANCH  16  19
ATOM     19  O   UNL     1     -41.084   4.199  85.125  1.00  0.00    -0.508 OA
ATOM     20  H   UNL     1     -41.777   3.558  84.758  1.00  0.00     0.293 HD
ENDBRANCH  16  19
ENDBRANCH   3  13
BRANCH  10  21
ATOM     21  O   UNL     1     -32.694   6.667  78.725  1.00  0.00    -0.507 OA
ATOM     22  H   UNL     1     -32.564   7.244  77.907  1.00  0.00     0.293 HD
ENDBRANCH  10  21
BRANCH  11  23
ATOM     23  O   UNL     1     -32.206   9.853  82.256  1.00  0.00    -0.508 OA
ATOM     24  H   UNL     1     -31.261   9.741  82.603  1.00  0.00     0.293 HD
ENDBRANCH  11  23
ENDBRANCH   1   2
BRANCH   1  25
ATOM     25  C   UNL     1     -37.577   3.752  79.128  1.00  0.00     0.339 C 
ATOM     26  C   UNL     1     -38.809   2.800  79.144  1.00  0.00     0.214 C 
ATOM     27  O   UNL     1     -37.883   4.974  78.474  1.00  0.00    -0.332 OA
ATOM     28  C   UNL     1     -40.116   3.562  78.827  1.00  0.00     0.180 C 
ATOM     29  C   UNL     1     -38.838   5.744  79.194  1.00  0.00     0.179 C 
ATOM     30  C   UNL     1     -40.117   4.915  79.557  1.00  0.00     0.177 C 
BRANCH  26  31
ATOM     31  O   UNL     1     -38.927   2.172  80.396  1.00  0.00    -0.384 OA
ATOM     32  H   UNL     1     -39.296   1.265  80.231  1.00  0.00     0.211 HD
ENDBRANCH  26  31
BRANCH  28  33
ATOM     33  O   UNL     1     -40.235   3.774  77.443  1.00  0.00    -0.387 OA
ATOM     34  H   UNL     1     -39.406   3.420  77.025  1.00  0.00     0.211 HD
ENDBRANCH  28  33
BRANCH  29  35
ATOM     35  C   UNL     1     -39.141   6.998  78.361  1.00  0.00     0.191 C 
BRANCH  35  36
ATOM     36  O   UNL     1     -39.547   6.639  77.069  1.00  0.00    -0.394 OA
ATOM     37  H   UNL     1     -39.815   7.483  76.622  1.00  0.00     0.210 HD
ENDBRANCH  35  36
ENDBRANCH  29  35
BRANCH  30  38
ATOM     38  O   UNL     1     -41.302   5.615  79.267  1.00  0.00    -0.387 OA
ATOM     39  H   UNL     1     -41.154   6.559  79.535  1.00  0.00     0.211 HD
ENDBRANCH  30  38
ENDBRANCH   1  25
TORSDOF 11
ENDMDL
MODEL 9
REMARK VINA RESULT:    -5.594      2.236      7.247
REMARK INTER + INTRA:         -10.254
REMARK INTER:                  -8.177
REMARK INTRA:                  -2.076
REMARK UNBOUND:                -2.207
REMARK SMILES O=c1c(O[C@@H]2O[C@@H](CO)[C@@H](O)[C@@H](O)[C@@H]2O)c(-c2ccc(O)cc2)oc2cc(O)cc(O)c12
REMARK SMILES IDX 4 1 3 2 16 3 24 4 2 5 25 6 1 7 32 8 26 9 30 10 27 11 29 12
REMARK SMILES IDX 17 13 18 14 19 15 20 16 23 17 22 18 21 19 31 21 28 23 5 25
REMARK SMILES IDX 14 26 6 27 12 28 7 29 10 30 15 31 13 33 8 35 9 36 11 38
REMARK H PARENT 21 20 31 22 28 24 15 32 13 34 9 37 11 39
REMARK Flexibility Score: inf
ROOT
ATOM      1  O   UNL     1     -37.335   6.011  81.278  1.00  0.00    -0.454 OA
ENDROOT
BRANCH   1   2
ATOM      2  C   UNL     1     -36.169   6.799  81.169  1.00  0.00     0.214 A 
ATOM      3  C   UNL     1     -35.974   7.512  79.973  1.00  0.00     0.180 A 
ATOM      4  O   UNL     1     -34.862   8.210  79.784  1.00  0.00    -0.452 OA
ATOM      5  C   UNL     1     -35.178   6.898  82.176  1.00  0.00     0.239 A 
ATOM      6  C   UNL     1     -33.891   8.297  80.680  1.00  0.00     0.146 A 
ATOM      7  O   UNL     1     -35.383   6.381  83.303  1.00  0.00    -0.285 OA
ATOM      8  C   UNL     1     -33.986   7.620  81.924  1.00  0.00     0.111 A 
ATOM      9  C   UNL     1     -32.776   9.084  80.381  1.00  0.00     0.094 A 
ATOM     10  C   UNL     1     -32.896   7.731  82.840  1.00  0.00     0.134 A 
ATOM     11  C   UNL     1     -31.742   9.228  81.307  1.00  0.00     0.123 A 
ATOM     12  C   UNL     1     -31.812   8.562  82.529  1.00  0.00     0.093 A 
BRANCH   3  13
ATOM     13  C   UNL     1     -36.985   7.511  78.892  1.00  0.00     0.021 A 
ATOM     14  C   UNL     1     -37.931   8.544  78.779  1.00  0.00     0.016 A 
ATOM     15  C   UNL     1     -38.868   8.534  77.740  1.00  0.00     0.047 A 
ATOM     16  C   UNL     1     -38.859   7.503  76.796  1.00  0.00     0.115 A 
ATOM     17  C   UNL     1     -36.968   6.489  77.929  1.00  0.00     0.016 A 
ATOM     18  C   UNL     1     -37.906   6.480  76.891  1.00  0.00     0.047 A 
BRANCH  16  19
ATOM     19  O   UNL     1     -39.797   7.508  75.766  1.00  0.00    -0.508 OA
ATOM     20  H   UNL     1     -39.611   7.053  74.880  1.00  0.00     0.293 HD
ENDBRANCH  16  19
ENDBRANCH   3  13
BRANCH  10  21
ATOM     21  O   UNL     1     -32.811   7.029  84.047  1.00  0.00    -0.507 OA
ATOM     22  H   UNL     1     -31.951   6.803  84.525  1.00  0.00     0.293 HD
ENDBRANCH  10  21
BRANCH  11  23
ATOM     23  O   UNL     1     -30.637  10.025  81.021  1.00  0.00    -0.508 OA
ATOM     24  H   UNL     1     -30.300  10.719  81.676  1.00  0.00     0.293 HD
ENDBRANCH  11  23
ENDBRANCH   1   2
BRANCH   1  25
ATOM     25  C   UNL     1     -37.446   4.582  81.317  1.00  0.00     0.339 C 
ATOM     26  C   UNL     1     -38.134   4.076  82.619  1.00  0.00     0.214 C 
ATOM     27  O   UNL     1     -38.133   4.122  80.164  1.00  0.00    -0.332 OA
ATOM     28  C   UNL     1     -39.569   3.573  82.342  1.00  0.00     0.180 C 
ATOM     29  C   UNL     1     -39.431   4.692  80.048  1.00  0.00     0.179 C 
ATOM     30  C   UNL     1     -40.272   4.525  81.361  1.00  0.00     0.177 C 
BRANCH  26  31
ATOM     31  O   UNL     1     -38.178   5.102  83.580  1.00  0.00    -0.384 OA
ATOM     32  H   UNL     1     -38.666   4.742  84.366  1.00  0.00     0.211 HD
ENDBRANCH  26  31
BRANCH  28  33
ATOM     33  O   UNL     1     -39.535   2.277  81.797  1.00  0.00    -0.387 OA
ATOM     34  H   UNL     1     -38.703   2.214  81.257  1.00  0.00     0.211 HD
ENDBRANCH  28  33
BRANCH  29  35
ATOM     35  C   UNL     1     -40.099   4.069  78.814  1.00  0.00     0.191 C 
BRANCH  35  36
ATOM     36  O   UNL     1     -40.180   2.677  78.952  1.00  0.00    -0.394 OA
ATOM     37  H   UNL     1     -41.116   2.482  79.215  1.00  0.00     0.210 HD
ENDBRANCH  35  36
ENDBRANCH  29  35
BRANCH  30  38
ATOM     38  O   UNL     1     -41.575   4.066  81.099  1.00  0.00    -0.387 OA
ATOM     39  H   UNL     1     -42.169   4.862  81.104  1.00  0.00     0.211 HD
ENDBRANCH  30  38
ENDBRANCH   1  25
TORSDOF 11
ENDMDL
