MODEL 1
REMARK VINA RESULT:    -5.203      0.000      0.000
REMARK INTER + INTRA:         -19.093
REMARK INTER:                 -13.719
REMARK INTRA:                  -5.374
REMARK UNBOUND:                -5.374
REMARK SMILES CCCCCCCCCCCCCCCCCCCCCCCCCCCCCC(=O)[O-]
REMARK SMILES IDX 16 1 17 2 18 3 19 4 20 5 21 6 22 7 23 8 24 9 25 10 26 11
REMARK SMILES IDX 27 12 28 13 29 14 30 15 31 16 32 17 15 18 14 19 13 20 12 21
REMARK SMILES IDX 11 22 10 23 9 24 8 25 7 26 6 27 5 28 4 29 3 30 2 31 1 32
REMARK H PARENT
REMARK Flexibility Score: inf
ROOT
ATOM      1  C   UNL     1      13.508 -28.433  23.860  1.00  0.00     0.000 C 
ENDROOT
BRANCH   1   2
ATOM      2  C   UNL     1      14.945 -28.049  23.458  1.00  0.00     0.000 C 
BRANCH   2   3
ATOM      3  C   UNL     1      15.384 -28.477  22.042  1.00  0.00     0.000 C 
BRANCH   3   4
ATOM      4  C   UNL     1      16.826 -29.017  21.961  1.00  0.00     0.000 C 
BRANCH   4   5
ATOM      5  C   UNL     1      17.181 -29.973  23.116  1.00  0.00     0.000 C 
BRANCH   5   6
ATOM      6  C   UNL     1      17.463 -31.404  22.630  1.00  0.00     0.000 C 
BRANCH   6   7
ATOM      7  C   UNL     1      18.116 -31.441  21.237  1.00  0.00     0.000 C 
BRANCH   7   8
ATOM      8  C   UNL     1      19.572 -31.927  21.275  1.00  0.00     0.000 C 
BRANCH   8   9
ATOM      9  C   UNL     1      20.567 -30.860  20.794  1.00  0.00     0.000 C 
BRANCH   9  10
ATOM     10  C   UNL     1      20.956 -29.911  21.938  1.00  0.00     0.000 C 
BRANCH  10  11
ATOM     11  C   UNL     1      21.294 -28.490  21.449  1.00  0.00     0.000 C 
BRANCH  11  12
ATOM     12  C   UNL     1      20.075 -27.586  21.180  1.00  0.00     0.000 C 
BRANCH  12  13
ATOM     13  C   UNL     1      20.369 -26.322  20.347  1.00  0.00     0.006 C 
BRANCH  13  14
ATOM     14  C   UNL     1      21.791 -25.765  20.520  1.00  0.00     0.053 C 
BRANCH  14  15
ATOM     15  C   UNL     1      21.962 -25.050  21.826  1.00  0.00     0.041 C 
ATOM     16  O   UNL     1      22.769 -25.490  22.688  1.00  0.00    -0.550 OA
ATOM     17  O   UNL     1      21.257 -23.879  22.075  1.00  0.00    -0.550 OA
ENDBRANCH  14  15
ENDBRANCH  13  14
ENDBRANCH  12  13
ENDBRANCH  11  12
ENDBRANCH  10  11
ENDBRANCH   9  10
ENDBRANCH   8   9
ENDBRANCH   7   8
ENDBRANCH   6   7
ENDBRANCH   5   6
ENDBRANCH   4   5
ENDBRANCH   3   4
ENDBRANCH   2   3
ENDBRANCH   1   2
BRANCH   1  18
ATOM     18  C   UNL     1      13.018 -29.796  23.334  1.00  0.00     0.000 C 
BRANCH  18  19
ATOM     19  C   UNL     1      13.581 -30.985  24.126  1.00  0.00     0.000 C 
BRANCH  19  20
ATOM     20  C   UNL     1      13.988 -32.127  23.184  1.00  0.00     0.000 C 
BRANCH  20  21
ATOM     21  C   UNL     1      13.849 -31.763  21.694  1.00  0.00     0.000 C 
BRANCH  21  22
ATOM     22  C   UNL     1      14.188 -32.896  20.706  1.00  0.00     0.000 C 
BRANCH  22  23
ATOM     23  C   UNL     1      15.254 -33.898  21.191  1.00  0.00     0.000 C 
BRANCH  23  24
ATOM     24  C   UNL     1      15.613 -34.984  20.156  1.00  0.00    -0.000 C 
BRANCH  24  25
ATOM     25  C   UNL     1      16.853 -34.625  19.318  1.00  0.00    -0.000 C 
BRANCH  25  26
ATOM     26  C   UNL     1      18.125 -35.329  19.814  1.00  0.00    -0.000 C 
BRANCH  26  27
ATOM     27  C   UNL     1      17.821 -36.613  20.605  1.00  0.00    -0.000 C 
BRANCH  27  28
ATOM     28  C   UNL     1      18.559 -36.664  21.950  1.00  0.00    -0.000 C 
BRANCH  28  29
ATOM     29  C   UNL     1      19.130 -35.297  22.362  1.00  0.00    -0.000 C 
BRANCH  29  30
ATOM     30  C   UNL     1      18.666 -34.856  23.760  1.00  0.00    -0.000 C 
BRANCH  30  31
ATOM     31  C   UNL     1      17.187 -35.188  24.052  1.00  0.00    -0.003 C 
ATOM     32  C   UNL     1      16.519 -34.138  24.940  1.00  0.00     0.004 C 
ENDBRANCH  30  31
ENDBRANCH  29  30
ENDBRANCH  28  29
ENDBRANCH  27  28
ENDBRANCH  26  27
ENDBRANCH  25  26
ENDBRANCH  24  25
ENDBRANCH  23  24
ENDBRANCH  22  23
ENDBRANCH  21  22
ENDBRANCH  20  21
ENDBRANCH  19  20
ENDBRANCH  18  19
ENDBRANCH   1  18
TORSDOF 28
ENDMDL
MODEL 2
REMARK VINA RESULT:    -5.069      3.327      7.117
REMARK INTER + INTRA:         -18.740
REMARK INTER:                 -13.492
REMARK INTRA:                  -5.248
REMARK UNBOUND:                -5.374
REMARK SMILES CCCCCCCCCCCCCCCCCCCCCCCCCCCCCC(=O)[O-]
REMARK SMILES IDX 16 1 17 2 18 3 19 4 20 5 21 6 22 7 23 8 24 9 25 10 26 11
REMARK SMILES IDX 27 12 28 13 29 14 30 15 31 16 32 17 15 18 14 19 13 20 12 21
REMARK SMILES IDX 11 22 10 23 9 24 8 25 7 26 6 27 5 28 4 29 3 30 2 31 1 32
REMARK H PARENT
REMARK Flexibility Score: inf
ROOT
ATOM      1  C   UNL     1      13.198 -29.944  24.236  1.00  0.00     0.000 C 
ENDROOT
BRANCH   1   2
ATOM      2  C   UNL     1      13.128 -31.197  23.341  1.00  0.00     0.000 C 
BRANCH   2   3
ATOM      3  C   UNL     1      12.650 -30.961  21.893  1.00  0.00     0.000 C 
BRANCH   3   4
ATOM      4  C   UNL     1      13.601 -31.517  20.813  1.00  0.00     0.000 C 
BRANCH   4   5
ATOM      5  C   UNL     1      14.300 -32.823  21.234  1.00  0.00     0.000 C 
BRANCH   5   6
ATOM      6  C   UNL     1      14.561 -33.762  20.046  1.00  0.00     0.000 C 
BRANCH   6   7
ATOM      7  C   UNL     1      15.591 -34.859  20.370  1.00  0.00     0.000 C 
BRANCH   7   8
ATOM      8  C   UNL     1      16.645 -35.030  19.266  1.00  0.00     0.000 C 
BRANCH   8   9
ATOM      9  C   UNL     1      17.849 -35.869  19.720  1.00  0.00     0.000 C 
BRANCH   9  10
ATOM     10  C   UNL     1      17.581 -36.532  21.079  1.00  0.00     0.000 C 
BRANCH  10  11
ATOM     11  C   UNL     1      18.813 -36.524  22.003  1.00  0.00     0.000 C 
BRANCH  11  12
ATOM     12  C   UNL     1      18.656 -35.693  23.292  1.00  0.00     0.000 C 
BRANCH  12  13
ATOM     13  C   UNL     1      17.232 -35.164  23.559  1.00  0.00     0.006 C 
BRANCH  13  14
ATOM     14  C   UNL     1      16.935 -34.862  25.037  1.00  0.00     0.053 C 
BRANCH  14  15
ATOM     15  C   UNL     1      17.294 -36.010  25.931  1.00  0.00     0.041 C 
ATOM     16  O   UNL     1      16.442 -36.902  26.189  1.00  0.00    -0.550 OA
ATOM     17  O   UNL     1      18.578 -36.114  26.448  1.00  0.00    -0.550 OA
ENDBRANCH  14  15
ENDBRANCH  13  14
ENDBRANCH  12  13
ENDBRANCH  11  12
ENDBRANCH  10  11
ENDBRANCH   9  10
ENDBRANCH   8   9
ENDBRANCH   7   8
ENDBRANCH   6   7
ENDBRANCH   5   6
ENDBRANCH   4   5
ENDBRANCH   3   4
ENDBRANCH   2   3
ENDBRANCH   1   2
BRANCH   1  18
ATOM     18  C   UNL     1      13.507 -28.625  23.502  1.00  0.00     0.000 C 
BRANCH  18  19
ATOM     19  C   UNL     1      15.000 -28.268  23.506  1.00  0.00     0.000 C 
BRANCH  19  20
ATOM     20  C   UNL     1      15.562 -28.245  22.078  1.00  0.00     0.000 C 
BRANCH  20  21
ATOM     21  C   UNL     1      16.531 -29.408  21.789  1.00  0.00     0.000 C 
BRANCH  21  22
ATOM     22  C   UNL     1      16.666 -30.447  22.919  1.00  0.00     0.000 C 
BRANCH  22  23
ATOM     23  C   UNL     1      17.417 -31.739  22.541  1.00  0.00     0.000 C 
BRANCH  23  24
ATOM     24  C   UNL     1      17.805 -31.826  21.050  1.00  0.00    -0.000 C 
BRANCH  24  25
ATOM     25  C   UNL     1      19.060 -32.682  20.808  1.00  0.00    -0.000 C 
BRANCH  25  26
ATOM     26  C   UNL     1      20.128 -32.485  21.893  1.00  0.00    -0.000 C 
BRANCH  26  27
ATOM     27  C   UNL     1      21.032 -31.270  21.622  1.00  0.00    -0.000 C 
BRANCH  27  28
ATOM     28  C   UNL     1      20.599 -30.027  22.412  1.00  0.00    -0.000 C 
BRANCH  28  29
ATOM     29  C   UNL     1      20.226 -28.848  21.499  1.00  0.00    -0.000 C 
BRANCH  29  30
ATOM     30  C   UNL     1      21.424 -28.316  20.696  1.00  0.00    -0.000 C 
BRANCH  30  31
ATOM     31  C   UNL     1      21.923 -26.936  21.174  1.00  0.00    -0.003 C 
ATOM     32  C   UNL     1      23.428 -26.922  21.444  1.00  0.00     0.004 C 
ENDBRANCH  30  31
ENDBRANCH  29  30
ENDBRANCH  28  29
ENDBRANCH  27  28
ENDBRANCH  26  27
ENDBRANCH  25  26
ENDBRANCH  24  25
ENDBRANCH  23  24
ENDBRANCH  22  23
ENDBRANCH  21  22
ENDBRANCH  20  21
ENDBRANCH  19  20
ENDBRANCH  18  19
ENDBRANCH   1  18
TORSDOF 28
ENDMDL
MODEL 3
REMARK VINA RESULT:    -4.977      4.216      7.275
REMARK INTER + INTRA:         -18.497
REMARK INTER:                 -13.055
REMARK INTRA:                  -5.443
REMARK UNBOUND:                -5.374
REMARK SMILES CCCCCCCCCCCCCCCCCCCCCCCCCCCCCC(=O)[O-]
REMARK SMILES IDX 16 1 17 2 18 3 19 4 20 5 21 6 22 7 23 8 24 9 25 10 26 11
REMARK SMILES IDX 27 12 28 13 29 14 30 15 31 16 32 17 15 18 14 19 13 20 12 21
REMARK SMILES IDX 11 22 10 23 9 24 8 25 7 26 6 27 5 28 4 29 3 30 2 31 1 32
REMARK H PARENT
REMARK Flexibility Score: inf
ROOT
ATOM      1  C   UNL     1      13.909 -32.164  24.004  1.00  0.00     0.000 C 
ENDROOT
BRANCH   1   2
ATOM      2  C   UNL     1      15.397 -32.236  23.607  1.00  0.00     0.000 C 
BRANCH   2   3
ATOM      3  C   UNL     1      15.789 -33.404  22.678  1.00  0.00     0.000 C 
BRANCH   3   4
ATOM      4  C   UNL     1      15.130 -33.355  21.285  1.00  0.00     0.000 C 
BRANCH   4   5
ATOM      5  C   UNL     1      15.371 -34.630  20.455  1.00  0.00     0.000 C 
BRANCH   5   6
ATOM      6  C   UNL     1      16.468 -34.444  19.395  1.00  0.00     0.000 C 
BRANCH   6   7
ATOM      7  C   UNL     1      17.653 -35.407  19.591  1.00  0.00     0.000 C 
BRANCH   7   8
ATOM      8  C   UNL     1      17.324 -36.567  20.543  1.00  0.00     0.000 C 
BRANCH   8   9
ATOM      9  C   UNL     1      18.392 -36.764  21.630  1.00  0.00     0.000 C 
BRANCH   9  10
ATOM     10  C   UNL     1      18.754 -35.428  22.298  1.00  0.00     0.000 C 
BRANCH  10  11
ATOM     11  C   UNL     1      18.899 -35.543  23.827  1.00  0.00     0.000 C 
BRANCH  11  12
ATOM     12  C   UNL     1      17.586 -35.816  24.588  1.00  0.00     0.000 C 
BRANCH  12  13
ATOM     13  C   UNL     1      17.735 -35.965  26.115  1.00  0.00     0.006 C 
BRANCH  13  14
ATOM     14  C   UNL     1      17.930 -37.413  26.595  1.00  0.00     0.053 C 
BRANCH  14  15
ATOM     15  C   UNL     1      17.230 -37.675  27.894  1.00  0.00     0.041 C 
ATOM     16  O   UNL     1      17.867 -37.618  28.980  1.00  0.00    -0.550 OA
ATOM     17  O   UNL     1      15.868 -37.947  27.908  1.00  0.00    -0.550 OA
ENDBRANCH  14  15
ENDBRANCH  13  14
ENDBRANCH  12  13
ENDBRANCH  11  12
ENDBRANCH  10  11
ENDBRANCH   9  10
ENDBRANCH   8   9
ENDBRANCH   7   8
ENDBRANCH   6   7
ENDBRANCH   5   6
ENDBRANCH   4   5
ENDBRANCH   3   4
ENDBRANCH   2   3
ENDBRANCH   1   2
BRANCH   1  18
ATOM     18  C   UNL     1      13.136 -30.954  23.447  1.00  0.00     0.000 C 
BRANCH  18  19
ATOM     19  C   UNL     1      14.015 -30.011  22.611  1.00  0.00     0.000 C 
BRANCH  19  20
ATOM     20  C   UNL     1      14.194 -28.659  23.316  1.00  0.00     0.000 C 
BRANCH  20  21
ATOM     21  C   UNL     1      15.575 -28.024  23.066  1.00  0.00     0.000 C 
BRANCH  21  22
ATOM     22  C   UNL     1      16.372 -28.623  21.891  1.00  0.00     0.000 C 
BRANCH  22  23
ATOM     23  C   UNL     1      17.903 -28.491  21.996  1.00  0.00     0.000 C 
BRANCH  23  24
ATOM     24  C   UNL     1      18.683 -29.488  21.114  1.00  0.00    -0.000 C 
BRANCH  24  25
ATOM     25  C   UNL     1      17.968 -30.843  20.967  1.00  0.00    -0.000 C 
BRANCH  25  26
ATOM     26  C   UNL     1      18.948 -32.023  20.901  1.00  0.00    -0.000 C 
BRANCH  26  27
ATOM     27  C   UNL     1      20.358 -31.651  21.391  1.00  0.00    -0.000 C 
BRANCH  27  28
ATOM     28  C   UNL     1      20.866 -32.595  22.491  1.00  0.00    -0.000 C 
BRANCH  28  29
ATOM     29  C   UNL     1      21.115 -31.868  23.823  1.00  0.00    -0.000 C 
BRANCH  29  30
ATOM     30  C   UNL     1      19.962 -30.926  24.211  1.00  0.00    -0.000 C 
BRANCH  30  31
ATOM     31  C   UNL     1      18.715 -31.666  24.738  1.00  0.00    -0.003 C 
ATOM     32  C   UNL     1      19.008 -32.475  26.002  1.00  0.00     0.004 C 
ENDBRANCH  30  31
ENDBRANCH  29  30
ENDBRANCH  28  29
ENDBRANCH  27  28
ENDBRANCH  26  27
ENDBRANCH  25  26
ENDBRANCH  24  25
ENDBRANCH  23  24
ENDBRANCH  22  23
ENDBRANCH  21  22
ENDBRANCH  20  21
ENDBRANCH  19  20
ENDBRANCH  18  19
ENDBRANCH   1  18
TORSDOF 28
ENDMDL
MODEL 4
REMARK VINA RESULT:    -4.935      2.951      7.931
REMARK INTER + INTRA:         -18.387
REMARK INTER:                 -13.877
REMARK INTRA:                  -4.510
REMARK UNBOUND:                -5.374
REMARK SMILES CCCCCCCCCCCCCCCCCCCCCCCCCCCCCC(=O)[O-]
REMARK SMILES IDX 16 1 17 2 18 3 19 4 20 5 21 6 22 7 23 8 24 9 25 10 26 11
REMARK SMILES IDX 27 12 28 13 29 14 30 15 31 16 32 17 15 18 14 19 13 20 12 21
REMARK SMILES IDX 11 22 10 23 9 24 8 25 7 26 6 27 5 28 4 29 3 30 2 31 1 32
REMARK H PARENT
REMARK Flexibility Score: inf
ROOT
ATOM      1  C   UNL     1      14.911 -28.380  23.172  1.00  0.00     0.000 C 
ENDROOT
BRANCH   1   2
ATOM      2  C   UNL     1      13.576 -29.151  23.150  1.00  0.00     0.000 C 
BRANCH   2   3
ATOM      3  C   UNL     1      13.577 -30.516  23.868  1.00  0.00     0.000 C 
BRANCH   3   4
ATOM      4  C   UNL     1      13.683 -31.730  22.923  1.00  0.00     0.000 C 
BRANCH   4   5
ATOM      5  C   UNL     1      13.367 -31.386  21.456  1.00  0.00     0.000 C 
BRANCH   5   6
ATOM      6  C   UNL     1      13.866 -32.461  20.477  1.00  0.00     0.000 C 
BRANCH   6   7
ATOM      7  C   UNL     1      14.778 -33.502  21.152  1.00  0.00     0.000 C 
BRANCH   7   8
ATOM      8  C   UNL     1      15.399 -34.487  20.151  1.00  0.00     0.000 C 
BRANCH   8   9
ATOM      9  C   UNL     1      16.671 -33.938  19.489  1.00  0.00     0.000 C 
BRANCH   9  10
ATOM     10  C   UNL     1      17.777 -35.003  19.445  1.00  0.00     0.000 C 
BRANCH  10  11
ATOM     11  C   UNL     1      17.314 -36.370  19.984  1.00  0.00     0.000 C 
BRANCH  11  12
ATOM     12  C   UNL     1      18.017 -36.833  21.275  1.00  0.00     0.000 C 
BRANCH  12  13
ATOM     13  C   UNL     1      18.440 -35.701  22.233  1.00  0.00     0.006 C 
BRANCH  13  14
ATOM     14  C   UNL     1      17.326 -35.218  23.175  1.00  0.00     0.053 C 
BRANCH  14  15
ATOM     15  C   UNL     1      17.761 -35.217  24.609  1.00  0.00     0.041 C 
ATOM     16  O   UNL     1      18.577 -36.085  25.024  1.00  0.00    -0.550 OA
ATOM     17  O   UNL     1      17.295 -34.239  25.477  1.00  0.00    -0.550 OA
ENDBRANCH  14  15
ENDBRANCH  13  14
ENDBRANCH  12  13
ENDBRANCH  11  12
ENDBRANCH  10  11
ENDBRANCH   9  10
ENDBRANCH   8   9
ENDBRANCH   7   8
ENDBRANCH   6   7
ENDBRANCH   5   6
ENDBRANCH   4   5
ENDBRANCH   3   4
ENDBRANCH   2   3
ENDBRANCH   1   2
BRANCH   1  18
ATOM     18  C   UNL     1      15.722 -28.429  21.864  1.00  0.00     0.000 C 
BRANCH  18  19
ATOM     19  C   UNL     1      17.086 -29.116  22.025  1.00  0.00     0.000 C 
BRANCH  19  20
ATOM     20  C   UNL     1      17.020 -30.580  21.568  1.00  0.00     0.000 C 
BRANCH  20  21
ATOM     21  C   UNL     1      17.484 -31.574  22.648  1.00  0.00     0.000 C 
BRANCH  21  22
ATOM     22  C   UNL     1      18.994 -31.887  22.648  1.00  0.00     0.000 C 
BRANCH  22  23
ATOM     23  C   UNL     1      19.627 -32.082  21.257  1.00  0.00     0.000 C 
BRANCH  23  24
ATOM     24  C   UNL     1      20.854 -31.184  20.994  1.00  0.00    -0.000 C 
BRANCH  24  25
ATOM     25  C   UNL     1      20.755 -29.816  21.690  1.00  0.00    -0.000 C 
BRANCH  25  26
ATOM     26  C   UNL     1      21.079 -28.648  20.747  1.00  0.00    -0.000 C 
BRANCH  26  27
ATOM     27  C   UNL     1      22.086 -27.657  21.355  1.00  0.00    -0.000 C 
BRANCH  27  28
ATOM     28  C   UNL     1      22.870 -26.883  20.285  1.00  0.00    -0.000 C 
BRANCH  28  29
ATOM     29  C   UNL     1      22.388 -25.430  20.138  1.00  0.00    -0.000 C 
BRANCH  29  30
ATOM     30  C   UNL     1      23.251 -24.434  20.931  1.00  0.00    -0.000 C 
BRANCH  30  31
ATOM     31  C   UNL     1      22.693 -24.118  22.334  1.00  0.00    -0.003 C 
ATOM     32  C   UNL     1      22.986 -22.681  22.767  1.00  0.00     0.004 C 
ENDBRANCH  30  31
ENDBRANCH  29  30
ENDBRANCH  28  29
ENDBRANCH  27  28
ENDBRANCH  26  27
ENDBRANCH  25  26
ENDBRANCH  24  25
ENDBRANCH  23  24
ENDBRANCH  22  23
ENDBRANCH  21  22
ENDBRANCH  20  21
ENDBRANCH  19  20
ENDBRANCH  18  19
ENDBRANCH   1  18
TORSDOF 28
ENDMDL
MODEL 5
REMARK VINA RESULT:    -4.929      4.039      6.966
REMARK INTER + INTRA:         -18.371
REMARK INTER:                 -12.745
REMARK INTRA:                  -5.626
REMARK UNBOUND:                -5.374
REMARK SMILES CCCCCCCCCCCCCCCCCCCCCCCCCCCCCC(=O)[O-]
REMARK SMILES IDX 16 1 17 2 18 3 19 4 20 5 21 6 22 7 23 8 24 9 25 10 26 11
REMARK SMILES IDX 27 12 28 13 29 14 30 15 31 16 32 17 15 18 14 19 13 20 12 21
REMARK SMILES IDX 11 22 10 23 9 24 8 25 7 26 6 27 5 28 4 29 3 30 2 31 1 32
REMARK H PARENT
REMARK Flexibility Score: inf
ROOT
ATOM      1  C   UNL     1      14.070 -30.649  23.887  1.00  0.00     0.000 C 
ENDROOT
BRANCH   1   2
ATOM      2  C   UNL     1      13.054 -31.509  23.110  1.00  0.00     0.000 C 
BRANCH   2   3
ATOM      3  C   UNL     1      12.678 -30.999  21.704  1.00  0.00     0.000 C 
BRANCH   3   4
ATOM      4  C   UNL     1      13.406 -31.720  20.551  1.00  0.00     0.000 C 
BRANCH   4   5
ATOM      5  C   UNL     1      14.252 -32.916  21.023  1.00  0.00     0.000 C 
BRANCH   5   6
ATOM      6  C   UNL     1      14.687 -33.825  19.862  1.00  0.00     0.000 C 
BRANCH   6   7
ATOM      7  C   UNL     1      15.716 -34.886  20.291  1.00  0.00     0.000 C 
BRANCH   7   8
ATOM      8  C   UNL     1      16.954 -34.916  19.382  1.00  0.00     0.000 C 
BRANCH   8   9
ATOM      9  C   UNL     1      18.106 -35.742  19.974  1.00  0.00     0.000 C 
BRANCH   9  10
ATOM     10  C   UNL     1      17.666 -36.466  21.255  1.00  0.00     0.000 C 
BRANCH  10  11
ATOM     11  C   UNL     1      18.845 -36.809  22.185  1.00  0.00     0.000 C 
BRANCH  11  12
ATOM     12  C   UNL     1      19.196 -35.722  23.220  1.00  0.00     0.000 C 
BRANCH  12  13
ATOM     13  C   UNL     1      19.616 -36.252  24.606  1.00  0.00     0.006 C 
BRANCH  13  14
ATOM     14  C   UNL     1      18.867 -37.516  25.057  1.00  0.00     0.053 C 
BRANCH  14  15
ATOM     15  C   UNL     1      18.259 -37.358  26.417  1.00  0.00     0.041 C 
ATOM     16  O   UNL     1      17.015 -37.195  26.540  1.00  0.00    -0.550 OA
ATOM     17  O   UNL     1      19.060 -37.426  27.549  1.00  0.00    -0.550 OA
ENDBRANCH  14  15
ENDBRANCH  13  14
ENDBRANCH  12  13
ENDBRANCH  11  12
ENDBRANCH  10  11
ENDBRANCH   9  10
ENDBRANCH   8   9
ENDBRANCH   7   8
ENDBRANCH   6   7
ENDBRANCH   5   6
ENDBRANCH   4   5
ENDBRANCH   3   4
ENDBRANCH   2   3
ENDBRANCH   1   2
BRANCH   1  18
ATOM     18  C   UNL     1      14.319 -29.241  23.311  1.00  0.00     0.000 C 
BRANCH  18  19
ATOM     19  C   UNL     1      15.733 -29.065  22.741  1.00  0.00     0.000 C 
BRANCH  19  20
ATOM     20  C   UNL     1      16.406 -30.425  22.512  1.00  0.00     0.000 C 
BRANCH  20  21
ATOM     21  C   UNL     1      17.547 -30.371  21.478  1.00  0.00     0.000 C 
BRANCH  21  22
ATOM     22  C   UNL     1      17.914 -31.722  20.833  1.00  0.00     0.000 C 
BRANCH  22  23
ATOM     23  C   UNL     1      19.231 -32.352  21.326  1.00  0.00     0.000 C 
BRANCH  23  24
ATOM     24  C   UNL     1      20.496 -31.572  20.910  1.00  0.00    -0.000 C 
BRANCH  24  25
ATOM     25  C   UNL     1      21.111 -30.767  22.068  1.00  0.00    -0.000 C 
BRANCH  25  26
ATOM     26  C   UNL     1      20.897 -31.438  23.432  1.00  0.00    -0.000 C 
BRANCH  26  27
ATOM     27  C   UNL     1      20.050 -30.581  24.388  1.00  0.00    -0.000 C 
BRANCH  27  28
ATOM     28  C   UNL     1      19.391 -31.414  25.498  1.00  0.00    -0.000 C 
BRANCH  28  29
ATOM     29  C   UNL     1      18.056 -32.033  25.057  1.00  0.00    -0.000 C 
BRANCH  29  30
ATOM     30  C   UNL     1      17.751 -33.360  25.772  1.00  0.00    -0.000 C 
BRANCH  30  31
ATOM     31  C   UNL     1      16.471 -34.055  25.262  1.00  0.00    -0.003 C 
ATOM     32  C   UNL     1      16.251 -33.842  23.764  1.00  0.00     0.004 C 
ENDBRANCH  30  31
ENDBRANCH  29  30
ENDBRANCH  28  29
ENDBRANCH  27  28
ENDBRANCH  26  27
ENDBRANCH  25  26
ENDBRANCH  24  25
ENDBRANCH  23  24
ENDBRANCH  22  23
ENDBRANCH  21  22
ENDBRANCH  20  21
ENDBRANCH  19  20
ENDBRANCH  18  19
ENDBRANCH   1  18
TORSDOF 28
ENDMDL
MODEL 6
REMARK VINA RESULT:    -4.911      4.156      6.760
REMARK INTER + INTRA:         -18.324
REMARK INTER:                 -12.450
REMARK INTRA:                  -5.874
REMARK UNBOUND:                -5.374
REMARK SMILES CCCCCCCCCCCCCCCCCCCCCCCCCCCCCC(=O)[O-]
REMARK SMILES IDX 16 1 17 2 18 3 19 4 20 5 21 6 22 7 23 8 24 9 25 10 26 11
REMARK SMILES IDX 27 12 28 13 29 14 30 15 31 16 32 17 15 18 14 19 13 20 12 21
REMARK SMILES IDX 11 22 10 23 9 24 8 25 7 26 6 27 5 28 4 29 3 30 2 31 1 32
REMARK H PARENT
REMARK Flexibility Score: inf
ROOT
ATOM      1  C   UNL     1      14.334 -32.787  23.589  1.00  0.00     0.000 C 
ENDROOT
BRANCH   1   2
ATOM      2  C   UNL     1      13.669 -31.501  23.060  1.00  0.00     0.000 C 
BRANCH   2   3
ATOM      3  C   UNL     1      13.954 -30.216  23.864  1.00  0.00     0.000 C 
BRANCH   3   4
ATOM      4  C   UNL     1      14.776 -29.158  23.101  1.00  0.00     0.000 C 
BRANCH   4   5
ATOM      5  C   UNL     1      15.324 -29.671  21.757  1.00  0.00     0.000 C 
BRANCH   5   6
ATOM      6  C   UNL     1      16.860 -29.740  21.734  1.00  0.00     0.000 C 
BRANCH   6   7
ATOM      7  C   UNL     1      17.386 -31.137  21.359  1.00  0.00     0.000 C 
BRANCH   7   8
ATOM      8  C   UNL     1      18.009 -31.878  22.552  1.00  0.00     0.000 C 
BRANCH   8   9
ATOM      9  C   UNL     1      17.998 -31.042  23.841  1.00  0.00     0.000 C 
BRANCH   9  10
ATOM     10  C   UNL     1      17.982 -31.943  25.085  1.00  0.00     0.000 C 
BRANCH  10  11
ATOM     11  C   UNL     1      17.827 -33.436  24.741  1.00  0.00     0.000 C 
BRANCH  11  12
ATOM     12  C   UNL     1      16.994 -34.255  25.748  1.00  0.00     0.000 C 
BRANCH  12  13
ATOM     13  C   UNL     1      17.051 -35.784  25.553  1.00  0.00     0.006 C 
BRANCH  13  14
ATOM     14  C   UNL     1      18.194 -36.478  26.311  1.00  0.00     0.053 C 
BRANCH  14  15
ATOM     15  C   UNL     1      17.686 -37.381  27.393  1.00  0.00     0.041 C 
ATOM     16  O   UNL     1      18.324 -37.496  28.474  1.00  0.00    -0.550 OA
ATOM     17  O   UNL     1      16.490 -38.067  27.223  1.00  0.00    -0.550 OA
ENDBRANCH  14  15
ENDBRANCH  13  14
ENDBRANCH  12  13
ENDBRANCH  11  12
ENDBRANCH  10  11
ENDBRANCH   9  10
ENDBRANCH   8   9
ENDBRANCH   7   8
ENDBRANCH   6   7
ENDBRANCH   5   6
ENDBRANCH   4   5
ENDBRANCH   3   4
ENDBRANCH   2   3
ENDBRANCH   1   2
BRANCH   1  18
ATOM     18  C   UNL     1      14.984 -33.682  22.518  1.00  0.00     0.000 C 
BRANCH  18  19
ATOM     19  C   UNL     1      14.619 -33.269  21.084  1.00  0.00     0.000 C 
BRANCH  19  20
ATOM     20  C   UNL     1      14.959 -34.386  20.088  1.00  0.00     0.000 C 
BRANCH  20  21
ATOM     21  C   UNL     1      16.462 -34.469  19.761  1.00  0.00     0.000 C 
BRANCH  21  22
ATOM     22  C   UNL     1      16.976 -35.873  19.386  1.00  0.00     0.000 C 
BRANCH  22  23
ATOM     23  C   UNL     1      17.462 -36.734  20.568  1.00  0.00     0.000 C 
BRANCH  23  24
ATOM     24  C   UNL     1      18.328 -35.968  21.590  1.00  0.00    -0.000 C 
BRANCH  24  25
ATOM     25  C   UNL     1      18.935 -36.885  22.666  1.00  0.00    -0.000 C 
BRANCH  25  26
ATOM     26  C   UNL     1      20.416 -36.581  22.935  1.00  0.00    -0.000 C 
BRANCH  26  27
ATOM     27  C   UNL     1      20.618 -35.297  23.758  1.00  0.00    -0.000 C 
BRANCH  27  28
ATOM     28  C   UNL     1      21.394 -34.219  22.986  1.00  0.00    -0.000 C 
BRANCH  28  29
ATOM     29  C   UNL     1      21.834 -33.052  23.885  1.00  0.00    -0.000 C 
BRANCH  29  30
ATOM     30  C   UNL     1      21.569 -31.678  23.247  1.00  0.00    -0.000 C 
BRANCH  30  31
ATOM     31  C   UNL     1      21.696 -31.679  21.709  1.00  0.00    -0.003 C 
ATOM     32  C   UNL     1      20.955 -30.507  21.063  1.00  0.00     0.004 C 
ENDBRANCH  30  31
ENDBRANCH  29  30
ENDBRANCH  28  29
ENDBRANCH  27  28
ENDBRANCH  26  27
ENDBRANCH  25  26
ENDBRANCH  24  25
ENDBRANCH  23  24
ENDBRANCH  22  23
ENDBRANCH  21  22
ENDBRANCH  20  21
ENDBRANCH  19  20
ENDBRANCH  18  19
ENDBRANCH   1  18
TORSDOF 28
ENDMDL
MODEL 7
REMARK VINA RESULT:    -4.902      1.425      3.462
REMARK INTER + INTRA:         -18.300
REMARK INTER:                 -13.091
REMARK INTRA:                  -5.209
REMARK UNBOUND:                -5.374
REMARK SMILES CCCCCCCCCCCCCCCCCCCCCCCCCCCCCC(=O)[O-]
REMARK SMILES IDX 16 1 17 2 18 3 19 4 20 5 21 6 22 7 23 8 24 9 25 10 26 11
REMARK SMILES IDX 27 12 28 13 29 14 30 15 31 16 32 17 15 18 14 19 13 20 12 21
REMARK SMILES IDX 11 22 10 23 9 24 8 25 7 26 6 27 5 28 4 29 3 30 2 31 1 32
REMARK H PARENT
REMARK Flexibility Score: inf
ROOT
ATOM      1  C   UNL     1      14.296 -32.578  24.691  1.00  0.00     0.000 C 
ENDROOT
BRANCH   1   2
ATOM      2  C   UNL     1      14.991 -33.721  23.924  1.00  0.00     0.000 C 
BRANCH   2   3
ATOM      3  C   UNL     1      16.532 -33.660  23.878  1.00  0.00     0.000 C 
BRANCH   3   4
ATOM      4  C   UNL     1      17.222 -34.058  25.198  1.00  0.00     0.000 C 
BRANCH   4   5
ATOM      5  C   UNL     1      18.055 -32.919  25.814  1.00  0.00     0.000 C 
BRANCH   5   6
ATOM      6  C   UNL     1      18.299 -31.766  24.827  1.00  0.00     0.000 C 
BRANCH   6   7
ATOM      7  C   UNL     1      19.698 -31.816  24.188  1.00  0.00     0.000 C 
BRANCH   7   8
ATOM      8  C   UNL     1      20.350 -30.430  24.075  1.00  0.00     0.000 C 
BRANCH   8   9
ATOM      9  C   UNL     1      21.597 -30.432  23.178  1.00  0.00     0.000 C 
BRANCH   9  10
ATOM     10  C   UNL     1      21.402 -29.521  21.956  1.00  0.00     0.000 C 
BRANCH  10  11
ATOM     11  C   UNL     1      20.178 -28.596  22.088  1.00  0.00     0.000 C 
BRANCH  11  12
ATOM     12  C   UNL     1      19.880 -27.728  20.849  1.00  0.00     0.000 C 
BRANCH  12  13
ATOM     13  C   UNL     1      20.227 -26.233  21.000  1.00  0.00     0.006 C 
BRANCH  13  14
ATOM     14  C   UNL     1      21.427 -25.772  20.156  1.00  0.00     0.053 C 
BRANCH  14  15
ATOM     15  C   UNL     1      22.661 -25.590  20.985  1.00  0.00     0.041 C 
ATOM     16  O   UNL     1      23.366 -26.586  21.300  1.00  0.00    -0.550 OA
ATOM     17  O   UNL     1      23.054 -24.317  21.379  1.00  0.00    -0.550 OA
ENDBRANCH  14  15
ENDBRANCH  13  14
ENDBRANCH  12  13
ENDBRANCH  11  12
ENDBRANCH  10  11
ENDBRANCH   9  10
ENDBRANCH   8   9
ENDBRANCH   7   8
ENDBRANCH   6   7
ENDBRANCH   5   6
ENDBRANCH   4   5
ENDBRANCH   3   4
ENDBRANCH   2   3
ENDBRANCH   1   2
BRANCH   1  18
ATOM     18  C   UNL     1      14.104 -31.273  23.896  1.00  0.00     0.000 C 
BRANCH  18  19
ATOM     19  C   UNL     1      12.957 -31.351  22.878  1.00  0.00     0.000 C 
BRANCH  19  20
ATOM     20  C   UNL     1      13.420 -30.877  21.493  1.00  0.00     0.000 C 
BRANCH  20  21
ATOM     21  C   UNL     1      13.500 -32.015  20.458  1.00  0.00     0.000 C 
BRANCH  21  22
ATOM     22  C   UNL     1      14.313 -33.248  20.899  1.00  0.00     0.000 C 
BRANCH  22  23
ATOM     23  C   UNL     1      15.039 -33.999  19.766  1.00  0.00     0.000 C 
BRANCH  23  24
ATOM     24  C   UNL     1      16.030 -35.074  20.259  1.00  0.00    -0.000 C 
BRANCH  24  25
ATOM     25  C   UNL     1      17.369 -35.046  19.501  1.00  0.00    -0.000 C 
BRANCH  25  26
ATOM     26  C   UNL     1      17.961 -33.633  19.401  1.00  0.00    -0.000 C 
BRANCH  26  27
ATOM     27  C   UNL     1      18.480 -33.111  20.753  1.00  0.00    -0.000 C 
BRANCH  27  28
ATOM     28  C   UNL     1      18.430 -31.579  20.850  1.00  0.00    -0.000 C 
BRANCH  28  29
ATOM     29  C   UNL     1      17.043 -31.060  21.263  1.00  0.00    -0.000 C 
BRANCH  29  30
ATOM     30  C   UNL     1      17.118 -29.885  22.252  1.00  0.00    -0.000 C 
BRANCH  30  31
ATOM     31  C   UNL     1      16.285 -28.661  21.819  1.00  0.00    -0.003 C 
ATOM     32  C   UNL     1      15.593 -27.980  23.000  1.00  0.00     0.004 C 
ENDBRANCH  30  31
ENDBRANCH  29  30
ENDBRANCH  28  29
ENDBRANCH  27  28
ENDBRANCH  26  27
ENDBRANCH  25  26
ENDBRANCH  24  25
ENDBRANCH  23  24
ENDBRANCH  22  23
ENDBRANCH  21  22
ENDBRANCH  20  21
ENDBRANCH  19  20
ENDBRANCH  18  19
ENDBRANCH   1  18
TORSDOF 28
ENDMDL
MODEL 8
REMARK VINA RESULT:    -4.901      1.225      2.106
REMARK INTER + INTRA:         -18.297
REMARK INTER:                 -13.207
REMARK INTRA:                  -5.090
REMARK UNBOUND:                -5.374
REMARK SMILES CCCCCCCCCCCCCCCCCCCCCCCCCCCCCC(=O)[O-]
REMARK SMILES IDX 16 1 17 2 18 3 19 4 20 5 21 6 22 7 23 8 24 9 25 10 26 11
REMARK SMILES IDX 27 12 28 13 29 14 30 15 31 16 32 17 15 18 14 19 13 20 12 21
REMARK SMILES IDX 11 22 10 23 9 24 8 25 7 26 6 27 5 28 4 29 3 30 2 31 1 32
REMARK H PARENT
REMARK Flexibility Score: inf
ROOT
ATOM      1  C   UNL     1      14.445 -29.784  23.388  1.00  0.00     0.000 C 
ENDROOT
BRANCH   1   2
ATOM      2  C   UNL     1      15.388 -28.793  22.678  1.00  0.00     0.000 C 
BRANCH   2   3
ATOM      3  C   UNL     1      16.888 -29.148  22.717  1.00  0.00     0.000 C 
BRANCH   3   4
ATOM      4  C   UNL     1      17.236 -30.337  23.635  1.00  0.00     0.000 C 
BRANCH   4   5
ATOM      5  C   UNL     1      17.750 -31.567  22.864  1.00  0.00     0.000 C 
BRANCH   5   6
ATOM      6  C   UNL     1      18.004 -31.268  21.378  1.00  0.00     0.000 C 
BRANCH   6   7
ATOM      7  C   UNL     1      19.282 -31.941  20.847  1.00  0.00     0.000 C 
BRANCH   7   8
ATOM      8  C   UNL     1      20.526 -31.051  20.991  1.00  0.00     0.000 C 
BRANCH   8   9
ATOM      9  C   UNL     1      21.476 -31.534  22.097  1.00  0.00     0.000 C 
BRANCH   9  10
ATOM     10  C   UNL     1      21.247 -30.756  23.402  1.00  0.00     0.000 C 
BRANCH  10  11
ATOM     11  C   UNL     1      21.189 -29.232  23.189  1.00  0.00     0.000 C 
BRANCH  11  12
ATOM     12  C   UNL     1      22.556 -28.553  22.966  1.00  0.00     0.000 C 
BRANCH  12  13
ATOM     13  C   UNL     1      22.629 -27.616  21.744  1.00  0.00     0.006 C 
BRANCH  13  14
ATOM     14  C   UNL     1      21.274 -27.346  21.069  1.00  0.00     0.053 C 
BRANCH  14  15
ATOM     15  C   UNL     1      21.204 -25.974  20.472  1.00  0.00     0.041 C 
ATOM     16  O   UNL     1      20.164 -25.275  20.609  1.00  0.00    -0.550 OA
ATOM     17  O   UNL     1      22.300 -25.453  19.796  1.00  0.00    -0.550 OA
ENDBRANCH  14  15
ENDBRANCH  13  14
ENDBRANCH  12  13
ENDBRANCH  11  12
ENDBRANCH  10  11
ENDBRANCH   9  10
ENDBRANCH   8   9
ENDBRANCH   7   8
ENDBRANCH   6   7
ENDBRANCH   5   6
ENDBRANCH   4   5
ENDBRANCH   3   4
ENDBRANCH   2   3
ENDBRANCH   1   2
BRANCH   1  18
ATOM     18  C   UNL     1      13.529 -30.603  22.458  1.00  0.00     0.000 C 
BRANCH  18  19
ATOM     19  C   UNL     1      14.220 -31.032  21.156  1.00  0.00     0.000 C 
BRANCH  19  20
ATOM     20  C   UNL     1      13.889 -32.492  20.816  1.00  0.00     0.000 C 
BRANCH  20  21
ATOM     21  C   UNL     1      15.095 -33.438  20.967  1.00  0.00     0.000 C 
BRANCH  21  22
ATOM     22  C   UNL     1      15.391 -34.327  19.743  1.00  0.00     0.000 C 
BRANCH  22  23
ATOM     23  C   UNL     1      16.739 -34.060  19.046  1.00  0.00     0.000 C 
BRANCH  23  24
ATOM     24  C   UNL     1      17.835 -35.095  19.380  1.00  0.00    -0.000 C 
BRANCH  24  25
ATOM     25  C   UNL     1      17.261 -36.461  19.793  1.00  0.00    -0.000 C 
BRANCH  25  26
ATOM     26  C   UNL     1      17.964 -37.050  21.025  1.00  0.00    -0.000 C 
BRANCH  26  27
ATOM     27  C   UNL     1      18.584 -35.968  21.926  1.00  0.00    -0.000 C 
BRANCH  27  28
ATOM     28  C   UNL     1      18.837 -36.467  23.356  1.00  0.00    -0.000 C 
BRANCH  28  29
ATOM     29  C   UNL     1      18.124 -35.611  24.414  1.00  0.00    -0.000 C 
BRANCH  29  30
ATOM     30  C   UNL     1      16.888 -34.885  23.857  1.00  0.00    -0.000 C 
BRANCH  30  31
ATOM     31  C   UNL     1      16.158 -34.020  24.906  1.00  0.00    -0.003 C 
ATOM     32  C   UNL     1      14.824 -33.480  24.388  1.00  0.00     0.004 C 
ENDBRANCH  30  31
ENDBRANCH  29  30
ENDBRANCH  28  29
ENDBRANCH  27  28
ENDBRANCH  26  27
ENDBRANCH  25  26
ENDBRANCH  24  25
ENDBRANCH  23  24
ENDBRANCH  22  23
ENDBRANCH  21  22
ENDBRANCH  20  21
ENDBRANCH  19  20
ENDBRANCH  18  19
ENDBRANCH   1  18
TORSDOF 28
ENDMDL
MODEL 9
REMARK VINA RESULT:    -4.829      1.337      2.157
REMARK INTER + INTRA:         -18.108
REMARK INTER:                 -12.531
REMARK INTRA:                  -5.578
REMARK UNBOUND:                -5.374
REMARK SMILES CCCCCCCCCCCCCCCCCCCCCCCCCCCCCC(=O)[O-]
REMARK SMILES IDX 16 1 17 2 18 3 19 4 20 5 21 6 22 7 23 8 24 9 25 10 26 11
REMARK SMILES IDX 27 12 28 13 29 14 30 15 31 16 32 17 15 18 14 19 13 20 12 21
REMARK SMILES IDX 11 22 10 23 9 24 8 25 7 26 6 27 5 28 4 29 3 30 2 31 1 32
REMARK H PARENT
REMARK Flexibility Score: inf
ROOT
ATOM      1  C   UNL     1      16.168 -28.506  22.737  1.00  0.00     0.000 C 
ENDROOT
BRANCH   1   2
ATOM      2  C   UNL     1      17.556 -29.057  22.355  1.00  0.00     0.000 C 
BRANCH   2   3
ATOM      3  C   UNL     1      17.594 -30.534  21.910  1.00  0.00     0.000 C 
BRANCH   3   4
ATOM      4  C   UNL     1      17.813 -31.538  23.060  1.00  0.00     0.000 C 
BRANCH   4   5
ATOM      5  C   UNL     1      18.163 -30.861  24.398  1.00  0.00     0.000 C 
BRANCH   5   6
ATOM      6  C   UNL     1      19.642 -31.039  24.780  1.00  0.00     0.000 C 
BRANCH   6   7
ATOM      7  C   UNL     1      20.328 -32.166  23.987  1.00  0.00     0.000 C 
BRANCH   7   8
ATOM      8  C   UNL     1      21.495 -31.660  23.124  1.00  0.00     0.000 C 
BRANCH   8   9
ATOM      9  C   UNL     1      21.256 -31.869  21.621  1.00  0.00     0.000 C 
BRANCH   9  10
ATOM     10  C   UNL     1      21.011 -30.531  20.908  1.00  0.00     0.000 C 
BRANCH  10  11
ATOM     11  C   UNL     1      21.263 -29.313  21.816  1.00  0.00     0.000 C 
BRANCH  11  12
ATOM     12  C   UNL     1      21.538 -27.991  21.072  1.00  0.00     0.000 C 
BRANCH  12  13
ATOM     13  C   UNL     1      20.314 -27.067  20.906  1.00  0.00     0.006 C 
BRANCH  13  14
ATOM     14  C   UNL     1      20.607 -25.753  20.164  1.00  0.00     0.053 C 
BRANCH  14  15
ATOM     15  C   UNL     1      21.762 -25.011  20.765  1.00  0.00     0.041 C 
ATOM     16  O   UNL     1      21.648 -24.475  21.901  1.00  0.00    -0.550 OA
ATOM     17  O   UNL     1      22.972 -24.941  20.089  1.00  0.00    -0.550 OA
ENDBRANCH  14  15
ENDBRANCH  13  14
ENDBRANCH  12  13
ENDBRANCH  11  12
ENDBRANCH  10  11
ENDBRANCH   9  10
ENDBRANCH   8   9
ENDBRANCH   7   8
ENDBRANCH   6   7
ENDBRANCH   5   6
ENDBRANCH   4   5
ENDBRANCH   3   4
ENDBRANCH   2   3
ENDBRANCH   1   2
BRANCH   1  18
ATOM     18  C   UNL     1      14.969 -29.317  22.211  1.00  0.00     0.000 C 
BRANCH  18  19
ATOM     19  C   UNL     1      13.712 -29.168  23.080  1.00  0.00     0.000 C 
BRANCH  19  20
ATOM     20  C   UNL     1      13.195 -30.539  23.536  1.00  0.00     0.000 C 
BRANCH  20  21
ATOM     21  C   UNL     1      14.289 -31.420  24.168  1.00  0.00     0.000 C 
BRANCH  21  22
ATOM     22  C   UNL     1      14.112 -32.937  23.964  1.00  0.00     0.000 C 
BRANCH  22  23
ATOM     23  C   UNL     1      15.046 -33.575  22.917  1.00  0.00     0.000 C 
BRANCH  23  24
ATOM     24  C   UNL     1      14.691 -33.219  21.458  1.00  0.00    -0.000 C 
BRANCH  24  25
ATOM     25  C   UNL     1      15.818 -33.560  20.468  1.00  0.00    -0.000 C 
BRANCH  25  26
ATOM     26  C   UNL     1      15.745 -35.009  19.966  1.00  0.00    -0.000 C 
BRANCH  26  27
ATOM     27  C   UNL     1      16.817 -35.912  20.600  1.00  0.00    -0.000 C 
BRANCH  27  28
ATOM     28  C   UNL     1      18.219 -35.287  20.544  1.00  0.00    -0.000 C 
BRANCH  28  29
ATOM     29  C   UNL     1      18.723 -34.844  21.926  1.00  0.00    -0.000 C 
BRANCH  29  30
ATOM     30  C   UNL     1      18.114 -35.668  23.074  1.00  0.00    -0.000 C 
BRANCH  30  31
ATOM     31  C   UNL     1      18.658 -35.282  24.465  1.00  0.00    -0.003 C 
ATOM     32  C   UNL     1      17.597 -34.617  25.341  1.00  0.00     0.004 C 
ENDBRANCH  30  31
ENDBRANCH  29  30
ENDBRANCH  28  29
ENDBRANCH  27  28
ENDBRANCH  26  27
ENDBRANCH  25  26
ENDBRANCH  24  25
ENDBRANCH  23  24
ENDBRANCH  22  23
ENDBRANCH  21  22
ENDBRANCH  20  21
ENDBRANCH  19  20
ENDBRANCH  18  19
ENDBRANCH   1  18
TORSDOF 28
ENDMDL
