MODEL 1
REMARK VINA RESULT:    -3.943      0.000      0.000
REMARK INTER + INTRA:         -11.763
REMARK INTER:                  -8.552
REMARK INTRA:                  -3.211
REMARK UNBOUND:                -3.211
REMARK SMILES CCCCCCCCCCCCCCCCCCCCCC(=O)[O-]
REMARK SMILES IDX 12 1 11 2 10 3 9 4 8 5 7 6 6 7 5 8 4 9 3 10 2 11 1 12 13 13
REMARK SMILES IDX 14 14 15 15 16 16 17 17 18 18 19 19 20 20 21 21 22 22 23 23
REMARK SMILES IDX 24 24
REMARK H PARENT
REMARK Flexibility Score: inf
ROOT
ATOM      1  C   UNL     1     -21.372  30.772 -42.290  1.00  0.00     0.000 C 
ENDROOT
BRANCH   1   2
ATOM      2  C   UNL     1     -19.876  30.683 -42.646  1.00  0.00     0.000 C 
BRANCH   2   3
ATOM      3  C   UNL     1     -18.954  30.219 -41.501  1.00  0.00     0.000 C 
BRANCH   3   4
ATOM      4  C   UNL     1     -19.075  31.033 -40.199  1.00  0.00    -0.000 C 
BRANCH   4   5
ATOM      5  C   UNL     1     -18.274  32.342 -40.240  1.00  0.00    -0.000 C 
BRANCH   5   6
ATOM      6  C   UNL     1     -19.093  33.505 -39.660  1.00  0.00    -0.000 C 
BRANCH   6   7
ATOM      7  C   UNL     1     -20.600  33.200 -39.590  1.00  0.00    -0.000 C 
BRANCH   7   8
ATOM      8  C   UNL     1     -21.403  34.100 -38.627  1.00  0.00    -0.000 C 
BRANCH   8   9
ATOM      9  C   UNL     1     -21.796  33.445 -37.288  1.00  0.00    -0.000 C 
BRANCH   9  10
ATOM     10  C   UNL     1     -23.296  33.138 -37.129  1.00  0.00    -0.000 C 
BRANCH  10  11
ATOM     11  C   UNL     1     -24.185  34.073 -37.960  1.00  0.00    -0.003 C 
ATOM     12  C   UNL     1     -25.650  33.944 -37.552  1.00  0.00     0.004 C 
ENDBRANCH  10  11
ENDBRANCH   9  10
ENDBRANCH   8   9
ENDBRANCH   7   8
ENDBRANCH   6   7
ENDBRANCH   5   6
ENDBRANCH   4   5
ENDBRANCH   3   4
ENDBRANCH   2   3
ENDBRANCH   1   2
BRANCH   1  13
ATOM     13  C   UNL     1     -22.146  29.493 -42.656  1.00  0.00     0.000 C 
BRANCH  13  14
ATOM     14  C   UNL     1     -22.926  28.910 -41.466  1.00  0.00     0.000 C 
BRANCH  14  15
ATOM     15  C   UNL     1     -22.172  29.051 -40.131  1.00  0.00     0.000 C 
BRANCH  15  16
ATOM     16  C   UNL     1     -22.770  30.159 -39.238  1.00  0.00     0.000 C 
BRANCH  16  17
ATOM     17  C   UNL     1     -23.852  29.656 -38.267  1.00  0.00     0.000 C 
BRANCH  17  18
ATOM     18  C   UNL     1     -25.220  30.310 -38.504  1.00  0.00     0.000 C 
BRANCH  18  19
ATOM     19  C   UNL     1     -25.279  30.990 -39.876  1.00  0.00     0.000 C 
BRANCH  19  20
ATOM     20  C   UNL     1     -26.637  30.751 -40.547  1.00  0.00     0.006 C 
BRANCH  20  21
ATOM     21  C   UNL     1     -26.509  29.775 -41.721  1.00  0.00     0.053 C 
BRANCH  21  22
ATOM     22  C   UNL     1     -27.151  28.466 -41.384  1.00  0.00     0.041 C 
ATOM     23  O   UNL     1     -27.433  27.645 -42.297  1.00  0.00    -0.550 OA
ATOM     24  O   UNL     1     -27.495  28.179 -40.069  1.00  0.00    -0.550 OA
ENDBRANCH  21  22
ENDBRANCH  20  21
ENDBRANCH  19  20
ENDBRANCH  18  19
ENDBRANCH  17  18
ENDBRANCH  16  17
ENDBRANCH  15  16
ENDBRANCH  14  15
ENDBRANCH  13  14
ENDBRANCH   1  13
TORSDOF 20
ENDMDL
MODEL 2
REMARK VINA RESULT:    -3.908      2.538      3.476
REMARK INTER + INTRA:         -11.687
REMARK INTER:                  -8.052
REMARK INTRA:                  -3.636
REMARK UNBOUND:                -3.211
REMARK SMILES CCCCCCCCCCCCCCCCCCCCCC(=O)[O-]
REMARK SMILES IDX 12 1 11 2 10 3 9 4 8 5 7 6 6 7 5 8 4 9 3 10 2 11 1 12 13 13
REMARK SMILES IDX 14 14 15 15 16 16 17 17 18 18 19 19 20 20 21 21 22 22 23 23
REMARK SMILES IDX 24 24
REMARK H PARENT
REMARK Flexibility Score: inf
ROOT
ATOM      1  C   UNL     1     -20.968  30.576 -42.226  1.00  0.00     0.000 C 
ENDROOT
BRANCH   1   2
ATOM      2  C   UNL     1     -19.531  30.962 -42.625  1.00  0.00     0.000 C 
BRANCH   2   3
ATOM      3  C   UNL     1     -18.485  30.857 -41.497  1.00  0.00     0.000 C 
BRANCH   3   4
ATOM      4  C   UNL     1     -18.210  32.170 -40.741  1.00  0.00    -0.000 C 
BRANCH   4   5
ATOM      5  C   UNL     1     -18.883  32.213 -39.361  1.00  0.00    -0.000 C 
BRANCH   5   6
ATOM      6  C   UNL     1     -19.689  33.509 -39.185  1.00  0.00    -0.000 C 
BRANCH   6   7
ATOM      7  C   UNL     1     -21.032  33.486 -39.938  1.00  0.00    -0.000 C 
BRANCH   7   8
ATOM      8  C   UNL     1     -22.281  33.391 -39.037  1.00  0.00    -0.000 C 
BRANCH   8   9
ATOM      9  C   UNL     1     -23.248  32.238 -39.375  1.00  0.00    -0.000 C 
BRANCH   9  10
ATOM     10  C   UNL     1     -23.336  31.130 -38.310  1.00  0.00    -0.000 C 
BRANCH  10  11
ATOM     11  C   UNL     1     -22.207  31.212 -37.272  1.00  0.00    -0.003 C 
ATOM     12  C   UNL     1     -21.304  29.983 -37.344  1.00  0.00     0.004 C 
ENDBRANCH  10  11
ENDBRANCH   9  10
ENDBRANCH   8   9
ENDBRANCH   7   8
ENDBRANCH   6   7
ENDBRANCH   5   6
ENDBRANCH   4   5
ENDBRANCH   3   4
ENDBRANCH   2   3
ENDBRANCH   1   2
BRANCH   1  13
ATOM     13  C   UNL     1     -21.015  29.651 -40.997  1.00  0.00     0.000 C 
BRANCH  13  14
ATOM     14  C   UNL     1     -22.315  28.834 -40.918  1.00  0.00     0.000 C 
BRANCH  14  15
ATOM     15  C   UNL     1     -23.362  29.274 -41.958  1.00  0.00     0.000 C 
BRANCH  15  16
ATOM     16  C   UNL     1     -24.739  28.622 -41.712  1.00  0.00     0.000 C 
BRANCH  16  17
ATOM     17  C   UNL     1     -25.816  29.612 -41.232  1.00  0.00     0.000 C 
BRANCH  17  18
ATOM     18  C   UNL     1     -26.238  29.378 -39.776  1.00  0.00     0.000 C 
BRANCH  18  19
ATOM     19  C   UNL     1     -27.378  30.320 -39.372  1.00  0.00     0.000 C 
BRANCH  19  20
ATOM     20  C   UNL     1     -26.916  31.304 -38.291  1.00  0.00     0.006 C 
BRANCH  20  21
ATOM     21  C   UNL     1     -27.023  32.752 -38.778  1.00  0.00     0.053 C 
BRANCH  21  22
ATOM     22  C   UNL     1     -26.734  33.702 -37.660  1.00  0.00     0.041 C 
ATOM     23  O   UNL     1     -25.544  34.021 -37.391  1.00  0.00    -0.550 OA
ATOM     24  O   UNL     1     -27.771  34.187 -36.874  1.00  0.00    -0.550 OA
ENDBRANCH  21  22
ENDBRANCH  20  21
ENDBRANCH  19  20
ENDBRANCH  18  19
ENDBRANCH  17  18
ENDBRANCH  16  17
ENDBRANCH  15  16
ENDBRANCH  14  15
ENDBRANCH  13  14
ENDBRANCH   1  13
TORSDOF 20
ENDMDL
MODEL 3
REMARK VINA RESULT:    -3.896      1.427      4.053
REMARK INTER + INTRA:         -11.661
REMARK INTER:                  -8.157
REMARK INTRA:                  -3.504
REMARK UNBOUND:                -3.211
REMARK SMILES CCCCCCCCCCCCCCCCCCCCCC(=O)[O-]
REMARK SMILES IDX 12 1 11 2 10 3 9 4 8 5 7 6 6 7 5 8 4 9 3 10 2 11 1 12 13 13
REMARK SMILES IDX 14 14 15 15 16 16 17 17 18 18 19 19 20 20 21 21 22 22 23 23
REMARK SMILES IDX 24 24
REMARK H PARENT
REMARK Flexibility Score: inf
ROOT
ATOM      1  C   UNL     1     -20.248  33.270 -39.831  1.00  0.00     0.000 C 
ENDROOT
BRANCH   1   2
ATOM      2  C   UNL     1     -18.711  33.343 -39.895  1.00  0.00     0.000 C 
BRANCH   2   3
ATOM      3  C   UNL     1     -18.022  32.131 -40.555  1.00  0.00     0.000 C 
BRANCH   3   4
ATOM      4  C   UNL     1     -17.671  32.315 -42.044  1.00  0.00    -0.000 C 
BRANCH   4   5
ATOM      5  C   UNL     1     -18.761  31.776 -42.982  1.00  0.00    -0.000 C 
BRANCH   5   6
ATOM      6  C   UNL     1     -19.416  30.516 -42.394  1.00  0.00    -0.000 C 
BRANCH   6   7
ATOM      7  C   UNL     1     -20.953  30.590 -42.385  1.00  0.00    -0.000 C 
BRANCH   7   8
ATOM      8  C   UNL     1     -21.650  29.532 -41.502  1.00  0.00    -0.000 C 
BRANCH   8   9
ATOM      9  C   UNL     1     -20.836  29.057 -40.281  1.00  0.00    -0.000 C 
BRANCH   9  10
ATOM     10  C   UNL     1     -21.153  29.788 -38.964  1.00  0.00    -0.000 C 
BRANCH  10  11
ATOM     11  C   UNL     1     -19.905  30.032 -38.104  1.00  0.00    -0.003 C 
ATOM     12  C   UNL     1     -18.749  29.141 -38.548  1.00  0.00     0.004 C 
ENDBRANCH  10  11
ENDBRANCH   9  10
ENDBRANCH   8   9
ENDBRANCH   7   8
ENDBRANCH   6   7
ENDBRANCH   5   6
ENDBRANCH   4   5
ENDBRANCH   3   4
ENDBRANCH   2   3
ENDBRANCH   1   2
BRANCH   1  13
ATOM     13  C   UNL     1     -20.808  33.719 -38.470  1.00  0.00     0.000 C 
BRANCH  13  14
ATOM     14  C   UNL     1     -22.329  33.938 -38.496  1.00  0.00     0.000 C 
BRANCH  14  15
ATOM     15  C   UNL     1     -23.098  32.892 -37.668  1.00  0.00     0.000 C 
BRANCH  15  16
ATOM     16  C   UNL     1     -23.873  31.898 -38.558  1.00  0.00     0.000 C 
BRANCH  16  17
ATOM     17  C   UNL     1     -23.811  32.232 -40.059  1.00  0.00     0.000 C 
BRANCH  17  18
ATOM     18  C   UNL     1     -24.671  31.295 -40.918  1.00  0.00     0.000 C 
BRANCH  18  19
ATOM     19  C   UNL     1     -25.349  30.222 -40.058  1.00  0.00     0.000 C 
BRANCH  19  20
ATOM     20  C   UNL     1     -25.699  28.989 -40.899  1.00  0.00     0.006 C 
BRANCH  20  21
ATOM     21  C   UNL     1     -26.825  29.296 -41.890  1.00  0.00     0.053 C 
BRANCH  21  22
ATOM     22  C   UNL     1     -28.127  28.765 -41.382  1.00  0.00     0.041 C 
ATOM     23  O   UNL     1     -28.297  27.524 -41.248  1.00  0.00    -0.550 OA
ATOM     24  O   UNL     1     -29.176  29.636 -41.114  1.00  0.00    -0.550 OA
ENDBRANCH  21  22
ENDBRANCH  20  21
ENDBRANCH  19  20
ENDBRANCH  18  19
ENDBRANCH  17  18
ENDBRANCH  16  17
ENDBRANCH  15  16
ENDBRANCH  14  15
ENDBRANCH  13  14
ENDBRANCH   1  13
TORSDOF 20
ENDMDL
MODEL 4
REMARK VINA RESULT:    -3.883      3.066      6.341
REMARK INTER + INTRA:         -11.633
REMARK INTER:                  -8.185
REMARK INTRA:                  -3.448
REMARK UNBOUND:                -3.211
REMARK SMILES CCCCCCCCCCCCCCCCCCCCCC(=O)[O-]
REMARK SMILES IDX 12 1 11 2 10 3 9 4 8 5 7 6 6 7 5 8 4 9 3 10 2 11 1 12 13 13
REMARK SMILES IDX 14 14 15 15 16 16 17 17 18 18 19 19 20 20 21 21 22 22 23 23
REMARK SMILES IDX 24 24
REMARK H PARENT
REMARK Flexibility Score: inf
ROOT
ATOM      1  C   UNL     1     -23.851  29.413 -40.976  1.00  0.00     0.000 C 
ENDROOT
BRANCH   1   2
ATOM      2  C   UNL     1     -24.729  28.489 -41.842  1.00  0.00     0.000 C 
BRANCH   2   3
ATOM      3  C   UNL     1     -26.242  28.562 -41.556  1.00  0.00     0.000 C 
BRANCH   3   4
ATOM      4  C   UNL     1     -26.622  28.568 -40.063  1.00  0.00    -0.000 C 
BRANCH   4   5
ATOM      5  C   UNL     1     -27.264  29.890 -39.619  1.00  0.00    -0.000 C 
BRANCH   5   6
ATOM      6  C   UNL     1     -27.605  30.769 -40.832  1.00  0.00    -0.000 C 
BRANCH   6   7
ATOM      7  C   UNL     1     -27.516  32.274 -40.526  1.00  0.00    -0.000 C 
BRANCH   7   8
ATOM      8  C   UNL     1     -28.862  33.028 -40.575  1.00  0.00    -0.000 C 
BRANCH   8   9
ATOM      9  C   UNL     1     -29.446  33.419 -39.202  1.00  0.00    -0.000 C 
BRANCH   9  10
ATOM     10  C   UNL     1     -28.577  33.034 -37.992  1.00  0.00    -0.000 C 
BRANCH  10  11
ATOM     11  C   UNL     1     -27.838  34.234 -37.383  1.00  0.00    -0.003 C 
ATOM     12  C   UNL     1     -26.325  34.048 -37.465  1.00  0.00     0.004 C 
ENDBRANCH  10  11
ENDBRANCH   9  10
ENDBRANCH   8   9
ENDBRANCH   7   8
ENDBRANCH   6   7
ENDBRANCH   5   6
ENDBRANCH   4   5
ENDBRANCH   3   4
ENDBRANCH   2   3
ENDBRANCH   1   2
BRANCH   1  13
ATOM     13  C   UNL     1     -23.792  30.854 -41.516  1.00  0.00     0.000 C 
BRANCH  13  14
ATOM     14  C   UNL     1     -23.883  31.910 -40.403  1.00  0.00     0.000 C 
BRANCH  14  15
ATOM     15  C   UNL     1     -23.870  31.293 -38.992  1.00  0.00     0.000 C 
BRANCH  15  16
ATOM     16  C   UNL     1     -23.023  32.119 -38.001  1.00  0.00     0.000 C 
BRANCH  16  17
ATOM     17  C   UNL     1     -22.866  33.596 -38.402  1.00  0.00     0.000 C 
BRANCH  17  18
ATOM     18  C   UNL     1     -21.400  34.048 -38.466  1.00  0.00     0.000 C 
BRANCH  18  19
ATOM     19  C   UNL     1     -20.778  33.719 -39.827  1.00  0.00     0.000 C 
BRANCH  19  20
ATOM     20  C   UNL     1     -19.664  32.675 -39.680  1.00  0.00     0.006 C 
BRANCH  20  21
ATOM     21  C   UNL     1     -20.069  31.341 -40.314  1.00  0.00     0.053 C 
BRANCH  21  22
ATOM     22  C   UNL     1     -19.705  31.321 -41.765  1.00  0.00     0.041 C 
ATOM     23  O   UNL     1     -18.731  32.004 -42.183  1.00  0.00    -0.550 OA
ATOM     24  O   UNL     1     -20.477  30.598 -42.666  1.00  0.00    -0.550 OA
ENDBRANCH  21  22
ENDBRANCH  20  21
ENDBRANCH  19  20
ENDBRANCH  18  19
ENDBRANCH  17  18
ENDBRANCH  16  17
ENDBRANCH  15  16
ENDBRANCH  14  15
ENDBRANCH  13  14
ENDBRANCH   1  13
TORSDOF 20
ENDMDL
MODEL 5
REMARK VINA RESULT:    -3.878      1.644      3.067
REMARK INTER + INTRA:         -11.623
REMARK INTER:                  -8.151
REMARK INTRA:                  -3.472
REMARK UNBOUND:                -3.211
REMARK SMILES CCCCCCCCCCCCCCCCCCCCCC(=O)[O-]
REMARK SMILES IDX 12 1 11 2 10 3 9 4 8 5 7 6 6 7 5 8 4 9 3 10 2 11 1 12 13 13
REMARK SMILES IDX 14 14 15 15 16 16 17 17 18 18 19 19 20 20 21 21 22 22 23 23
REMARK SMILES IDX 24 24
REMARK H PARENT
REMARK Flexibility Score: inf
ROOT
ATOM      1  C   UNL     1     -17.617  32.057 -42.413  1.00  0.00     0.000 C 
ENDROOT
BRANCH   1   2
ATOM      2  C   UNL     1     -17.278  31.270 -41.133  1.00  0.00     0.000 C 
BRANCH   2   3
ATOM      3  C   UNL     1     -17.464  32.048 -39.815  1.00  0.00     0.000 C 
BRANCH   3   4
ATOM      4  C   UNL     1     -18.910  32.098 -39.287  1.00  0.00    -0.000 C 
BRANCH   4   5
ATOM      5  C   UNL     1     -19.501  33.515 -39.308  1.00  0.00    -0.000 C 
BRANCH   5   6
ATOM      6  C   UNL     1     -20.865  33.529 -40.017  1.00  0.00    -0.000 C 
BRANCH   6   7
ATOM      7  C   UNL     1     -22.049  33.604 -39.036  1.00  0.00    -0.000 C 
BRANCH   7   8
ATOM      8  C   UNL     1     -22.897  32.317 -38.943  1.00  0.00    -0.000 C 
BRANCH   8   9
ATOM      9  C   UNL     1     -22.849  31.597 -37.580  1.00  0.00    -0.000 C 
BRANCH   9  10
ATOM     10  C   UNL     1     -21.745  32.086 -36.624  1.00  0.00    -0.000 C 
BRANCH  10  11
ATOM     11  C   UNL     1     -20.773  30.969 -36.218  1.00  0.00    -0.003 C 
ATOM     12  C   UNL     1     -19.466  31.548 -35.682  1.00  0.00     0.004 C 
ENDBRANCH  10  11
ENDBRANCH   9  10
ENDBRANCH   8   9
ENDBRANCH   7   8
ENDBRANCH   6   7
ENDBRANCH   5   6
ENDBRANCH   4   5
ENDBRANCH   3   4
ENDBRANCH   2   3
ENDBRANCH   1   2
BRANCH   1  13
ATOM     13  C   UNL     1     -19.037  31.766 -42.931  1.00  0.00     0.000 C 
BRANCH  13  14
ATOM     14  C   UNL     1     -19.556  30.386 -42.499  1.00  0.00     0.000 C 
BRANCH  14  15
ATOM     15  C   UNL     1     -21.022  30.419 -42.030  1.00  0.00     0.000 C 
BRANCH  15  16
ATOM     16  C   UNL     1     -21.252  29.557 -40.770  1.00  0.00     0.000 C 
BRANCH  16  17
ATOM     17  C   UNL     1     -22.667  28.962 -40.676  1.00  0.00     0.000 C 
BRANCH  17  18
ATOM     18  C   UNL     1     -23.365  28.857 -42.038  1.00  0.00     0.000 C 
BRANCH  18  19
ATOM     19  C   UNL     1     -24.885  28.995 -41.895  1.00  0.00     0.000 C 
BRANCH  19  20
ATOM     20  C   UNL     1     -25.240  29.964 -40.761  1.00  0.00     0.006 C 
BRANCH  20  21
ATOM     21  C   UNL     1     -26.267  31.003 -41.223  1.00  0.00     0.053 C 
BRANCH  21  22
ATOM     22  C   UNL     1     -27.571  30.343 -41.540  1.00  0.00     0.041 C 
ATOM     23  O   UNL     1     -28.091  30.483 -42.680  1.00  0.00    -0.550 OA
ATOM     24  O   UNL     1     -28.243  29.624 -40.560  1.00  0.00    -0.550 OA
ENDBRANCH  21  22
ENDBRANCH  20  21
ENDBRANCH  19  20
ENDBRANCH  18  19
ENDBRANCH  17  18
ENDBRANCH  16  17
ENDBRANCH  15  16
ENDBRANCH  14  15
ENDBRANCH  13  14
ENDBRANCH   1  13
TORSDOF 20
ENDMDL
MODEL 6
REMARK VINA RESULT:    -3.874      1.883      4.537
REMARK INTER + INTRA:         -11.613
REMARK INTER:                  -7.871
REMARK INTRA:                  -3.742
REMARK UNBOUND:                -3.211
REMARK SMILES CCCCCCCCCCCCCCCCCCCCCC(=O)[O-]
REMARK SMILES IDX 12 1 11 2 10 3 9 4 8 5 7 6 6 7 5 8 4 9 3 10 2 11 1 12 13 13
REMARK SMILES IDX 14 14 15 15 16 16 17 17 18 18 19 19 20 20 21 21 22 22 23 23
REMARK SMILES IDX 24 24
REMARK H PARENT
REMARK Flexibility Score: inf
ROOT
ATOM      1  C   UNL     1     -24.172  32.014 -40.093  1.00  0.00     0.000 C 
ENDROOT
BRANCH   1   2
ATOM      2  C   UNL     1     -24.185  31.763 -38.573  1.00  0.00     0.000 C 
BRANCH   2   3
ATOM      3  C   UNL     1     -24.015  33.022 -37.698  1.00  0.00     0.000 C 
BRANCH   3   4
ATOM      4  C   UNL     1     -22.567  33.327 -37.274  1.00  0.00    -0.000 C 
BRANCH   4   5
ATOM      5  C   UNL     1     -21.896  34.380 -38.168  1.00  0.00    -0.000 C 
BRANCH   5   6
ATOM      6  C   UNL     1     -20.733  33.764 -38.962  1.00  0.00    -0.000 C 
BRANCH   6   7
ATOM      7  C   UNL     1     -20.287  32.398 -38.409  1.00  0.00    -0.000 C 
BRANCH   7   8
ATOM      8  C   UNL     1     -18.813  32.035 -38.686  1.00  0.00    -0.000 C 
BRANCH   8   9
ATOM      9  C   UNL     1     -18.295  32.412 -40.089  1.00  0.00    -0.000 C 
BRANCH   9  10
ATOM     10  C   UNL     1     -17.890  31.221 -40.975  1.00  0.00    -0.000 C 
BRANCH  10  11
ATOM     11  C   UNL     1     -19.089  30.360 -41.399  1.00  0.00    -0.003 C 
ATOM     12  C   UNL     1     -19.776  30.945 -42.630  1.00  0.00     0.004 C 
ENDBRANCH  10  11
ENDBRANCH   9  10
ENDBRANCH   8   9
ENDBRANCH   7   8
ENDBRANCH   6   7
ENDBRANCH   5   6
ENDBRANCH   4   5
ENDBRANCH   3   4
ENDBRANCH   2   3
ENDBRANCH   1   2
BRANCH   1  13
ATOM     13  C   UNL     1     -22.988  31.328 -40.798  1.00  0.00     0.000 C 
BRANCH  13  14
ATOM     14  C   UNL     1     -22.513  30.063 -40.066  1.00  0.00     0.000 C 
BRANCH  14  15
ATOM     15  C   UNL     1     -22.597  28.799 -40.942  1.00  0.00     0.000 C 
BRANCH  15  16
ATOM     16  C   UNL     1     -23.562  28.978 -42.133  1.00  0.00     0.000 C 
BRANCH  16  17
ATOM     17  C   UNL     1     -24.881  28.200 -41.983  1.00  0.00     0.000 C 
BRANCH  17  18
ATOM     18  C   UNL     1     -26.043  29.079 -41.501  1.00  0.00     0.000 C 
BRANCH  18  19
ATOM     19  C   UNL     1     -26.289  28.898 -40.000  1.00  0.00     0.000 C 
BRANCH  19  20
ATOM     20  C   UNL     1     -27.647  29.484 -39.594  1.00  0.00     0.006 C 
BRANCH  20  21
ATOM     21  C   UNL     1     -27.739  30.969 -39.957  1.00  0.00     0.053 C 
BRANCH  21  22
ATOM     22  C   UNL     1     -27.819  31.805 -38.719  1.00  0.00     0.041 C 
ATOM     23  O   UNL     1     -27.566  33.039 -38.769  1.00  0.00    -0.550 OA
ATOM     24  O   UNL     1     -28.112  31.212 -37.497  1.00  0.00    -0.550 OA
ENDBRANCH  21  22
ENDBRANCH  20  21
ENDBRANCH  19  20
ENDBRANCH  18  19
ENDBRANCH  17  18
ENDBRANCH  16  17
ENDBRANCH  15  16
ENDBRANCH  14  15
ENDBRANCH  13  14
ENDBRANCH   1  13
TORSDOF 20
ENDMDL
MODEL 7
REMARK VINA RESULT:    -3.865      1.775      3.776
REMARK INTER + INTRA:         -11.595
REMARK INTER:                  -8.240
REMARK INTRA:                  -3.355
REMARK UNBOUND:                -3.211
REMARK SMILES CCCCCCCCCCCCCCCCCCCCCC(=O)[O-]
REMARK SMILES IDX 12 1 11 2 10 3 9 4 8 5 7 6 6 7 5 8 4 9 3 10 2 11 1 12 13 13
REMARK SMILES IDX 14 14 15 15 16 16 17 17 18 18 19 19 20 20 21 21 22 22 23 23
REMARK SMILES IDX 24 24
REMARK H PARENT
REMARK Flexibility Score: inf
ROOT
ATOM      1  C   UNL     1     -18.971  31.471 -39.478  1.00  0.00     0.000 C 
ENDROOT
BRANCH   1   2
ATOM      2  C   UNL     1     -19.181  32.991 -39.608  1.00  0.00     0.000 C 
BRANCH   2   3
ATOM      3  C   UNL     1     -20.646  33.440 -39.783  1.00  0.00     0.000 C 
BRANCH   3   4
ATOM      4  C   UNL     1     -21.298  34.038 -38.522  1.00  0.00    -0.000 C 
BRANCH   4   5
ATOM      5  C   UNL     1     -22.820  33.836 -38.488  1.00  0.00    -0.000 C 
BRANCH   5   6
ATOM      6  C   UNL     1     -23.232  32.629 -39.344  1.00  0.00    -0.000 C 
BRANCH   6   7
ATOM      7  C   UNL     1     -23.599  31.394 -38.501  1.00  0.00    -0.000 C 
BRANCH   7   8
ATOM      8  C   UNL     1     -22.416  30.464 -38.159  1.00  0.00    -0.000 C 
BRANCH   8   9
ATOM      9  C   UNL     1     -21.995  30.456 -36.676  1.00  0.00    -0.000 C 
BRANCH   9  10
ATOM     10  C   UNL     1     -20.476  30.400 -36.431  1.00  0.00    -0.000 C 
BRANCH  10  11
ATOM     11  C   UNL     1     -19.897  31.744 -35.967  1.00  0.00    -0.003 C 
ATOM     12  C   UNL     1     -18.425  31.607 -35.588  1.00  0.00     0.004 C 
ENDBRANCH  10  11
ENDBRANCH   9  10
ENDBRANCH   8   9
ENDBRANCH   7   8
ENDBRANCH   6   7
ENDBRANCH   5   6
ENDBRANCH   4   5
ENDBRANCH   3   4
ENDBRANCH   2   3
ENDBRANCH   1   2
BRANCH   1  13
ATOM     13  C   UNL     1     -18.997  30.749 -40.837  1.00  0.00     0.000 C 
BRANCH  13  14
ATOM     14  C   UNL     1     -20.321  30.009 -41.091  1.00  0.00     0.000 C 
BRANCH  14  15
ATOM     15  C   UNL     1     -21.038  30.490 -42.366  1.00  0.00     0.000 C 
BRANCH  15  16
ATOM     16  C   UNL     1     -22.563  30.256 -42.301  1.00  0.00     0.000 C 
BRANCH  16  17
ATOM     17  C   UNL     1     -22.964  29.000 -41.507  1.00  0.00     0.000 C 
BRANCH  17  18
ATOM     18  C   UNL     1     -24.381  28.512 -41.834  1.00  0.00     0.000 C 
BRANCH  18  19
ATOM     19  C   UNL     1     -25.430  29.264 -41.007  1.00  0.00     0.000 C 
BRANCH  19  20
ATOM     20  C   UNL     1     -26.732  29.432 -41.800  1.00  0.00     0.006 C 
BRANCH  20  21
ATOM     21  C   UNL     1     -27.545  28.133 -41.810  1.00  0.00     0.053 C 
BRANCH  21  22
ATOM     22  C   UNL     1     -28.634  28.191 -40.787  1.00  0.00     0.041 C 
ATOM     23  O   UNL     1     -29.269  29.264 -40.596  1.00  0.00    -0.550 OA
ATOM     24  O   UNL     1     -28.909  27.080 -40.000  1.00  0.00    -0.550 OA
ENDBRANCH  21  22
ENDBRANCH  20  21
ENDBRANCH  19  20
ENDBRANCH  18  19
ENDBRANCH  17  18
ENDBRANCH  16  17
ENDBRANCH  15  16
ENDBRANCH  14  15
ENDBRANCH  13  14
ENDBRANCH   1  13
TORSDOF 20
ENDMDL
MODEL 8
REMARK VINA RESULT:    -3.865      3.271      5.708
REMARK INTER + INTRA:         -11.595
REMARK INTER:                  -7.584
REMARK INTRA:                  -4.011
REMARK UNBOUND:                -3.211
REMARK SMILES CCCCCCCCCCCCCCCCCCCCCC(=O)[O-]
REMARK SMILES IDX 12 1 11 2 10 3 9 4 8 5 7 6 6 7 5 8 4 9 3 10 2 11 1 12 13 13
REMARK SMILES IDX 14 14 15 15 16 16 17 17 18 18 19 19 20 20 21 21 22 22 23 23
REMARK SMILES IDX 24 24
REMARK H PARENT
REMARK Flexibility Score: inf
ROOT
ATOM      1  C   UNL     1     -18.626  32.049 -40.587  1.00  0.00     0.000 C 
ENDROOT
BRANCH   1   2
ATOM      2  C   UNL     1     -19.196  33.083 -39.598  1.00  0.00     0.000 C 
BRANCH   2   3
ATOM      3  C   UNL     1     -20.682  33.439 -39.802  1.00  0.00     0.000 C 
BRANCH   3   4
ATOM      4  C   UNL     1     -21.379  34.048 -38.571  1.00  0.00    -0.000 C 
BRANCH   4   5
ATOM      5  C   UNL     1     -22.884  33.746 -38.531  1.00  0.00    -0.000 C 
BRANCH   5   6
ATOM      6  C   UNL     1     -23.253  32.661 -39.553  1.00  0.00    -0.000 C 
BRANCH   6   7
ATOM      7  C   UNL     1     -24.594  31.974 -39.241  1.00  0.00    -0.000 C 
BRANCH   7   8
ATOM      8  C   UNL     1     -24.506  30.796 -38.247  1.00  0.00    -0.000 C 
BRANCH   8   9
ATOM      9  C   UNL     1     -25.262  29.521 -38.670  1.00  0.00    -0.000 C 
BRANCH   9  10
ATOM     10  C   UNL     1     -25.595  29.430 -40.171  1.00  0.00    -0.000 C 
BRANCH  10  11
ATOM     11  C   UNL     1     -27.105  29.394 -40.445  1.00  0.00    -0.003 C 
ATOM     12  C   UNL     1     -27.783  28.288 -39.641  1.00  0.00     0.004 C 
ENDBRANCH  10  11
ENDBRANCH   9  10
ENDBRANCH   8   9
ENDBRANCH   7   8
ENDBRANCH   6   7
ENDBRANCH   5   6
ENDBRANCH   4   5
ENDBRANCH   3   4
ENDBRANCH   2   3
ENDBRANCH   1   2
BRANCH   1  13
ATOM     13  C   UNL     1     -19.478  31.913 -41.862  1.00  0.00     0.000 C 
BRANCH  13  14
ATOM     14  C   UNL     1     -19.627  30.455 -42.325  1.00  0.00     0.000 C 
BRANCH  14  15
ATOM     15  C   UNL     1     -21.085  30.077 -42.647  1.00  0.00     0.000 C 
BRANCH  15  16
ATOM     16  C   UNL     1     -21.969  30.028 -41.382  1.00  0.00     0.000 C 
BRANCH  16  17
ATOM     17  C   UNL     1     -22.109  28.620 -40.779  1.00  0.00     0.000 C 
BRANCH  17  18
ATOM     18  C   UNL     1     -21.686  28.554 -39.305  1.00  0.00     0.000 C 
BRANCH  18  19
ATOM     19  C   UNL     1     -21.031  29.866 -38.858  1.00  0.00     0.000 C 
BRANCH  19  20
ATOM     20  C   UNL     1     -20.605  29.790 -37.387  1.00  0.00     0.006 C 
BRANCH  20  21
ATOM     21  C   UNL     1     -21.206  30.942 -36.577  1.00  0.00     0.053 C 
BRANCH  21  22
ATOM     22  C   UNL     1     -20.154  31.596 -35.739  1.00  0.00     0.041 C 
ATOM     23  O   UNL     1     -19.043  31.908 -36.247  1.00  0.00    -0.550 OA
ATOM     24  O   UNL     1     -20.374  31.805 -34.384  1.00  0.00    -0.550 OA
ENDBRANCH  21  22
ENDBRANCH  20  21
ENDBRANCH  19  20
ENDBRANCH  18  19
ENDBRANCH  17  18
ENDBRANCH  16  17
ENDBRANCH  15  16
ENDBRANCH  14  15
ENDBRANCH  13  14
ENDBRANCH   1  13
TORSDOF 20
ENDMDL
MODEL 9
REMARK VINA RESULT:    -3.851      1.652      3.967
REMARK INTER + INTRA:         -11.564
REMARK INTER:                  -7.706
REMARK INTRA:                  -3.858
REMARK UNBOUND:                -3.211
REMARK SMILES CCCCCCCCCCCCCCCCCCCCCC(=O)[O-]
REMARK SMILES IDX 12 1 11 2 10 3 9 4 8 5 7 6 6 7 5 8 4 9 3 10 2 11 1 12 13 13
REMARK SMILES IDX 14 14 15 15 16 16 17 17 18 18 19 19 20 20 21 21 22 22 23 23
REMARK SMILES IDX 24 24
REMARK H PARENT
REMARK Flexibility Score: inf
ROOT
ATOM      1  C   UNL     1     -18.789  31.882 -38.886  1.00  0.00     0.000 C 
ENDROOT
BRANCH   1   2
ATOM      2  C   UNL     1     -17.704  31.013 -39.549  1.00  0.00     0.000 C 
BRANCH   2   3
ATOM      3  C   UNL     1     -17.517  31.236 -41.064  1.00  0.00     0.000 C 
BRANCH   3   4
ATOM      4  C   UNL     1     -18.383  30.337 -41.965  1.00  0.00    -0.000 C 
BRANCH   4   5
ATOM      5  C   UNL     1     -19.545  31.097 -42.621  1.00  0.00    -0.000 C 
BRANCH   5   6
ATOM      6  C   UNL     1     -20.865  30.328 -42.459  1.00  0.00    -0.000 C 
BRANCH   6   7
ATOM      7  C   UNL     1     -21.391  30.338 -41.013  1.00  0.00    -0.000 C 
BRANCH   7   8
ATOM      8  C   UNL     1     -21.514  28.947 -40.355  1.00  0.00    -0.000 C 
BRANCH   8   9
ATOM      9  C   UNL     1     -20.773  28.788 -39.012  1.00  0.00    -0.000 C 
BRANCH   9  10
ATOM     10  C   UNL     1     -21.677  28.790 -37.766  1.00  0.00    -0.000 C 
BRANCH  10  11
ATOM     11  C   UNL     1     -20.899  29.044 -36.467  1.00  0.00    -0.003 C 
ATOM     12  C   UNL     1     -20.979  30.512 -36.057  1.00  0.00     0.004 C 
ENDBRANCH  10  11
ENDBRANCH   9  10
ENDBRANCH   8   9
ENDBRANCH   7   8
ENDBRANCH   6   7
ENDBRANCH   5   6
ENDBRANCH   4   5
ENDBRANCH   3   4
ENDBRANCH   2   3
ENDBRANCH   1   2
BRANCH   1  13
ATOM     13  C   UNL     1     -19.036  33.201 -39.639  1.00  0.00     0.000 C 
BRANCH  13  14
ATOM     14  C   UNL     1     -20.518  33.609 -39.653  1.00  0.00     0.000 C 
BRANCH  14  15
ATOM     15  C   UNL     1     -21.238  33.287 -38.331  1.00  0.00     0.000 C 
BRANCH  15  16
ATOM     16  C   UNL     1     -22.488  34.168 -38.117  1.00  0.00     0.000 C 
BRANCH  16  17
ATOM     17  C   UNL     1     -23.807  33.377 -38.099  1.00  0.00     0.000 C 
BRANCH  17  18
ATOM     18  C   UNL     1     -23.613  31.879 -38.372  1.00  0.00     0.000 C 
BRANCH  18  19
ATOM     19  C   UNL     1     -24.810  31.294 -39.129  1.00  0.00     0.000 C 
BRANCH  19  20
ATOM     20  C   UNL     1     -24.651  31.493 -40.641  1.00  0.00     0.006 C 
BRANCH  20  21
ATOM     21  C   UNL     1     -25.731  30.732 -41.415  1.00  0.00     0.053 C 
BRANCH  21  22
ATOM     22  C   UNL     1     -25.455  29.262 -41.387  1.00  0.00     0.041 C 
ATOM     23  O   UNL     1     -24.530  28.777 -42.093  1.00  0.00    -0.550 OA
ATOM     24  O   UNL     1     -26.259  28.418 -40.632  1.00  0.00    -0.550 OA
ENDBRANCH  21  22
ENDBRANCH  20  21
ENDBRANCH  19  20
ENDBRANCH  18  19
ENDBRANCH  17  18
ENDBRANCH  16  17
ENDBRANCH  15  16
ENDBRANCH  14  15
ENDBRANCH  13  14
ENDBRANCH   1  13
TORSDOF 20
ENDMDL
