MODEL 1
REMARK VINA RESULT:    -2.869      0.000      0.000
REMARK INTER + INTRA:          -7.932
REMARK INTER:                  -5.553
REMARK INTRA:                  -2.379
REMARK UNBOUND:                -2.379
REMARK SMILES CCCCCCCCCCCCCCCCCC(=O)[O-]
REMARK SMILES IDX 10 1 11 2 12 3 13 4 14 5 15 6 16 7 17 8 18 9 19 10 20 11
REMARK SMILES IDX 9 12 8 13 7 14 6 15 5 16 4 17 3 18 2 19 1 20
REMARK H PARENT
REMARK Flexibility Score: inf
ROOT
ATOM      1  C   UNL     1      -1.090  11.873   8.292  1.00  0.00     0.000 C 
ENDROOT
BRANCH   1   2
ATOM      2  C   UNL     1      -1.796  12.129   9.634  1.00  0.00     0.000 C 
BRANCH   2   3
ATOM      3  C   UNL     1      -1.922  13.625   9.966  1.00  0.00     0.000 C 
BRANCH   3   4
ATOM      4  C   UNL     1      -1.486  13.951  11.403  1.00  0.00     0.000 C 
BRANCH   4   5
ATOM      5  C   UNL     1       0.027  14.208  11.519  1.00  0.00     0.000 C 
BRANCH   5   6
ATOM      6  C   UNL     1       0.378  15.700  11.346  1.00  0.00     0.000 C 
BRANCH   6   7
ATOM      7  C   UNL     1      -0.148  16.592  12.483  1.00  0.00     0.006 C 
BRANCH   7   8
ATOM      8  C   UNL     1      -1.242  17.563  12.023  1.00  0.00     0.053 C 
BRANCH   8   9
ATOM      9  C   UNL     1      -2.331  17.648  13.046  1.00  0.00     0.041 C 
ATOM     10  O   UNL     1      -3.179  18.578  12.992  1.00  0.00    -0.550 OA
ATOM     11  O   UNL     1      -2.436  16.677  14.033  1.00  0.00    -0.550 OA
ENDBRANCH   8   9
ENDBRANCH   7   8
ENDBRANCH   6   7
ENDBRANCH   5   6
ENDBRANCH   4   5
ENDBRANCH   3   4
ENDBRANCH   2   3
ENDBRANCH   1   2
BRANCH   1  12
ATOM     12  C   UNL     1       0.202  11.039   8.426  1.00  0.00     0.000 C 
BRANCH  12  13
ATOM     13  C   UNL     1       0.691  10.956   9.884  1.00  0.00    -0.000 C 
BRANCH  13  14
ATOM     14  C   UNL     1       0.784   9.509  10.395  1.00  0.00    -0.000 C 
BRANCH  14  15
ATOM     15  C   UNL     1       0.596   9.409  11.920  1.00  0.00    -0.000 C 
BRANCH  15  16
ATOM     16  C   UNL     1       0.065  10.712  12.538  1.00  0.00    -0.000 C 
BRANCH  16  17
ATOM     17  C   UNL     1      -1.244  10.506  13.319  1.00  0.00    -0.000 C 
BRANCH  17  18
ATOM     18  C   UNL     1      -2.460  10.292  12.400  1.00  0.00    -0.000 C 
BRANCH  18  19
ATOM     19  C   UNL     1      -3.668  11.198  12.698  1.00  0.00    -0.003 C 
ATOM     20  C   UNL     1      -4.791  11.055  11.672  1.00  0.00     0.004 C 
ENDBRANCH  18  19
ENDBRANCH  17  18
ENDBRANCH  16  17
ENDBRANCH  15  16
ENDBRANCH  14  15
ENDBRANCH  13  14
ENDBRANCH  12  13
ENDBRANCH   1  12
TORSDOF 16
ENDMDL
MODEL 2
REMARK VINA RESULT:    -2.813     13.194     16.361
REMARK INTER + INTRA:          -7.823
REMARK INTER:                  -6.071
REMARK INTRA:                  -1.752
REMARK UNBOUND:                -2.379
REMARK SMILES CCCCCCCCCCCCCCCCCC(=O)[O-]
REMARK SMILES IDX 10 1 11 2 12 3 13 4 14 5 15 6 16 7 17 8 18 9 19 10 20 11
REMARK SMILES IDX 9 12 8 13 7 14 6 15 5 16 4 17 3 18 2 19 1 20
REMARK H PARENT
REMARK Flexibility Score: inf
ROOT
ATOM      1  C   UNL     1     -12.732   9.157   6.622  1.00  0.00     0.000 C 
ENDROOT
BRANCH   1   2
ATOM      2  C   UNL     1     -13.672   9.628   7.744  1.00  0.00     0.000 C 
BRANCH   2   3
ATOM      3  C   UNL     1     -15.139   9.243   7.494  1.00  0.00     0.000 C 
BRANCH   3   4
ATOM      4  C   UNL     1     -16.092  10.445   7.591  1.00  0.00     0.000 C 
BRANCH   4   5
ATOM      5  C   UNL     1     -17.555  10.065   7.306  1.00  0.00     0.000 C 
BRANCH   5   6
ATOM      6  C   UNL     1     -18.494  10.453   8.467  1.00  0.00     0.000 C 
BRANCH   6   7
ATOM      7  C   UNL     1     -17.957  10.051   9.851  1.00  0.00     0.006 C 
BRANCH   7   8
ATOM      8  C   UNL     1     -18.397  11.010  10.965  1.00  0.00     0.053 C 
BRANCH   8   9
ATOM      9  C   UNL     1     -17.206  11.641  11.614  1.00  0.00     0.041 C 
ATOM     10  O   UNL     1     -16.096  11.048  11.613  1.00  0.00    -0.550 OA
ATOM     11  O   UNL     1     -17.312  12.905  12.181  1.00  0.00    -0.550 OA
ENDBRANCH   8   9
ENDBRANCH   7   8
ENDBRANCH   6   7
ENDBRANCH   5   6
ENDBRANCH   4   5
ENDBRANCH   3   4
ENDBRANCH   2   3
ENDBRANCH   1   2
BRANCH   1  12
ATOM     12  C   UNL     1     -11.983  10.310   5.921  1.00  0.00     0.000 C 
BRANCH  12  13
ATOM     13  C   UNL     1     -12.577  10.634   4.539  1.00  0.00    -0.000 C 
BRANCH  13  14
ATOM     14  C   UNL     1     -12.868   9.374   3.710  1.00  0.00    -0.000 C 
BRANCH  14  15
ATOM     15  C   UNL     1     -14.357   9.241   3.341  1.00  0.00    -0.000 C 
BRANCH  15  16
ATOM     16  C   UNL     1     -15.233  10.307   4.018  1.00  0.00    -0.000 C 
BRANCH  16  17
ATOM     17  C   UNL     1     -16.714  10.198   3.614  1.00  0.00    -0.000 C 
BRANCH  17  18
ATOM     18  C   UNL     1     -16.916   9.470   2.273  1.00  0.00    -0.000 C 
BRANCH  18  19
ATOM     19  C   UNL     1     -17.690  10.269   1.209  1.00  0.00    -0.003 C 
ATOM     20  C   UNL     1     -18.339  11.535   1.767  1.00  0.00     0.004 C 
ENDBRANCH  18  19
ENDBRANCH  17  18
ENDBRANCH  16  17
ENDBRANCH  15  16
ENDBRANCH  14  15
ENDBRANCH  13  14
ENDBRANCH  12  13
ENDBRANCH   1  12
TORSDOF 16
ENDMDL
MODEL 3
REMARK VINA RESULT:    -2.809     16.243     18.966
REMARK INTER + INTRA:          -7.815
REMARK INTER:                  -6.118
REMARK INTRA:                  -1.697
REMARK UNBOUND:                -2.379
REMARK SMILES CCCCCCCCCCCCCCCCCC(=O)[O-]
REMARK SMILES IDX 10 1 11 2 12 3 13 4 14 5 15 6 16 7 17 8 18 9 19 10 20 11
REMARK SMILES IDX 9 12 8 13 7 14 6 15 5 16 4 17 3 18 2 19 1 20
REMARK H PARENT
REMARK Flexibility Score: inf
ROOT
ATOM      1  C   UNL     1     -18.085  12.782  -0.366  1.00  0.00     0.000 C 
ENDROOT
BRANCH   1   2
ATOM      2  C   UNL     1     -18.730  11.533   0.259  1.00  0.00     0.000 C 
BRANCH   2   3
ATOM      3  C   UNL     1     -18.021  11.076   1.544  1.00  0.00     0.000 C 
BRANCH   3   4
ATOM      4  C   UNL     1     -17.144   9.834   1.326  1.00  0.00     0.000 C 
BRANCH   4   5
ATOM      5  C   UNL     1     -16.167   9.586   2.489  1.00  0.00     0.000 C 
BRANCH   5   6
ATOM      6  C   UNL     1     -16.391  10.570   3.656  1.00  0.00     0.000 C 
BRANCH   6   7
ATOM      7  C   UNL     1     -15.310  10.487   4.747  1.00  0.00     0.006 C 
BRANCH   7   8
ATOM      8  C   UNL     1     -13.953  10.016   4.209  1.00  0.00     0.053 C 
BRANCH   8   9
ATOM      9  C   UNL     1     -12.844  10.498   5.089  1.00  0.00     0.041 C 
ATOM     10  O   UNL     1     -11.647  10.238   4.799  1.00  0.00    -0.550 OA
ATOM     11  O   UNL     1     -13.130  11.272   6.207  1.00  0.00    -0.550 OA
ENDBRANCH   8   9
ENDBRANCH   7   8
ENDBRANCH   6   7
ENDBRANCH   5   6
ENDBRANCH   4   5
ENDBRANCH   3   4
ENDBRANCH   2   3
ENDBRANCH   1   2
BRANCH   1  12
ATOM     12  C   UNL     1     -17.694  12.596  -1.847  1.00  0.00     0.000 C 
BRANCH  12  13
ATOM     13  C   UNL     1     -16.241  12.113  -2.007  1.00  0.00    -0.000 C 
BRANCH  13  14
ATOM     14  C   UNL     1     -16.148  10.609  -2.311  1.00  0.00    -0.000 C 
BRANCH  14  15
ATOM     15  C   UNL     1     -14.949   9.940  -1.615  1.00  0.00    -0.000 C 
BRANCH  15  16
ATOM     16  C   UNL     1     -13.841   9.534  -2.600  1.00  0.00    -0.000 C 
BRANCH  16  17
ATOM     17  C   UNL     1     -13.025  10.738  -3.100  1.00  0.00    -0.000 C 
BRANCH  17  18
ATOM     18  C   UNL     1     -12.762  10.695  -4.616  1.00  0.00    -0.000 C 
BRANCH  18  19
ATOM     19  C   UNL     1     -13.957  11.106  -5.496  1.00  0.00    -0.003 C 
ATOM     20  C   UNL     1     -14.436  12.531  -5.227  1.00  0.00     0.004 C 
ENDBRANCH  18  19
ENDBRANCH  17  18
ENDBRANCH  16  17
ENDBRANCH  15  16
ENDBRANCH  14  15
ENDBRANCH  13  14
ENDBRANCH  12  13
ENDBRANCH   1  12
TORSDOF 16
ENDMDL
MODEL 4
REMARK VINA RESULT:    -2.791     14.850     17.815
REMARK INTER + INTRA:          -7.780
REMARK INTER:                  -6.267
REMARK INTRA:                  -1.513
REMARK UNBOUND:                -2.379
REMARK SMILES CCCCCCCCCCCCCCCCCC(=O)[O-]
REMARK SMILES IDX 10 1 11 2 12 3 13 4 14 5 15 6 16 7 17 8 18 9 19 10 20 11
REMARK SMILES IDX 9 12 8 13 7 14 6 15 5 16 4 17 3 18 2 19 1 20
REMARK H PARENT
REMARK Flexibility Score: inf
ROOT
ATOM      1  C   UNL     1     -15.546  10.036   3.860  1.00  0.00     0.000 C 
ENDROOT
BRANCH   1   2
ATOM      2  C   UNL     1     -14.630   9.084   3.073  1.00  0.00     0.000 C 
BRANCH   2   3
ATOM      3  C   UNL     1     -13.228   8.959   3.691  1.00  0.00     0.000 C 
BRANCH   3   4
ATOM      4  C   UNL     1     -12.541  10.320   3.882  1.00  0.00     0.000 C 
BRANCH   4   5
ATOM      5  C   UNL     1     -12.023  10.526   5.316  1.00  0.00     0.000 C 
BRANCH   5   6
ATOM      6  C   UNL     1     -12.380   9.343   6.240  1.00  0.00     0.000 C 
BRANCH   6   7
ATOM      7  C   UNL     1     -13.286   9.735   7.420  1.00  0.00     0.006 C 
BRANCH   7   8
ATOM      8  C   UNL     1     -14.698   9.147   7.311  1.00  0.00     0.053 C 
BRANCH   8   9
ATOM      9  C   UNL     1     -15.710  10.111   7.844  1.00  0.00     0.041 C 
ATOM     10  O   UNL     1     -16.171   9.967   9.006  1.00  0.00    -0.550 OA
ATOM     11  O   UNL     1     -16.112  11.194   7.072  1.00  0.00    -0.550 OA
ENDBRANCH   8   9
ENDBRANCH   7   8
ENDBRANCH   6   7
ENDBRANCH   5   6
ENDBRANCH   4   5
ENDBRANCH   3   4
ENDBRANCH   2   3
ENDBRANCH   1   2
BRANCH   1  12
ATOM     12  C   UNL     1     -16.862  10.370   3.125  1.00  0.00     0.000 C 
BRANCH  12  13
ATOM     13  C   UNL     1     -16.866   9.853   1.676  1.00  0.00    -0.000 C 
BRANCH  13  14
ATOM     14  C   UNL     1     -18.285   9.688   1.110  1.00  0.00    -0.000 C 
BRANCH  14  15
ATOM     15  C   UNL     1     -18.418  10.239  -0.322  1.00  0.00    -0.000 C 
BRANCH  15  16
ATOM     16  C   UNL     1     -17.385  11.334  -0.633  1.00  0.00    -0.000 C 
BRANCH  16  17
ATOM     17  C   UNL     1     -18.031  12.717  -0.829  1.00  0.00    -0.000 C 
BRANCH  17  18
ATOM     18  C   UNL     1     -18.674  13.265   0.457  1.00  0.00    -0.000 C 
BRANCH  18  19
ATOM     19  C   UNL     1     -18.559  14.788   0.644  1.00  0.00    -0.003 C 
ATOM     20  C   UNL     1     -18.706  15.565  -0.664  1.00  0.00     0.004 C 
ENDBRANCH  18  19
ENDBRANCH  17  18
ENDBRANCH  16  17
ENDBRANCH  15  16
ENDBRANCH  14  15
ENDBRANCH  13  14
ENDBRANCH  12  13
ENDBRANCH   1  12
TORSDOF 16
ENDMDL
MODEL 5
REMARK VINA RESULT:    -2.787     16.039     18.868
REMARK INTER + INTRA:          -7.773
REMARK INTER:                  -6.339
REMARK INTRA:                  -1.434
REMARK UNBOUND:                -2.379
REMARK SMILES CCCCCCCCCCCCCCCCCC(=O)[O-]
REMARK SMILES IDX 10 1 11 2 12 3 13 4 14 5 15 6 16 7 17 8 18 9 19 10 20 11
REMARK SMILES IDX 9 12 8 13 7 14 6 15 5 16 4 17 3 18 2 19 1 20
REMARK H PARENT
REMARK Flexibility Score: inf
ROOT
ATOM      1  C   UNL     1     -18.650  12.984   0.950  1.00  0.00     0.000 C 
ENDROOT
BRANCH   1   2
ATOM      2  C   UNL     1     -18.871  11.474   0.759  1.00  0.00     0.000 C 
BRANCH   2   3
ATOM      3  C   UNL     1     -17.649  10.636   1.169  1.00  0.00     0.000 C 
BRANCH   3   4
ATOM      4  C   UNL     1     -17.379  10.682   2.681  1.00  0.00     0.000 C 
BRANCH   4   5
ATOM      5  C   UNL     1     -16.143   9.861   3.088  1.00  0.00     0.000 C 
BRANCH   5   6
ATOM      6  C   UNL     1     -15.774  10.063   4.572  1.00  0.00     0.000 C 
BRANCH   6   7
ATOM      7  C   UNL     1     -14.510  10.914   4.781  1.00  0.00     0.006 C 
BRANCH   7   8
ATOM      8  C   UNL     1     -13.288  10.364   4.035  1.00  0.00     0.053 C 
BRANCH   8   9
ATOM      9  C   UNL     1     -12.097  10.320   4.938  1.00  0.00     0.041 C 
ATOM     10  O   UNL     1     -11.582   9.216   5.254  1.00  0.00    -0.550 OA
ATOM     11  O   UNL     1     -11.529  11.502   5.398  1.00  0.00    -0.550 OA
ENDBRANCH   8   9
ENDBRANCH   7   8
ENDBRANCH   6   7
ENDBRANCH   5   6
ENDBRANCH   4   5
ENDBRANCH   3   4
ENDBRANCH   2   3
ENDBRANCH   1   2
BRANCH   1  12
ATOM     12  C   UNL     1     -18.470  13.752  -0.377  1.00  0.00     0.000 C 
BRANCH  12  13
ATOM     13  C   UNL     1     -18.790  12.877  -1.602  1.00  0.00    -0.000 C 
BRANCH  13  14
ATOM     14  C   UNL     1     -17.625  12.811  -2.603  1.00  0.00    -0.000 C 
BRANCH  14  15
ATOM     15  C   UNL     1     -16.356  12.189  -1.991  1.00  0.00    -0.000 C 
BRANCH  15  16
ATOM     16  C   UNL     1     -16.100  10.757  -2.487  1.00  0.00    -0.000 C 
BRANCH  16  17
ATOM     17  C   UNL     1     -15.186   9.959  -1.541  1.00  0.00    -0.000 C 
BRANCH  17  18
ATOM     18  C   UNL     1     -13.865   9.532  -2.204  1.00  0.00    -0.000 C 
BRANCH  18  19
ATOM     19  C   UNL     1     -13.008  10.688  -2.750  1.00  0.00    -0.003 C 
ATOM     20  C   UNL     1     -12.805  10.620  -4.263  1.00  0.00     0.004 C 
ENDBRANCH  18  19
ENDBRANCH  17  18
ENDBRANCH  16  17
ENDBRANCH  15  16
ENDBRANCH  14  15
ENDBRANCH  13  14
ENDBRANCH  12  13
ENDBRANCH   1  12
TORSDOF 16
ENDMDL
MODEL 6
REMARK VINA RESULT:    -2.778      2.395      5.856
REMARK INTER + INTRA:          -7.755
REMARK INTER:                  -5.379
REMARK INTRA:                  -2.376
REMARK UNBOUND:                -2.379
REMARK SMILES CCCCCCCCCCCCCCCCCC(=O)[O-]
REMARK SMILES IDX 10 1 11 2 12 3 13 4 14 5 15 6 16 7 17 8 18 9 19 10 20 11
REMARK SMILES IDX 9 12 8 13 7 14 6 15 5 16 4 17 3 18 2 19 1 20
REMARK H PARENT
REMARK Flexibility Score: inf
ROOT
ATOM      1  C   UNL     1      -0.814  12.333   9.213  1.00  0.00     0.000 C 
ENDROOT
BRANCH   1   2
ATOM      2  C   UNL     1      -1.106  11.193   8.223  1.00  0.00     0.000 C 
BRANCH   2   3
ATOM      3  C   UNL     1      -0.261   9.938   8.492  1.00  0.00     0.000 C 
BRANCH   3   4
ATOM      4  C   UNL     1       0.313   9.905   9.917  1.00  0.00     0.000 C 
BRANCH   4   5
ATOM      5  C   UNL     1      -0.479   8.974  10.853  1.00  0.00     0.000 C 
BRANCH   5   6
ATOM      6  C   UNL     1      -0.817   9.652  12.197  1.00  0.00     0.000 C 
BRANCH   6   7
ATOM      7  C   UNL     1      -2.315   9.615  12.544  1.00  0.00     0.006 C 
BRANCH   7   8
ATOM      8  C   UNL     1      -3.218   9.690  11.307  1.00  0.00     0.053 C 
BRANCH   8   9
ATOM      9  C   UNL     1      -4.465  10.456  11.613  1.00  0.00     0.041 C 
ATOM     10  O   UNL     1      -4.401  11.543  12.245  1.00  0.00    -0.550 OA
ATOM     11  O   UNL     1      -5.695   9.992  11.164  1.00  0.00    -0.550 OA
ENDBRANCH   8   9
ENDBRANCH   7   8
ENDBRANCH   6   7
ENDBRANCH   5   6
ENDBRANCH   4   5
ENDBRANCH   3   4
ENDBRANCH   2   3
ENDBRANCH   1   2
BRANCH   1  12
ATOM     12  C   UNL     1      -2.060  12.805   9.993  1.00  0.00     0.000 C 
BRANCH  12  13
ATOM     13  C   UNL     1      -1.704  13.811  11.103  1.00  0.00    -0.000 C 
BRANCH  13  14
ATOM     14  C   UNL     1      -0.915  13.166  12.254  1.00  0.00    -0.000 C 
BRANCH  14  15
ATOM     15  C   UNL     1       0.409  13.897  12.543  1.00  0.00    -0.000 C 
BRANCH  15  16
ATOM     16  C   UNL     1       0.770  14.922  11.456  1.00  0.00    -0.000 C 
BRANCH  16  17
ATOM     17  C   UNL     1       0.906  16.350  12.012  1.00  0.00    -0.000 C 
BRANCH  17  18
ATOM     18  C   UNL     1      -0.337  16.808  12.794  1.00  0.00    -0.000 C 
BRANCH  18  19
ATOM     19  C   UNL     1      -1.464  17.406  11.933  1.00  0.00    -0.003 C 
ATOM     20  C   UNL     1      -2.210  18.544  12.629  1.00  0.00     0.004 C 
ENDBRANCH  18  19
ENDBRANCH  17  18
ENDBRANCH  16  17
ENDBRANCH  15  16
ENDBRANCH  14  15
ENDBRANCH  13  14
ENDBRANCH  12  13
ENDBRANCH   1  12
TORSDOF 16
ENDMDL
MODEL 7
REMARK VINA RESULT:    -2.754     13.503     16.559
REMARK INTER + INTRA:          -7.709
REMARK INTER:                  -5.864
REMARK INTRA:                  -1.845
REMARK UNBOUND:                -2.379
REMARK SMILES CCCCCCCCCCCCCCCCCC(=O)[O-]
REMARK SMILES IDX 10 1 11 2 12 3 13 4 14 5 15 6 16 7 17 8 18 9 19 10 20 11
REMARK SMILES IDX 9 12 8 13 7 14 6 15 5 16 4 17 3 18 2 19 1 20
REMARK H PARENT
REMARK Flexibility Score: inf
ROOT
ATOM      1  C   UNL     1     -12.465  10.646   4.327  1.00  0.00     0.000 C 
ENDROOT
BRANCH   1   2
ATOM      2  C   UNL     1     -12.058  10.628   5.809  1.00  0.00     0.000 C 
BRANCH   2   3
ATOM      3  C   UNL     1     -12.475   9.335   6.527  1.00  0.00     0.000 C 
BRANCH   3   4
ATOM      4  C   UNL     1     -13.381   9.596   7.740  1.00  0.00     0.000 C 
BRANCH   4   5
ATOM      5  C   UNL     1     -14.833   9.146   7.503  1.00  0.00     0.000 C 
BRANCH   5   6
ATOM      6  C   UNL     1     -15.793  10.343   7.339  1.00  0.00     0.000 C 
BRANCH   6   7
ATOM      7  C   UNL     1     -16.899  10.395   8.406  1.00  0.00     0.006 C 
BRANCH   7   8
ATOM      8  C   UNL     1     -16.349  10.373   9.838  1.00  0.00     0.053 C 
BRANCH   8   9
ATOM      9  C   UNL     1     -17.390  10.839  10.806  1.00  0.00     0.041 C 
ATOM     10  O   UNL     1     -18.474  10.209  10.921  1.00  0.00    -0.550 OA
ATOM     11  O   UNL     1     -17.145  11.942  11.614  1.00  0.00    -0.550 OA
ENDBRANCH   8   9
ENDBRANCH   7   8
ENDBRANCH   6   7
ENDBRANCH   5   6
ENDBRANCH   4   5
ENDBRANCH   3   4
ENDBRANCH   2   3
ENDBRANCH   1   2
BRANCH   1  12
ATOM     12  C   UNL     1     -12.611   9.238   3.711  1.00  0.00     0.000 C 
BRANCH  12  13
ATOM     13  C   UNL     1     -13.933   9.076   2.940  1.00  0.00    -0.000 C 
BRANCH  13  14
ATOM     14  C   UNL     1     -15.160   9.058   3.865  1.00  0.00    -0.000 C 
BRANCH  14  15
ATOM     15  C   UNL     1     -16.044  10.307   3.696  1.00  0.00    -0.000 C 
BRANCH  15  16
ATOM     16  C   UNL     1     -17.435   9.976   3.130  1.00  0.00    -0.000 C 
BRANCH  16  17
ATOM     17  C   UNL     1     -17.736  10.733   1.825  1.00  0.00    -0.000 C 
BRANCH  17  18
ATOM     18  C   UNL     1     -17.770   9.812   0.593  1.00  0.00    -0.000 C 
BRANCH  18  19
ATOM     19  C   UNL     1     -16.686  10.096  -0.462  1.00  0.00    -0.003 C 
ATOM     20  C   UNL     1     -15.519   9.112  -0.401  1.00  0.00     0.004 C 
ENDBRANCH  18  19
ENDBRANCH  17  18
ENDBRANCH  16  17
ENDBRANCH  15  16
ENDBRANCH  14  15
ENDBRANCH  13  14
ENDBRANCH  12  13
ENDBRANCH   1  12
TORSDOF 16
ENDMDL
MODEL 8
REMARK VINA RESULT:    -2.735     13.973     16.644
REMARK INTER + INTRA:          -7.671
REMARK INTER:                  -5.637
REMARK INTRA:                  -2.034
REMARK UNBOUND:                -2.379
REMARK SMILES CCCCCCCCCCCCCCCCCC(=O)[O-]
REMARK SMILES IDX 10 1 11 2 12 3 13 4 14 5 15 6 16 7 17 8 18 9 19 10 20 11
REMARK SMILES IDX 9 12 8 13 7 14 6 15 5 16 4 17 3 18 2 19 1 20
REMARK H PARENT
REMARK Flexibility Score: inf
ROOT
ATOM      1  C   UNL     1     -11.881  10.632   4.953  1.00  0.00     0.000 C 
ENDROOT
BRANCH   1   2
ATOM      2  C   UNL     1     -12.070   9.254   4.297  1.00  0.00     0.000 C 
BRANCH   2   3
ATOM      3  C   UNL     1     -13.132   9.262   3.186  1.00  0.00     0.000 C 
BRANCH   3   4
ATOM      4  C   UNL     1     -14.547   8.987   3.718  1.00  0.00     0.000 C 
BRANCH   4   5
ATOM      5  C   UNL     1     -15.352  10.277   3.955  1.00  0.00     0.000 C 
BRANCH   5   6
ATOM      6  C   UNL     1     -16.872  10.013   4.012  1.00  0.00     0.000 C 
BRANCH   6   7
ATOM      7  C   UNL     1     -17.470   9.577   2.663  1.00  0.00     0.006 C 
BRANCH   7   8
ATOM      8  C   UNL     1     -17.955  10.759   1.814  1.00  0.00     0.053 C 
BRANCH   8   9
ATOM      9  C   UNL     1     -17.413  10.662   0.423  1.00  0.00     0.041 C 
ATOM     10  O   UNL     1     -16.635   9.723   0.111  1.00  0.00    -0.550 OA
ATOM     11  O   UNL     1     -17.802  11.584  -0.540  1.00  0.00    -0.550 OA
ENDBRANCH   8   9
ENDBRANCH   7   8
ENDBRANCH   6   7
ENDBRANCH   5   6
ENDBRANCH   4   5
ENDBRANCH   3   4
ENDBRANCH   2   3
ENDBRANCH   1   2
BRANCH   1  12
ATOM     12  C   UNL     1     -12.532  10.744   6.348  1.00  0.00     0.000 C 
BRANCH  12  13
ATOM     13  C   UNL     1     -12.761   9.366   6.994  1.00  0.00    -0.000 C 
BRANCH  13  14
ATOM     14  C   UNL     1     -13.840   9.398   8.089  1.00  0.00    -0.000 C 
BRANCH  14  15
ATOM     15  C   UNL     1     -15.264   9.276   7.517  1.00  0.00    -0.000 C 
BRANCH  15  16
ATOM     16  C   UNL     1     -16.072  10.576   7.654  1.00  0.00    -0.000 C 
BRANCH  16  17
ATOM     17  C   UNL     1     -17.364  10.386   8.466  1.00  0.00    -0.000 C 
BRANCH  17  18
ATOM     18  C   UNL     1     -17.121   9.713   9.829  1.00  0.00    -0.000 C 
BRANCH  18  19
ATOM     19  C   UNL     1     -16.679  10.663  10.955  1.00  0.00    -0.003 C 
ATOM     20  C   UNL     1     -15.249  10.406  11.429  1.00  0.00     0.004 C 
ENDBRANCH  18  19
ENDBRANCH  17  18
ENDBRANCH  16  17
ENDBRANCH  15  16
ENDBRANCH  14  15
ENDBRANCH  13  14
ENDBRANCH  12  13
ENDBRANCH   1  12
TORSDOF 16
ENDMDL
MODEL 9
REMARK VINA RESULT:    -2.726     14.918     17.808
REMARK INTER + INTRA:          -7.655
REMARK INTER:                  -6.294
REMARK INTRA:                  -1.362
REMARK UNBOUND:                -2.379
REMARK SMILES CCCCCCCCCCCCCCCCCC(=O)[O-]
REMARK SMILES IDX 10 1 11 2 12 3 13 4 14 5 15 6 16 7 17 8 18 9 19 10 20 11
REMARK SMILES IDX 9 12 8 13 7 14 6 15 5 16 4 17 3 18 2 19 1 20
REMARK H PARENT
REMARK Flexibility Score: inf
ROOT
ATOM      1  C   UNL     1     -16.063   9.939   3.435  1.00  0.00     0.000 C 
ENDROOT
BRANCH   1   2
ATOM      2  C   UNL     1     -14.924   9.076   2.869  1.00  0.00     0.000 C 
BRANCH   2   3
ATOM      3  C   UNL     1     -13.754   8.910   3.852  1.00  0.00     0.000 C 
BRANCH   3   4
ATOM      4  C   UNL     1     -12.777  10.095   3.815  1.00  0.00     0.000 C 
BRANCH   4   5
ATOM      5  C   UNL     1     -12.341  10.548   5.220  1.00  0.00     0.000 C 
BRANCH   5   6
ATOM      6  C   UNL     1     -12.485   9.422   6.265  1.00  0.00     0.000 C 
BRANCH   6   7
ATOM      7  C   UNL     1     -13.410   9.788   7.438  1.00  0.00     0.006 C 
BRANCH   7   8
ATOM      8  C   UNL     1     -14.870   9.386   7.196  1.00  0.00     0.053 C 
BRANCH   8   9
ATOM      9  C   UNL     1     -15.766  10.580   7.296  1.00  0.00     0.041 C 
ATOM     10  O   UNL     1     -15.653  11.527   6.474  1.00  0.00    -0.550 OA
ATOM     11  O   UNL     1     -16.755  10.627   8.270  1.00  0.00    -0.550 OA
ENDBRANCH   8   9
ENDBRANCH   7   8
ENDBRANCH   6   7
ENDBRANCH   5   6
ENDBRANCH   4   5
ENDBRANCH   3   4
ENDBRANCH   2   3
ENDBRANCH   1   2
BRANCH   1  12
ATOM     12  C   UNL     1     -17.174  10.244   2.408  1.00  0.00     0.000 C 
BRANCH  12  13
ATOM     13  C   UNL     1     -16.865   9.646   1.024  1.00  0.00    -0.000 C 
BRANCH  13  14
ATOM     14  C   UNL     1     -17.695  10.289  -0.098  1.00  0.00    -0.000 C 
BRANCH  14  15
ATOM     15  C   UNL     1     -16.817  10.895  -1.209  1.00  0.00    -0.000 C 
BRANCH  15  16
ATOM     16  C   UNL     1     -15.551  10.066  -1.482  1.00  0.00    -0.000 C 
BRANCH  16  17
ATOM     17  C   UNL     1     -14.647  10.704  -2.550  1.00  0.00    -0.000 C 
BRANCH  17  18
ATOM     18  C   UNL     1     -14.956  12.194  -2.784  1.00  0.00    -0.000 C 
BRANCH  18  19
ATOM     19  C   UNL     1     -15.208  12.584  -4.251  1.00  0.00    -0.003 C 
ATOM     20  C   UNL     1     -14.241  11.911  -5.224  1.00  0.00     0.004 C 
ENDBRANCH  18  19
ENDBRANCH  17  18
ENDBRANCH  16  17
ENDBRANCH  15  16
ENDBRANCH  14  15
ENDBRANCH  13  14
ENDBRANCH  12  13
ENDBRANCH   1  12
TORSDOF 16
ENDMDL
