MODEL 1
REMARK VINA RESULT:    -5.840      0.000      0.000
REMARK INTER + INTRA:          -6.739
REMARK INTER:                  -6.181
REMARK INTRA:                  -0.558
REMARK UNBOUND:                -0.558
REMARK SMILES CC1=C[C@@H]2C(=C(C)CC[C@@H]2C(C)C)CC1
REMARK SMILES IDX 1 1 2 2 3 3 4 4 10 5 9 6 8 7 6 8 5 9 14 10 15 11 7 12 11 13
REMARK SMILES IDX 12 14 13 15
REMARK H PARENT
REMARK Flexibility Score: inf
ROOT
ATOM      1  C   UNL     1     107.497 100.382 129.554  1.00  0.00     0.039 C 
ATOM      2  C   UNL     1     106.896 101.101 128.378  1.00  0.00    -0.076 C 
ATOM      3  C   UNL     1     105.618 101.520 128.439  1.00  0.00    -0.020 C 
ATOM      4  C   UNL     1     104.929 102.227 127.289  1.00  0.00     0.041 C 
ATOM      5  C   UNL     1     104.592 103.750 127.531  1.00  0.00     0.003 C 
ATOM      6  C   UNL     1     104.244 104.465 126.176  1.00  0.00     0.009 C 
ATOM      7  C   UNL     1     103.869 103.483 125.057  1.00  0.00     0.031 C 
ATOM      8  C   UNL     1     105.034 102.539 124.845  1.00  0.00    -0.073 C 
ATOM      9  C   UNL     1     105.619 102.004 125.946  1.00  0.00    -0.064 C 
ATOM     10  C   UNL     1     106.868 101.146 125.878  1.00  0.00     0.036 C 
ATOM     11  C   UNL     1     107.715 101.346 127.135  1.00  0.00     0.035 C 
ATOM     12  C   UNL     1     105.563 102.308 123.451  1.00  0.00     0.039 C 
ENDROOT
BRANCH   5  13
ATOM     13  C   UNL     1     105.662 104.522 128.404  1.00  0.00    -0.013 C 
ATOM     14  C   UNL     1     105.044 105.767 129.074  1.00  0.00     0.007 C 
ATOM     15  C   UNL     1     106.912 104.995 127.629  1.00  0.00     0.007 C 
ENDBRANCH   5  13
TORSDOF 1
ENDMDL
MODEL 2
REMARK VINA RESULT:    -5.839      3.130      6.135
REMARK INTER + INTRA:          -6.739
REMARK INTER:                  -6.178
REMARK INTRA:                  -0.560
REMARK UNBOUND:                -0.558
REMARK SMILES CC1=C[C@@H]2C(=C(C)CC[C@@H]2C(C)C)CC1
REMARK SMILES IDX 1 1 2 2 3 3 4 4 10 5 9 6 8 7 6 8 5 9 14 10 15 11 7 12 11 13
REMARK SMILES IDX 12 14 13 15
REMARK H PARENT
REMARK Flexibility Score: inf
ROOT
ATOM      1  C   UNL     1     104.966 109.741 128.439  1.00  0.00     0.039 C 
ATOM      2  C   UNL     1     104.074 108.545 128.248  1.00  0.00    -0.076 C 
ATOM      3  C   UNL     1     103.568 108.283 127.028  1.00  0.00    -0.020 C 
ATOM      4  C   UNL     1     102.640 107.115 126.757  1.00  0.00     0.041 C 
ATOM      5  C   UNL     1     103.244 105.959 125.869  1.00  0.00     0.003 C 
ATOM      6  C   UNL     1     102.363 104.662 125.970  1.00  0.00     0.009 C 
ATOM      7  C   UNL     1     100.948 104.935 126.497  1.00  0.00     0.031 C 
ATOM      8  C   UNL     1     101.068 105.573 127.865  1.00  0.00    -0.073 C 
ATOM      9  C   UNL     1     101.972 106.574 128.017  1.00  0.00    -0.064 C 
ATOM     10  C   UNL     1     102.277 107.208 129.361  1.00  0.00     0.036 C 
ATOM     11  C   UNL     1     103.739 107.650 129.416  1.00  0.00     0.035 C 
ATOM     12  C   UNL     1     100.268 105.019 129.018  1.00  0.00     0.039 C 
ENDROOT
BRANCH   5  13
ATOM     13  C   UNL     1     104.789 105.702 126.097  1.00  0.00    -0.013 C 
ATOM     14  C   UNL     1     105.436 105.051 124.856  1.00  0.00     0.007 C 
ATOM     15  C   UNL     1     105.124 104.806 127.309  1.00  0.00     0.007 C 
ENDBRANCH   5  13
TORSDOF 1
ENDMDL
MODEL 3
REMARK VINA RESULT:    -5.829      3.902      5.655
REMARK INTER + INTRA:          -6.728
REMARK INTER:                  -6.171
REMARK INTRA:                  -0.556
REMARK UNBOUND:                -0.558
REMARK SMILES CC1=C[C@@H]2C(=C(C)CC[C@@H]2C(C)C)CC1
REMARK SMILES IDX 1 1 2 2 3 3 4 4 10 5 9 6 8 7 6 8 5 9 14 10 15 11 7 12 11 13
REMARK SMILES IDX 12 14 13 15
REMARK H PARENT
REMARK Flexibility Score: inf
ROOT
ATOM      1  C   UNL     1     112.019 107.498 129.513  1.00  0.00     0.039 C 
ATOM      2  C   UNL     1     111.323 106.881 128.331  1.00  0.00    -0.076 C 
ATOM      3  C   UNL     1     110.948 105.589 128.382  1.00  0.00    -0.020 C 
ATOM      4  C   UNL     1     110.267 104.884 127.226  1.00  0.00     0.041 C 
ATOM      5  C   UNL     1     108.756 104.495 127.461  1.00  0.00     0.003 C 
ATOM      6  C   UNL     1     108.057 104.131 126.102  1.00  0.00     0.009 C 
ATOM      7  C   UNL     1     109.053 103.798 124.983  1.00  0.00     0.031 C 
ATOM      8  C   UNL     1     109.957 104.996 124.782  1.00  0.00    -0.073 C 
ATOM      9  C   UNL     1     110.470 105.591 125.888  1.00  0.00    -0.064 C 
ATOM     10  C   UNL     1     111.285 106.869 125.830  1.00  0.00     0.036 C 
ATOM     11  C   UNL     1     111.053 107.700 127.092  1.00  0.00     0.035 C 
ATOM     12  C   UNL     1     110.173 105.541 123.392  1.00  0.00     0.039 C 
ENDROOT
BRANCH   5  13
ATOM     13  C   UNL     1     107.946 105.532 128.340  1.00  0.00    -0.013 C 
ATOM     14  C   UNL     1     106.710 104.872 128.987  1.00  0.00     0.007 C 
ATOM     15  C   UNL     1     107.448 106.779 127.576  1.00  0.00     0.007 C 
ENDBRANCH   5  13
TORSDOF 1
ENDMDL
MODEL 4
REMARK VINA RESULT:    -5.811      3.768      6.125
REMARK INTER + INTRA:          -6.709
REMARK INTER:                  -6.150
REMARK INTRA:                  -0.560
REMARK UNBOUND:                -0.558
REMARK SMILES CC1=C[C@@H]2C(=C(C)CC[C@@H]2C(C)C)CC1
REMARK SMILES IDX 1 1 2 2 3 3 4 4 10 5 9 6 8 7 6 8 5 9 14 10 15 11 7 12 11 13
REMARK SMILES IDX 12 14 13 15
REMARK H PARENT
REMARK Flexibility Score: inf
ROOT
ATOM      1  C   UNL     1     107.484 102.728 128.187  1.00  0.00     0.039 C 
ATOM      2  C   UNL     1     108.416 103.903 128.073  1.00  0.00    -0.076 C 
ATOM      3  C   UNL     1     109.026 104.155 126.900  1.00  0.00    -0.020 C 
ATOM      4  C   UNL     1     109.999 105.301 126.709  1.00  0.00     0.041 C 
ATOM      5  C   UNL     1     109.498 106.470 125.776  1.00  0.00     0.003 C 
ATOM      6  C   UNL     1     110.396 107.747 125.952  1.00  0.00     0.009 C 
ATOM      7  C   UNL     1     111.757 107.442 126.594  1.00  0.00     0.031 C 
ATOM      8  C   UNL     1     111.509 106.807 127.947  1.00  0.00    -0.073 C 
ATOM      9  C   UNL     1     110.573 105.827 128.021  1.00  0.00    -0.064 C 
ATOM     10  C   UNL     1     110.144 105.199 129.334  1.00  0.00     0.036 C 
ATOM     11  C   UNL     1     108.672 104.791 129.267  1.00  0.00     0.035 C 
ATOM     12  C   UNL     1     112.223 107.342 129.163  1.00  0.00     0.039 C 
ENDROOT
BRANCH   5  13
ATOM     13  C   UNL     1     107.946 106.762 125.875  1.00  0.00    -0.013 C 
ATOM     14  C   UNL     1     107.410 107.391 124.572  1.00  0.00     0.007 C 
ATOM     15  C   UNL     1     107.535 107.697 127.034  1.00  0.00     0.007 C 
ENDBRANCH   5  13
TORSDOF 1
ENDMDL
MODEL 5
REMARK VINA RESULT:    -5.808      5.230      7.690
REMARK INTER + INTRA:          -6.706
REMARK INTER:                  -6.146
REMARK INTRA:                  -0.560
REMARK UNBOUND:                -0.558
REMARK SMILES CC1=C[C@@H]2C(=C(C)CC[C@@H]2C(C)C)CC1
REMARK SMILES IDX 1 1 2 2 3 3 4 4 10 5 9 6 8 7 6 8 5 9 14 10 15 11 7 12 11 13
REMARK SMILES IDX 12 14 13 15
REMARK H PARENT
REMARK Flexibility Score: inf
ROOT
ATOM      1  C   UNL     1     109.802 107.521 128.196  1.00  0.00     0.039 C 
ATOM      2  C   UNL     1     108.600 108.415 128.068  1.00  0.00    -0.076 C 
ATOM      3  C   UNL     1     108.367 109.052 126.905  1.00  0.00    -0.020 C 
ATOM      4  C   UNL     1     107.195 109.992 126.701  1.00  0.00     0.041 C 
ATOM      5  C   UNL     1     106.076 109.479 125.714  1.00  0.00     0.003 C 
ATOM      6  C   UNL     1     104.764 110.329 125.871  1.00  0.00     0.009 C 
ATOM      7  C   UNL     1     105.000 111.679 126.563  1.00  0.00     0.031 C 
ATOM      8  C   UNL     1     105.597 111.413 127.929  1.00  0.00    -0.073 C 
ATOM      9  C   UNL     1     106.606 110.508 128.010  1.00  0.00    -0.064 C 
ATOM     10  C   UNL     1     107.203 110.061 129.331  1.00  0.00     0.036 C 
ATOM     11  C   UNL     1     107.664 108.606 129.236  1.00  0.00     0.035 C 
ATOM     12  C   UNL     1     104.996 112.071 129.146  1.00  0.00     0.039 C 
ENDROOT
BRANCH   5  13
ATOM     13  C   UNL     1     105.835 107.916 125.759  1.00  0.00    -0.013 C 
ATOM     14  C   UNL     1     105.250 107.402 124.426  1.00  0.00     0.007 C 
ATOM     15  C   UNL     1     104.892 107.438 126.884  1.00  0.00     0.007 C 
ENDBRANCH   5  13
TORSDOF 1
ENDMDL
MODEL 6
REMARK VINA RESULT:    -5.796      1.427      4.093
REMARK INTER + INTRA:          -6.694
REMARK INTER:                  -6.134
REMARK INTRA:                  -0.560
REMARK UNBOUND:                -0.558
REMARK SMILES CC1=C[C@@H]2C(=C(C)CC[C@@H]2C(C)C)CC1
REMARK SMILES IDX 1 1 2 2 3 3 4 4 10 5 9 6 8 7 6 8 5 9 14 10 15 11 7 12 11 13
REMARK SMILES IDX 12 14 13 15
REMARK H PARENT
REMARK Flexibility Score: inf
ROOT
ATOM      1  C   UNL     1     102.760 105.028 128.162  1.00  0.00     0.039 C 
ATOM      2  C   UNL     1     103.940 104.102 128.049  1.00  0.00    -0.076 C 
ATOM      3  C   UNL     1     104.181 103.475 126.882  1.00  0.00    -0.020 C 
ATOM      4  C   UNL     1     105.331 102.506 126.693  1.00  0.00     0.041 C 
ATOM      5  C   UNL     1     106.487 103.000 125.739  1.00  0.00     0.003 C 
ATOM      6  C   UNL     1     107.771 102.113 125.914  1.00  0.00     0.009 C 
ATOM      7  C   UNL     1     107.482 100.760 126.581  1.00  0.00     0.031 C 
ATOM      8  C   UNL     1     106.861 101.025 127.936  1.00  0.00    -0.073 C 
ATOM      9  C   UNL     1     105.876 101.956 128.008  1.00  0.00    -0.064 C 
ATOM     10  C   UNL     1     105.261 102.402 129.321  1.00  0.00     0.036 C 
ATOM     11  C   UNL     1     104.843 103.870 129.235  1.00  0.00     0.035 C 
ATOM     12  C   UNL     1     107.415 100.333 129.157  1.00  0.00     0.039 C 
ENDROOT
BRANCH   5  13
ATOM     13  C   UNL     1     106.770 104.555 125.811  1.00  0.00    -0.013 C 
ATOM     14  C   UNL     1     107.416 105.067 124.506  1.00  0.00     0.007 C 
ATOM     15  C   UNL     1     107.685 104.994 126.975  1.00  0.00     0.007 C 
ENDBRANCH   5  13
TORSDOF 1
ENDMDL
MODEL 7
REMARK VINA RESULT:    -5.777      5.039      7.824
REMARK INTER + INTRA:          -6.673
REMARK INTER:                  -6.113
REMARK INTRA:                  -0.559
REMARK UNBOUND:                -0.558
REMARK SMILES CC1=C[C@@H]2C(=C(C)CC[C@@H]2C(C)C)CC1
REMARK SMILES IDX 1 1 2 2 3 3 4 4 10 5 9 6 8 7 6 8 5 9 14 10 15 11 7 12 11 13
REMARK SMILES IDX 12 14 13 15
REMARK H PARENT
REMARK Flexibility Score: inf
ROOT
ATOM      1  C   UNL     1     104.837 112.238 129.355  1.00  0.00     0.039 C 
ATOM      2  C   UNL     1     105.518 111.362 128.339  1.00  0.00    -0.076 C 
ATOM      3  C   UNL     1     106.698 110.789 128.642  1.00  0.00    -0.020 C 
ATOM      4  C   UNL     1     107.462 109.916 127.666  1.00  0.00     0.041 C 
ATOM      5  C   UNL     1     107.539 108.385 128.040  1.00  0.00     0.003 C 
ATOM      6  C   UNL     1     108.003 107.533 126.804  1.00  0.00     0.009 C 
ATOM      7  C   UNL     1     108.691 108.373 125.718  1.00  0.00     0.031 C 
ATOM      8  C   UNL     1     107.719 109.440 125.261  1.00  0.00    -0.073 C 
ATOM      9  C   UNL     1     107.041 110.126 126.215  1.00  0.00    -0.064 C 
ATOM     10  C   UNL     1     105.951 111.130 125.887  1.00  0.00     0.036 C 
ATOM     11  C   UNL     1     104.889 111.133 126.987  1.00  0.00     0.035 C 
ATOM     12  C   UNL     1     107.465 109.634 123.786  1.00  0.00     0.039 C 
ENDROOT
BRANCH   5  13
ATOM     13  C   UNL     1     106.243 107.823 128.753  1.00  0.00    -0.013 C 
ATOM     14  C   UNL     1     106.570 106.586 129.615  1.00  0.00     0.007 C 
ATOM     15  C   UNL     1     105.100 107.420 127.795  1.00  0.00     0.007 C 
ENDBRANCH   5  13
TORSDOF 1
ENDMDL
MODEL 8
REMARK VINA RESULT:    -5.759      3.697      5.612
REMARK INTER + INTRA:          -6.655
REMARK INTER:                  -6.095
REMARK INTRA:                  -0.559
REMARK UNBOUND:                -0.558
REMARK SMILES CC1=C[C@@H]2C(=C(C)CC[C@@H]2C(C)C)CC1
REMARK SMILES IDX 1 1 2 2 3 3 4 4 10 5 9 6 8 7 6 8 5 9 14 10 15 11 7 12 11 13
REMARK SMILES IDX 12 14 13 15
REMARK H PARENT
REMARK Flexibility Score: inf
ROOT
ATOM      1  C   UNL     1     100.325 104.873 129.357  1.00  0.00     0.039 C 
ATOM      2  C   UNL     1     101.165 105.541 128.304  1.00  0.00    -0.076 C 
ATOM      3  C   UNL     1     101.689 106.757 128.546  1.00  0.00    -0.020 C 
ATOM      4  C   UNL     1     102.524 107.510 127.529  1.00  0.00     0.041 C 
ATOM      5  C   UNL     1     104.052 107.670 127.887  1.00  0.00     0.003 C 
ATOM      6  C   UNL     1     104.876 108.111 126.624  1.00  0.00     0.009 C 
ATOM      7  C   UNL     1     104.001 108.710 125.513  1.00  0.00     0.031 C 
ATOM      8  C   UNL     1     102.974 107.673 125.110  1.00  0.00    -0.073 C 
ATOM      9  C   UNL     1     102.323 107.012 126.100  1.00  0.00    -0.064 C 
ATOM     10  C   UNL     1     101.364 105.867 125.832  1.00  0.00     0.036 C 
ATOM     11  C   UNL     1     101.413 104.859 126.980  1.00  0.00     0.035 C 
ATOM     12  C   UNL     1     102.783 107.342 123.651  1.00  0.00     0.039 C 
ENDROOT
BRANCH   5  13
ATOM     13  C   UNL     1     104.673 106.433 128.655  1.00  0.00    -0.013 C 
ATOM     14  C   UNL     1     105.878 106.860 129.519  1.00  0.00     0.007 C 
ATOM     15  C   UNL     1     105.149 105.279 127.747  1.00  0.00     0.007 C 
ENDBRANCH   5  13
TORSDOF 1
ENDMDL
MODEL 9
REMARK VINA RESULT:    -5.710      5.377      6.841
REMARK INTER + INTRA:          -6.602
REMARK INTER:                  -6.065
REMARK INTRA:                  -0.537
REMARK UNBOUND:                -0.558
REMARK SMILES CC1=C[C@@H]2C(=C(C)CC[C@@H]2C(C)C)CC1
REMARK SMILES IDX 1 1 2 2 3 3 4 4 10 5 9 6 8 7 6 8 5 9 14 10 15 11 7 12 11 13
REMARK SMILES IDX 12 14 13 15
REMARK H PARENT
REMARK Flexibility Score: inf
ROOT
ATOM      1  C   UNL     1     106.599 106.536 130.058  1.00  0.00     0.039 C 
ATOM      2  C   UNL     1     106.821 107.461 128.893  1.00  0.00    -0.076 C 
ATOM      3  C   UNL     1     105.761 107.997 128.260  1.00  0.00    -0.020 C 
ATOM      4  C   UNL     1     105.897 108.916 127.063  1.00  0.00     0.041 C 
ATOM      5  C   UNL     1     105.490 110.420 127.310  1.00  0.00     0.003 C 
ATOM      6  C   UNL     1     106.021 111.338 126.151  1.00  0.00     0.009 C 
ATOM      7  C   UNL     1     106.383 110.556 124.881  1.00  0.00     0.031 C 
ATOM      8  C   UNL     1     107.440 109.533 125.241  1.00  0.00    -0.073 C 
ATOM      9  C   UNL     1     107.251 108.800 126.367  1.00  0.00    -0.064 C 
ATOM     10  C   UNL     1     108.290 107.835 126.904  1.00  0.00     0.036 C 
ATOM     11  C   UNL     1     108.222 107.781 128.431  1.00  0.00     0.035 C 
ATOM     12  C   UNL     1     108.694 109.433 124.409  1.00  0.00     0.039 C 
ENDROOT
BRANCH   5  13
ATOM     13  C   UNL     1     105.832 110.958 128.758  1.00  0.00    -0.013 C 
ATOM     14  C   UNL     1     104.781 111.981 129.238  1.00  0.00     0.007 C 
ATOM     15  C   UNL     1     107.216 111.630 128.890  1.00  0.00     0.007 C 
ENDBRANCH   5  13
TORSDOF 1
ENDMDL
