MODEL 1
REMARK VINA RESULT:    -3.486      0.000      0.000
REMARK INTER + INTRA:          -3.930
REMARK INTER:                  -5.320
REMARK INTRA:                   1.389
REMARK UNBOUND:                 1.389
REMARK SMILES CC1=CCC[C@@H](C)C(=O)C[C@H](C(C)C)C(=O)C1
REMARK SMILES IDX 8 1 9 2 6 3 7 4 5 5 4 6 3 7 2 8 1 9 10 11 11 12 15 13 16 14
REMARK SMILES IDX 17 15 12 17 13 18 14 19
REMARK H PARENT
REMARK Flexibility Score: 70.00
ROOT
ATOM      1  C   UNL     1      -2.660 -14.046  -8.611  1.00  0.00     0.136 C 
ATOM      2  O   UNL     1      -1.456 -14.250  -8.676  1.00  0.00    -0.299 OA
ENDROOT
BRANCH   1   3
ATOM      3  C   UNL     1      -3.237 -12.723  -9.085  1.00  0.00     0.053 C 
ATOM      4  C   UNL     1      -2.680 -11.525  -8.300  1.00  0.00     0.016 C 
BRANCH   3   5
ATOM      5  C   UNL     1      -4.780 -12.743  -9.070  1.00  0.00     0.015 C 
BRANCH   5   6
ATOM      6  C   UNL     1      -5.415 -11.387  -8.703  1.00  0.00     0.028 C 
BRANCH   6   7
ATOM      7  C   UNL     1      -5.862 -11.376  -7.263  1.00  0.00    -0.028 C 
ATOM      8  C   UNL     1      -6.250 -12.471  -6.569  1.00  0.00    -0.070 CG0
ATOM      9  C   UNL     1      -6.725 -12.278  -5.151  1.00  0.00     0.039 C 
ATOM     10  G   UNL     1      -6.212 -13.879  -7.147  1.00  0.00     0.000 G0
ENDBRANCH   6   7
ENDBRANCH   5   6
ENDBRANCH   3   5
ENDBRANCH   1   3
BRANCH   1  11
ATOM     11  C   UNL     1      -3.555 -15.124  -8.048  1.00  0.00     0.087 C 
BRANCH  11  12
ATOM     12  C   UNL     1      -3.871 -14.898  -6.547  1.00  0.00     0.066 C 
BRANCH  12  13
ATOM     13  C   UNL     1      -5.371 -14.825  -6.304  1.00  0.00     0.140 C 
ATOM     14  O   UNL     1      -5.874 -15.476  -5.399  1.00  0.00    -0.299 OA
BRANCH  13  15
ATOM     15  C   UNL     1      -6.241 -13.891  -7.110  1.00  0.00     0.106 CG0
ATOM     16  G   UNL     1      -6.259 -12.478  -6.542  1.00  0.00     0.000 G0
ENDBRANCH  13  15
ENDBRANCH  12  13
BRANCH  12  17
ATOM     17  C   UNL     1      -3.208 -15.956  -5.606  1.00  0.00    -0.006 C 
ATOM     18  C   UNL     1      -3.535 -17.415  -5.974  1.00  0.00     0.008 C 
ATOM     19  C   UNL     1      -1.684 -15.767  -5.530  1.00  0.00     0.008 C 
ENDBRANCH  12  17
ENDBRANCH  11  12
ENDBRANCH   1  11
TORSDOF 1
ENDMDL
MODEL 2
REMARK VINA RESULT:    -3.391      2.058      3.579
REMARK INTER + INTRA:          -3.785
REMARK INTER:                  -5.249
REMARK INTRA:                   1.464
REMARK UNBOUND:                 1.389
REMARK SMILES CC1=CCC[C@@H](C)C(=O)C[C@H](C(C)C)C(=O)C1
REMARK SMILES IDX 8 1 9 2 6 3 7 4 5 5 4 6 3 7 2 8 1 9 10 11 11 12 15 13 16 14
REMARK SMILES IDX 17 15 12 17 13 18 14 19
REMARK H PARENT
REMARK Flexibility Score: 70.00
ROOT
ATOM      1  C   UNL     1      -6.184 -13.030  -6.750  1.00  0.00     0.136 C 
ATOM      2  O   UNL     1      -6.222 -12.121  -5.933  1.00  0.00    -0.299 OA
ENDROOT
BRANCH   1   3
ATOM      3  C   UNL     1      -6.434 -12.745  -8.221  1.00  0.00     0.053 C 
ATOM      4  C   UNL     1      -6.164 -13.969  -9.110  1.00  0.00     0.016 C 
BRANCH   3   5
ATOM      5  C   UNL     1      -5.641 -11.510  -8.699  1.00  0.00     0.015 C 
BRANCH   5   6
ATOM      6  C   UNL     1      -4.192 -11.461  -8.174  1.00  0.00     0.028 C 
BRANCH   6   7
ATOM      7  C   UNL     1      -3.364 -12.564  -8.781  1.00  0.00    -0.028 C 
ATOM      8  C   UNL     1      -2.509 -13.355  -8.091  1.00  0.00    -0.070 CG0
ATOM      9  C   UNL     1      -1.711 -14.375  -8.863  1.00  0.00     0.039 C 
ATOM     10  G   UNL     1      -2.333 -13.270  -6.582  1.00  0.00     0.000 G0
ENDBRANCH   6   7
ENDBRANCH   5   6
ENDBRANCH   3   5
ENDBRANCH   1   3
BRANCH   1  11
ATOM     11  C   UNL     1      -5.891 -14.431  -6.271  1.00  0.00     0.087 C 
BRANCH  11  12
ATOM     12  C   UNL     1      -4.427 -14.855  -6.557  1.00  0.00     0.066 C 
BRANCH  12  13
ATOM     13  C   UNL     1      -3.440 -13.951  -5.833  1.00  0.00     0.140 C 
ATOM     14  O   UNL     1      -3.500 -13.837  -4.616  1.00  0.00    -0.299 OA
BRANCH  13  15
ATOM     15  C   UNL     1      -2.329 -13.258  -6.583  1.00  0.00     0.106 CG0
ATOM     16  G   UNL     1      -2.491 -13.367  -8.093  1.00  0.00     0.000 G0
ENDBRANCH  13  15
ENDBRANCH  12  13
BRANCH  12  17
ATOM     17  C   UNL     1      -4.140 -16.357  -6.238  1.00  0.00    -0.006 C 
ATOM     18  C   UNL     1      -2.657 -16.669  -5.965  1.00  0.00     0.008 C 
ATOM     19  C   UNL     1      -5.001 -16.859  -5.066  1.00  0.00     0.008 C 
ENDBRANCH  12  17
ENDBRANCH  11  12
ENDBRANCH   1  11
TORSDOF 1
ENDMDL
MODEL 3
REMARK VINA RESULT:    -3.166      2.031      3.516
REMARK INTER + INTRA:          -3.442
REMARK INTER:                  -4.250
REMARK INTRA:                   0.808
REMARK UNBOUND:                 1.389
REMARK SMILES CC1=CCC[C@@H](C)C(=O)C[C@H](C(C)C)C(=O)C1
REMARK SMILES IDX 8 1 9 2 6 3 7 4 5 5 4 6 3 7 2 8 1 9 10 11 11 12 15 13 16 14
REMARK SMILES IDX 17 15 12 17 13 18 14 19
REMARK H PARENT
REMARK Flexibility Score: 70.00
ROOT
ATOM      1  C   UNL     1      -4.249 -11.990  -6.916  1.00  0.00     0.136 C 
ATOM      2  O   UNL     1      -3.672 -11.293  -7.739  1.00  0.00    -0.299 OA
ENDROOT
BRANCH   1   3
ATOM      3  C   UNL     1      -5.759 -11.908  -6.771  1.00  0.00     0.053 C 
ATOM      4  C   UNL     1      -6.292 -12.825  -5.659  1.00  0.00     0.016 C 
BRANCH   3   5
ATOM      5  C   UNL     1      -6.470 -12.173  -8.115  1.00  0.00     0.015 C 
BRANCH   5   6
ATOM      6  C   UNL     1      -5.617 -12.969  -9.123  1.00  0.00     0.028 C 
BRANCH   6   7
ATOM      7  C   UNL     1      -5.810 -14.452  -8.935  1.00  0.00    -0.028 C 
ATOM      8  C   UNL     1      -4.811 -15.365  -8.940  1.00  0.00    -0.070 CG0
ATOM      9  C   UNL     1      -5.183 -16.820  -8.798  1.00  0.00     0.039 C 
ATOM     10  G   UNL     1      -3.342 -14.989  -9.065  1.00  0.00     0.000 G0
ENDBRANCH   6   7
ENDBRANCH   5   6
ENDBRANCH   3   5
ENDBRANCH   1   3
BRANCH   1  11
ATOM     11  C   UNL     1      -3.437 -12.923  -6.050  1.00  0.00     0.087 C 
BRANCH  11  12
ATOM     12  C   UNL     1      -3.563 -14.401  -6.502  1.00  0.00     0.066 C 
BRANCH  12  13
ATOM     13  C   UNL     1      -2.701 -14.679  -7.725  1.00  0.00     0.140 C 
ATOM     14  O   UNL     1      -1.483 -14.715  -7.615  1.00  0.00    -0.299 OA
BRANCH  13  15
ATOM     15  C   UNL     1      -3.329 -14.999  -9.059  1.00  0.00     0.106 CG0
ATOM     16  G   UNL     1      -4.801 -15.367  -8.935  1.00  0.00     0.000 G0
ENDBRANCH  13  15
ENDBRANCH  12  13
BRANCH  12  17
ATOM     17  C   UNL     1      -3.258 -15.427  -5.364  1.00  0.00    -0.006 C 
ATOM     18  C   UNL     1      -3.059 -14.786  -3.977  1.00  0.00     0.008 C 
ATOM     19  C   UNL     1      -4.339 -16.518  -5.283  1.00  0.00     0.008 C 
ENDBRANCH  12  17
ENDBRANCH  11  12
ENDBRANCH   1  11
TORSDOF 1
ENDMDL
MODEL 4
REMARK VINA RESULT:    -3.085      1.343      1.676
REMARK INTER + INTRA:          -3.318
REMARK INTER:                  -4.539
REMARK INTRA:                   1.221
REMARK UNBOUND:                 1.389
REMARK SMILES CC1=CCC[C@@H](C)C(=O)C[C@H](C(C)C)C(=O)C1
REMARK SMILES IDX 8 1 9 2 6 3 7 4 5 5 4 6 3 7 2 8 1 9 10 11 11 12 15 13 16 14
REMARK SMILES IDX 17 15 12 17 13 18 14 19
REMARK H PARENT
REMARK Flexibility Score: 70.00
ROOT
ATOM      1  C   UNL     1      -2.787 -12.321  -7.717  1.00  0.00     0.136 C 
ATOM      2  O   UNL     1      -2.684 -11.772  -6.629  1.00  0.00    -0.299 OA
ENDROOT
BRANCH   1   3
ATOM      3  C   UNL     1      -3.031 -11.496  -8.969  1.00  0.00     0.053 C 
ATOM      4  C   UNL     1      -2.019 -10.350  -9.123  1.00  0.00     0.016 C 
BRANCH   3   5
ATOM      5  C   UNL     1      -4.485 -10.982  -9.031  1.00  0.00     0.015 C 
BRANCH   5   6
ATOM      6  C   UNL     1      -5.536 -12.041  -8.643  1.00  0.00     0.028 C 
BRANCH   6   7
ATOM      7  C   UNL     1      -6.003 -11.838  -7.225  1.00  0.00    -0.028 C 
ATOM      8  C   UNL     1      -6.379 -12.834  -6.388  1.00  0.00    -0.070 CG0
ATOM      9  C   UNL     1      -6.878 -12.454  -5.017  1.00  0.00     0.039 C 
ATOM     10  G   UNL     1      -6.304 -14.307  -6.763  1.00  0.00     0.000 G0
ENDBRANCH   6   7
ENDBRANCH   5   6
ENDBRANCH   3   5
ENDBRANCH   1   3
BRANCH   1  11
ATOM     11  C   UNL     1      -2.675 -13.825  -7.790  1.00  0.00     0.087 C 
BRANCH  11  12
ATOM     12  C   UNL     1      -3.681 -14.533  -6.844  1.00  0.00     0.066 C 
BRANCH  12  13
ATOM     13  C   UNL     1      -5.045 -14.682  -7.502  1.00  0.00     0.140 C 
ATOM     14  O   UNL     1      -5.130 -15.167  -8.622  1.00  0.00    -0.299 OA
BRANCH  13  15
ATOM     15  C   UNL     1      -6.307 -14.322  -6.758  1.00  0.00     0.106 CG0
ATOM     16  G   UNL     1      -6.368 -12.844  -6.398  1.00  0.00     0.000 G0
ENDBRANCH  13  15
ENDBRANCH  12  13
BRANCH  12  17
ATOM     17  C   UNL     1      -3.169 -15.910  -6.312  1.00  0.00    -0.006 C 
ATOM     18  C   UNL     1      -1.847 -15.827  -5.526  1.00  0.00     0.008 C 
ATOM     19  C   UNL     1      -4.236 -16.618  -5.461  1.00  0.00     0.008 C 
ENDBRANCH  12  17
ENDBRANCH  11  12
ENDBRANCH   1  11
TORSDOF 1
ENDMDL
MODEL 5
REMARK VINA RESULT:    -2.820      1.937      4.831
REMARK INTER + INTRA:          -2.914
REMARK INTER:                  -4.949
REMARK INTRA:                   2.035
REMARK UNBOUND:                 1.389
REMARK SMILES CC1=CCC[C@@H](C)C(=O)C[C@H](C(C)C)C(=O)C1
REMARK SMILES IDX 8 1 9 2 6 3 7 4 5 5 4 6 3 7 2 8 1 9 10 11 11 12 15 13 16 14
REMARK SMILES IDX 17 15 12 17 13 18 14 19
REMARK H PARENT
REMARK Flexibility Score: 70.00
ROOT
ATOM      1  C   UNL     1      -4.738 -16.090  -5.956  1.00  0.00     0.136 C 
ATOM      2  O   UNL     1      -5.220 -16.136  -4.833  1.00  0.00    -0.299 OA
ENDROOT
BRANCH   1   3
ATOM      3  C   UNL     1      -3.576 -16.996  -6.325  1.00  0.00     0.053 C 
ATOM      4  C   UNL     1      -3.930 -18.485  -6.200  1.00  0.00     0.016 C 
BRANCH   3   5
ATOM      5  C   UNL     1      -2.308 -16.644  -5.518  1.00  0.00     0.015 C 
BRANCH   5   6
ATOM      6  C   UNL     1      -1.840 -15.186  -5.700  1.00  0.00     0.028 C 
BRANCH   6   7
ATOM      7  C   UNL     1      -1.874 -14.790  -7.154  1.00  0.00    -0.028 C 
ATOM      8  C   UNL     1      -2.459 -13.667  -7.633  1.00  0.00    -0.070 CG0
ATOM      9  C   UNL     1      -2.455 -13.450  -9.125  1.00  0.00     0.039 C 
ATOM     10  G   UNL     1      -3.099 -12.617  -6.737  1.00  0.00     0.000 G0
ENDBRANCH   6   7
ENDBRANCH   5   6
ENDBRANCH   3   5
ENDBRANCH   1   3
BRANCH   1  11
ATOM     11  C   UNL     1      -5.312 -15.118  -6.959  1.00  0.00     0.087 C 
BRANCH  11  12
ATOM     12  C   UNL     1      -5.481 -13.695  -6.365  1.00  0.00     0.066 C 
BRANCH  12  13
ATOM     13  C   UNL     1      -4.161 -13.163  -5.826  1.00  0.00     0.140 C 
ATOM     14  O   UNL     1      -3.912 -13.251  -4.631  1.00  0.00    -0.299 OA
BRANCH  13  15
ATOM     15  C   UNL     1      -3.112 -12.605  -6.757  1.00  0.00     0.106 CG0
ATOM     16  G   UNL     1      -2.457 -13.684  -7.607  1.00  0.00     0.000 G0
ENDBRANCH  13  15
ENDBRANCH  12  13
BRANCH  12  17
ATOM     17  C   UNL     1      -6.123 -12.678  -7.362  1.00  0.00    -0.006 C 
ATOM     18  C   UNL     1      -5.365 -11.341  -7.469  1.00  0.00     0.008 C 
ATOM     19  C   UNL     1      -6.295 -13.292  -8.762  1.00  0.00     0.008 C 
ENDBRANCH  12  17
ENDBRANCH  11  12
ENDBRANCH   1  11
TORSDOF 1
ENDMDL
MODEL 6
REMARK VINA RESULT:    -2.598      1.815      3.653
REMARK INTER + INTRA:          -2.576
REMARK INTER:                  -3.478
REMARK INTRA:                   0.902
REMARK UNBOUND:                 1.389
REMARK SMILES CC1=CCC[C@@H](C)C(=O)C[C@H](C(C)C)C(=O)C1
REMARK SMILES IDX 8 1 9 2 6 3 7 4 5 5 4 6 3 7 2 8 1 9 10 11 11 12 15 13 16 14
REMARK SMILES IDX 17 15 12 17 13 18 14 19
REMARK H PARENT
REMARK Flexibility Score: 70.00
ROOT
ATOM      1  C   UNL     1      -6.233 -12.889  -6.041  1.00  0.00     0.136 C 
ATOM      2  O   UNL     1      -6.278 -12.658  -4.840  1.00  0.00    -0.299 OA
ENDROOT
BRANCH   1   3
ATOM      3  C   UNL     1      -6.280 -11.746  -7.041  1.00  0.00     0.053 C 
ATOM      4  C   UNL     1      -7.179 -12.059  -8.247  1.00  0.00     0.016 C 
BRANCH   3   5
ATOM      5  C   UNL     1      -4.863 -11.325  -7.484  1.00  0.00     0.015 C 
BRANCH   5   6
ATOM      6  C   UNL     1      -4.566 -11.611  -8.969  1.00  0.00     0.028 C 
BRANCH   6   7
ATOM      7  C   UNL     1      -3.244 -12.319  -9.124  1.00  0.00    -0.028 C 
ATOM      8  C   UNL     1      -3.060 -13.650  -8.960  1.00  0.00    -0.070 CG0
ATOM      9  C   UNL     1      -1.658 -14.191  -9.093  1.00  0.00     0.039 C 
ATOM     10  G   UNL     1      -4.198 -14.617  -8.667  1.00  0.00     0.000 G0
ENDBRANCH   6   7
ENDBRANCH   5   6
ENDBRANCH   3   5
ENDBRANCH   1   3
BRANCH   1  11
ATOM     11  C   UNL     1      -6.135 -14.322  -6.506  1.00  0.00     0.087 C 
BRANCH  11  12
ATOM     12  C   UNL     1      -4.782 -14.973  -6.116  1.00  0.00     0.066 C 
BRANCH  12  13
ATOM     13  C   UNL     1      -3.976 -15.349  -7.350  1.00  0.00     0.140 C 
ATOM     14  O   UNL     1      -3.199 -16.293  -7.305  1.00  0.00    -0.299 OA
BRANCH  13  15
ATOM     15  C   UNL     1      -4.184 -14.629  -8.661  1.00  0.00     0.106 CG0
ATOM     16  G   UNL     1      -3.053 -13.661  -8.977  1.00  0.00     0.000 G0
ENDBRANCH  13  15
ENDBRANCH  12  13
BRANCH  12  17
ATOM     17  C   UNL     1      -3.929 -14.098  -5.142  1.00  0.00    -0.006 C 
ATOM     18  C   UNL     1      -3.601 -14.786  -3.804  1.00  0.00     0.008 C 
ATOM     19  C   UNL     1      -2.631 -13.612  -5.810  1.00  0.00     0.008 C 
ENDBRANCH  12  17
ENDBRANCH  11  12
ENDBRANCH   1  11
TORSDOF 1
ENDMDL
MODEL 7
REMARK VINA RESULT:    -2.508      1.737      4.379
REMARK INTER + INTRA:          -2.439
REMARK INTER:                  -4.139
REMARK INTRA:                   1.701
REMARK UNBOUND:                 1.389
REMARK SMILES CC1=CCC[C@@H](C)C(=O)C[C@H](C(C)C)C(=O)C1
REMARK SMILES IDX 8 1 9 2 6 3 7 4 5 5 4 6 3 7 2 8 1 9 10 11 11 12 15 13 16 14
REMARK SMILES IDX 17 15 12 17 13 18 14 19
REMARK H PARENT
REMARK Flexibility Score: 70.00
ROOT
ATOM      1  C   UNL     1      -3.541 -14.742  -5.617  1.00  0.00     0.136 C 
ATOM      2  O   UNL     1      -3.144 -14.385  -4.516  1.00  0.00    -0.299 OA
ENDROOT
BRANCH   1   3
ATOM      3  C   UNL     1      -2.651 -15.585  -6.513  1.00  0.00     0.053 C 
ATOM      4  C   UNL     1      -1.845 -16.629  -5.724  1.00  0.00     0.016 C 
BRANCH   3   5
ATOM      5  C   UNL     1      -1.735 -14.704  -7.388  1.00  0.00     0.015 C 
BRANCH   5   6
ATOM      6  C   UNL     1      -2.220 -14.557  -8.844  1.00  0.00     0.028 C 
BRANCH   6   7
ATOM      7  C   UNL     1      -3.599 -15.141  -9.010  1.00  0.00    -0.028 C 
ATOM      8  C   UNL     1      -4.747 -14.423  -8.996  1.00  0.00    -0.070 CG0
ATOM      9  C   UNL     1      -6.050 -15.171  -9.118  1.00  0.00     0.039 C 
ATOM     10  G   UNL     1      -4.776 -12.906  -8.882  1.00  0.00     0.000 G0
ENDBRANCH   6   7
ENDBRANCH   5   6
ENDBRANCH   3   5
ENDBRANCH   1   3
BRANCH   1  11
ATOM     11  C   UNL     1      -4.921 -14.326  -6.066  1.00  0.00     0.087 C 
BRANCH  11  12
ATOM     12  C   UNL     1      -5.031 -12.792  -6.274  1.00  0.00     0.066 C 
BRANCH  12  13
ATOM     13  C   UNL     1      -4.349 -12.360  -7.563  1.00  0.00     0.140 C 
ATOM     14  O   UNL     1      -3.375 -11.621  -7.518  1.00  0.00    -0.299 OA
BRANCH  13  15
ATOM     15  C   UNL     1      -4.801 -12.901  -8.898  1.00  0.00     0.106 CG0
ATOM     16  G   UNL     1      -4.737 -14.421  -8.961  1.00  0.00     0.000 G0
ENDBRANCH  13  15
ENDBRANCH  12  13
BRANCH  12  17
ATOM     17  C   UNL     1      -6.500 -12.262  -6.220  1.00  0.00    -0.006 C 
ATOM     18  C   UNL     1      -6.939 -11.768  -4.828  1.00  0.00     0.008 C 
ATOM     19  C   UNL     1      -6.740 -11.158  -7.263  1.00  0.00     0.008 C 
ENDBRANCH  12  17
ENDBRANCH  11  12
ENDBRANCH   1  11
TORSDOF 1
ENDMDL
MODEL 8
REMARK VINA RESULT:    -2.310      1.673      3.947
REMARK INTER + INTRA:          -2.136
REMARK INTER:                  -2.857
REMARK INTRA:                   0.721
REMARK UNBOUND:                 1.389
REMARK SMILES CC1=CCC[C@@H](C)C(=O)C[C@H](C(C)C)C(=O)C1
REMARK SMILES IDX 8 1 9 2 6 3 7 4 5 5 4 6 3 7 2 8 1 9 10 11 11 12 15 13 16 14
REMARK SMILES IDX 17 15 12 17 13 18 14 19
REMARK H PARENT
REMARK Flexibility Score: 70.00
ROOT
ATOM      1  C   UNL     1      -2.898 -12.769  -8.150  1.00  0.00     0.136 C 
ATOM      2  O   UNL     1      -2.405 -11.894  -8.848  1.00  0.00    -0.299 OA
ENDROOT
BRANCH   1   3
ATOM      3  C   UNL     1      -2.470 -14.216  -8.322  1.00  0.00     0.053 C 
ATOM      4  C   UNL     1      -1.155 -14.349  -9.105  1.00  0.00     0.016 C 
BRANCH   3   5
ATOM      5  C   UNL     1      -3.594 -15.065  -8.953  1.00  0.00     0.015 C 
BRANCH   5   6
ATOM      6  C   UNL     1      -4.127 -16.177  -8.026  1.00  0.00     0.028 C 
BRANCH   6   7
ATOM      7  C   UNL     1      -3.466 -16.109  -6.673  1.00  0.00    -0.028 C 
ATOM      8  C   UNL     1      -4.061 -15.646  -5.548  1.00  0.00    -0.070 CG0
ATOM      9  C   UNL     1      -3.238 -15.590  -4.286  1.00  0.00     0.039 C 
ATOM     10  G   UNL     1      -5.515 -15.200  -5.500  1.00  0.00     0.000 G0
ENDBRANCH   6   7
ENDBRANCH   5   6
ENDBRANCH   3   5
ENDBRANCH   1   3
BRANCH   1  11
ATOM     11  C   UNL     1      -3.939 -12.385  -7.126  1.00  0.00     0.087 C 
BRANCH  11  12
ATOM     12  C   UNL     1      -5.223 -13.249  -7.244  1.00  0.00     0.066 C 
BRANCH  12  13
ATOM     13  C   UNL     1      -5.680 -13.746  -5.880  1.00  0.00     0.140 C 
ATOM     14  O   UNL     1      -6.250 -12.982  -5.114  1.00  0.00    -0.299 OA
BRANCH  13  15
ATOM     15  C   UNL     1      -5.519 -15.195  -5.490  1.00  0.00     0.106 CG0
ATOM     16  G   UNL     1      -4.069 -15.655  -5.549  1.00  0.00     0.000 G0
ENDBRANCH  13  15
ENDBRANCH  12  13
BRANCH  12  17
ATOM     17  C   UNL     1      -6.390 -12.527  -7.991  1.00  0.00    -0.006 C 
ATOM     18  C   UNL     1      -6.021 -11.135  -8.537  1.00  0.00     0.008 C 
ATOM     19  C   UNL     1      -6.958 -13.397  -9.125  1.00  0.00     0.008 C 
ENDBRANCH  12  17
ENDBRANCH  11  12
ENDBRANCH   1  11
TORSDOF 1
ENDMDL
MODEL 9
REMARK VINA RESULT:    -1.981      2.121      4.198
REMARK INTER + INTRA:          -1.633
REMARK INTER:                  -3.038
REMARK INTRA:                   1.404
REMARK UNBOUND:                 1.389
REMARK SMILES CC1=CCC[C@@H](C)C(=O)C[C@H](C(C)C)C(=O)C1
REMARK SMILES IDX 8 1 9 2 6 3 7 4 5 5 4 6 3 7 2 8 1 9 10 11 11 12 15 13 16 14
REMARK SMILES IDX 17 15 12 17 13 18 14 19
REMARK H PARENT
REMARK Flexibility Score: 70.00
ROOT
ATOM      1  C   UNL     1      -5.233 -13.117  -6.527  1.00  0.00     0.136 C 
ATOM      2  O   UNL     1      -5.941 -13.703  -5.719  1.00  0.00    -0.299 OA
ENDROOT
BRANCH   1   3
ATOM      3  C   UNL     1      -5.653 -13.024  -7.984  1.00  0.00     0.053 C 
ATOM      4  C   UNL     1      -6.725 -11.948  -8.218  1.00  0.00     0.016 C 
BRANCH   3   5
ATOM      5  C   UNL     1      -6.098 -14.397  -8.530  1.00  0.00     0.015 C 
BRANCH   5   6
ATOM      6  C   UNL     1      -4.934 -15.380  -8.763  1.00  0.00     0.028 C 
BRANCH   6   7
ATOM      7  C   UNL     1      -4.878 -16.414  -7.667  1.00  0.00    -0.028 C 
ATOM      8  C   UNL     1      -3.803 -16.642  -6.877  1.00  0.00    -0.070 CG0
ATOM      9  C   UNL     1      -3.894 -17.757  -5.866  1.00  0.00     0.039 C 
ATOM     10  G   UNL     1      -2.526 -15.818  -6.953  1.00  0.00     0.000 G0
ENDBRANCH   6   7
ENDBRANCH   5   6
ENDBRANCH   3   5
ENDBRANCH   1   3
BRANCH   1  11
ATOM     11  C   UNL     1      -3.941 -12.497  -6.052  1.00  0.00     0.087 C 
BRANCH  11  12
ATOM     12  C   UNL     1      -2.697 -13.222  -6.630  1.00  0.00     0.066 C 
BRANCH  12  13
ATOM     13  C   UNL     1      -2.558 -14.623  -6.053  1.00  0.00     0.140 C 
ATOM     14  O   UNL     1      -2.539 -14.783  -4.841  1.00  0.00    -0.299 OA
BRANCH  13  15
ATOM     15  C   UNL     1      -2.532 -15.833  -6.956  1.00  0.00     0.106 CG0
ATOM     16  G   UNL     1      -3.815 -16.647  -6.875  1.00  0.00     0.000 G0
ENDBRANCH  13  15
ENDBRANCH  12  13
BRANCH  12  17
ATOM     17  C   UNL     1      -2.670 -13.260  -8.192  1.00  0.00    -0.006 C 
ATOM     18  C   UNL     1      -2.687 -11.869  -8.854  1.00  0.00     0.008 C 
ATOM     19  C   UNL     1      -1.473 -14.071  -8.716  1.00  0.00     0.008 C 
ENDBRANCH  12  17
ENDBRANCH  11  12
ENDBRANCH   1  11
TORSDOF 1
ENDMDL
