MODEL 1
REMARK VINA RESULT:    -3.797      0.000      0.000
REMARK INTER + INTRA:          -6.071
REMARK INTER:                  -5.572
REMARK INTRA:                  -0.498
REMARK UNBOUND:                -0.498
REMARK SMILES O=C([O-])CCCCCCCC(=O)[O-]
REMARK SMILES IDX 7 1 6 2 5 3 4 4 2 5 1 6 3 7 8 8 9 9 10 10 11 11 12 12 13 13
REMARK H PARENT
REMARK Flexibility Score: inf
ROOT
ATOM      1  C   UNL     1      37.000 -47.775   3.525  1.00  0.00     0.000 C 
ENDROOT
BRANCH   1   2
ATOM      2  C   UNL     1      35.474 -47.812   3.717  1.00  0.00     0.000 C 
BRANCH   2   3
ATOM      3  C   UNL     1      34.716 -48.010   2.396  1.00  0.00     0.006 C 
BRANCH   3   4
ATOM      4  C   UNL     1      34.314 -49.477   2.212  1.00  0.00     0.053 C 
BRANCH   4   5
ATOM      5  C   UNL     1      33.513 -49.648   0.959  1.00  0.00     0.041 C 
ATOM      6  O   UNL     1      32.359 -50.148   1.009  1.00  0.00    -0.550 OA
ATOM      7  O   UNL     1      34.062 -49.302  -0.269  1.00  0.00    -0.550 OA
ENDBRANCH   4   5
ENDBRANCH   3   4
ENDBRANCH   2   3
ENDBRANCH   1   2
BRANCH   1   8
ATOM      8  C   UNL     1      37.729 -48.821   4.379  1.00  0.00     0.000 C 
BRANCH   8   9
ATOM      9  C   UNL     1      36.729 -49.748   5.085  1.00  0.00     0.006 C 
BRANCH   9  10
ATOM     10  C   UNL     1      37.287 -51.163   5.287  1.00  0.00     0.053 C 
BRANCH  10  11
ATOM     11  C   UNL     1      36.416 -52.201   4.647  1.00  0.00     0.041 C 
ATOM     12  O   UNL     1      35.915 -53.123   5.342  1.00  0.00    -0.550 OA
ATOM     13  O   UNL     1      36.186 -52.168   3.278  1.00  0.00    -0.550 OA
ENDBRANCH  10  11
ENDBRANCH   9  10
ENDBRANCH   8   9
ENDBRANCH   1   8
TORSDOF 8
ENDMDL
MODEL 2
REMARK VINA RESULT:    -3.706      1.144      4.573
REMARK INTER + INTRA:          -5.938
REMARK INTER:                  -5.397
REMARK INTRA:                  -0.541
REMARK UNBOUND:                -0.498
REMARK SMILES O=C([O-])CCCCCCCC(=O)[O-]
REMARK SMILES IDX 7 1 6 2 5 3 4 4 2 5 1 6 3 7 8 8 9 9 10 10 11 11 12 12 13 13
REMARK H PARENT
REMARK Flexibility Score: inf
ROOT
ATOM      1  C   UNL     1      35.836 -47.967   3.931  1.00  0.00     0.000 C 
ENDROOT
BRANCH   1   2
ATOM      2  C   UNL     1      37.332 -48.304   3.815  1.00  0.00     0.000 C 
BRANCH   2   3
ATOM      3  C   UNL     1      37.790 -49.330   4.863  1.00  0.00     0.006 C 
BRANCH   3   4
ATOM      4  C   UNL     1      36.623 -50.218   5.304  1.00  0.00     0.053 C 
BRANCH   4   5
ATOM      5  C   UNL     1      36.860 -51.638   4.891  1.00  0.00     0.041 C 
ATOM      6  O   UNL     1      36.015 -52.528   5.172  1.00  0.00    -0.550 OA
ATOM      7  O   UNL     1      38.037 -51.986   4.240  1.00  0.00    -0.550 OA
ENDBRANCH   4   5
ENDBRANCH   3   4
ENDBRANCH   2   3
ENDBRANCH   1   2
BRANCH   1   8
ATOM      8  C   UNL     1      35.365 -46.986   2.848  1.00  0.00     0.000 C 
BRANCH   8   9
ATOM      9  C   UNL     1      34.129 -47.528   2.116  1.00  0.00     0.006 C 
BRANCH   9  10
ATOM     10  C   UNL     1      34.468 -48.701   1.188  1.00  0.00     0.053 C 
BRANCH  10  11
ATOM     11  C   UNL     1      33.737 -49.949   1.578  1.00  0.00     0.041 C 
ATOM     12  O   UNL     1      34.217 -50.716   2.454  1.00  0.00    -0.550 OA
ATOM     13  O   UNL     1      32.543 -50.282   0.951  1.00  0.00    -0.550 OA
ENDBRANCH  10  11
ENDBRANCH   9  10
ENDBRANCH   8   9
ENDBRANCH   1   8
TORSDOF 8
ENDMDL
MODEL 3
REMARK VINA RESULT:    -3.518      0.885      4.934
REMARK INTER + INTRA:          -5.662
REMARK INTER:                  -5.139
REMARK INTRA:                  -0.523
REMARK UNBOUND:                -0.498
REMARK SMILES O=C([O-])CCCCCCCC(=O)[O-]
REMARK SMILES IDX 7 1 6 2 5 3 4 4 2 5 1 6 3 7 8 8 9 9 10 10 11 11 12 12 13 13
REMARK H PARENT
REMARK Flexibility Score: inf
ROOT
ATOM      1  C   UNL     1      36.990 -47.759   3.476  1.00  0.00     0.000 C 
ENDROOT
BRANCH   1   2
ATOM      2  C   UNL     1      37.699 -48.768   4.394  1.00  0.00     0.000 C 
BRANCH   2   3
ATOM      3  C   UNL     1      36.800 -49.953   4.778  1.00  0.00     0.006 C 
BRANCH   3   4
ATOM      4  C   UNL     1      36.991 -51.121   3.807  1.00  0.00     0.053 C 
BRANCH   4   5
ATOM      5  C   UNL     1      37.043 -52.419   4.551  1.00  0.00     0.041 C 
ATOM      6  O   UNL     1      38.100 -53.102   4.561  1.00  0.00    -0.550 OA
ATOM      7  O   UNL     1      35.907 -52.899   5.192  1.00  0.00    -0.550 OA
ENDBRANCH   4   5
ENDBRANCH   3   4
ENDBRANCH   2   3
ENDBRANCH   1   2
BRANCH   1   8
ATOM      8  C   UNL     1      35.466 -47.757   3.664  1.00  0.00     0.000 C 
BRANCH   8   9
ATOM      9  C   UNL     1      34.747 -47.911   2.316  1.00  0.00     0.006 C 
BRANCH   9  10
ATOM     10  C   UNL     1      34.188 -49.325   2.111  1.00  0.00     0.053 C 
BRANCH  10  11
ATOM     11  C   UNL     1      33.191 -49.373   0.993  1.00  0.00     0.041 C 
ATOM     12  O   UNL     1      32.360 -50.316   0.926  1.00  0.00    -0.550 OA
ATOM     13  O   UNL     1      33.203 -48.394   0.008  1.00  0.00    -0.550 OA
ENDBRANCH  10  11
ENDBRANCH   9  10
ENDBRANCH   8   9
ENDBRANCH   1   8
TORSDOF 8
ENDMDL
MODEL 4
REMARK VINA RESULT:    -3.494      1.727      2.644
REMARK INTER + INTRA:          -5.626
REMARK INTER:                  -5.052
REMARK INTRA:                  -0.573
REMARK UNBOUND:                -0.498
REMARK SMILES O=C([O-])CCCCCCCC(=O)[O-]
REMARK SMILES IDX 7 1 6 2 5 3 4 4 2 5 1 6 3 7 8 8 9 9 10 10 11 11 12 12 13 13
REMARK H PARENT
REMARK Flexibility Score: inf
ROOT
ATOM      1  C   UNL     1      34.613 -45.638   2.696  1.00  0.00     0.000 C 
ENDROOT
BRANCH   1   2
ATOM      2  C   UNL     1      33.556 -46.001   1.639  1.00  0.00     0.000 C 
BRANCH   2   3
ATOM      3  C   UNL     1      34.163 -46.687   0.406  1.00  0.00     0.006 C 
BRANCH   3   4
ATOM      4  C   UNL     1      33.246 -47.802  -0.105  1.00  0.00     0.053 C 
BRANCH   4   5
ATOM      5  C   UNL     1      33.540 -49.089   0.601  1.00  0.00     0.041 C 
ATOM      6  O   UNL     1      34.732 -49.447   0.795  1.00  0.00    -0.550 OA
ATOM      7  O   UNL     1      32.499 -49.917   1.000  1.00  0.00    -0.550 OA
ENDBRANCH   4   5
ENDBRANCH   3   4
ENDBRANCH   2   3
ENDBRANCH   1   2
BRANCH   1   8
ATOM      8  C   UNL     1      35.755 -46.661   2.766  1.00  0.00     0.000 C 
BRANCH   8   9
ATOM      9  C   UNL     1      35.533 -47.655   3.915  1.00  0.00     0.006 C 
BRANCH   9  10
ATOM     10  C   UNL     1      36.753 -48.553   4.153  1.00  0.00     0.053 C 
BRANCH  10  11
ATOM     11  C   UNL     1      36.353 -49.944   4.543  1.00  0.00     0.041 C 
ATOM     12  O   UNL     1      36.614 -50.378   5.696  1.00  0.00    -0.550 OA
ATOM     13  O   UNL     1      35.722 -50.771   3.623  1.00  0.00    -0.550 OA
ENDBRANCH  10  11
ENDBRANCH   9  10
ENDBRANCH   8   9
ENDBRANCH   1   8
TORSDOF 8
ENDMDL
MODEL 5
REMARK VINA RESULT:    -3.475      3.489      6.412
REMARK INTER + INTRA:          -5.598
REMARK INTER:                  -5.040
REMARK INTRA:                  -0.558
REMARK UNBOUND:                -0.498
REMARK SMILES O=C([O-])CCCCCCCC(=O)[O-]
REMARK SMILES IDX 7 1 6 2 5 3 4 4 2 5 1 6 3 7 8 8 9 9 10 10 11 11 12 12 13 13
REMARK H PARENT
REMARK Flexibility Score: inf
ROOT
ATOM      1  C   UNL     1      35.408 -45.777   2.495  1.00  0.00     0.000 C 
ENDROOT
BRANCH   1   2
ATOM      2  C   UNL     1      35.125 -47.141   3.145  1.00  0.00     0.000 C 
BRANCH   2   3
ATOM      3  C   UNL     1      35.328 -48.313   2.174  1.00  0.00     0.006 C 
BRANCH   3   4
ATOM      4  C   UNL     1      33.981 -48.881   1.714  1.00  0.00     0.053 C 
BRANCH   4   5
ATOM      5  C   UNL     1      33.873 -50.330   2.073  1.00  0.00     0.041 C 
ATOM      6  O   UNL     1      32.825 -50.974   1.802  1.00  0.00    -0.550 OA
ATOM      7  O   UNL     1      34.909 -50.957   2.753  1.00  0.00    -0.550 OA
ENDBRANCH   4   5
ENDBRANCH   3   4
ENDBRANCH   2   3
ENDBRANCH   1   2
BRANCH   1   8
ATOM      8  C   UNL     1      34.316 -44.740   2.795  1.00  0.00     0.000 C 
BRANCH   8   9
ATOM      9  C   UNL     1      33.079 -44.975   1.916  1.00  0.00     0.006 C 
BRANCH   9  10
ATOM     10  C   UNL     1      33.428 -45.039   0.423  1.00  0.00     0.053 C 
BRANCH  10  11
ATOM     11  C   UNL     1      33.034 -43.783  -0.294  1.00  0.00     0.041 C 
ATOM     12  O   UNL     1      31.831 -43.411  -0.304  1.00  0.00    -0.550 OA
ATOM     13  O   UNL     1      33.989 -43.043  -0.979  1.00  0.00    -0.550 OA
ENDBRANCH  10  11
ENDBRANCH   9  10
ENDBRANCH   8   9
ENDBRANCH   1   8
TORSDOF 8
ENDMDL
MODEL 6
REMARK VINA RESULT:    -3.430      4.227      7.443
REMARK INTER + INTRA:          -5.532
REMARK INTER:                  -5.025
REMARK INTRA:                  -0.507
REMARK UNBOUND:                -0.498
REMARK SMILES O=C([O-])CCCCCCCC(=O)[O-]
REMARK SMILES IDX 7 1 6 2 5 3 4 4 2 5 1 6 3 7 8 8 9 9 10 10 11 11 12 12 13 13
REMARK H PARENT
REMARK Flexibility Score: inf
ROOT
ATOM      1  C   UNL     1      32.967 -45.005   1.537  1.00  0.00     0.000 C 
ENDROOT
BRANCH   1   2
ATOM      2  C   UNL     1      33.683 -46.365   1.596  1.00  0.00     0.000 C 
BRANCH   2   3
ATOM      3  C   UNL     1      33.225 -47.324   0.487  1.00  0.00     0.006 C 
BRANCH   3   4
ATOM      4  C   UNL     1      34.115 -48.569   0.440  1.00  0.00     0.053 C 
BRANCH   4   5
ATOM      5  C   UNL     1      33.522 -49.669   1.263  1.00  0.00     0.041 C 
ATOM      6  O   UNL     1      34.172 -50.164   2.222  1.00  0.00    -0.550 OA
ATOM      7  O   UNL     1      32.272 -50.183   0.941  1.00  0.00    -0.550 OA
ENDBRANCH   4   5
ENDBRANCH   3   4
ENDBRANCH   2   3
ENDBRANCH   1   2
BRANCH   1   8
ATOM      8  C   UNL     1      33.847 -43.898   0.939  1.00  0.00     0.000 C 
BRANCH   8   9
ATOM      9  C   UNL     1      33.314 -43.453  -0.431  1.00  0.00     0.006 C 
BRANCH   9  10
ATOM     10  C   UNL     1      31.787 -43.577  -0.531  1.00  0.00     0.053 C 
BRANCH  10  11
ATOM     11  C   UNL     1      31.364 -44.206  -1.824  1.00  0.00     0.041 C 
ATOM     12  O   UNL     1      30.643 -43.565  -2.633  1.00  0.00    -0.550 OA
ATOM     13  O   UNL     1      31.737 -45.511  -2.119  1.00  0.00    -0.550 OA
ENDBRANCH  10  11
ENDBRANCH   9  10
ENDBRANCH   8   9
ENDBRANCH   1   8
TORSDOF 8
ENDMDL
MODEL 7
REMARK VINA RESULT:    -3.418      2.743      4.242
REMARK INTER + INTRA:          -5.515
REMARK INTER:                  -5.156
REMARK INTRA:                  -0.360
REMARK UNBOUND:                -0.498
REMARK SMILES O=C([O-])CCCCCCCC(=O)[O-]
REMARK SMILES IDX 7 1 6 2 5 3 4 4 2 5 1 6 3 7 8 8 9 9 10 10 11 11 12 12 13 13
REMARK H PARENT
REMARK Flexibility Score: inf
ROOT
ATOM      1  C   UNL     1      33.428 -48.156   0.943  1.00  0.00     0.000 C 
ENDROOT
BRANCH   1   2
ATOM      2  C   UNL     1      33.317 -47.401  -0.392  1.00  0.00     0.000 C 
BRANCH   2   3
ATOM      3  C   UNL     1      33.787 -48.243  -1.588  1.00  0.00     0.006 C 
BRANCH   3   4
ATOM      4  C   UNL     1      32.748 -48.219  -2.714  1.00  0.00     0.053 C 
BRANCH   4   5
ATOM      5  C   UNL     1      32.741 -49.524  -3.447  1.00  0.00     0.041 C 
ATOM      6  O   UNL     1      33.753 -49.889  -4.101  1.00  0.00    -0.550 OA
ATOM      7  O   UNL     1      31.597 -50.313  -3.451  1.00  0.00    -0.550 OA
ENDBRANCH   4   5
ENDBRANCH   3   4
ENDBRANCH   2   3
ENDBRANCH   1   2
BRANCH   1   8
ATOM      8  C   UNL     1      33.143 -49.658   0.800  1.00  0.00     0.000 C 
BRANCH   8   9
ATOM      9  C   UNL     1      33.703 -50.440   1.997  1.00  0.00     0.006 C 
BRANCH   9  10
ATOM     10  C   UNL     1      35.150 -50.048   2.323  1.00  0.00     0.053 C 
BRANCH  10  11
ATOM     11  C   UNL     1      35.722 -50.896   3.418  1.00  0.00     0.041 C 
ATOM     12  O   UNL     1      35.696 -52.152   3.326  1.00  0.00    -0.550 OA
ATOM     13  O   UNL     1      36.251 -50.300   4.556  1.00  0.00    -0.550 OA
ENDBRANCH  10  11
ENDBRANCH   9  10
ENDBRANCH   8   9
ENDBRANCH   1   8
TORSDOF 8
ENDMDL
MODEL 8
REMARK VINA RESULT:    -3.408      2.489      6.475
REMARK INTER + INTRA:          -5.500
REMARK INTER:                  -5.049
REMARK INTRA:                  -0.451
REMARK UNBOUND:                -0.498
REMARK SMILES O=C([O-])CCCCCCCC(=O)[O-]
REMARK SMILES IDX 7 1 6 2 5 3 4 4 2 5 1 6 3 7 8 8 9 9 10 10 11 11 12 12 13 13
REMARK H PARENT
REMARK Flexibility Score: inf
ROOT
ATOM      1  C   UNL     1      33.101 -49.669   0.674  1.00  0.00     0.000 C 
ENDROOT
BRANCH   1   2
ATOM      2  C   UNL     1      33.783 -50.269   1.915  1.00  0.00     0.000 C 
BRANCH   2   3
ATOM      3  C   UNL     1      34.721 -49.274   2.614  1.00  0.00     0.006 C 
BRANCH   3   4
ATOM      4  C   UNL     1      36.113 -49.881   2.810  1.00  0.00     0.053 C 
BRANCH   4   5
ATOM      5  C   UNL     1      36.224 -50.514   4.162  1.00  0.00     0.041 C 
ATOM      6  O   UNL     1      36.015 -51.748   4.303  1.00  0.00    -0.550 OA
ATOM      7  O   UNL     1      36.508 -49.732   5.275  1.00  0.00    -0.550 OA
ENDBRANCH   4   5
ENDBRANCH   3   4
ENDBRANCH   2   3
ENDBRANCH   1   2
BRANCH   1   8
ATOM      8  C   UNL     1      33.159 -48.135   0.651  1.00  0.00     0.000 C 
BRANCH   8   9
ATOM      9  C   UNL     1      33.637 -47.626  -0.717  1.00  0.00     0.006 C 
BRANCH   9  10
ATOM     10  C   UNL     1      33.757 -48.754  -1.750  1.00  0.00     0.053 C 
BRANCH  10  11
ATOM     11  C   UNL     1      32.735 -48.622  -2.838  1.00  0.00     0.041 C 
ATOM     12  O   UNL     1      32.608 -47.533  -3.459  1.00  0.00    -0.550 OA
ATOM     13  O   UNL     1      31.902 -49.690  -3.144  1.00  0.00    -0.550 OA
ENDBRANCH  10  11
ENDBRANCH   9  10
ENDBRANCH   8   9
ENDBRANCH   1   8
TORSDOF 8
ENDMDL
MODEL 9
REMARK VINA RESULT:    -3.367      3.107      4.918
REMARK INTER + INTRA:          -5.439
REMARK INTER:                  -4.955
REMARK INTRA:                  -0.484
REMARK UNBOUND:                -0.498
REMARK SMILES O=C([O-])CCCCCCCC(=O)[O-]
REMARK SMILES IDX 7 1 6 2 5 3 4 4 2 5 1 6 3 7 8 8 9 9 10 10 11 11 12 12 13 13
REMARK H PARENT
REMARK Flexibility Score: inf
ROOT
ATOM      1  C   UNL     1      33.283 -47.517  -0.299  1.00  0.00     0.000 C 
ENDROOT
BRANCH   1   2
ATOM      2  C   UNL     1      32.897 -46.468  -1.355  1.00  0.00     0.000 C 
BRANCH   2   3
ATOM      3  C   UNL     1      33.008 -47.004  -2.790  1.00  0.00     0.006 C 
BRANCH   3   4
ATOM      4  C   UNL     1      33.855 -48.278  -2.834  1.00  0.00     0.053 C 
BRANCH   4   5
ATOM      5  C   UNL     1      33.144 -49.356  -3.591  1.00  0.00     0.041 C 
ATOM      6  O   UNL     1      33.782 -50.105  -4.377  1.00  0.00    -0.550 OA
ATOM      7  O   UNL     1      31.768 -49.500  -3.468  1.00  0.00    -0.550 OA
ENDBRANCH   4   5
ENDBRANCH   3   4
ENDBRANCH   2   3
ENDBRANCH   1   2
BRANCH   1   8
ATOM      8  C   UNL     1      33.544 -46.900   1.082  1.00  0.00     0.000 C 
BRANCH   8   9
ATOM      9  C   UNL     1      34.328 -47.869   1.978  1.00  0.00     0.006 C 
BRANCH   9  10
ATOM     10  C   UNL     1      34.642 -49.194   1.269  1.00  0.00     0.053 C 
BRANCH  10  11
ATOM     11  C   UNL     1      33.919 -50.346   1.898  1.00  0.00     0.041 C 
ATOM     12  O   UNL     1      34.489 -51.049   2.773  1.00  0.00    -0.550 OA
ATOM     13  O   UNL     1      32.629 -50.663   1.493  1.00  0.00    -0.550 OA
ENDBRANCH  10  11
ENDBRANCH   9  10
ENDBRANCH   8   9
ENDBRANCH   1   8
TORSDOF 8
ENDMDL
