MODEL 1
REMARK VINA RESULT:    -6.599      0.000      0.000
REMARK INTER + INTRA:          -7.927
REMARK INTER:                  -7.756
REMARK INTRA:                  -0.171
REMARK UNBOUND:                -0.171
REMARK SMILES O=c1c(O)c(-c2ccc(O)cc2)oc2cc(O)cc(O)c12
REMARK SMILES IDX 5 1 3 2 2 3 1 4 21 5 19 6 18 7 16 8 15 9 14 10 13 11 6 12
REMARK SMILES IDX 7 13 8 14 9 15 12 16 11 17 10 18 4 20 20 22 17 24
REMARK H PARENT 10 19 4 21 20 23 17 25
REMARK Flexibility Score: inf
ROOT
ATOM      1  C   UNL     1      30.837 -92.182  37.353  1.00  0.00     0.180 A 
ATOM      2  C   UNL     1      29.615 -92.788  37.009  1.00  0.00     0.208 A 
ATOM      3  C   UNL     1      29.472 -94.175  37.176  1.00  0.00     0.238 A 
ATOM      4  O   UNL     1      28.396 -94.718  36.815  1.00  0.00    -0.285 OA
ATOM      5  C   UNL     1      30.544 -94.935  37.700  1.00  0.00     0.111 A 
ATOM      6  C   UNL     1      30.494 -96.340  37.949  1.00  0.00     0.134 A 
ATOM      7  C   UNL     1      31.658 -97.013  38.346  1.00  0.00     0.093 A 
ATOM      8  C   UNL     1      32.850 -96.319  38.566  1.00  0.00     0.123 A 
ATOM      9  C   UNL     1      32.892 -94.940  38.383  1.00  0.00     0.094 A 
ATOM     10  C   UNL     1      31.758 -94.246  37.952  1.00  0.00     0.146 A 
ATOM     11  O   UNL     1      31.845 -92.933  37.780  1.00  0.00    -0.452 OA
ENDROOT
BRANCH   1  12
ATOM     12  C   UNL     1      31.056 -90.723  37.229  1.00  0.00     0.021 A 
ATOM     13  C   UNL     1      32.038 -90.244  36.346  1.00  0.00     0.016 A 
ATOM     14  C   UNL     1      32.277 -88.871  36.230  1.00  0.00     0.047 A 
ATOM     15  C   UNL     1      31.549 -87.962  37.003  1.00  0.00     0.115 A 
ATOM     16  C   UNL     1      30.340 -89.805  38.019  1.00  0.00     0.016 A 
ATOM     17  C   UNL     1      30.582 -88.433  37.901  1.00  0.00     0.047 A 
BRANCH  15  18
ATOM     18  O   UNL     1      31.797 -86.597  36.877  1.00  0.00    -0.508 OA
ATOM     19  H   UNL     1      31.798 -85.983  37.682  1.00  0.00     0.293 HD
ENDBRANCH  15  18
ENDBRANCH   1  12
BRANCH   2  20
ATOM     20  O   UNL     1      28.578 -92.022  36.472  1.00  0.00    -0.502 OA
ATOM     21  H   UNL     1      27.997 -91.417  37.042  1.00  0.00     0.293 HD
ENDBRANCH   2  20
BRANCH   6  22
ATOM     22  O   UNL     1      29.332 -97.111  37.848  1.00  0.00    -0.507 OA
ATOM     23  H   UNL     1      29.316 -98.112  37.730  1.00  0.00     0.293 HD
ENDBRANCH   6  22
BRANCH   8  24
ATOM     24  O   UNL     1      33.999 -96.993  38.976  1.00  0.00    -0.508 OA
ATOM     25  H   UNL     1      34.505 -96.718  39.810  1.00  0.00     0.293 HD
ENDBRANCH   8  24
TORSDOF 5
ENDMDL
MODEL 2
REMARK VINA RESULT:    -5.760      9.427     10.784
REMARK INTER + INTRA:          -6.942
REMARK INTER:                  -6.708
REMARK INTRA:                  -0.233
REMARK UNBOUND:                -0.171
REMARK SMILES O=c1c(O)c(-c2ccc(O)cc2)oc2cc(O)cc(O)c12
REMARK SMILES IDX 5 1 3 2 2 3 1 4 21 5 19 6 18 7 16 8 15 9 14 10 13 11 6 12
REMARK SMILES IDX 7 13 8 14 9 15 12 16 11 17 10 18 4 20 20 22 17 24
REMARK H PARENT 10 19 4 21 20 23 17 25
REMARK Flexibility Score: inf
ROOT
ATOM      1  C   UNL     1      36.165 -95.426  29.775  1.00  0.00     0.180 A 
ATOM      2  C   UNL     1      37.234 -95.754  28.922  1.00  0.00     0.208 A 
ATOM      3  C   UNL     1      38.537 -95.781  29.444  1.00  0.00     0.238 A 
ATOM      4  O   UNL     1      39.495 -96.021  28.664  1.00  0.00    -0.285 OA
ATOM      5  C   UNL     1      38.754 -95.496  30.814  1.00  0.00     0.111 A 
ATOM      6  C   UNL     1      40.027 -95.534  31.457  1.00  0.00     0.134 A 
ATOM      7  C   UNL     1      40.143 -95.106  32.787  1.00  0.00     0.093 A 
ATOM      8  C   UNL     1      39.019 -94.706  33.514  1.00  0.00     0.123 A 
ATOM      9  C   UNL     1      37.764 -94.722  32.911  1.00  0.00     0.094 A 
ATOM     10  C   UNL     1      37.622 -95.108  31.576  1.00  0.00     0.146 A 
ATOM     11  O   UNL     1      36.409 -95.100  31.039  1.00  0.00    -0.452 OA
ENDROOT
BRANCH   1  12
ATOM     12  C   UNL     1      34.761 -95.402  29.305  1.00  0.00     0.021 A 
ATOM     13  C   UNL     1      33.911 -96.480  29.605  1.00  0.00     0.016 A 
ATOM     14  C   UNL     1      32.589 -96.487  29.152  1.00  0.00     0.047 A 
ATOM     15  C   UNL     1      32.103 -95.427  28.383  1.00  0.00     0.115 A 
ATOM     16  C   UNL     1      34.272 -94.346  28.513  1.00  0.00     0.016 A 
ATOM     17  C   UNL     1      32.949 -94.356  28.061  1.00  0.00     0.047 A 
BRANCH  15  18
ATOM     18  O   UNL     1      30.783 -95.446  27.939  1.00  0.00    -0.508 OA
ATOM     19  H   UNL     1      30.547 -95.710  26.989  1.00  0.00     0.293 HD
ENDBRANCH  15  18
ENDBRANCH   1  12
BRANCH   2  20
ATOM     20  O   UNL     1      37.000 -96.010  27.569  1.00  0.00    -0.502 OA
ATOM     21  H   UNL     1      36.087 -95.899  27.144  1.00  0.00     0.293 HD
ENDBRANCH   2  20
BRANCH   6  22
ATOM     22  O   UNL     1      41.196 -96.004  30.850  1.00  0.00    -0.507 OA
ATOM     23  H   UNL     1      41.601 -95.618  30.010  1.00  0.00     0.293 HD
ENDBRANCH   6  22
BRANCH   8  24
ATOM     24  O   UNL     1      39.140 -94.297  34.840  1.00  0.00    -0.508 OA
ATOM     25  H   UNL     1      39.165 -94.967  35.600  1.00  0.00     0.293 HD
ENDBRANCH   8  24
TORSDOF 5
ENDMDL
MODEL 3
REMARK VINA RESULT:    -5.424      9.522     11.048
REMARK INTER + INTRA:          -6.546
REMARK INTER:                  -6.372
REMARK INTRA:                  -0.174
REMARK UNBOUND:                -0.171
REMARK SMILES O=c1c(O)c(-c2ccc(O)cc2)oc2cc(O)cc(O)c12
REMARK SMILES IDX 5 1 3 2 2 3 1 4 21 5 19 6 18 7 16 8 15 9 14 10 13 11 6 12
REMARK SMILES IDX 7 13 8 14 9 15 12 16 11 17 10 18 4 20 20 22 17 24
REMARK H PARENT 10 19 4 21 20 23 17 25
REMARK Flexibility Score: inf
ROOT
ATOM      1  C   UNL     1      37.332 -95.585  30.693  1.00  0.00     0.180 A 
ATOM      2  C   UNL     1      37.921 -96.294  29.630  1.00  0.00     0.208 A 
ATOM      3  C   UNL     1      37.205 -96.442  28.432  1.00  0.00     0.238 A 
ATOM      4  O   UNL     1      37.715 -97.124  27.505  1.00  0.00    -0.285 OA
ATOM      5  C   UNL     1      35.918 -95.868  28.305  1.00  0.00     0.111 A 
ATOM      6  C   UNL     1      35.120 -95.922  27.122  1.00  0.00     0.134 A 
ATOM      7  C   UNL     1      33.807 -95.433  27.151  1.00  0.00     0.093 A 
ATOM      8  C   UNL     1      33.289 -94.832  28.300  1.00  0.00     0.123 A 
ATOM      9  C   UNL     1      34.080 -94.722  29.441  1.00  0.00     0.094 A 
ATOM     10  C   UNL     1      35.381 -95.233  29.454  1.00  0.00     0.146 A 
ATOM     11  O   UNL     1      36.097 -95.115  30.565  1.00  0.00    -0.452 OA
ENDROOT
BRANCH   1  12
ATOM     12  C   UNL     1      38.034 -95.365  31.978  1.00  0.00     0.021 A 
ATOM     13  C   UNL     1      37.504 -95.912  33.159  1.00  0.00     0.016 A 
ATOM     14  C   UNL     1      38.138 -95.697  34.386  1.00  0.00     0.047 A 
ATOM     15  C   UNL     1      39.299 -94.922  34.452  1.00  0.00     0.115 A 
ATOM     16  C   UNL     1      39.192 -94.569  32.054  1.00  0.00     0.016 A 
ATOM     17  C   UNL     1      39.824 -94.355  33.283  1.00  0.00     0.047 A 
BRANCH  15  18
ATOM     18  O   UNL     1      39.921 -94.717  35.682  1.00  0.00    -0.508 OA
ATOM     19  H   UNL     1      40.919 -94.847  35.798  1.00  0.00     0.293 HD
ENDBRANCH  15  18
ENDBRANCH   1  12
BRANCH   2  20
ATOM     20  O   UNL     1      39.184 -96.871  29.785  1.00  0.00    -0.502 OA
ATOM     21  H   UNL     1      39.997 -96.334  30.062  1.00  0.00     0.293 HD
ENDBRANCH   2  20
BRANCH   6  22
ATOM     22  O   UNL     1      35.574 -96.418  25.896  1.00  0.00    -0.507 OA
ATOM     23  H   UNL     1      36.061 -95.873  25.201  1.00  0.00     0.293 HD
ENDBRANCH   6  22
BRANCH   8  24
ATOM     24  O   UNL     1      31.988 -94.334  28.316  1.00  0.00    -0.508 OA
ATOM     25  H   UNL     1      31.287 -94.662  27.662  1.00  0.00     0.293 HD
ENDBRANCH   8  24
TORSDOF 5
ENDMDL
MODEL 4
REMARK VINA RESULT:    -5.303      7.732     10.308
REMARK INTER + INTRA:          -6.404
REMARK INTER:                  -6.146
REMARK INTRA:                  -0.257
REMARK UNBOUND:                -0.171
REMARK SMILES O=c1c(O)c(-c2ccc(O)cc2)oc2cc(O)cc(O)c12
REMARK SMILES IDX 5 1 3 2 2 3 1 4 21 5 19 6 18 7 16 8 15 9 14 10 13 11 6 12
REMARK SMILES IDX 7 13 8 14 9 15 12 16 11 17 10 18 4 20 20 22 17 24
REMARK H PARENT 10 19 4 21 20 23 17 25
REMARK Flexibility Score: inf
ROOT
ATOM      1  C   UNL     1      39.808 -95.553  35.216  1.00  0.00     0.180 A 
ATOM      2  C   UNL     1      40.825 -95.157  36.103  1.00  0.00     0.208 A 
ATOM      3  C   UNL     1      40.605 -95.268  37.485  1.00  0.00     0.238 A 
ATOM      4  O   UNL     1      41.497 -94.861  38.273  1.00  0.00    -0.285 OA
ATOM      5  C   UNL     1      39.379 -95.789  37.963  1.00  0.00     0.111 A 
ATOM      6  C   UNL     1      39.064 -95.984  39.341  1.00  0.00     0.134 A 
ATOM      7  C   UNL     1      37.771 -96.384  39.706  1.00  0.00     0.093 A 
ATOM      8  C   UNL     1      36.804 -96.659  38.737  1.00  0.00     0.123 A 
ATOM      9  C   UNL     1      37.120 -96.529  37.387  1.00  0.00     0.094 A 
ATOM     10  C   UNL     1      38.389 -96.096  36.993  1.00  0.00     0.146 A 
ATOM     11  O   UNL     1      38.644 -95.976  35.697  1.00  0.00    -0.452 OA
ENDROOT
BRANCH   1  12
ATOM     12  C   UNL     1      39.974 -95.489  33.746  1.00  0.00     0.021 A 
ATOM     13  C   UNL     1      39.315 -94.485  33.018  1.00  0.00     0.016 A 
ATOM     14  C   UNL     1      39.440 -94.420  31.627  1.00  0.00     0.047 A 
ATOM     15  C   UNL     1      40.212 -95.365  30.945  1.00  0.00     0.115 A 
ATOM     16  C   UNL     1      40.733 -96.450  33.052  1.00  0.00     0.016 A 
ATOM     17  C   UNL     1      40.857 -96.383  31.661  1.00  0.00     0.047 A 
BRANCH  15  18
ATOM     18  O   UNL     1      40.329 -95.288  29.559  1.00  0.00    -0.508 OA
ATOM     19  H   UNL     1      40.648 -96.077  29.010  1.00  0.00     0.293 HD
ENDBRANCH  15  18
ENDBRANCH   1  12
BRANCH   2  20
ATOM     20  O   UNL     1      42.018 -94.625  35.609  1.00  0.00    -0.502 OA
ATOM     21  H   UNL     1      42.294 -93.663  35.772  1.00  0.00     0.293 HD
ENDBRANCH   2  20
BRANCH   6  22
ATOM     22  O   UNL     1      39.984 -95.826  40.382  1.00  0.00    -0.507 OA
ATOM     23  H   UNL     1      39.757 -95.883  41.363  1.00  0.00     0.293 HD
ENDBRANCH   6  22
BRANCH   8  24
ATOM     24  O   UNL     1      35.525 -97.071  39.106  1.00  0.00    -0.508 OA
ATOM     25  H   UNL     1      35.179 -97.995  38.874  1.00  0.00     0.293 HD
ENDBRANCH   8  24
TORSDOF 5
ENDMDL
MODEL 5
REMARK VINA RESULT:    -5.154     15.109     16.810
REMARK INTER + INTRA:          -6.228
REMARK INTER:                  -5.975
REMARK INTRA:                  -0.254
REMARK UNBOUND:                -0.171
REMARK SMILES O=c1c(O)c(-c2ccc(O)cc2)oc2cc(O)cc(O)c12
REMARK SMILES IDX 5 1 3 2 2 3 1 4 21 5 19 6 18 7 16 8 15 9 14 10 13 11 6 12
REMARK SMILES IDX 7 13 8 14 9 15 12 16 11 17 10 18 4 20 20 22 17 24
REMARK H PARENT 10 19 4 21 20 23 17 25
REMARK Flexibility Score: inf
ROOT
ATOM      1  C   UNL     1      37.293 -77.998  37.618  1.00  0.00     0.180 A 
ATOM      2  C   UNL     1      37.856 -77.838  36.340  1.00  0.00     0.208 A 
ATOM      3  C   UNL     1      37.005 -77.763  35.226  1.00  0.00     0.238 A 
ATOM      4  O   UNL     1      37.517 -77.675  34.079  1.00  0.00    -0.285 OA
ATOM      5  C   UNL     1      35.602 -77.833  35.405  1.00  0.00     0.111 A 
ATOM      6  C   UNL     1      34.645 -77.727  34.351  1.00  0.00     0.134 A 
ATOM      7  C   UNL     1      33.288 -77.941  34.626  1.00  0.00     0.093 A 
ATOM      8  C   UNL     1      32.849 -78.191  35.928  1.00  0.00     0.123 A 
ATOM      9  C   UNL     1      33.769 -78.237  36.972  1.00  0.00     0.094 A 
ATOM     10  C   UNL     1      35.133 -78.064  36.723  1.00  0.00     0.146 A 
ATOM     11  O   UNL     1      35.977 -78.126  37.746  1.00  0.00    -0.452 OA
ENDROOT
BRANCH   1  12
ATOM     12  C   UNL     1      38.122 -78.060  38.843  1.00  0.00     0.021 A 
ATOM     13  C   UNL     1      38.656 -76.876  39.379  1.00  0.00     0.016 A 
ATOM     14  C   UNL     1      39.461 -76.914  40.521  1.00  0.00     0.047 A 
ATOM     15  C   UNL     1      39.754 -78.135  41.134  1.00  0.00     0.115 A 
ATOM     16  C   UNL     1      38.438 -79.288  39.453  1.00  0.00     0.016 A 
ATOM     17  C   UNL     1      39.244 -79.324  40.595  1.00  0.00     0.047 A 
BRANCH  15  18
ATOM     18  O   UNL     1      40.556 -78.159  42.273  1.00  0.00    -0.508 OA
ATOM     19  H   UNL     1      41.297 -77.482  42.413  1.00  0.00     0.293 HD
ENDBRANCH  15  18
ENDBRANCH   1  12
BRANCH   2  20
ATOM     20  O   UNL     1      39.243 -77.794  36.184  1.00  0.00    -0.502 OA
ATOM     21  H   UNL     1      39.747 -78.452  35.601  1.00  0.00     0.293 HD
ENDBRANCH   2  20
BRANCH   6  22
ATOM     22  O   UNL     1      34.969 -77.391  33.033  1.00  0.00    -0.507 OA
ATOM     23  H   UNL     1      34.310 -77.362  32.270  1.00  0.00     0.293 HD
ENDBRANCH   6  22
BRANCH   8  24
ATOM     24  O   UNL     1      31.495 -78.387  36.196  1.00  0.00    -0.508 OA
ATOM     25  H   UNL     1      30.829 -77.625  36.144  1.00  0.00     0.293 HD
ENDBRANCH   8  24
TORSDOF 5
ENDMDL
MODEL 6
REMARK VINA RESULT:    -5.024     10.709     11.907
REMARK INTER + INTRA:          -6.076
REMARK INTER:                  -5.825
REMARK INTRA:                  -0.252
REMARK UNBOUND:                -0.171
REMARK SMILES O=c1c(O)c(-c2ccc(O)cc2)oc2cc(O)cc(O)c12
REMARK SMILES IDX 5 1 3 2 2 3 1 4 21 5 19 6 18 7 16 8 15 9 14 10 13 11 6 12
REMARK SMILES IDX 7 13 8 14 9 15 12 16 11 17 10 18 4 20 20 22 17 24
REMARK H PARENT 10 19 4 21 20 23 17 25
REMARK Flexibility Score: inf
ROOT
ATOM      1  C   UNL     1      36.401 -95.620  28.989  1.00  0.00     0.180 A 
ATOM      2  C   UNL     1      36.630 -95.676  30.375  1.00  0.00     0.208 A 
ATOM      3  C   UNL     1      37.952 -95.716  30.846  1.00  0.00     0.238 A 
ATOM      4  O   UNL     1      38.148 -95.822  32.085  1.00  0.00    -0.285 OA
ATOM      5  C   UNL     1      39.028 -95.682  29.928  1.00  0.00     0.111 A 
ATOM      6  C   UNL     1      40.407 -95.676  30.296  1.00  0.00     0.134 A 
ATOM      7  C   UNL     1      41.389 -95.774  29.301  1.00  0.00     0.093 A 
ATOM      8  C   UNL     1      41.041 -95.810  27.948  1.00  0.00     0.123 A 
ATOM      9  C   UNL     1      39.699 -95.756  27.578  1.00  0.00     0.094 A 
ATOM     10  C   UNL     1      38.696 -95.695  28.548  1.00  0.00     0.146 A 
ATOM     11  O   UNL     1      37.431 -95.655  28.151  1.00  0.00    -0.452 OA
ENDROOT
BRANCH   1  12
ATOM     12  C   UNL     1      35.037 -95.550  28.417  1.00  0.00     0.021 A 
ATOM     13  C   UNL     1      34.334 -94.334  28.448  1.00  0.00     0.016 A 
ATOM     14  C   UNL     1      33.037 -94.252  27.934  1.00  0.00     0.047 A 
ATOM     15  C   UNL     1      32.421 -95.385  27.396  1.00  0.00     0.115 A 
ATOM     16  C   UNL     1      34.404 -96.692  27.892  1.00  0.00     0.016 A 
ATOM     17  C   UNL     1      33.106 -96.607  27.379  1.00  0.00     0.047 A 
BRANCH  15  18
ATOM     18  O   UNL     1      31.128 -95.289  26.886  1.00  0.00    -0.508 OA
ATOM     19  H   UNL     1      30.438 -96.012  27.053  1.00  0.00     0.293 HD
ENDBRANCH  15  18
ENDBRANCH   1  12
BRANCH   2  20
ATOM     20  O   UNL     1      35.552 -95.731  31.263  1.00  0.00    -0.502 OA
ATOM     21  H   UNL     1      34.800 -95.052  31.249  1.00  0.00     0.293 HD
ENDBRANCH   2  20
BRANCH   6  22
ATOM     22  O   UNL     1      40.864 -95.551  31.612  1.00  0.00    -0.507 OA
ATOM     23  H   UNL     1      40.964 -96.318  32.260  1.00  0.00     0.293 HD
ENDBRANCH   6  22
BRANCH   8  24
ATOM     24  O   UNL     1      42.023 -95.891  26.964  1.00  0.00    -0.508 OA
ATOM     25  H   UNL     1      42.401 -95.060  26.523  1.00  0.00     0.293 HD
ENDBRANCH   8  24
TORSDOF 5
ENDMDL
MODEL 7
REMARK VINA RESULT:    -4.942     15.472     16.392
REMARK INTER + INTRA:          -5.979
REMARK INTER:                  -5.980
REMARK INTRA:                   0.001
REMARK UNBOUND:                -0.171
REMARK SMILES O=c1c(O)c(-c2ccc(O)cc2)oc2cc(O)cc(O)c12
REMARK SMILES IDX 5 1 3 2 2 3 1 4 21 5 19 6 18 7 16 8 15 9 14 10 13 11 6 12
REMARK SMILES IDX 7 13 8 14 9 15 12 16 11 17 10 18 4 20 20 22 17 24
REMARK H PARENT 10 19 4 21 20 23 17 25
REMARK Flexibility Score: inf
ROOT
ATOM      1  C   UNL     1      36.386 -77.946  37.577  1.00  0.00     0.180 A 
ATOM      2  C   UNL     1      37.486 -77.585  36.780  1.00  0.00     0.208 A 
ATOM      3  C   UNL     1      38.782 -77.878  37.234  1.00  0.00     0.238 A 
ATOM      4  O   UNL     1      39.763 -77.504  36.542  1.00  0.00    -0.285 OA
ATOM      5  C   UNL     1      38.961 -78.541  38.472  1.00  0.00     0.111 A 
ATOM      6  C   UNL     1      40.226 -78.922  39.011  1.00  0.00     0.134 A 
ATOM      7  C   UNL     1      40.294 -79.456  40.305  1.00  0.00     0.093 A 
ATOM      8  C   UNL     1      39.135 -79.683  41.051  1.00  0.00     0.123 A 
ATOM      9  C   UNL     1      37.891 -79.368  40.510  1.00  0.00     0.094 A 
ATOM     10  C   UNL     1      37.794 -78.801  39.237  1.00  0.00     0.146 A 
ATOM     11  O   UNL     1      36.590 -78.507  38.764  1.00  0.00    -0.452 OA
ENDROOT
BRANCH   1  12
ATOM     12  C   UNL     1      34.989 -77.694  37.155  1.00  0.00     0.021 A 
ATOM     13  C   UNL     1      34.089 -77.101  38.057  1.00  0.00     0.016 A 
ATOM     14  C   UNL     1      32.760 -76.875  37.686  1.00  0.00     0.047 A 
ATOM     15  C   UNL     1      32.310 -77.250  36.417  1.00  0.00     0.115 A 
ATOM     16  C   UNL     1      34.525 -78.088  35.886  1.00  0.00     0.016 A 
ATOM     17  C   UNL     1      33.195 -77.860  35.518  1.00  0.00     0.047 A 
BRANCH  15  18
ATOM     18  O   UNL     1      30.984 -77.018  36.061  1.00  0.00    -0.508 OA
ATOM     19  H   UNL     1      30.594 -77.388  35.202  1.00  0.00     0.293 HD
ENDBRANCH  15  18
ENDBRANCH   1  12
BRANCH   2  20
ATOM     20  O   UNL     1      37.287 -76.912  35.572  1.00  0.00    -0.502 OA
ATOM     21  H   UNL     1      36.899 -75.977  35.528  1.00  0.00     0.293 HD
ENDBRANCH   2  20
BRANCH   6  22
ATOM     22  O   UNL     1      41.434 -78.824  38.313  1.00  0.00    -0.507 OA
ATOM     23  H   UNL     1      41.916 -79.601  37.887  1.00  0.00     0.293 HD
ENDBRANCH   6  22
BRANCH   8  24
ATOM     24  O   UNL     1      39.210 -80.229  42.331  1.00  0.00    -0.508 OA
ATOM     25  H   UNL     1      39.536 -79.684  43.120  1.00  0.00     0.293 HD
ENDBRANCH   8  24
TORSDOF 5
ENDMDL
MODEL 8
REMARK VINA RESULT:    -4.905      8.178     10.123
REMARK INTER + INTRA:          -5.936
REMARK INTER:                  -5.717
REMARK INTRA:                  -0.219
REMARK UNBOUND:                -0.171
REMARK SMILES O=c1c(O)c(-c2ccc(O)cc2)oc2cc(O)cc(O)c12
REMARK SMILES IDX 5 1 3 2 2 3 1 4 21 5 19 6 18 7 16 8 15 9 14 10 13 11 6 12
REMARK SMILES IDX 7 13 8 14 9 15 12 16 11 17 10 18 4 20 20 22 17 24
REMARK H PARENT 10 19 4 21 20 23 17 25
REMARK Flexibility Score: inf
ROOT
ATOM      1  C   UNL     1      39.401 -95.680  34.792  1.00  0.00     0.180 A 
ATOM      2  C   UNL     1      38.120 -96.062  35.229  1.00  0.00     0.208 A 
ATOM      3  C   UNL     1      37.856 -96.104  36.607  1.00  0.00     0.238 A 
ATOM      4  O   UNL     1      36.724 -96.498  36.993  1.00  0.00    -0.285 OA
ATOM      5  C   UNL     1      38.868 -95.749  37.530  1.00  0.00     0.111 A 
ATOM      6  C   UNL     1      38.698 -95.717  38.947  1.00  0.00     0.134 A 
ATOM      7  C   UNL     1      39.806 -95.478  39.771  1.00  0.00     0.093 A 
ATOM      8  C   UNL     1      41.063 -95.205  39.226  1.00  0.00     0.123 A 
ATOM      9  C   UNL     1      41.225 -95.176  37.843  1.00  0.00     0.094 A 
ATOM     10  C   UNL     1      40.147 -95.446  36.996  1.00  0.00     0.146 A 
ATOM     11  O   UNL     1      40.349 -95.417  35.685  1.00  0.00    -0.452 OA
ENDROOT
BRANCH   1  12
ATOM     12  C   UNL     1      39.749 -95.588  33.356  1.00  0.00     0.021 A 
ATOM     13  C   UNL     1      40.658 -96.506  32.803  1.00  0.00     0.016 A 
ATOM     14  C   UNL     1      41.018 -96.422  31.455  1.00  0.00     0.047 A 
ATOM     15  C   UNL     1      40.486 -95.414  30.646  1.00  0.00     0.115 A 
ATOM     16  C   UNL     1      39.233 -94.563  32.542  1.00  0.00     0.016 A 
ATOM     17  C   UNL     1      39.595 -94.481  31.193  1.00  0.00     0.047 A 
BRANCH  15  18
ATOM     18  O   UNL     1      40.852 -95.343  29.304  1.00  0.00    -0.508 OA
ATOM     19  H   UNL     1      41.349 -96.101  28.850  1.00  0.00     0.293 HD
ENDBRANCH  15  18
ENDBRANCH   1  12
BRANCH   2  20
ATOM     20  O   UNL     1      37.142 -96.429  34.302  1.00  0.00    -0.502 OA
ATOM     21  H   UNL     1      36.371 -97.042  34.538  1.00  0.00     0.293 HD
ENDBRANCH   2  20
BRANCH   6  22
ATOM     22  O   UNL     1      37.468 -95.886  39.590  1.00  0.00    -0.507 OA
ATOM     23  H   UNL     1      37.067 -95.231  40.244  1.00  0.00     0.293 HD
ENDBRANCH   6  22
BRANCH   8  24
ATOM     24  O   UNL     1      42.156 -94.953  40.051  1.00  0.00    -0.508 OA
ATOM     25  H   UNL     1      42.916 -94.352  39.755  1.00  0.00     0.293 HD
ENDBRANCH   8  24
TORSDOF 5
ENDMDL
MODEL 9
REMARK VINA RESULT:    -4.745     16.375     18.019
REMARK INTER + INTRA:          -5.748
REMARK INTER:                  -5.571
REMARK INTRA:                  -0.177
REMARK UNBOUND:                -0.171
REMARK SMILES O=c1c(O)c(-c2ccc(O)cc2)oc2cc(O)cc(O)c12
REMARK SMILES IDX 5 1 3 2 2 3 1 4 21 5 19 6 18 7 16 8 15 9 14 10 13 11 6 12
REMARK SMILES IDX 7 13 8 14 9 15 12 16 11 17 10 18 4 20 20 22 17 24
REMARK H PARENT 10 19 4 21 20 23 17 25
REMARK Flexibility Score: inf
ROOT
ATOM      1  C   UNL     1      38.712 -77.628  36.111  1.00  0.00     0.180 A 
ATOM      2  C   UNL     1      37.392 -77.424  35.672  1.00  0.00     0.208 A 
ATOM      3  C   UNL     1      37.147 -77.278  34.298  1.00  0.00     0.238 A 
ATOM      4  O   UNL     1      35.971 -77.041  33.916  1.00  0.00    -0.285 OA
ATOM      5  C   UNL     1      38.220 -77.353  33.378  1.00  0.00     0.111 A 
ATOM      6  C   UNL     1      38.081 -77.259  31.961  1.00  0.00     0.134 A 
ATOM      7  C   UNL     1      39.227 -77.215  31.155  1.00  0.00     0.093 A 
ATOM      8  C   UNL     1      40.503 -77.330  31.712  1.00  0.00     0.123 A 
ATOM      9  C   UNL     1      40.645 -77.481  33.089  1.00  0.00     0.094 A 
ATOM     10  C   UNL     1      39.524 -77.491  33.922  1.00  0.00     0.146 A 
ATOM     11  O   UNL     1      39.706 -77.628  35.229  1.00  0.00    -0.452 OA
ENDROOT
BRANCH   1  12
ATOM     12  C   UNL     1      39.048 -77.816  37.541  1.00  0.00     0.021 A 
ATOM     13  C   UNL     1      39.864 -76.875  38.190  1.00  0.00     0.016 A 
ATOM     14  C   UNL     1      40.212 -77.045  39.534  1.00  0.00     0.047 A 
ATOM     15  C   UNL     1      39.761 -78.163  40.240  1.00  0.00     0.115 A 
ATOM     16  C   UNL     1      38.614 -78.950  38.252  1.00  0.00     0.016 A 
ATOM     17  C   UNL     1      38.963 -79.118  39.596  1.00  0.00     0.047 A 
BRANCH  15  18
ATOM     18  O   UNL     1      40.114 -78.320  41.579  1.00  0.00    -0.508 OA
ATOM     19  H   UNL     1      40.528 -79.179  41.920  1.00  0.00     0.293 HD
ENDBRANCH  15  18
ENDBRANCH   1  12
BRANCH   2  20
ATOM     20  O   UNL     1      36.351 -77.331  36.598  1.00  0.00    -0.502 OA
ATOM     21  H   UNL     1      35.585 -77.994  36.625  1.00  0.00     0.293 HD
ENDBRANCH   2  20
BRANCH   6  22
ATOM     22  O   UNL     1      36.851 -77.232  31.297  1.00  0.00    -0.507 OA
ATOM     23  H   UNL     1      35.970 -77.496  31.711  1.00  0.00     0.293 HD
ENDBRANCH   6  22
BRANCH   8  24
ATOM     24  O   UNL     1      41.636 -77.302  30.903  1.00  0.00    -0.508 OA
ATOM     25  H   UNL     1      42.197 -78.131  30.748  1.00  0.00     0.293 HD
ENDBRANCH   8  24
TORSDOF 5
ENDMDL
