MODEL 1
REMARK VINA RESULT:    -4.656      0.000      0.000
REMARK INTER + INTRA:          -5.305
REMARK INTER:                  -5.064
REMARK INTRA:                  -0.241
REMARK UNBOUND:                -0.241
REMARK SMILES O=C([O-])c1ccccc1O
REMARK SMILES IDX 4 1 9 2 5 3 8 4 6 5 7 6 2 7 1 8 3 9 10 10
REMARK H PARENT 10 11
REMARK Flexibility Score: inf
ROOT
ATOM      1  C   UNL     1     -13.529  40.636  -9.560  1.00  0.00     0.039 A 
ATOM      2  C   UNL     1     -14.288  41.826  -9.711  1.00  0.00     0.124 A 
ATOM      3  C   UNL     1     -14.143  39.400  -9.836  1.00  0.00     0.014 A 
ATOM      4  C   UNL     1     -15.602  41.754 -10.190  1.00  0.00     0.047 A 
ATOM      5  C   UNL     1     -15.461  39.344 -10.292  1.00  0.00     0.001 A 
ATOM      6  C   UNL     1     -16.187  40.520 -10.479  1.00  0.00     0.004 A 
ENDROOT
BRANCH   1   7
ATOM      7  C   UNL     1     -12.106  40.637  -9.153  1.00  0.00     0.075 C 
ATOM      8  O   UNL     1     -11.279  41.413  -9.699  1.00  0.00    -0.545 OA
ATOM      9  O   UNL     1     -11.653  39.727  -8.206  1.00  0.00    -0.545 OA
ENDBRANCH   1   7
BRANCH   2  10
ATOM     10  O   UNL     1     -13.791  43.086  -9.369  1.00  0.00    -0.507 OA
ATOM     11  H   UNL     1     -14.031  43.568  -8.514  1.00  0.00     0.293 HD
ENDBRANCH   2  10
TORSDOF 2
ENDMDL
MODEL 2
REMARK VINA RESULT:    -4.638      8.373      9.554
REMARK INTER + INTRA:          -5.285
REMARK INTER:                  -5.037
REMARK INTRA:                  -0.249
REMARK UNBOUND:                -0.241
REMARK SMILES O=C([O-])c1ccccc1O
REMARK SMILES IDX 4 1 9 2 5 3 8 4 6 5 7 6 2 7 1 8 3 9 10 10
REMARK H PARENT 10 11
REMARK Flexibility Score: inf
ROOT
ATOM      1  C   UNL     1     -13.336  34.098  -2.906  1.00  0.00     0.039 A 
ATOM      2  C   UNL     1     -12.475  34.601  -3.915  1.00  0.00     0.124 A 
ATOM      3  C   UNL     1     -14.359  33.202  -3.269  1.00  0.00     0.014 A 
ATOM      4  C   UNL     1     -12.616  34.151  -5.233  1.00  0.00     0.047 A 
ATOM      5  C   UNL     1     -14.499  32.781  -4.593  1.00  0.00     0.001 A 
ATOM      6  C   UNL     1     -13.623  33.247  -5.573  1.00  0.00     0.004 A 
ENDROOT
BRANCH   1   7
ATOM      7  C   UNL     1     -13.188  34.449  -1.475  1.00  0.00     0.075 C 
ATOM      8  O   UNL     1     -13.013  35.643  -1.117  1.00  0.00    -0.545 OA
ATOM      9  O   UNL     1     -13.171  33.448  -0.512  1.00  0.00    -0.545 OA
ENDBRANCH   1   7
BRANCH   2  10
ATOM     10  O   UNL     1     -11.496  35.565  -3.660  1.00  0.00    -0.507 OA
ATOM     11  H   UNL     1     -10.543  35.341  -3.408  1.00  0.00     0.293 HD
ENDBRANCH   2  10
TORSDOF 2
ENDMDL
MODEL 3
REMARK VINA RESULT:    -4.537      7.334      8.279
REMARK INTER + INTRA:          -5.176
REMARK INTER:                  -4.970
REMARK INTRA:                  -0.205
REMARK UNBOUND:                -0.241
REMARK SMILES O=C([O-])c1ccccc1O
REMARK SMILES IDX 4 1 9 2 5 3 8 4 6 5 7 6 2 7 1 8 3 9 10 10
REMARK H PARENT 10 11
REMARK Flexibility Score: inf
ROOT
ATOM      1  C   UNL     1     -12.544  34.893  -4.363  1.00  0.00     0.039 A 
ATOM      2  C   UNL     1     -13.060  34.583  -5.649  1.00  0.00     0.124 A 
ATOM      3  C   UNL     1     -12.984  34.143  -3.256  1.00  0.00     0.014 A 
ATOM      4  C   UNL     1     -13.941  33.505  -5.800  1.00  0.00     0.047 A 
ATOM      5  C   UNL     1     -13.879  33.085  -3.422  1.00  0.00     0.001 A 
ATOM      6  C   UNL     1     -14.350  32.759  -4.694  1.00  0.00     0.004 A 
ENDROOT
BRANCH   1   7
ATOM      7  C   UNL     1     -11.536  35.952  -4.137  1.00  0.00     0.075 C 
ATOM      8  O   UNL     1     -11.217  36.303  -2.971  1.00  0.00    -0.545 OA
ATOM      9  O   UNL     1     -10.977  36.622  -5.219  1.00  0.00    -0.545 OA
ENDBRANCH   1   7
BRANCH   2  10
ATOM     10  O   UNL     1     -12.753  35.334  -6.786  1.00  0.00    -0.507 OA
ATOM     11  H   UNL     1     -11.981  35.124  -7.403  1.00  0.00     0.293 HD
ENDBRANCH   2  10
TORSDOF 2
ENDMDL
MODEL 4
REMARK VINA RESULT:    -4.532      9.481     10.625
REMARK INTER + INTRA:          -5.170
REMARK INTER:                  -4.936
REMARK INTRA:                  -0.234
REMARK UNBOUND:                -0.241
REMARK SMILES O=C([O-])c1ccccc1O
REMARK SMILES IDX 4 1 9 2 5 3 8 4 6 5 7 6 2 7 1 8 3 9 10 10
REMARK H PARENT 10 11
REMARK Flexibility Score: inf
ROOT
ATOM      1  C   UNL     1     -15.055  34.841  -2.016  1.00  0.00     0.039 A 
ATOM      2  C   UNL     1     -14.448  34.572  -0.762  1.00  0.00     0.124 A 
ATOM      3  C   UNL     1     -14.752  34.009  -3.110  1.00  0.00     0.014 A 
ATOM      4  C   UNL     1     -13.616  33.454  -0.621  1.00  0.00     0.047 A 
ATOM      5  C   UNL     1     -13.903  32.912  -2.957  1.00  0.00     0.001 A 
ATOM      6  C   UNL     1     -13.343  32.628  -1.712  1.00  0.00     0.004 A 
ENDROOT
BRANCH   1   7
ATOM      7  C   UNL     1     -16.021  35.943  -2.220  1.00  0.00     0.075 C 
ATOM      8  O   UNL     1     -16.650  36.440  -1.249  1.00  0.00    -0.545 OA
ATOM      9  O   UNL     1     -16.297  36.398  -3.504  1.00  0.00    -0.545 OA
ENDBRANCH   1   7
BRANCH   2  10
ATOM     10  O   UNL     1     -14.617  35.399   0.352  1.00  0.00    -0.507 OA
ATOM     11  H   UNL     1     -13.884  35.593   1.019  1.00  0.00     0.293 HD
ENDBRANCH   2  10
TORSDOF 2
ENDMDL
MODEL 5
REMARK VINA RESULT:    -4.494      9.871     11.041
REMARK INTER + INTRA:          -5.129
REMARK INTER:                  -4.881
REMARK INTRA:                  -0.248
REMARK UNBOUND:                -0.241
REMARK SMILES O=C([O-])c1ccccc1O
REMARK SMILES IDX 4 1 9 2 5 3 8 4 6 5 7 6 2 7 1 8 3 9 10 10
REMARK H PARENT 10 11
REMARK Flexibility Score: inf
ROOT
ATOM      1  C   UNL     1     -14.655  34.646  -1.196  1.00  0.00     0.039 A 
ATOM      2  C   UNL     1     -13.568  33.757  -0.990  1.00  0.00     0.124 A 
ATOM      3  C   UNL     1     -15.224  34.737  -2.480  1.00  0.00     0.014 A 
ATOM      4  C   UNL     1     -13.126  32.947  -2.043  1.00  0.00     0.047 A 
ATOM      5  C   UNL     1     -14.756  33.938  -3.525  1.00  0.00     0.001 A 
ATOM      6  C   UNL     1     -13.715  33.037  -3.305  1.00  0.00     0.004 A 
ENDROOT
BRANCH   1   7
ATOM      7  C   UNL     1     -15.242  35.461  -0.109  1.00  0.00     0.075 C 
ATOM      8  O   UNL     1     -15.461  36.690  -0.269  1.00  0.00    -0.545 OA
ATOM      9  O   UNL     1     -15.496  34.887   1.131  1.00  0.00    -0.545 OA
ENDBRANCH   1   7
BRANCH   2  10
ATOM     10  O   UNL     1     -12.882  33.672   0.225  1.00  0.00    -0.507 OA
ATOM     11  H   UNL     1     -11.938  33.323   0.310  1.00  0.00     0.293 HD
ENDBRANCH   2  10
TORSDOF 2
ENDMDL
MODEL 6
REMARK VINA RESULT:    -4.444      8.699      9.726
REMARK INTER + INTRA:          -5.074
REMARK INTER:                  -4.823
REMARK INTRA:                  -0.252
REMARK UNBOUND:                -0.241
REMARK SMILES O=C([O-])c1ccccc1O
REMARK SMILES IDX 4 1 9 2 5 3 8 4 6 5 7 6 2 7 1 8 3 9 10 10
REMARK H PARENT 10 11
REMARK Flexibility Score: inf
ROOT
ATOM      1  C   UNL     1     -13.166  34.246  -3.001  1.00  0.00     0.039 A 
ATOM      2  C   UNL     1     -14.293  33.405  -3.198  1.00  0.00     0.124 A 
ATOM      3  C   UNL     1     -12.308  34.499  -4.088  1.00  0.00     0.014 A 
ATOM      4  C   UNL     1     -14.564  32.899  -4.475  1.00  0.00     0.047 A 
ATOM      5  C   UNL     1     -12.582  33.968  -5.350  1.00  0.00     0.001 A 
ATOM      6  C   UNL     1     -13.713  33.177  -5.546  1.00  0.00     0.004 A 
ENDROOT
BRANCH   1   7
ATOM      7  C   UNL     1     -12.868  34.898  -1.706  1.00  0.00     0.075 C 
ATOM      8  O   UNL     1     -12.423  36.075  -1.662  1.00  0.00    -0.545 OA
ATOM      9  O   UNL     1     -13.014  34.188  -0.520  1.00  0.00    -0.545 OA
ENDBRANCH   1   7
BRANCH   2  10
ATOM     10  O   UNL     1     -15.142  33.024  -2.156  1.00  0.00    -0.507 OA
ATOM     11  H   UNL     1     -16.138  32.893  -2.266  1.00  0.00     0.293 HD
ENDBRANCH   2  10
TORSDOF 2
ENDMDL
MODEL 7
REMARK VINA RESULT:    -4.425      1.942      2.310
REMARK INTER + INTRA:          -5.054
REMARK INTER:                  -4.816
REMARK INTRA:                  -0.238
REMARK UNBOUND:                -0.241
REMARK SMILES O=C([O-])c1ccccc1O
REMARK SMILES IDX 4 1 9 2 5 3 8 4 6 5 7 6 2 7 1 8 3 9 10 10
REMARK H PARENT 10 11
REMARK Flexibility Score: inf
ROOT
ATOM      1  C   UNL     1     -14.683  40.758  -8.202  1.00  0.00     0.039 A 
ATOM      2  C   UNL     1     -14.477  41.914  -9.000  1.00  0.00     0.124 A 
ATOM      3  C   UNL     1     -15.426  39.688  -8.735  1.00  0.00     0.014 A 
ATOM      4  C   UNL     1     -14.960  41.943 -10.314  1.00  0.00     0.047 A 
ATOM      5  C   UNL     1     -15.919  39.743 -10.040  1.00  0.00     0.001 A 
ATOM      6  C   UNL     1     -15.678  40.865 -10.832  1.00  0.00     0.004 A 
ENDROOT
BRANCH   1   7
ATOM      7  C   UNL     1     -14.120  40.612  -6.841  1.00  0.00     0.075 C 
ATOM      8  O   UNL     1     -14.679  39.876  -5.986  1.00  0.00    -0.545 OA
ATOM      9  O   UNL     1     -12.999  41.345  -6.470  1.00  0.00    -0.545 OA
ENDBRANCH   1   7
BRANCH   2  10
ATOM     10  O   UNL     1     -13.835  43.058  -8.519  1.00  0.00    -0.507 OA
ATOM     11  H   UNL     1     -14.202  43.993  -8.631  1.00  0.00     0.293 HD
ENDBRANCH   2  10
TORSDOF 2
ENDMDL
MODEL 8
REMARK VINA RESULT:    -4.371      7.570      8.724
REMARK INTER + INTRA:          -4.995
REMARK INTER:                  -4.780
REMARK INTRA:                  -0.215
REMARK UNBOUND:                -0.241
REMARK SMILES O=C([O-])c1ccccc1O
REMARK SMILES IDX 4 1 9 2 5 3 8 4 6 5 7 6 2 7 1 8 3 9 10 10
REMARK H PARENT 10 11
REMARK Flexibility Score: inf
ROOT
ATOM      1  C   UNL     1     -12.487  34.824  -4.189  1.00  0.00     0.039 A 
ATOM      2  C   UNL     1     -13.201  34.306  -3.078  1.00  0.00     0.124 A 
ATOM      3  C   UNL     1     -12.715  34.269  -5.462  1.00  0.00     0.014 A 
ATOM      4  C   UNL     1     -14.159  33.303  -3.276  1.00  0.00     0.047 A 
ATOM      5  C   UNL     1     -13.658  33.255  -5.639  1.00  0.00     0.001 A 
ATOM      6  C   UNL     1     -14.386  32.779  -4.549  1.00  0.00     0.004 A 
ENDROOT
BRANCH   1   7
ATOM      7  C   UNL     1     -11.532  35.949  -4.076  1.00  0.00     0.075 C 
ATOM      8  O   UNL     1     -11.130  36.345  -2.950  1.00  0.00    -0.545 OA
ATOM      9  O   UNL     1     -11.119  36.629  -5.215  1.00  0.00    -0.545 OA
ENDBRANCH   1   7
BRANCH   2  10
ATOM     10  O   UNL     1     -12.969  34.730  -1.767  1.00  0.00    -0.507 OA
ATOM     11  H   UNL     1     -12.107  34.560  -1.269  1.00  0.00     0.293 HD
ENDBRANCH   2  10
TORSDOF 2
ENDMDL
MODEL 9
REMARK VINA RESULT:    -4.317      9.962     10.940
REMARK INTER + INTRA:          -4.936
REMARK INTER:                  -4.694
REMARK INTRA:                  -0.242
REMARK UNBOUND:                -0.241
REMARK SMILES O=C([O-])c1ccccc1O
REMARK SMILES IDX 4 1 9 2 5 3 8 4 6 5 7 6 2 7 1 8 3 9 10 10
REMARK H PARENT 10 11
REMARK Flexibility Score: inf
ROOT
ATOM      1  C   UNL     1     -14.744  34.413  -0.934  1.00  0.00     0.039 A 
ATOM      2  C   UNL     1     -15.146  34.703  -2.264  1.00  0.00     0.124 A 
ATOM      3  C   UNL     1     -13.844  33.354  -0.712  1.00  0.00     0.014 A 
ATOM      4  C   UNL     1     -14.594  33.978  -3.328  1.00  0.00     0.047 A 
ATOM      5  C   UNL     1     -13.320  32.627  -1.783  1.00  0.00     0.001 A 
ATOM      6  C   UNL     1     -13.687  32.945  -3.090  1.00  0.00     0.004 A 
ENDROOT
BRANCH   1   7
ATOM      7  C   UNL     1     -15.206  35.197   0.233  1.00  0.00     0.075 C 
ATOM      8  O   UNL     1     -15.193  36.456   0.212  1.00  0.00    -0.545 OA
ATOM      9  O   UNL     1     -15.596  34.547   1.397  1.00  0.00    -0.545 OA
ENDBRANCH   1   7
BRANCH   2  10
ATOM     10  O   UNL     1     -16.106  35.672  -2.569  1.00  0.00    -0.507 OA
ATOM     11  H   UNL     1     -15.959  36.663  -2.442  1.00  0.00     0.293 HD
ENDBRANCH   2  10
TORSDOF 2
ENDMDL
