MODEL 1
REMARK VINA RESULT:    -2.219      0.000      0.000
REMARK INTER + INTRA:          -2.219
REMARK INTER:                  -2.219
REMARK INTRA:                   0.000
REMARK UNBOUND:                 0.000
REMARK SMILES CC(=O)[O-]
REMARK SMILES IDX 1 1 2 2 3 3 4 4
REMARK H PARENT
REMARK Flexibility Score: inf
ROOT
ATOM      1  C   UNL     1     -17.717 -14.669  14.405  1.00  0.00     0.063 C 
ATOM      2  C   UNL     1     -16.830 -14.325  15.552  1.00  0.00     0.038 C 
ATOM      3  O   UNL     1     -17.239 -14.471  16.735  1.00  0.00    -0.550 OA
ATOM      4  O   UNL     1     -15.529 -13.896  15.323  1.00  0.00    -0.550 OA
ENDROOT
TORSDOF 0
ENDMDL
MODEL 2
REMARK VINA RESULT:    -2.209      1.956      2.184
REMARK INTER + INTRA:          -2.209
REMARK INTER:                  -2.209
REMARK INTRA:                   0.000
REMARK UNBOUND:                 0.000
REMARK SMILES CC(=O)[O-]
REMARK SMILES IDX 1 1 2 2 3 3 4 4
REMARK H PARENT
REMARK Flexibility Score: inf
ROOT
ATOM      1  C   UNL     1     -17.130 -14.230  16.254  1.00  0.00     0.063 C 
ATOM      2  C   UNL     1     -17.370 -15.067  15.044  1.00  0.00     0.038 C 
ATOM      3  O   UNL     1     -18.265 -14.743  14.219  1.00  0.00    -0.550 OA
ATOM      4  O   UNL     1     -16.572 -16.176  14.794  1.00  0.00    -0.550 OA
ENDROOT
TORSDOF 0
ENDMDL
MODEL 3
REMARK VINA RESULT:    -2.174      1.946      2.176
REMARK INTER + INTRA:          -2.174
REMARK INTER:                  -2.174
REMARK INTRA:                   0.000
REMARK UNBOUND:                 0.000
REMARK SMILES CC(=O)[O-]
REMARK SMILES IDX 1 1 2 2 3 3 4 4
REMARK H PARENT
REMARK Flexibility Score: inf
ROOT
ATOM      1  C   UNL     1     -17.203 -14.298  16.346  1.00  0.00     0.063 C 
ATOM      2  C   UNL     1     -17.189 -14.954  15.007  1.00  0.00     0.038 C 
ATOM      3  O   UNL     1     -16.631 -16.073  14.857  1.00  0.00    -0.550 OA
ATOM      4  O   UNL     1     -17.839 -14.359  13.933  1.00  0.00    -0.550 OA
ENDROOT
TORSDOF 0
ENDMDL
MODEL 4
REMARK VINA RESULT:    -2.173     18.040     18.341
REMARK INTER + INTRA:          -2.173
REMARK INTER:                  -2.173
REMARK INTRA:                   0.000
REMARK UNBOUND:                 0.000
REMARK SMILES CC(=O)[O-]
REMARK SMILES IDX 1 1 2 2 3 3 4 4
REMARK H PARENT
REMARK Flexibility Score: inf
ROOT
ATOM      1  C   UNL     1     -19.611 -33.206  19.736  1.00  0.00     0.063 C 
ATOM      2  C   UNL     1     -19.572 -31.780  20.170  1.00  0.00     0.038 C 
ATOM      3  O   UNL     1     -20.609 -31.069  20.101  1.00  0.00    -0.550 OA
ATOM      4  O   UNL     1     -18.406 -31.246  20.704  1.00  0.00    -0.550 OA
ENDROOT
TORSDOF 0
ENDMDL
MODEL 5
REMARK VINA RESULT:    -2.112     18.129     18.459
REMARK INTER + INTRA:          -2.112
REMARK INTER:                  -2.112
REMARK INTRA:                   0.000
REMARK UNBOUND:                 0.000
REMARK SMILES CC(=O)[O-]
REMARK SMILES IDX 1 1 2 2 3 3 4 4
REMARK H PARENT
REMARK Flexibility Score: inf
ROOT
ATOM      1  C   UNL     1     -19.370 -33.275  19.862  1.00  0.00     0.063 C 
ATOM      2  C   UNL     1     -19.478 -31.860  20.322  1.00  0.00     0.038 C 
ATOM      3  O   UNL     1     -18.559 -31.349  21.016  1.00  0.00    -0.550 OA
ATOM      4  O   UNL     1     -20.564 -31.084  19.939  1.00  0.00    -0.550 OA
ENDROOT
TORSDOF 0
ENDMDL
MODEL 6
REMARK VINA RESULT:    -2.049     16.670     17.045
REMARK INTER + INTRA:          -2.049
REMARK INTER:                  -2.049
REMARK INTRA:                   0.000
REMARK UNBOUND:                 0.000
REMARK SMILES CC(=O)[O-]
REMARK SMILES IDX 1 1 2 2 3 3 4 4
REMARK H PARENT
REMARK Flexibility Score: inf
ROOT
ATOM      1  C   UNL     1     -18.204 -30.356  19.700  1.00  0.00     0.063 C 
ATOM      2  C   UNL     1     -19.601 -30.563  19.220  1.00  0.00     0.038 C 
ATOM      3  O   UNL     1     -19.885 -30.384  18.007  1.00  0.00    -0.550 OA
ATOM      4  O   UNL     1     -20.580 -31.009  20.099  1.00  0.00    -0.550 OA
ENDROOT
TORSDOF 0
ENDMDL
MODEL 7
REMARK VINA RESULT:    -2.014     17.679     17.999
REMARK INTER + INTRA:          -2.014
REMARK INTER:                  -2.014
REMARK INTRA:                   0.000
REMARK UNBOUND:                 0.000
REMARK SMILES CC(=O)[O-]
REMARK SMILES IDX 1 1 2 2 3 3 4 4
REMARK H PARENT
REMARK Flexibility Score: inf
ROOT
ATOM      1  C   UNL     1     -20.073 -30.403  19.230  1.00  0.00     0.063 C 
ATOM      2  C   UNL     1     -19.538 -31.552  20.017  1.00  0.00     0.038 C 
ATOM      3  O   UNL     1     -19.881 -32.729  19.729  1.00  0.00    -0.550 OA
ATOM      4  O   UNL     1     -18.617 -31.332  21.033  1.00  0.00    -0.550 OA
ENDROOT
TORSDOF 0
ENDMDL
MODEL 8
REMARK VINA RESULT:    -2.001     17.839     18.170
REMARK INTER + INTRA:          -2.001
REMARK INTER:                  -2.001
REMARK INTRA:                   0.000
REMARK UNBOUND:                 0.000
REMARK SMILES CC(=O)[O-]
REMARK SMILES IDX 1 1 2 2 3 3 4 4
REMARK H PARENT
REMARK Flexibility Score: inf
ROOT
ATOM      1  C   UNL     1     -17.988 -30.774  20.296  1.00  0.00     0.063 C 
ATOM      2  C   UNL     1     -19.216 -31.613  20.402  1.00  0.00     0.038 C 
ATOM      3  O   UNL     1     -19.135 -32.806  20.799  1.00  0.00    -0.550 OA
ATOM      4  O   UNL     1     -20.461 -31.066  20.116  1.00  0.00    -0.550 OA
ENDROOT
TORSDOF 0
ENDMDL
MODEL 9
REMARK VINA RESULT:    -1.934     16.480     16.767
REMARK INTER + INTRA:          -1.934
REMARK INTER:                  -1.934
REMARK INTRA:                   0.000
REMARK UNBOUND:                 0.000
REMARK SMILES CC(=O)[O-]
REMARK SMILES IDX 1 1 2 2 3 3 4 4
REMARK H PARENT
REMARK Flexibility Score: inf
ROOT
ATOM      1  C   UNL     1     -20.042 -31.133  20.008  1.00  0.00     0.063 C 
ATOM      2  C   UNL     1     -18.929 -30.434  19.304  1.00  0.00     0.038 C 
ATOM      3  O   UNL     1     -19.049 -30.116  18.091  1.00  0.00    -0.550 OA
ATOM      4  O   UNL     1     -17.778 -30.082  19.997  1.00  0.00    -0.550 OA
ENDROOT
TORSDOF 0
ENDMDL
