MODEL 1
REMARK VINA RESULT:    -0.770      0.000      0.000
REMARK INTER + INTRA:          -2.405
REMARK INTER:                  -1.669
REMARK INTRA:                  -0.735
REMARK UNBOUND:                -0.735
REMARK SMILES CCCCCCCCCCCCCCCCCCCCCC(=O)[O-]
REMARK SMILES IDX 12 1 11 2 10 3 9 4 8 5 7 6 6 7 5 8 4 9 3 10 2 11 1 12 13 13
REMARK SMILES IDX 14 14 15 15 16 16 17 17 18 18 19 19 20 20 21 21 22 22 23 23
REMARK SMILES IDX 24 24
REMARK H PARENT
REMARK Flexibility Score: inf
ROOT
ATOM      1  C   UNL     1       0.857  20.823  16.314  1.00  0.00     0.000 C 
ENDROOT
BRANCH   1   2
ATOM      2  C   UNL     1       2.072  19.973  15.899  1.00  0.00     0.000 C 
BRANCH   2   3
ATOM      3  C   UNL     1       3.378  20.780  15.836  1.00  0.00     0.000 C 
BRANCH   3   4
ATOM      4  C   UNL     1       4.567  19.875  15.494  1.00  0.00    -0.000 C 
BRANCH   4   5
ATOM      5  C   UNL     1       5.632  20.644  14.696  1.00  0.00    -0.000 C 
BRANCH   5   6
ATOM      6  C   UNL     1       6.955  20.816  15.466  1.00  0.00    -0.000 C 
BRANCH   6   7
ATOM      7  C   UNL     1       8.186  20.163  14.810  1.00  0.00    -0.000 C 
BRANCH   7   8
ATOM      8  C   UNL     1       8.558  20.803  13.462  1.00  0.00    -0.000 C 
BRANCH   8   9
ATOM      9  C   UNL     1       9.931  20.345  12.937  1.00  0.00    -0.000 C 
BRANCH   9  10
ATOM     10  C   UNL     1      10.802  21.457  12.322  1.00  0.00    -0.000 C 
BRANCH  10  11
ATOM     11  C   UNL     1      10.757  22.767  13.123  1.00  0.00    -0.003 C 
ATOM     12  C   UNL     1      11.078  22.524  14.594  1.00  0.00     0.004 C 
ENDBRANCH  10  11
ENDBRANCH   9  10
ENDBRANCH   8   9
ENDBRANCH   7   8
ENDBRANCH   6   7
ENDBRANCH   5   6
ENDBRANCH   4   5
ENDBRANCH   3   4
ENDBRANCH   2   3
ENDBRANCH   1   2
BRANCH   1  13
ATOM     13  C   UNL     1      -0.489  20.076  16.342  1.00  0.00     0.000 C 
BRANCH  13  14
ATOM     14  C   UNL     1      -1.673  20.987  16.708  1.00  0.00     0.000 C 
BRANCH  14  15
ATOM     15  C   UNL     1      -2.766  21.015  15.624  1.00  0.00     0.000 C 
BRANCH  15  16
ATOM     16  C   UNL     1      -3.806  19.882  15.703  1.00  0.00     0.000 C 
BRANCH  16  17
ATOM     17  C   UNL     1      -5.214  20.383  16.068  1.00  0.00     0.000 C 
BRANCH  17  18
ATOM     18  C   UNL     1      -5.940  21.024  14.874  1.00  0.00     0.000 C 
BRANCH  18  19
ATOM     19  C   UNL     1      -7.462  20.823  14.925  1.00  0.00     0.000 C 
BRANCH  19  20
ATOM     20  C   UNL     1      -7.857  19.933  16.110  1.00  0.00     0.006 C 
BRANCH  20  21
ATOM     21  C   UNL     1      -8.942  20.601  16.961  1.00  0.00     0.053 C 
BRANCH  21  22
ATOM     22  C   UNL     1      -8.367  21.736  17.748  1.00  0.00     0.041 C 
ATOM     23  O   UNL     1      -8.787  22.909  17.567  1.00  0.00    -0.550 OA
ATOM     24  O   UNL     1      -7.401  21.491  18.715  1.00  0.00    -0.550 OA
ENDBRANCH  21  22
ENDBRANCH  20  21
ENDBRANCH  19  20
ENDBRANCH  18  19
ENDBRANCH  17  18
ENDBRANCH  16  17
ENDBRANCH  15  16
ENDBRANCH  14  15
ENDBRANCH  13  14
ENDBRANCH   1  13
TORSDOF 20
ENDMDL
MODEL 2
REMARK VINA RESULT:    -0.539      5.797     14.315
REMARK INTER + INTRA:          -1.906
REMARK INTER:                  -1.012
REMARK INTRA:                  -0.894
REMARK UNBOUND:                -0.735
REMARK SMILES CCCCCCCCCCCCCCCCCCCCCC(=O)[O-]
REMARK SMILES IDX 12 1 11 2 10 3 9 4 8 5 7 6 6 7 5 8 4 9 3 10 2 11 1 12 13 13
REMARK SMILES IDX 14 14 15 15 16 16 17 17 18 18 19 19 20 20 21 21 22 22 23 23
REMARK SMILES IDX 24 24
REMARK H PARENT
REMARK Flexibility Score: inf
ROOT
ATOM      1  C   UNL     1       0.351  21.208  15.698  1.00  0.00     0.000 C 
ENDROOT
BRANCH   1   2
ATOM      2  C   UNL     1      -0.497  20.134  16.406  1.00  0.00     0.000 C 
BRANCH   2   3
ATOM      3  C   UNL     1      -1.909  20.622  16.762  1.00  0.00     0.000 C 
BRANCH   3   4
ATOM      4  C   UNL     1      -2.918  20.223  15.679  1.00  0.00    -0.000 C 
BRANCH   4   5
ATOM      5  C   UNL     1      -4.358  20.328  16.202  1.00  0.00    -0.000 C 
BRANCH   5   6
ATOM      6  C   UNL     1      -5.406  20.390  15.075  1.00  0.00    -0.000 C 
BRANCH   6   7
ATOM      7  C   UNL     1      -6.621  21.294  15.355  1.00  0.00    -0.000 C 
BRANCH   7   8
ATOM      8  C   UNL     1      -7.964  20.583  15.125  1.00  0.00    -0.000 C 
BRANCH   8   9
ATOM      9  C   UNL     1      -8.933  20.728  16.313  1.00  0.00    -0.000 C 
BRANCH   9  10
ATOM     10  C   UNL     1      -8.681  21.947  17.220  1.00  0.00    -0.000 C 
BRANCH  10  11
ATOM     11  C   UNL     1      -8.750  21.609  18.716  1.00  0.00    -0.003 C 
ATOM     12  C   UNL     1      -8.431  22.831  19.572  1.00  0.00     0.004 C 
ENDBRANCH  10  11
ENDBRANCH   9  10
ENDBRANCH   8   9
ENDBRANCH   7   8
ENDBRANCH   6   7
ENDBRANCH   5   6
ENDBRANCH   4   5
ENDBRANCH   3   4
ENDBRANCH   2   3
ENDBRANCH   1   2
BRANCH   1  13
ATOM     13  C   UNL     1       1.856  21.175  16.021  1.00  0.00     0.000 C 
BRANCH  13  14
ATOM     14  C   UNL     1       2.540  19.875  15.564  1.00  0.00     0.000 C 
BRANCH  14  15
ATOM     15  C   UNL     1       4.077  19.957  15.609  1.00  0.00     0.000 C 
BRANCH  15  16
ATOM     16  C   UNL     1       4.654  21.312  16.060  1.00  0.00     0.000 C 
BRANCH  16  17
ATOM     17  C   UNL     1       6.192  21.324  16.107  1.00  0.00     0.000 C 
BRANCH  17  18
ATOM     18  C   UNL     1       6.826  20.725  14.841  1.00  0.00     0.000 C 
BRANCH  18  19
ATOM     19  C   UNL     1       8.078  19.888  15.143  1.00  0.00     0.000 C 
BRANCH  19  20
ATOM     20  C   UNL     1       9.339  20.572  14.599  1.00  0.00     0.006 C 
BRANCH  20  21
ATOM     21  C   UNL     1       9.033  21.342  13.311  1.00  0.00     0.053 C 
BRANCH  21  22
ATOM     22  C   UNL     1      10.147  21.177  12.325  1.00  0.00     0.041 C 
ATOM     23  O   UNL     1      10.586  20.029  12.051  1.00  0.00    -0.550 OA
ATOM     24  O   UNL     1      10.666  22.288  11.672  1.00  0.00    -0.550 OA
ENDBRANCH  21  22
ENDBRANCH  20  21
ENDBRANCH  19  20
ENDBRANCH  18  19
ENDBRANCH  17  18
ENDBRANCH  16  17
ENDBRANCH  15  16
ENDBRANCH  14  15
ENDBRANCH  13  14
ENDBRANCH   1  13
TORSDOF 20
ENDMDL
MODEL 3
REMARK VINA RESULT:    -0.392      5.897     14.558
REMARK INTER + INTRA:          -1.585
REMARK INTER:                  -0.839
REMARK INTRA:                  -0.746
REMARK UNBOUND:                -0.735
REMARK SMILES CCCCCCCCCCCCCCCCCCCCCC(=O)[O-]
REMARK SMILES IDX 12 1 11 2 10 3 9 4 8 5 7 6 6 7 5 8 4 9 3 10 2 11 1 12 13 13
REMARK SMILES IDX 14 14 15 15 16 16 17 17 18 18 19 19 20 20 21 21 22 22 23 23
REMARK SMILES IDX 24 24
REMARK H PARENT
REMARK Flexibility Score: inf
ROOT
ATOM      1  C   UNL     1       3.210  20.780  15.641  1.00  0.00     0.000 C 
ENDROOT
BRANCH   1   2
ATOM      2  C   UNL     1       2.167  19.908  16.366  1.00  0.00     0.000 C 
BRANCH   2   3
ATOM      3  C   UNL     1       0.783  19.950  15.702  1.00  0.00     0.000 C 
BRANCH   3   4
ATOM      4  C   UNL     1      -0.293  20.392  16.701  1.00  0.00    -0.000 C 
BRANCH   4   5
ATOM      5  C   UNL     1      -1.539  20.917  15.972  1.00  0.00    -0.000 C 
BRANCH   5   6
ATOM      6  C   UNL     1      -2.819  20.140  16.330  1.00  0.00    -0.000 C 
BRANCH   6   7
ATOM      7  C   UNL     1      -3.951  20.223  15.288  1.00  0.00    -0.000 C 
BRANCH   7   8
ATOM      8  C   UNL     1      -5.267  20.763  15.874  1.00  0.00    -0.000 C 
BRANCH   8   9
ATOM      9  C   UNL     1      -6.467  20.579  14.927  1.00  0.00    -0.000 C 
BRANCH   9  10
ATOM     10  C   UNL     1      -7.840  20.491  15.619  1.00  0.00    -0.000 C 
BRANCH  10  11
ATOM     11  C   UNL     1      -8.115  21.673  16.562  1.00  0.00    -0.003 C 
ATOM     12  C   UNL     1      -8.466  21.186  17.965  1.00  0.00     0.004 C 
ENDBRANCH  10  11
ENDBRANCH   9  10
ENDBRANCH   8   9
ENDBRANCH   7   8
ENDBRANCH   6   7
ENDBRANCH   5   6
ENDBRANCH   4   5
ENDBRANCH   3   4
ENDBRANCH   2   3
ENDBRANCH   1   2
BRANCH   1  13
ATOM     13  C   UNL     1       4.675  20.510  16.027  1.00  0.00     0.000 C 
BRANCH  13  14
ATOM     14  C   UNL     1       5.675  20.998  14.966  1.00  0.00     0.000 C 
BRANCH  14  15
ATOM     15  C   UNL     1       6.588  19.875  14.439  1.00  0.00     0.000 C 
BRANCH  15  16
ATOM     16  C   UNL     1       8.036  19.900  14.963  1.00  0.00     0.000 C 
BRANCH  16  17
ATOM     17  C   UNL     1       8.726  21.259  14.758  1.00  0.00     0.000 C 
BRANCH  17  18
ATOM     18  C   UNL     1      10.242  21.194  15.006  1.00  0.00     0.000 C 
BRANCH  18  19
ATOM     19  C   UNL     1      11.064  21.423  13.728  1.00  0.00     0.000 C 
BRANCH  19  20
ATOM     20  C   UNL     1      10.211  22.088  12.640  1.00  0.00     0.006 C 
BRANCH  20  21
ATOM     21  C   UNL     1      11.055  22.420  11.406  1.00  0.00     0.053 C 
BRANCH  21  22
ATOM     22  C   UNL     1      10.872  23.852  11.015  1.00  0.00     0.041 C 
ATOM     23  O   UNL     1      10.531  24.705  11.876  1.00  0.00    -0.550 OA
ATOM     24  O   UNL     1      11.125  24.253   9.709  1.00  0.00    -0.550 OA
ENDBRANCH  21  22
ENDBRANCH  20  21
ENDBRANCH  19  20
ENDBRANCH  18  19
ENDBRANCH  17  18
ENDBRANCH  16  17
ENDBRANCH  15  16
ENDBRANCH  14  15
ENDBRANCH  13  14
ENDBRANCH   1  13
TORSDOF 20
ENDMDL
MODEL 4
REMARK VINA RESULT:     0.197      1.916      3.080
REMARK INTER + INTRA:          -0.308
REMARK INTER:                   0.317
REMARK INTRA:                  -0.625
REMARK UNBOUND:                -0.735
REMARK SMILES CCCCCCCCCCCCCCCCCCCCCC(=O)[O-]
REMARK SMILES IDX 12 1 11 2 10 3 9 4 8 5 7 6 6 7 5 8 4 9 3 10 2 11 1 12 13 13
REMARK SMILES IDX 14 14 15 15 16 16 17 17 18 18 19 19 20 20 21 21 22 22 23 23
REMARK SMILES IDX 24 24
REMARK H PARENT
REMARK Flexibility Score: inf
ROOT
ATOM      1  C   UNL     1       3.217  20.685  15.524  1.00  0.00     0.000 C 
ENDROOT
BRANCH   1   2
ATOM      2  C   UNL     1       4.398  19.952  16.187  1.00  0.00     0.000 C 
BRANCH   2   3
ATOM      3  C   UNL     1       5.738  20.212  15.484  1.00  0.00     0.000 C 
BRANCH   3   4
ATOM      4  C   UNL     1       6.775  20.771  16.465  1.00  0.00    -0.000 C 
BRANCH   4   5
ATOM      5  C   UNL     1       8.152  20.900  15.797  1.00  0.00    -0.000 C 
BRANCH   5   6
ATOM      6  C   UNL     1       8.201  20.276  14.390  1.00  0.00    -0.000 C 
BRANCH   6   7
ATOM      7  C   UNL     1       9.612  20.076  13.807  1.00  0.00    -0.000 C 
BRANCH   7   8
ATOM      8  C   UNL     1       9.988  21.143  12.766  1.00  0.00    -0.000 C 
BRANCH   8   9
ATOM      9  C   UNL     1       9.765  20.675  11.317  1.00  0.00    -0.000 C 
BRANCH   9  10
ATOM     10  C   UNL     1      11.026  20.658  10.431  1.00  0.00    -0.000 C 
BRANCH  10  11
ATOM     11  C   UNL     1      10.742  21.049   8.974  1.00  0.00    -0.003 C 
ATOM     12  C   UNL     1       9.848  20.017   8.292  1.00  0.00     0.004 C 
ENDBRANCH  10  11
ENDBRANCH   9  10
ENDBRANCH   8   9
ENDBRANCH   7   8
ENDBRANCH   6   7
ENDBRANCH   5   6
ENDBRANCH   4   5
ENDBRANCH   3   4
ENDBRANCH   2   3
ENDBRANCH   1   2
BRANCH   1  13
ATOM     13  C   UNL     1       1.827  20.086  15.810  1.00  0.00     0.000 C 
BRANCH  13  14
ATOM     14  C   UNL     1       0.731  21.154  15.954  1.00  0.00     0.000 C 
BRANCH  14  15
ATOM     15  C   UNL     1      -0.686  20.555  16.030  1.00  0.00     0.000 C 
BRANCH  15  16
ATOM     16  C   UNL     1      -1.482  20.898  17.302  1.00  0.00     0.000 C 
BRANCH  16  17
ATOM     17  C   UNL     1      -2.787  20.093  17.430  1.00  0.00     0.000 C 
BRANCH  17  18
ATOM     18  C   UNL     1      -3.628  20.523  18.643  1.00  0.00     0.000 C 
BRANCH  18  19
ATOM     19  C   UNL     1      -5.022  19.875  18.659  1.00  0.00     0.000 C 
BRANCH  19  20
ATOM     20  C   UNL     1      -5.680  19.957  17.276  1.00  0.00     0.006 C 
BRANCH  20  21
ATOM     21  C   UNL     1      -7.191  20.172  17.399  1.00  0.00     0.053 C 
BRANCH  21  22
ATOM     22  C   UNL     1      -7.772  20.581  16.082  1.00  0.00     0.041 C 
ATOM     23  O   UNL     1      -7.100  21.289  15.286  1.00  0.00    -0.550 OA
ATOM     24  O   UNL     1      -9.037  20.141  15.714  1.00  0.00    -0.550 OA
ENDBRANCH  21  22
ENDBRANCH  20  21
ENDBRANCH  19  20
ENDBRANCH  18  19
ENDBRANCH  17  18
ENDBRANCH  16  17
ENDBRANCH  15  16
ENDBRANCH  14  15
ENDBRANCH  13  14
ENDBRANCH   1  13
TORSDOF 20
ENDMDL
MODEL 5
REMARK VINA RESULT:     0.444      1.969      4.131
REMARK INTER + INTRA:           0.227
REMARK INTER:                   0.887
REMARK INTRA:                  -0.660
REMARK UNBOUND:                -0.735
REMARK SMILES CCCCCCCCCCCCCCCCCCCCCC(=O)[O-]
REMARK SMILES IDX 12 1 11 2 10 3 9 4 8 5 7 6 6 7 5 8 4 9 3 10 2 11 1 12 13 13
REMARK SMILES IDX 14 14 15 15 16 16 17 17 18 18 19 19 20 20 21 21 22 22 23 23
REMARK SMILES IDX 24 24
REMARK H PARENT
REMARK Flexibility Score: inf
ROOT
ATOM      1  C   UNL     1       5.131  20.708  15.336  1.00  0.00     0.000 C 
ENDROOT
BRANCH   1   2
ATOM      2  C   UNL     1       6.422  19.906  15.090  1.00  0.00     0.000 C 
BRANCH   2   3
ATOM      3  C   UNL     1       7.687  20.644  15.555  1.00  0.00     0.000 C 
BRANCH   3   4
ATOM      4  C   UNL     1       8.951  19.876  15.151  1.00  0.00    -0.000 C 
BRANCH   4   5
ATOM      5  C   UNL     1       9.891  20.762  14.319  1.00  0.00    -0.000 C 
BRANCH   5   6
ATOM      6  C   UNL     1       9.771  20.513  12.805  1.00  0.00    -0.000 C 
BRANCH   6   7
ATOM      7  C   UNL     1      10.610  21.450  11.915  1.00  0.00    -0.000 C 
BRANCH   7   8
ATOM      8  C   UNL     1      10.395  22.937  12.240  1.00  0.00    -0.000 C 
BRANCH   8   9
ATOM      9  C   UNL     1      11.109  23.878  11.252  1.00  0.00    -0.000 C 
BRANCH   9  10
ATOM     10  C   UNL     1      10.777  23.643   9.766  1.00  0.00    -0.000 C 
BRANCH  10  11
ATOM     11  C   UNL     1      10.547  24.948   8.989  1.00  0.00    -0.003 C 
ATOM     12  C   UNL     1       9.068  25.139   8.662  1.00  0.00     0.004 C 
ENDBRANCH  10  11
ENDBRANCH   9  10
ENDBRANCH   8   9
ENDBRANCH   7   8
ENDBRANCH   6   7
ENDBRANCH   5   6
ENDBRANCH   4   5
ENDBRANCH   3   4
ENDBRANCH   2   3
ENDBRANCH   1   2
BRANCH   1  13
ATOM     13  C   UNL     1       4.024  19.955  16.096  1.00  0.00     0.000 C 
BRANCH  13  14
ATOM     14  C   UNL     1       2.743  20.788  16.272  1.00  0.00     0.000 C 
BRANCH  14  15
ATOM     15  C   UNL     1       1.496  20.105  15.679  1.00  0.00     0.000 C 
BRANCH  15  16
ATOM     16  C   UNL     1       0.328  19.894  16.660  1.00  0.00     0.000 C 
BRANCH  16  17
ATOM     17  C   UNL     1      -0.895  20.769  16.335  1.00  0.00     0.000 C 
BRANCH  17  18
ATOM     18  C   UNL     1      -2.214  19.981  16.388  1.00  0.00     0.000 C 
BRANCH  18  19
ATOM     19  C   UNL     1      -3.397  20.762  15.796  1.00  0.00     0.000 C 
BRANCH  19  20
ATOM     20  C   UNL     1      -4.688  19.937  15.864  1.00  0.00     0.006 C 
BRANCH  20  21
ATOM     21  C   UNL     1      -5.324  20.026  17.254  1.00  0.00     0.053 C 
BRANCH  21  22
ATOM     22  C   UNL     1      -6.803  20.222  17.142  1.00  0.00     0.041 C 
ATOM     23  O   UNL     1      -7.561  19.875  18.087  1.00  0.00    -0.550 OA
ATOM     24  O   UNL     1      -7.340  20.830  16.015  1.00  0.00    -0.550 OA
ENDBRANCH  21  22
ENDBRANCH  20  21
ENDBRANCH  19  20
ENDBRANCH  18  19
ENDBRANCH  17  18
ENDBRANCH  16  17
ENDBRANCH  15  16
ENDBRANCH  14  15
ENDBRANCH  13  14
ENDBRANCH   1  13
TORSDOF 20
ENDMDL
MODEL 6
REMARK VINA RESULT:     0.580      2.011      4.282
REMARK INTER + INTRA:           0.522
REMARK INTER:                   1.473
REMARK INTRA:                  -0.950
REMARK UNBOUND:                -0.735
REMARK SMILES CCCCCCCCCCCCCCCCCCCCCC(=O)[O-]
REMARK SMILES IDX 12 1 11 2 10 3 9 4 8 5 7 6 6 7 5 8 4 9 3 10 2 11 1 12 13 13
REMARK SMILES IDX 14 14 15 15 16 16 17 17 18 18 19 19 20 20 21 21 22 22 23 23
REMARK SMILES IDX 24 24
REMARK H PARENT
REMARK Flexibility Score: inf
ROOT
ATOM      1  C   UNL     1       4.932  21.105  16.057  1.00  0.00     0.000 C 
ENDROOT
BRANCH   1   2
ATOM      2  C   UNL     1       6.253  21.053  15.266  1.00  0.00     0.000 C 
BRANCH   2   3
ATOM      3  C   UNL     1       7.472  20.753  16.151  1.00  0.00     0.000 C 
BRANCH   3   4
ATOM      4  C   UNL     1       8.513  19.924  15.389  1.00  0.00    -0.000 C 
BRANCH   4   5
ATOM      5  C   UNL     1       9.678  20.806  14.914  1.00  0.00    -0.000 C 
BRANCH   5   6
ATOM      6  C   UNL     1       9.465  21.377  13.501  1.00  0.00    -0.000 C 
BRANCH   6   7
ATOM      7  C   UNL     1      10.740  21.518  12.649  1.00  0.00    -0.000 C 
BRANCH   7   8
ATOM      8  C   UNL     1      11.118  20.220  11.915  1.00  0.00    -0.000 C 
BRANCH   8   9
ATOM      9  C   UNL     1      10.319  20.010  10.616  1.00  0.00    -0.000 C 
BRANCH   9  10
ATOM     10  C   UNL     1      11.018  20.495   9.331  1.00  0.00    -0.000 C 
BRANCH  10  11
ATOM     11  C   UNL     1      10.035  20.791   8.188  1.00  0.00    -0.003 C 
ATOM     12  C   UNL     1       8.636  20.282   8.521  1.00  0.00     0.004 C 
ENDBRANCH  10  11
ENDBRANCH   9  10
ENDBRANCH   8   9
ENDBRANCH   7   8
ENDBRANCH   6   7
ENDBRANCH   5   6
ENDBRANCH   4   5
ENDBRANCH   3   4
ENDBRANCH   2   3
ENDBRANCH   1   2
BRANCH   1  13
ATOM     13  C   UNL     1       3.994  19.901  15.851  1.00  0.00     0.000 C 
BRANCH  13  14
ATOM     14  C   UNL     1       2.583  20.137  16.415  1.00  0.00     0.000 C 
BRANCH  14  15
ATOM     15  C   UNL     1       1.680  20.937  15.459  1.00  0.00     0.000 C 
BRANCH  15  16
ATOM     16  C   UNL     1       0.188  20.977  15.836  1.00  0.00     0.000 C 
BRANCH  16  17
ATOM     17  C   UNL     1      -0.141  20.129  17.077  1.00  0.00     0.000 C 
BRANCH  17  18
ATOM     18  C   UNL     1      -1.654  19.947  17.283  1.00  0.00     0.000 C 
BRANCH  18  19
ATOM     19  C   UNL     1      -2.490  20.918  16.435  1.00  0.00     0.000 C 
BRANCH  19  20
ATOM     20  C   UNL     1      -3.557  20.164  15.631  1.00  0.00     0.006 C 
BRANCH  20  21
ATOM     21  C   UNL     1      -4.854  20.025  16.435  1.00  0.00     0.053 C 
BRANCH  21  22
ATOM     22  C   UNL     1      -5.997  20.649  15.698  1.00  0.00     0.041 C 
ATOM     23  O   UNL     1      -5.874  20.960  14.484  1.00  0.00    -0.550 OA
ATOM     24  O   UNL     1      -7.213  20.844  16.340  1.00  0.00    -0.550 OA
ENDBRANCH  21  22
ENDBRANCH  20  21
ENDBRANCH  19  20
ENDBRANCH  18  19
ENDBRANCH  17  18
ENDBRANCH  16  17
ENDBRANCH  15  16
ENDBRANCH  14  15
ENDBRANCH  13  14
ENDBRANCH   1  13
TORSDOF 20
ENDMDL
MODEL 7
REMARK VINA RESULT:     0.949      1.999      4.158
REMARK INTER + INTRA:           1.324
REMARK INTER:                   2.371
REMARK INTRA:                  -1.047
REMARK UNBOUND:                -0.735
REMARK SMILES CCCCCCCCCCCCCCCCCCCCCC(=O)[O-]
REMARK SMILES IDX 12 1 11 2 10 3 9 4 8 5 7 6 6 7 5 8 4 9 3 10 2 11 1 12 13 13
REMARK SMILES IDX 14 14 15 15 16 16 17 17 18 18 19 19 20 20 21 21 22 22 23 23
REMARK SMILES IDX 24 24
REMARK H PARENT
REMARK Flexibility Score: inf
ROOT
ATOM      1  C   UNL     1      -2.397  20.171  18.058  1.00  0.00     0.000 C 
ENDROOT
BRANCH   1   2
ATOM      2  C   UNL     1      -1.138  20.980  18.423  1.00  0.00     0.000 C 
BRANCH   2   3
ATOM      3  C   UNL     1      -0.765  22.024  17.360  1.00  0.00     0.000 C 
BRANCH   3   4
ATOM      4  C   UNL     1      -0.415  21.351  16.027  1.00  0.00    -0.000 C 
BRANCH   4   5
ATOM      5  C   UNL     1       0.544  20.169  16.242  1.00  0.00    -0.000 C 
BRANCH   5   6
ATOM      6  C   UNL     1       1.849  20.298  15.436  1.00  0.00    -0.000 C 
BRANCH   6   7
ATOM      7  C   UNL     1       3.130  19.893  16.190  1.00  0.00    -0.000 C 
BRANCH   7   8
ATOM      8  C   UNL     1       4.376  19.875  15.289  1.00  0.00    -0.000 C 
BRANCH   8   9
ATOM      9  C   UNL     1       5.298  21.088  15.513  1.00  0.00    -0.000 C 
BRANCH   9  10
ATOM     10  C   UNL     1       6.633  21.047  14.746  1.00  0.00    -0.000 C 
BRANCH  10  11
ATOM     11  C   UNL     1       7.709  20.211  15.455  1.00  0.00    -0.003 C 
ATOM     12  C   UNL     1       8.884  19.924  14.525  1.00  0.00     0.004 C 
ENDBRANCH  10  11
ENDBRANCH   9  10
ENDBRANCH   8   9
ENDBRANCH   7   8
ENDBRANCH   6   7
ENDBRANCH   5   6
ENDBRANCH   4   5
ENDBRANCH   3   4
ENDBRANCH   2   3
ENDBRANCH   1   2
BRANCH   1  13
ATOM     13  C   UNL     1      -3.659  20.518  18.868  1.00  0.00     0.000 C 
BRANCH  13  14
ATOM     14  C   UNL     1      -4.940  19.910  18.273  1.00  0.00     0.000 C 
BRANCH  14  15
ATOM     15  C   UNL     1      -5.242  20.418  16.850  1.00  0.00     0.000 C 
BRANCH  15  16
ATOM     16  C   UNL     1      -6.619  20.023  16.286  1.00  0.00     0.000 C 
BRANCH  16  17
ATOM     17  C   UNL     1      -7.354  21.198  15.617  1.00  0.00     0.000 C 
BRANCH  17  18
ATOM     18  C   UNL     1      -8.053  22.113  16.636  1.00  0.00     0.000 C 
BRANCH  18  19
ATOM     19  C   UNL     1      -9.090  21.367  17.491  1.00  0.00     0.000 C 
BRANCH  19  20
ATOM     20  C   UNL     1      -9.072  21.872  18.938  1.00  0.00     0.006 C 
BRANCH  20  21
ATOM     21  C   UNL     1      -9.032  20.704  19.928  1.00  0.00     0.053 C 
BRANCH  21  22
ATOM     22  C   UNL     1      -8.730  21.195  21.308  1.00  0.00     0.041 C 
ATOM     23  O   UNL     1      -8.082  20.472  22.110  1.00  0.00    -0.550 OA
ATOM     24  O   UNL     1      -9.123  22.470  21.693  1.00  0.00    -0.550 OA
ENDBRANCH  21  22
ENDBRANCH  20  21
ENDBRANCH  19  20
ENDBRANCH  18  19
ENDBRANCH  17  18
ENDBRANCH  16  17
ENDBRANCH  15  16
ENDBRANCH  14  15
ENDBRANCH  13  14
ENDBRANCH   1  13
TORSDOF 20
ENDMDL
MODEL 8
REMARK VINA RESULT:     1.185      6.282     14.307
REMARK INTER + INTRA:           1.836
REMARK INTER:                   2.604
REMARK INTRA:                  -0.769
REMARK UNBOUND:                -0.735
REMARK SMILES CCCCCCCCCCCCCCCCCCCCCC(=O)[O-]
REMARK SMILES IDX 12 1 11 2 10 3 9 4 8 5 7 6 6 7 5 8 4 9 3 10 2 11 1 12 13 13
REMARK SMILES IDX 14 14 15 15 16 16 17 17 18 18 19 19 20 20 21 21 22 22 23 23
REMARK SMILES IDX 24 24
REMARK H PARENT
REMARK Flexibility Score: inf
ROOT
ATOM      1  C   UNL     1       5.073  21.401  16.343  1.00  0.00     0.000 C 
ENDROOT
BRANCH   1   2
ATOM      2  C   UNL     1       4.568  20.334  15.354  1.00  0.00     0.000 C 
BRANCH   2   3
ATOM      3  C   UNL     1       3.131  19.876  15.647  1.00  0.00     0.000 C 
BRANCH   3   4
ATOM      4  C   UNL     1       2.137  21.027  15.454  1.00  0.00    -0.000 C 
BRANCH   4   5
ATOM      5  C   UNL     1       0.940  20.885  16.407  1.00  0.00    -0.000 C 
BRANCH   5   6
ATOM      6  C   UNL     1      -0.413  20.850  15.674  1.00  0.00    -0.000 C 
BRANCH   6   7
ATOM      7  C   UNL     1      -1.628  21.285  16.515  1.00  0.00    -0.000 C 
BRANCH   7   8
ATOM      8  C   UNL     1      -2.640  20.149  16.741  1.00  0.00    -0.000 C 
BRANCH   8   9
ATOM      9  C   UNL     1      -3.942  20.335  15.940  1.00  0.00    -0.000 C 
BRANCH   9  10
ATOM     10  C   UNL     1      -5.233  19.966  16.694  1.00  0.00    -0.000 C 
BRANCH  10  11
ATOM     11  C   UNL     1      -6.498  20.531  16.031  1.00  0.00    -0.003 C 
ATOM     12  C   UNL     1      -6.241  20.887  14.570  1.00  0.00     0.004 C 
ENDBRANCH  10  11
ENDBRANCH   9  10
ENDBRANCH   8   9
ENDBRANCH   7   8
ENDBRANCH   6   7
ENDBRANCH   5   6
ENDBRANCH   4   5
ENDBRANCH   3   4
ENDBRANCH   2   3
ENDBRANCH   1   2
BRANCH   1  13
ATOM     13  C   UNL     1       6.522  21.213  16.830  1.00  0.00     0.000 C 
BRANCH  13  14
ATOM     14  C   UNL     1       7.520  21.003  15.678  1.00  0.00     0.000 C 
BRANCH  14  15
ATOM     15  C   UNL     1       8.848  21.752  15.891  1.00  0.00     0.000 C 
BRANCH  15  16
ATOM     16  C   UNL     1      10.094  21.071  15.294  1.00  0.00     0.000 C 
BRANCH  16  17
ATOM     17  C   UNL     1       9.752  20.042  14.203  1.00  0.00     0.000 C 
BRANCH  17  18
ATOM     18  C   UNL     1      10.671  20.156  12.976  1.00  0.00     0.000 C 
BRANCH  18  19
ATOM     19  C   UNL     1       9.936  19.877  11.655  1.00  0.00     0.000 C 
BRANCH  19  20
ATOM     20  C   UNL     1      10.829  20.204  10.452  1.00  0.00     0.006 C 
BRANCH  20  21
ATOM     21  C   UNL     1      11.045  21.715  10.323  1.00  0.00     0.053 C 
BRANCH  21  22
ATOM     22  C   UNL     1      10.826  22.157   8.910  1.00  0.00     0.041 C 
ATOM     23  O   UNL     1      11.003  23.362   8.589  1.00  0.00    -0.550 OA
ATOM     24  O   UNL     1      10.474  21.229   7.938  1.00  0.00    -0.550 OA
ENDBRANCH  21  22
ENDBRANCH  20  21
ENDBRANCH  19  20
ENDBRANCH  18  19
ENDBRANCH  17  18
ENDBRANCH  16  17
ENDBRANCH  15  16
ENDBRANCH  14  15
ENDBRANCH  13  14
ENDBRANCH   1  13
TORSDOF 20
ENDMDL
