MODEL 1
REMARK VINA RESULT:    -5.401      0.000      0.000
REMARK INTER + INTRA:          -5.559
REMARK INTER:                  -5.559
REMARK INTRA:                   0.000
REMARK UNBOUND:                 0.000
REMARK SMILES Nc1ncnc2nc[nH]c12
REMARK SMILES IDX 8 1 7 2 6 3 5 4 4 5 3 6 2 7 10 8 9 9 1 11
REMARK H PARENT 9 10 1 12 1 13
REMARK Flexibility Score: inf
ROOT
ATOM      1  C   UNL     1      42.228 -10.985  15.163  1.00  0.00     0.199 A 
ATOM      2  N   UNL     1      43.288 -10.840  16.005  1.00  0.00    -0.217 NA
ATOM      3  C   UNL     1      43.365  -9.505  16.139  1.00  0.00     0.182 A 
ATOM      4  N   UNL     1      44.263  -8.819  16.884  1.00  0.00    -0.215 NA
ATOM      5  C   UNL     1      44.182  -7.454  16.896  1.00  0.00     0.226 A 
ATOM      6  N   UNL     1      43.214  -6.807  16.171  1.00  0.00    -0.217 NA
ATOM      7  C   UNL     1      42.307  -7.498  15.419  1.00  0.00     0.152 A 
ATOM      8  C   UNL     1      42.402  -8.887  15.417  1.00  0.00     0.127 A 
ATOM      9  N   UNL     1      41.665  -9.810  14.786  1.00  0.00    -0.340 N 
ATOM     10  H   UNL     1      40.848  -9.671  14.151  1.00  0.00     0.168 HD
ENDROOT
BRANCH   7  11
ATOM     11  N   UNL     1      41.307  -6.804  14.672  1.00  0.00    -0.382 N 
ATOM     12  H   UNL     1      40.929  -5.886  14.992  1.00  0.00     0.158 HD
ATOM     13  H   UNL     1      40.939  -7.214  13.785  1.00  0.00     0.158 HD
ENDBRANCH   7  11
TORSDOF 1
ENDMDL
MODEL 2
REMARK VINA RESULT:    -5.201      0.857      2.908
REMARK INTER + INTRA:          -5.353
REMARK INTER:                  -5.353
REMARK INTRA:                   0.000
REMARK UNBOUND:                 0.000
REMARK SMILES Nc1ncnc2nc[nH]c12
REMARK SMILES IDX 8 1 7 2 6 3 5 4 4 5 3 6 2 7 10 8 9 9 1 11
REMARK H PARENT 9 10 1 12 1 13
REMARK Flexibility Score: inf
ROOT
ATOM      1  C   UNL     1      44.013  -6.641  16.646  1.00  0.00     0.199 A 
ATOM      2  N   UNL     1      44.325  -7.892  17.085  1.00  0.00    -0.217 NA
ATOM      3  C   UNL     1      43.526  -8.665  16.331  1.00  0.00     0.182 A 
ATOM      4  N   UNL     1      43.441 -10.016  16.369  1.00  0.00    -0.215 NA
ATOM      5  C   UNL     1      42.563 -10.631  15.519  1.00  0.00     0.226 A 
ATOM      6  N   UNL     1      41.796  -9.892  14.656  1.00  0.00    -0.217 NA
ATOM      7  C   UNL     1      41.881  -8.529  14.616  1.00  0.00     0.152 A 
ATOM      8  C   UNL     1      42.778  -7.917  15.487  1.00  0.00     0.127 A 
ATOM      9  N   UNL     1      43.071  -6.624  15.669  1.00  0.00    -0.340 N 
ATOM     10  H   UNL     1      42.676  -5.790  15.182  1.00  0.00     0.168 HD
ENDROOT
BRANCH   7  11
ATOM     11  N   UNL     1      41.072  -7.779  13.709  1.00  0.00    -0.382 N 
ATOM     12  H   UNL     1      40.096  -7.501  13.952  1.00  0.00     0.158 HD
ATOM     13  H   UNL     1      41.455  -7.498  12.779  1.00  0.00     0.158 HD
ENDBRANCH   7  11
TORSDOF 1
ENDMDL
MODEL 3
REMARK VINA RESULT:    -4.979     21.026     22.025
REMARK INTER + INTRA:          -5.124
REMARK INTER:                  -5.124
REMARK INTRA:                   0.000
REMARK UNBOUND:                 0.000
REMARK SMILES Nc1ncnc2nc[nH]c12
REMARK SMILES IDX 8 1 7 2 6 3 5 4 4 5 3 6 2 7 10 8 9 9 1 11
REMARK H PARENT 9 10 1 12 1 13
REMARK Flexibility Score: inf
ROOT
ATOM      1  C   UNL     1      56.644 -25.920  14.811  1.00  0.00     0.199 A 
ATOM      2  N   UNL     1      56.748 -24.687  15.379  1.00  0.00    -0.217 NA
ATOM      3  C   UNL     1      57.594 -24.059  14.544  1.00  0.00     0.182 A 
ATOM      4  N   UNL     1      58.037 -22.785  14.653  1.00  0.00    -0.215 NA
ATOM      5  C   UNL     1      58.900 -22.319  13.699  1.00  0.00     0.226 A 
ATOM      6  N   UNL     1      59.298 -23.127  12.665  1.00  0.00    -0.217 NA
ATOM      7  C   UNL     1      58.851 -24.413  12.554  1.00  0.00     0.152 A 
ATOM      8  C   UNL     1      57.973 -24.873  13.532  1.00  0.00     0.127 A 
ATOM      9  N   UNL     1      57.382 -26.065  13.681  1.00  0.00    -0.340 N 
ATOM     10  H   UNL     1      57.460 -26.912  13.077  1.00  0.00     0.168 HD
ENDROOT
BRANCH   7  11
ATOM     11  N   UNL     1      59.278 -25.237  11.469  1.00  0.00    -0.382 N 
ATOM     12  H   UNL     1      59.299 -26.277  11.550  1.00  0.00     0.158 HD
ATOM     13  H   UNL     1      59.579 -24.800  10.569  1.00  0.00     0.158 HD
ENDBRANCH   7  11
TORSDOF 1
ENDMDL
MODEL 4
REMARK VINA RESULT:    -4.918      1.083      2.521
REMARK INTER + INTRA:          -5.062
REMARK INTER:                  -5.062
REMARK INTRA:                   0.000
REMARK UNBOUND:                 0.000
REMARK SMILES Nc1ncnc2nc[nH]c12
REMARK SMILES IDX 8 1 7 2 6 3 5 4 4 5 3 6 2 7 10 8 9 9 1 11
REMARK H PARENT 9 10 1 12 1 13
REMARK Flexibility Score: inf
ROOT
ATOM      1  C   UNL     1      43.651 -10.376  16.373  1.00  0.00     0.199 A 
ATOM      2  N   UNL     1      42.960 -10.730  15.254  1.00  0.00    -0.217 NA
ATOM      3  C   UNL     1      42.507  -9.544  14.813  1.00  0.00     0.182 A 
ATOM      4  N   UNL     1      41.751  -9.329  13.711  1.00  0.00    -0.215 NA
ATOM      5  C   UNL     1      41.384  -8.043  13.421  1.00  0.00     0.226 A 
ATOM      6  N   UNL     1      41.778  -7.008  14.231  1.00  0.00    -0.217 NA
ATOM      7  C   UNL     1      42.541  -7.224  15.343  1.00  0.00     0.152 A 
ATOM      8  C   UNL     1      42.906  -8.538  15.624  1.00  0.00     0.127 A 
ATOM      9  N   UNL     1      43.636  -9.043  16.626  1.00  0.00    -0.340 N 
ATOM     10  H   UNL     1      44.092  -8.541  17.419  1.00  0.00     0.168 HD
ENDROOT
BRANCH   7  11
ATOM     11  N   UNL     1      42.939  -6.131  16.170  1.00  0.00    -0.382 N 
ATOM     12  H   UNL     1      42.488  -5.193  16.088  1.00  0.00     0.158 HD
ATOM     13  H   UNL     1      43.697  -6.260  16.877  1.00  0.00     0.158 HD
ENDBRANCH   7  11
TORSDOF 1
ENDMDL
MODEL 5
REMARK VINA RESULT:    -4.821      1.225      2.461
REMARK INTER + INTRA:          -4.961
REMARK INTER:                  -4.961
REMARK INTRA:                   0.000
REMARK UNBOUND:                 0.000
REMARK SMILES Nc1ncnc2nc[nH]c12
REMARK SMILES IDX 8 1 7 2 6 3 5 4 4 5 3 6 2 7 10 8 9 9 1 11
REMARK H PARENT 9 10 1 12 1 13
REMARK Flexibility Score: inf
ROOT
ATOM      1  C   UNL     1      41.375  -8.022  13.098  1.00  0.00     0.199 A 
ATOM      2  N   UNL     1      41.753  -9.282  13.451  1.00  0.00    -0.217 NA
ATOM      3  C   UNL     1      42.505  -9.059  14.541  1.00  0.00     0.182 A 
ATOM      4  N   UNL     1      43.133  -9.993  15.293  1.00  0.00    -0.215 NA
ATOM      5  C   UNL     1      43.858  -9.570  16.374  1.00  0.00     0.226 A 
ATOM      6  N   UNL     1      43.940  -8.235  16.678  1.00  0.00    -0.217 NA
ATOM      7  C   UNL     1      43.307  -7.292  15.920  1.00  0.00     0.152 A 
ATOM      8  C   UNL     1      42.573  -7.738  14.824  1.00  0.00     0.127 A 
ATOM      9  N   UNL     1      41.861  -7.056  13.918  1.00  0.00    -0.340 N 
ATOM     10  H   UNL     1      41.708  -6.027  13.848  1.00  0.00     0.168 HD
ENDROOT
BRANCH   7  11
ATOM     11  N   UNL     1      43.407  -5.907  16.256  1.00  0.00    -0.382 N 
ATOM     12  H   UNL     1      44.300  -5.381  16.137  1.00  0.00     0.158 HD
ATOM     13  H   UNL     1      42.574  -5.400  16.630  1.00  0.00     0.158 HD
ENDBRANCH   7  11
TORSDOF 1
ENDMDL
MODEL 6
REMARK VINA RESULT:    -4.678      1.719      3.163
REMARK INTER + INTRA:          -4.815
REMARK INTER:                  -4.815
REMARK INTRA:                   0.000
REMARK UNBOUND:                 0.000
REMARK SMILES Nc1ncnc2nc[nH]c12
REMARK SMILES IDX 8 1 7 2 6 3 5 4 4 5 3 6 2 7 10 8 9 9 1 11
REMARK H PARENT 9 10 1 12 1 13
REMARK Flexibility Score: inf
ROOT
ATOM      1  C   UNL     1      43.488  -9.631  16.288  1.00  0.00     0.199 A 
ATOM      2  N   UNL     1      43.402 -10.779  15.561  1.00  0.00    -0.217 NA
ATOM      3  C   UNL     1      42.733 -10.375  14.468  1.00  0.00     0.182 A 
ATOM      4  N   UNL     1      42.380 -11.141  13.409  1.00  0.00    -0.215 NA
ATOM      5  C   UNL     1      41.697 -10.548  12.383  1.00  0.00     0.226 A 
ATOM      6  N   UNL     1      41.385  -9.213  12.434  1.00  0.00    -0.217 NA
ATOM      7  C   UNL     1      41.742  -8.439  13.502  1.00  0.00     0.152 A 
ATOM      8  C   UNL     1      42.436  -9.058  14.538  1.00  0.00     0.127 A 
ATOM      9  N   UNL     1      42.906  -8.561  15.689  1.00  0.00    -0.340 N 
ATOM     10  H   UNL     1      42.846  -7.585  16.052  1.00  0.00     0.168 HD
ENDROOT
BRANCH   7  11
ATOM     11  N   UNL     1      41.406  -7.051  13.534  1.00  0.00    -0.382 N 
ATOM     12  H   UNL     1      40.442  -6.719  13.313  1.00  0.00     0.158 HD
ATOM     13  H   UNL     1      42.133  -6.344  13.781  1.00  0.00     0.158 HD
ENDBRANCH   7  11
TORSDOF 1
ENDMDL
MODEL 7
REMARK VINA RESULT:    -4.674     20.109     21.571
REMARK INTER + INTRA:          -4.810
REMARK INTER:                  -4.810
REMARK INTRA:                   0.000
REMARK UNBOUND:                 0.000
REMARK SMILES Nc1ncnc2nc[nH]c12
REMARK SMILES IDX 8 1 7 2 6 3 5 4 4 5 3 6 2 7 10 8 9 9 1 11
REMARK H PARENT 9 10 1 12 1 13
REMARK Flexibility Score: inf
ROOT
ATOM      1  C   UNL     1      58.762 -21.749  10.996  1.00  0.00     0.199 A 
ATOM      2  N   UNL     1      57.670 -21.402  11.731  1.00  0.00    -0.217 NA
ATOM      3  C   UNL     1      57.642 -22.362  12.671  1.00  0.00     0.182 A 
ATOM      4  N   UNL     1      56.739 -22.485  13.672  1.00  0.00    -0.215 NA
ATOM      5  C   UNL     1      56.876 -23.536  14.538  1.00  0.00     0.226 A 
ATOM      6  N   UNL     1      57.903 -24.433  14.388  1.00  0.00    -0.217 NA
ATOM      7  C   UNL     1      58.815 -24.309  13.378  1.00  0.00     0.152 A 
ATOM      8  C   UNL     1      58.662 -23.234  12.506  1.00  0.00     0.127 A 
ATOM      9  N   UNL     1      59.390 -22.866  11.444  1.00  0.00    -0.340 N 
ATOM     10  H   UNL     1      60.240 -23.320  11.045  1.00  0.00     0.168 HD
ENDROOT
BRANCH   7  11
ATOM     11  N   UNL     1      59.876 -25.254  13.242  1.00  0.00    -0.382 N 
ATOM     12  H   UNL     1      59.894 -25.943  12.458  1.00  0.00     0.158 HD
ATOM     13  H   UNL     1      60.657 -25.266  13.936  1.00  0.00     0.158 HD
ENDBRANCH   7  11
TORSDOF 1
ENDMDL
MODEL 8
REMARK VINA RESULT:    -4.635     20.734     21.805
REMARK INTER + INTRA:          -4.771
REMARK INTER:                  -4.771
REMARK INTRA:                   0.000
REMARK UNBOUND:                 0.000
REMARK SMILES Nc1ncnc2nc[nH]c12
REMARK SMILES IDX 8 1 7 2 6 3 5 4 4 5 3 6 2 7 10 8 9 9 1 11
REMARK H PARENT 9 10 1 12 1 13
REMARK Flexibility Score: inf
ROOT
ATOM      1  C   UNL     1      57.547 -24.501  14.495  1.00  0.00     0.199 A 
ATOM      2  N   UNL     1      57.582 -23.142  14.575  1.00  0.00    -0.217 NA
ATOM      3  C   UNL     1      58.158 -22.803  13.410  1.00  0.00     0.182 A 
ATOM      4  N   UNL     1      58.431 -21.548  12.979  1.00  0.00    -0.215 NA
ATOM      5  C   UNL     1      59.024 -21.401  11.756  1.00  0.00     0.226 A 
ATOM      6  N   UNL     1      59.329 -22.500  10.993  1.00  0.00    -0.217 NA
ATOM      7  C   UNL     1      59.054 -23.766  11.426  1.00  0.00     0.152 A 
ATOM      8  C   UNL     1      58.451 -23.899  12.673  1.00  0.00     0.127 A 
ATOM      9  N   UNL     1      58.071 -24.994  13.344  1.00  0.00    -0.340 N 
ATOM     10  H   UNL     1      58.153 -25.995  13.061  1.00  0.00     0.168 HD
ENDROOT
BRANCH   7  11
ATOM     11  N   UNL     1      59.381 -24.895  10.615  1.00  0.00    -0.382 N 
ATOM     12  H   UNL     1      59.366 -24.839   9.573  1.00  0.00     0.158 HD
ATOM     13  H   UNL     1      59.641 -25.802  11.063  1.00  0.00     0.158 HD
ENDBRANCH   7  11
TORSDOF 1
ENDMDL
MODEL 9
REMARK VINA RESULT:    -4.600      1.635      2.163
REMARK INTER + INTRA:          -4.734
REMARK INTER:                  -4.734
REMARK INTRA:                   0.000
REMARK UNBOUND:                 0.000
REMARK SMILES Nc1ncnc2nc[nH]c12
REMARK SMILES IDX 8 1 7 2 6 3 5 4 4 5 3 6 2 7 10 8 9 9 1 11
REMARK H PARENT 9 10 1 12 1 13
REMARK Flexibility Score: inf
ROOT
ATOM      1  C   UNL     1      41.723 -10.337  12.278  1.00  0.00     0.199 A 
ATOM      2  N   UNL     1      42.526 -11.122  13.049  1.00  0.00    -0.217 NA
ATOM      3  C   UNL     1      42.729 -10.348  14.128  1.00  0.00     0.182 A 
ATOM      4  N   UNL     1      43.471 -10.661  15.217  1.00  0.00    -0.215 NA
ATOM      5  C   UNL     1      43.560  -9.738  16.223  1.00  0.00     0.226 A 
ATOM      6  N   UNL     1      42.912  -8.533  16.122  1.00  0.00    -0.217 NA
ATOM      7  C   UNL     1      42.163  -8.217  15.024  1.00  0.00     0.152 A 
ATOM      8  C   UNL     1      42.082  -9.166  14.009  1.00  0.00     0.127 A 
ATOM      9  N   UNL     1      41.434  -9.135  12.838  1.00  0.00    -0.340 N 
ATOM     10  H   UNL     1      40.843  -8.374  12.439  1.00  0.00     0.168 HD
ENDROOT
BRANCH   7  11
ATOM     11  N   UNL     1      41.497  -6.956  14.942  1.00  0.00    -0.382 N 
ATOM     12  H   UNL     1      40.752  -6.780  14.233  1.00  0.00     0.158 HD
ATOM     13  H   UNL     1      41.753  -6.186  15.599  1.00  0.00     0.158 HD
ENDBRANCH   7  11
TORSDOF 1
ENDMDL
