MODEL 1
REMARK VINA RESULT:    -3.701      0.000      0.000
REMARK INTER + INTRA:          -4.517
REMARK INTER:                  -4.350
REMARK INTRA:                  -0.167
REMARK UNBOUND:                -0.167
REMARK SMILES O=C([O-])CCC(=O)[O-]
REMARK SMILES IDX 4 1 2 2 1 3 3 4 5 5 6 6 7 7 8 8
REMARK H PARENT
REMARK Flexibility Score: inf
ROOT
ATOM      1  C   UNL     1      89.023  73.729  69.562  1.00  0.00     0.059 C 
ENDROOT
BRANCH   1   2
ATOM      2  C   UNL     1      90.059  73.556  70.627  1.00  0.00     0.042 C 
ATOM      3  O   UNL     1      91.282  73.635  70.342  1.00  0.00    -0.550 OA
ATOM      4  O   UNL     1      89.670  73.356  71.946  1.00  0.00    -0.550 OA
ENDBRANCH   1   2
BRANCH   1   5
ATOM      5  C   UNL     1      89.182  75.087  68.875  1.00  0.00     0.059 C 
BRANCH   5   6
ATOM      6  C   UNL     1      88.770  76.191  69.796  1.00  0.00     0.042 C 
ATOM      7  O   UNL     1      87.555  76.362  70.079  1.00  0.00    -0.550 OA
ATOM      8  O   UNL     1      89.735  77.002  70.384  1.00  0.00    -0.550 OA
ENDBRANCH   5   6
ENDBRANCH   1   5
TORSDOF 3
ENDMDL
MODEL 2
REMARK VINA RESULT:    -3.694      1.355      3.350
REMARK INTER + INTRA:          -4.509
REMARK INTER:                  -4.354
REMARK INTRA:                  -0.155
REMARK UNBOUND:                -0.167
REMARK SMILES O=C([O-])CCC(=O)[O-]
REMARK SMILES IDX 4 1 2 2 1 3 3 4 5 5 6 6 7 7 8 8
REMARK H PARENT
REMARK Flexibility Score: inf
ROOT
ATOM      1  C   UNL     1      87.932  76.071  69.237  1.00  0.00     0.059 C 
ENDROOT
BRANCH   1   2
ATOM      2  C   UNL     1      87.901  76.540  70.657  1.00  0.00     0.042 C 
ATOM      3  O   UNL     1      86.912  76.278  71.389  1.00  0.00    -0.550 OA
ATOM      4  O   UNL     1      88.988  77.225  71.186  1.00  0.00    -0.550 OA
ENDBRANCH   1   2
BRANCH   1   5
ATOM      5  C   UNL     1      89.324  75.551  68.875  1.00  0.00     0.059 C 
BRANCH   5   6
ATOM      6  C   UNL     1      89.576  74.228  69.527  1.00  0.00     0.042 C 
ATOM      7  O   UNL     1      88.813  73.253  69.300  1.00  0.00    -0.550 OA
ATOM      8  O   UNL     1      90.684  74.058  70.349  1.00  0.00    -0.550 OA
ENDBRANCH   5   6
ENDBRANCH   1   5
TORSDOF 3
ENDMDL
MODEL 3
REMARK VINA RESULT:    -3.676      0.830      3.289
REMARK INTER + INTRA:          -4.487
REMARK INTER:                  -4.316
REMARK INTRA:                  -0.171
REMARK UNBOUND:                -0.167
REMARK SMILES O=C([O-])CCC(=O)[O-]
REMARK SMILES IDX 4 1 2 2 1 3 3 4 5 5 6 6 7 7 8 8
REMARK H PARENT
REMARK Flexibility Score: inf
ROOT
ATOM      1  C   UNL     1      89.658  75.681  68.876  1.00  0.00     0.059 C 
ENDROOT
BRANCH   1   2
ATOM      2  C   UNL     1      89.705  76.613  70.045  1.00  0.00     0.042 C 
ATOM      3  O   UNL     1      90.791  77.151  70.383  1.00  0.00    -0.550 OA
ATOM      4  O   UNL     1      88.538  76.925  70.732  1.00  0.00    -0.550 OA
ENDBRANCH   1   2
BRANCH   1   5
ATOM      5  C   UNL     1      89.042  74.342  69.283  1.00  0.00     0.059 C 
BRANCH   5   6
ATOM      6  C   UNL     1      89.858  73.694  70.356  1.00  0.00     0.042 C 
ATOM      7  O   UNL     1      91.079  73.454  70.167  1.00  0.00    -0.550 OA
ATOM      8  O   UNL     1      89.281  73.400  71.586  1.00  0.00    -0.550 OA
ENDBRANCH   5   6
ENDBRANCH   1   5
TORSDOF 3
ENDMDL
MODEL 4
REMARK VINA RESULT:    -3.665      1.430      2.045
REMARK INTER + INTRA:          -4.475
REMARK INTER:                  -4.331
REMARK INTRA:                  -0.144
REMARK UNBOUND:                -0.167
REMARK SMILES O=C([O-])CCC(=O)[O-]
REMARK SMILES IDX 4 1 2 2 1 3 3 4 5 5 6 6 7 7 8 8
REMARK H PARENT
REMARK Flexibility Score: inf
ROOT
ATOM      1  C   UNL     1      89.276  75.642  68.939  1.00  0.00     0.059 C 
ENDROOT
BRANCH   1   2
ATOM      2  C   UNL     1      89.663  74.337  69.559  1.00  0.00     0.042 C 
ATOM      3  O   UNL     1      90.657  74.270  70.327  1.00  0.00    -0.550 OA
ATOM      4  O   UNL     1      88.895  73.203  69.325  1.00  0.00    -0.550 OA
ENDBRANCH   1   2
BRANCH   1   5
ATOM      5  C   UNL     1      87.858  76.035  69.359  1.00  0.00     0.059 C 
BRANCH   5   6
ATOM      6  C   UNL     1      87.849  76.536  70.768  1.00  0.00     0.042 C 
ATOM      7  O   UNL     1      88.776  77.279  71.184  1.00  0.00    -0.550 OA
ATOM      8  O   UNL     1      86.787  76.224  71.610  1.00  0.00    -0.550 OA
ENDBRANCH   5   6
ENDBRANCH   1   5
TORSDOF 3
ENDMDL
MODEL 5
REMARK VINA RESULT:    -3.614      1.895      2.500
REMARK INTER + INTRA:          -4.414
REMARK INTER:                  -4.242
REMARK INTRA:                  -0.172
REMARK UNBOUND:                -0.167
REMARK SMILES O=C([O-])CCC(=O)[O-]
REMARK SMILES IDX 4 1 2 2 1 3 3 4 5 5 6 6 7 7 8 8
REMARK H PARENT
REMARK Flexibility Score: inf
ROOT
ATOM      1  C   UNL     1      89.174  76.402  69.033  1.00  0.00     0.059 C 
ENDROOT
BRANCH   1   2
ATOM      2  C   UNL     1      90.457  76.044  69.713  1.00  0.00     0.042 C 
ATOM      3  O   UNL     1      91.239  76.948  70.107  1.00  0.00    -0.550 OA
ATOM      4  O   UNL     1      90.767  74.712  69.955  1.00  0.00    -0.550 OA
ENDBRANCH   1   2
BRANCH   1   5
ATOM      5  C   UNL     1      87.986  75.778  69.769  1.00  0.00     0.059 C 
BRANCH   5   6
ATOM      6  C   UNL     1      87.933  76.262  71.183  1.00  0.00     0.042 C 
ATOM      7  O   UNL     1      87.721  77.478  71.430  1.00  0.00    -0.550 OA
ATOM      8  O   UNL     1      88.067  75.359  72.232  1.00  0.00    -0.550 OA
ENDBRANCH   5   6
ENDBRANCH   1   5
TORSDOF 3
ENDMDL
MODEL 6
REMARK VINA RESULT:    -3.566      1.689      2.126
REMARK INTER + INTRA:          -4.358
REMARK INTER:                  -4.225
REMARK INTRA:                  -0.134
REMARK UNBOUND:                -0.167
REMARK SMILES O=C([O-])CCC(=O)[O-]
REMARK SMILES IDX 4 1 2 2 1 3 3 4 5 5 6 6 7 7 8 8
REMARK H PARENT
REMARK Flexibility Score: inf
ROOT
ATOM      1  C   UNL     1      90.870  74.039  70.645  1.00  0.00     0.059 C 
ENDROOT
BRANCH   1   2
ATOM      2  C   UNL     1      89.906  73.629  71.713  1.00  0.00     0.042 C 
ATOM      3  O   UNL     1      88.683  73.497  71.445  1.00  0.00    -0.550 OA
ATOM      4  O   UNL     1      90.366  73.344  72.992  1.00  0.00    -0.550 OA
ENDBRANCH   1   2
BRANCH   1   5
ATOM      5  C   UNL     1      90.234  75.077  69.719  1.00  0.00     0.059 C 
BRANCH   5   6
ATOM      6  C   UNL     1      90.358  76.448  70.305  1.00  0.00     0.042 C 
ATOM      7  O   UNL     1      91.418  77.110  70.152  1.00  0.00    -0.550 OA
ATOM      8  O   UNL     1      89.282  77.017  70.976  1.00  0.00    -0.550 OA
ENDBRANCH   5   6
ENDBRANCH   1   5
TORSDOF 3
ENDMDL
MODEL 7
REMARK VINA RESULT:    -3.384      2.603      3.308
REMARK INTER + INTRA:          -4.145
REMARK INTER:                  -4.021
REMARK INTRA:                  -0.124
REMARK UNBOUND:                -0.167
REMARK SMILES O=C([O-])CCC(=O)[O-]
REMARK SMILES IDX 4 1 2 2 1 3 3 4 5 5 6 6 7 7 8 8
REMARK H PARENT
REMARK Flexibility Score: inf
ROOT
ATOM      1  C   UNL     1      87.712  75.663  73.437  1.00  0.00     0.059 C 
ENDROOT
BRANCH   1   2
ATOM      2  C   UNL     1      87.843  74.178  73.309  1.00  0.00     0.042 C 
ATOM      3  O   UNL     1      88.896  73.673  72.840  1.00  0.00    -0.550 OA
ATOM      4  O   UNL     1      86.820  73.350  73.753  1.00  0.00    -0.550 OA
ENDBRANCH   1   2
BRANCH   1   5
ATOM      5  C   UNL     1      86.897  76.231  72.274  1.00  0.00     0.059 C 
BRANCH   5   6
ATOM      6  C   UNL     1      87.791  76.571  71.124  1.00  0.00     0.042 C 
ATOM      7  O   UNL     1      88.929  77.067  71.330  1.00  0.00    -0.550 OA
ATOM      8  O   UNL     1      87.386  76.292  69.823  1.00  0.00    -0.550 OA
ENDBRANCH   5   6
ENDBRANCH   1   5
TORSDOF 3
ENDMDL
MODEL 8
REMARK VINA RESULT:    -3.365      2.083      3.023
REMARK INTER + INTRA:          -4.122
REMARK INTER:                  -3.933
REMARK INTRA:                  -0.189
REMARK UNBOUND:                -0.167
REMARK SMILES O=C([O-])CCC(=O)[O-]
REMARK SMILES IDX 4 1 2 2 1 3 3 4 5 5 6 6 7 7 8 8
REMARK H PARENT
REMARK Flexibility Score: inf
ROOT
ATOM      1  C   UNL     1      88.201  77.011  71.222  1.00  0.00     0.059 C 
ENDROOT
BRANCH   1   2
ATOM      2  C   UNL     1      88.489  76.169  72.424  1.00  0.00     0.042 C 
ATOM      3  O   UNL     1      89.178  76.630  73.371  1.00  0.00    -0.550 OA
ATOM      4  O   UNL     1      87.955  74.890  72.520  1.00  0.00    -0.550 OA
ENDBRANCH   1   2
BRANCH   1   5
ATOM      5  C   UNL     1      88.679  76.309  69.949  1.00  0.00     0.059 C 
BRANCH   5   6
ATOM      6  C   UNL     1      90.159  76.096  69.992  1.00  0.00     0.042 C 
ATOM      7  O   UNL     1      90.639  74.939  69.859  1.00  0.00    -0.550 OA
ATOM      8  O   UNL     1      91.014  77.184  70.129  1.00  0.00    -0.550 OA
ENDBRANCH   5   6
ENDBRANCH   1   5
TORSDOF 3
ENDMDL
MODEL 9
REMARK VINA RESULT:    -3.342      1.426      2.157
REMARK INTER + INTRA:          -4.095
REMARK INTER:                  -3.913
REMARK INTRA:                  -0.182
REMARK UNBOUND:                -0.167
REMARK SMILES O=C([O-])CCC(=O)[O-]
REMARK SMILES IDX 4 1 2 2 1 3 3 4 5 5 6 6 7 7 8 8
REMARK H PARENT
REMARK Flexibility Score: inf
ROOT
ATOM      1  C   UNL     1      88.918  73.862  71.677  1.00  0.00     0.059 C 
ENDROOT
BRANCH   1   2
ATOM      2  C   UNL     1      89.664  73.421  70.458  1.00  0.00     0.042 C 
ATOM      3  O   UNL     1      89.045  72.927  69.480  1.00  0.00    -0.550 OA
ATOM      4  O   UNL     1      91.040  73.600  70.383  1.00  0.00    -0.550 OA
ENDBRANCH   1   2
BRANCH   1   5
ATOM      5  C   UNL     1      89.281  75.304  72.034  1.00  0.00     0.059 C 
BRANCH   5   6
ATOM      6  C   UNL     1      88.832  76.240  70.958  1.00  0.00     0.042 C 
ATOM      7  O   UNL     1      89.668  76.962  70.354  1.00  0.00    -0.550 OA
ATOM      8  O   UNL     1      87.493  76.280  70.586  1.00  0.00    -0.550 OA
ENDBRANCH   5   6
ENDBRANCH   1   5
TORSDOF 3
ENDMDL
