MODEL 1
REMARK VINA RESULT:    -5.924      0.000      0.000
REMARK INTER + INTRA:          -7.262
REMARK INTER:                  -6.963
REMARK INTRA:                  -0.299
REMARK UNBOUND:                -0.299
REMARK SMILES O=c1cc(-c2ccc(O)c(O)c2)oc2cc(O)cc(O)c12
REMARK SMILES IDX 4 1 3 2 2 3 1 4 21 5 19 6 18 7 16 8 15 9 14 10 13 11 5 12
REMARK SMILES IDX 6 13 7 14 8 15 12 16 10 17 9 18 11 20 20 22 17 24
REMARK H PARENT 9 19 11 21 20 23 17 25
REMARK Flexibility Score: inf
ROOT
ATOM      1  C   UNL     1      75.045 -55.577 198.096  1.00  0.00     0.138 A 
ATOM      2  C   UNL     1      74.000 -55.240 197.221  1.00  0.00     0.100 A 
ATOM      3  C   UNL     1      74.300 -54.731 195.956  1.00  0.00     0.197 A 
ATOM      4  O   UNL     1      73.355 -54.433 195.177  1.00  0.00    -0.289 OA
ATOM      5  C   UNL     1      75.647 -54.564 195.576  1.00  0.00     0.107 A 
ATOM      6  C   UNL     1      76.038 -54.053 194.315  1.00  0.00     0.134 A 
ATOM      7  C   UNL     1      77.401 -53.922 194.010  1.00  0.00     0.093 A 
ATOM      8  C   UNL     1      78.377 -54.292 194.938  1.00  0.00     0.123 A 
ATOM      9  C   UNL     1      77.996 -54.798 196.187  1.00  0.00     0.094 A 
ATOM     10  C   UNL     1      76.644 -54.935 196.509  1.00  0.00     0.146 A 
ATOM     11  O   UNL     1      76.307 -55.416 197.701  1.00  0.00    -0.456 OA
ENDROOT
BRANCH   1  12
ATOM     12  C   UNL     1      74.786 -56.125 199.451  1.00  0.00     0.021 A 
ATOM     13  C   UNL     1      73.705 -55.630 200.201  1.00  0.00     0.016 A 
ATOM     14  C   UNL     1      73.434 -56.135 201.476  1.00  0.00     0.051 A 
ATOM     15  C   UNL     1      74.233 -57.148 202.019  1.00  0.00     0.157 A 
ATOM     16  C   UNL     1      75.577 -57.155 199.997  1.00  0.00     0.062 A 
ATOM     17  C   UNL     1      75.304 -57.661 201.278  1.00  0.00     0.158 A 
BRANCH  15  18
ATOM     18  O   UNL     1      73.967 -57.653 203.290  1.00  0.00    -0.504 OA
ATOM     19  H   UNL     1      73.486 -58.535 203.420  1.00  0.00     0.293 HD
ENDBRANCH  15  18
BRANCH  17  20
ATOM     20  O   UNL     1      76.090 -58.679 201.815  1.00  0.00    -0.504 OA
ATOM     21  H   UNL     1      76.096 -58.877 202.809  1.00  0.00     0.293 HD
ENDBRANCH  17  20
ENDBRANCH   1  12
BRANCH   6  22
ATOM     22  O   UNL     1      75.086 -53.674 193.368  1.00  0.00    -0.507 OA
ATOM     23  H   UNL     1      75.272 -52.949 192.684  1.00  0.00     0.293 HD
ENDBRANCH   6  22
BRANCH   8  24
ATOM     24  O   UNL     1      79.724 -54.153 194.610  1.00  0.00    -0.508 OA
ATOM     25  H   UNL     1      80.456 -54.523 195.206  1.00  0.00     0.293 HD
ENDBRANCH   8  24
TORSDOF 5
ENDMDL
MODEL 2
REMARK VINA RESULT:    -5.529      1.501      6.747
REMARK INTER + INTRA:          -6.797
REMARK INTER:                  -6.480
REMARK INTRA:                  -0.317
REMARK UNBOUND:                -0.299
REMARK SMILES O=c1cc(-c2ccc(O)c(O)c2)oc2cc(O)cc(O)c12
REMARK SMILES IDX 4 1 3 2 2 3 1 4 21 5 19 6 18 7 16 8 15 9 14 10 13 11 5 12
REMARK SMILES IDX 6 13 7 14 8 15 12 16 10 17 9 18 11 20 20 22 17 24
REMARK H PARENT 9 19 11 21 20 23 17 25
REMARK Flexibility Score: inf
ROOT
ATOM      1  C   UNL     1      75.168 -55.219 196.761  1.00  0.00     0.138 A 
ATOM      2  C   UNL     1      73.805 -54.882 196.775  1.00  0.00     0.100 A 
ATOM      3  C   UNL     1      73.009 -55.287 197.848  1.00  0.00     0.197 A 
ATOM      4  O   UNL     1      71.786 -54.978 197.852  1.00  0.00    -0.289 OA
ATOM      5  C   UNL     1      73.585 -56.025 198.901  1.00  0.00     0.107 A 
ATOM      6  C   UNL     1      72.849 -56.476 200.024  1.00  0.00     0.134 A 
ATOM      7  C   UNL     1      73.498 -57.201 201.033  1.00  0.00     0.093 A 
ATOM      8  C   UNL     1      74.863 -57.483 200.944  1.00  0.00     0.123 A 
ATOM      9  C   UNL     1      75.595 -57.040 199.836  1.00  0.00     0.094 A 
ATOM     10  C   UNL     1      74.967 -56.316 198.819  1.00  0.00     0.146 A 
ATOM     11  O   UNL     1      75.683 -55.909 197.777  1.00  0.00    -0.456 OA
ENDROOT
BRANCH   1  12
ATOM     12  C   UNL     1      76.063 -54.813 195.647  1.00  0.00     0.021 A 
ATOM     13  C   UNL     1      75.513 -54.207 194.504  1.00  0.00     0.016 A 
ATOM     14  C   UNL     1      76.334 -53.809 193.446  1.00  0.00     0.051 A 
ATOM     15  C   UNL     1      77.719 -54.000 193.516  1.00  0.00     0.157 A 
ATOM     16  C   UNL     1      77.459 -54.990 195.717  1.00  0.00     0.062 A 
ATOM     17  C   UNL     1      78.283 -54.588 194.654  1.00  0.00     0.158 A 
BRANCH  15  18
ATOM     18  O   UNL     1      78.541 -53.606 192.463  1.00  0.00    -0.504 OA
ATOM     19  H   UNL     1      78.614 -52.635 192.182  1.00  0.00     0.293 HD
ENDBRANCH  15  18
BRANCH  17  20
ATOM     20  O   UNL     1      79.664 -54.767 194.727  1.00  0.00    -0.504 OA
ATOM     21  H   UNL     1      80.076 -55.485 195.310  1.00  0.00     0.293 HD
ENDBRANCH  17  20
ENDBRANCH   1  12
BRANCH   6  22
ATOM     22  O   UNL     1      71.485 -56.209 200.141  1.00  0.00    -0.507 OA
ATOM     23  H   UNL     1      70.908 -56.676 200.831  1.00  0.00     0.293 HD
ENDBRANCH   6  22
BRANCH   8  24
ATOM     24  O   UNL     1      75.483 -58.205 201.961  1.00  0.00    -0.508 OA
ATOM     25  H   UNL     1      76.479 -58.397 201.944  1.00  0.00     0.293 HD
ENDBRANCH   8  24
TORSDOF 5
ENDMDL
MODEL 3
REMARK VINA RESULT:    -5.299      1.386      3.090
REMARK INTER + INTRA:          -6.528
REMARK INTER:                  -6.252
REMARK INTRA:                  -0.276
REMARK UNBOUND:                -0.299
REMARK SMILES O=c1cc(-c2ccc(O)c(O)c2)oc2cc(O)cc(O)c12
REMARK SMILES IDX 4 1 3 2 2 3 1 4 21 5 19 6 18 7 16 8 15 9 14 10 13 11 5 12
REMARK SMILES IDX 6 13 7 14 8 15 12 16 10 17 9 18 11 20 20 22 17 24
REMARK H PARENT 9 19 11 21 20 23 17 25
REMARK Flexibility Score: inf
ROOT
ATOM      1  C   UNL     1      75.266 -55.552 198.431  1.00  0.00     0.138 A 
ATOM      2  C   UNL     1      76.608 -55.255 198.143  1.00  0.00     0.100 A 
ATOM      3  C   UNL     1      76.938 -54.707 196.902  1.00  0.00     0.197 A 
ATOM      4  O   UNL     1      78.145 -54.442 196.653  1.00  0.00    -0.289 OA
ATOM      5  C   UNL     1      75.920 -54.457 195.959  1.00  0.00     0.107 A 
ATOM      6  C   UNL     1      76.169 -53.905 194.680  1.00  0.00     0.134 A 
ATOM      7  C   UNL     1      75.100 -53.682 193.800  1.00  0.00     0.093 A 
ATOM      8  C   UNL     1      73.791 -53.998 194.174  1.00  0.00     0.123 A 
ATOM      9  C   UNL     1      73.540 -54.544 195.438  1.00  0.00     0.094 A 
ATOM     10  C   UNL     1      74.591 -54.774 196.329  1.00  0.00     0.146 A 
ATOM     11  O   UNL     1      74.327 -55.295 197.522  1.00  0.00    -0.456 OA
ENDROOT
BRANCH   1  12
ATOM     12  C   UNL     1      74.856 -56.134 199.735  1.00  0.00     0.021 A 
ATOM     13  C   UNL     1      75.358 -57.390 200.119  1.00  0.00     0.016 A 
ATOM     14  C   UNL     1      74.994 -57.956 201.344  1.00  0.00     0.051 A 
ATOM     15  C   UNL     1      74.130 -57.273 202.209  1.00  0.00     0.157 A 
ATOM     16  C   UNL     1      73.999 -55.446 200.616  1.00  0.00     0.062 A 
ATOM     17  C   UNL     1      73.635 -56.016 201.846  1.00  0.00     0.158 A 
BRANCH  15  18
ATOM     18  O   UNL     1      73.764 -57.835 203.430  1.00  0.00    -0.504 OA
ATOM     19  H   UNL     1      72.838 -58.217 203.581  1.00  0.00     0.293 HD
ENDBRANCH  15  18
BRANCH  17  20
ATOM     20  O   UNL     1      72.784 -55.332 202.714  1.00  0.00    -0.504 OA
ATOM     21  H   UNL     1      72.048 -55.809 203.221  1.00  0.00     0.293 HD
ENDBRANCH  17  20
ENDBRANCH   1  12
BRANCH   6  22
ATOM     22  O   UNL     1      77.465 -53.580 194.278  1.00  0.00    -0.507 OA
ATOM     23  H   UNL     1      77.908 -54.034 193.487  1.00  0.00     0.293 HD
ENDBRANCH   6  22
BRANCH   8  24
ATOM     24  O   UNL     1      72.747 -53.765 193.281  1.00  0.00    -0.508 OA
ATOM     25  H   UNL     1      72.336 -54.518 192.739  1.00  0.00     0.293 HD
ENDBRANCH   8  24
TORSDOF 5
ENDMDL
MODEL 4
REMARK VINA RESULT:    -5.247      5.252      9.087
REMARK INTER + INTRA:          -6.466
REMARK INTER:                  -6.149
REMARK INTRA:                  -0.317
REMARK UNBOUND:                -0.299
REMARK SMILES O=c1cc(-c2ccc(O)c(O)c2)oc2cc(O)cc(O)c12
REMARK SMILES IDX 4 1 3 2 2 3 1 4 21 5 19 6 18 7 16 8 15 9 14 10 13 11 5 12
REMARK SMILES IDX 6 13 7 14 8 15 12 16 10 17 9 18 11 20 20 22 17 24
REMARK H PARENT 9 19 11 21 20 23 17 25
REMARK Flexibility Score: inf
ROOT
ATOM      1  C   UNL     1      70.002 -58.330 196.801  1.00  0.00     0.138 A 
ATOM      2  C   UNL     1      68.827 -59.096 196.861  1.00  0.00     0.100 A 
ATOM      3  C   UNL     1      68.539 -59.823 198.017  1.00  0.00     0.197 A 
ATOM      4  O   UNL     1      67.481 -60.507 198.062  1.00  0.00    -0.289 OA
ATOM      5  C   UNL     1      69.430 -59.776 199.108  1.00  0.00     0.107 A 
ATOM      6  C   UNL     1      69.215 -60.484 200.315  1.00  0.00     0.134 A 
ATOM      7  C   UNL     1      70.148 -60.381 201.357  1.00  0.00     0.093 A 
ATOM      8  C   UNL     1      71.287 -59.585 201.216  1.00  0.00     0.123 A 
ATOM      9  C   UNL     1      71.505 -58.883 200.025  1.00  0.00     0.094 A 
ATOM     10  C   UNL     1      70.588 -58.974 198.975  1.00  0.00     0.146 A 
ATOM     11  O   UNL     1      70.818 -58.299 197.853  1.00  0.00    -0.456 OA
ENDROOT
BRANCH   1  12
ATOM     12  C   UNL     1      70.358 -57.535 195.599  1.00  0.00     0.021 A 
ATOM     13  C   UNL     1      69.608 -57.690 194.420  1.00  0.00     0.016 A 
ATOM     14  C   UNL     1      69.918 -56.948 193.277  1.00  0.00     0.051 A 
ATOM     15  C   UNL     1      70.975 -56.031 193.296  1.00  0.00     0.157 A 
ATOM     16  C   UNL     1      71.412 -56.600 195.615  1.00  0.00     0.062 A 
ATOM     17  C   UNL     1      71.722 -55.855 194.466  1.00  0.00     0.158 A 
BRANCH  15  18
ATOM     18  O   UNL     1      71.288 -55.291 192.158  1.00  0.00    -0.504 OA
ATOM     19  H   UNL     1      72.209 -55.328 191.738  1.00  0.00     0.293 HD
ENDBRANCH  15  18
BRANCH  17  20
ATOM     20  O   UNL     1      72.767 -54.932 194.486  1.00  0.00    -0.504 OA
ATOM     21  H   UNL     1      73.736 -55.228 194.492  1.00  0.00     0.293 HD
ENDBRANCH  17  20
ENDBRANCH   1  12
BRANCH   6  22
ATOM     22  O   UNL     1      68.086 -61.286 200.484  1.00  0.00    -0.507 OA
ATOM     23  H   UNL     1      68.136 -62.185 200.951  1.00  0.00     0.293 HD
ENDBRANCH   6  22
BRANCH   8  24
ATOM     24  O   UNL     1      72.198 -59.499 202.267  1.00  0.00    -0.508 OA
ATOM     25  H   UNL     1      73.198 -59.562 202.108  1.00  0.00     0.293 HD
ENDBRANCH   8  24
TORSDOF 5
ENDMDL
MODEL 5
REMARK VINA RESULT:    -5.208      5.157      6.580
REMARK INTER + INTRA:          -6.420
REMARK INTER:                  -6.108
REMARK INTRA:                  -0.312
REMARK UNBOUND:                -0.299
REMARK SMILES O=c1cc(-c2ccc(O)c(O)c2)oc2cc(O)cc(O)c12
REMARK SMILES IDX 4 1 3 2 2 3 1 4 21 5 19 6 18 7 16 8 15 9 14 10 13 11 5 12
REMARK SMILES IDX 6 13 7 14 8 15 12 16 10 17 9 18 11 20 20 22 17 24
REMARK H PARENT 9 19 11 21 20 23 17 25
REMARK Flexibility Score: inf
ROOT
ATOM      1  C   UNL     1      69.905 -58.984 198.465  1.00  0.00     0.138 A 
ATOM      2  C   UNL     1      68.657 -59.352 197.938  1.00  0.00     0.100 A 
ATOM      3  C   UNL     1      68.252 -58.835 196.706  1.00  0.00     0.197 A 
ATOM      4  O   UNL     1      67.130 -59.172 196.240  1.00  0.00    -0.289 OA
ATOM      5  C   UNL     1      69.104 -57.954 196.008  1.00  0.00     0.107 A 
ATOM      6  C   UNL     1      68.770 -57.385 194.756  1.00  0.00     0.134 A 
ATOM      7  C   UNL     1      69.675 -56.521 194.122  1.00  0.00     0.093 A 
ATOM      8  C   UNL     1      70.904 -56.218 194.714  1.00  0.00     0.123 A 
ATOM      9  C   UNL     1      71.238 -56.778 195.952  1.00  0.00     0.094 A 
ATOM     10  C   UNL     1      70.350 -57.640 196.600  1.00  0.00     0.146 A 
ATOM     11  O   UNL     1      70.690 -58.158 197.775  1.00  0.00    -0.456 OA
ENDROOT
BRANCH   1  12
ATOM     12  C   UNL     1      70.389 -59.504 199.769  1.00  0.00     0.021 A 
ATOM     13  C   UNL     1      69.836 -60.688 200.289  1.00  0.00     0.016 A 
ATOM     14  C   UNL     1      70.278 -61.203 201.510  1.00  0.00     0.051 A 
ATOM     15  C   UNL     1      71.287 -60.549 202.228  1.00  0.00     0.157 A 
ATOM     16  C   UNL     1      71.413 -58.860 200.489  1.00  0.00     0.062 A 
ATOM     17  C   UNL     1      71.858 -59.378 201.716  1.00  0.00     0.158 A 
BRANCH  15  18
ATOM     18  O   UNL     1      71.730 -61.059 203.446  1.00  0.00    -0.504 OA
ATOM     19  H   UNL     1      72.328 -61.875 203.494  1.00  0.00     0.293 HD
ENDBRANCH  15  18
BRANCH  17  20
ATOM     20  O   UNL     1      72.871 -58.736 202.427  1.00  0.00    -0.504 OA
ATOM     21  H   UNL     1      73.204 -57.817 202.162  1.00  0.00     0.293 HD
ENDBRANCH  17  20
ENDBRANCH   1  12
BRANCH   6  22
ATOM     22  O   UNL     1      67.551 -57.669 194.140  1.00  0.00    -0.507 OA
ATOM     23  H   UNL     1      67.493 -58.263 193.320  1.00  0.00     0.293 HD
ENDBRANCH   6  22
BRANCH   8  24
ATOM     24  O   UNL     1      71.785 -55.357 194.063  1.00  0.00    -0.508 OA
ATOM     25  H   UNL     1      72.631 -55.699 193.620  1.00  0.00     0.293 HD
ENDBRANCH   8  24
TORSDOF 5
ENDMDL
MODEL 6
REMARK VINA RESULT:    -5.203      1.923      3.625
REMARK INTER + INTRA:          -6.414
REMARK INTER:                  -6.137
REMARK INTRA:                  -0.277
REMARK UNBOUND:                -0.299
REMARK SMILES O=c1cc(-c2ccc(O)c(O)c2)oc2cc(O)cc(O)c12
REMARK SMILES IDX 4 1 3 2 2 3 1 4 21 5 19 6 18 7 16 8 15 9 14 10 13 11 5 12
REMARK SMILES IDX 6 13 7 14 8 15 12 16 10 17 9 18 11 20 20 22 17 24
REMARK H PARENT 9 19 11 21 20 23 17 25
REMARK Flexibility Score: inf
ROOT
ATOM      1  C   UNL     1      73.847 -55.626 198.285  1.00  0.00     0.138 A 
ATOM      2  C   UNL     1      74.988 -55.073 197.682  1.00  0.00     0.100 A 
ATOM      3  C   UNL     1      74.904 -54.575 196.381  1.00  0.00     0.197 A 
ATOM      4  O   UNL     1      75.934 -54.079 195.849  1.00  0.00    -0.289 OA
ATOM      5  C   UNL     1      73.675 -54.631 195.693  1.00  0.00     0.107 A 
ATOM      6  C   UNL     1      73.505 -54.151 194.372  1.00  0.00     0.134 A 
ATOM      7  C   UNL     1      72.247 -54.239 193.758  1.00  0.00     0.093 A 
ATOM      8  C   UNL     1      71.160 -54.795 194.437  1.00  0.00     0.123 A 
ATOM      9  C   UNL     1      71.323 -55.272 195.742  1.00  0.00     0.094 A 
ATOM     10  C   UNL     1      72.568 -55.194 196.372  1.00  0.00     0.146 A 
ATOM     11  O   UNL     1      72.699 -55.655 197.611  1.00  0.00    -0.456 OA
ENDROOT
BRANCH   1  12
ATOM     12  C   UNL     1      73.876 -56.169 199.667  1.00  0.00     0.021 A 
ATOM     13  C   UNL     1      72.850 -55.828 200.565  1.00  0.00     0.016 A 
ATOM     14  C   UNL     1      72.851 -56.331 201.869  1.00  0.00     0.051 A 
ATOM     15  C   UNL     1      73.870 -57.191 202.294  1.00  0.00     0.157 A 
ATOM     16  C   UNL     1      74.891 -57.046 200.096  1.00  0.00     0.062 A 
ATOM     17  C   UNL     1      74.890 -57.552 201.406  1.00  0.00     0.158 A 
BRANCH  15  18
ATOM     18  O   UNL     1      73.874 -57.694 203.593  1.00  0.00    -0.504 OA
ATOM     19  H   UNL     1      74.338 -58.566 203.822  1.00  0.00     0.293 HD
ENDBRANCH  15  18
BRANCH  17  20
ATOM     20  O   UNL     1      75.898 -58.418 201.827  1.00  0.00    -0.504 OA
ATOM     21  H   UNL     1      76.125 -59.260 201.312  1.00  0.00     0.293 HD
ENDBRANCH  17  20
ENDBRANCH   1  12
BRANCH   6  22
ATOM     22  O   UNL     1      74.571 -53.590 193.669  1.00  0.00    -0.507 OA
ATOM     23  H   UNL     1      75.471 -53.427 194.107  1.00  0.00     0.293 HD
ENDBRANCH   6  22
BRANCH   8  24
ATOM     24  O   UNL     1      69.921 -54.869 193.804  1.00  0.00    -0.508 OA
ATOM     25  H   UNL     1      69.536 -55.756 193.497  1.00  0.00     0.293 HD
ENDBRANCH   8  24
TORSDOF 5
ENDMDL
MODEL 7
REMARK VINA RESULT:    -5.121      5.182      9.106
REMARK INTER + INTRA:          -6.319
REMARK INTER:                  -6.028
REMARK INTRA:                  -0.291
REMARK UNBOUND:                -0.299
REMARK SMILES O=c1cc(-c2ccc(O)c(O)c2)oc2cc(O)cc(O)c12
REMARK SMILES IDX 4 1 3 2 2 3 1 4 21 5 19 6 18 7 16 8 15 9 14 10 13 11 5 12
REMARK SMILES IDX 6 13 7 14 8 15 12 16 10 17 9 18 11 20 20 22 17 24
REMARK H PARENT 9 19 11 21 20 23 17 25
REMARK Flexibility Score: inf
ROOT
ATOM      1  C   UNL     1      70.206 -58.248 197.262  1.00  0.00     0.138 A 
ATOM      2  C   UNL     1      69.028 -59.001 197.137  1.00  0.00     0.100 A 
ATOM      3  C   UNL     1      68.652 -59.864 198.168  1.00  0.00     0.197 A 
ATOM      4  O   UNL     1      67.591 -60.534 198.048  1.00  0.00    -0.289 OA
ATOM      5  C   UNL     1      69.459 -59.965 199.319  1.00  0.00     0.107 A 
ATOM      6  C   UNL     1      69.152 -60.815 200.409  1.00  0.00     0.134 A 
ATOM      7  C   UNL     1      70.005 -60.855 201.521  1.00  0.00     0.093 A 
ATOM      8  C   UNL     1      71.154 -60.061 201.567  1.00  0.00     0.123 A 
ATOM      9  C   UNL     1      71.462 -59.219 200.493  1.00  0.00     0.094 A 
ATOM     10  C   UNL     1      70.626 -59.166 199.375  1.00  0.00     0.146 A 
ATOM     11  O   UNL     1      70.941 -58.359 198.367  1.00  0.00    -0.456 OA
ENDROOT
BRANCH   1  12
ATOM     12  C   UNL     1      70.654 -57.313 196.199  1.00  0.00     0.021 A 
ATOM     13  C   UNL     1      71.499 -56.240 196.533  1.00  0.00     0.016 A 
ATOM     14  C   UNL     1      71.940 -55.350 195.550  1.00  0.00     0.051 A 
ATOM     15  C   UNL     1      71.554 -55.523 194.216  1.00  0.00     0.157 A 
ATOM     16  C   UNL     1      70.281 -57.489 194.852  1.00  0.00     0.062 A 
ATOM     17  C   UNL     1      70.726 -56.596 193.865  1.00  0.00     0.158 A 
BRANCH  15  18
ATOM     18  O   UNL     1      71.992 -54.638 193.233  1.00  0.00    -0.504 OA
ATOM     19  H   UNL     1      71.344 -54.197 192.590  1.00  0.00     0.293 HD
ENDBRANCH  15  18
BRANCH  17  20
ATOM     20  O   UNL     1      70.352 -56.773 192.534  1.00  0.00    -0.504 OA
ATOM     21  H   UNL     1      70.655 -57.579 192.000  1.00  0.00     0.293 HD
ENDBRANCH  17  20
ENDBRANCH   1  12
BRANCH   6  22
ATOM     22  O   UNL     1      68.011 -61.618 200.392  1.00  0.00    -0.507 OA
ATOM     23  H   UNL     1      67.704 -62.125 201.214  1.00  0.00     0.293 HD
ENDBRANCH   6  22
BRANCH   8  24
ATOM     24  O   UNL     1      71.983 -60.119 202.684  1.00  0.00    -0.508 OA
ATOM     25  H   UNL     1      72.400 -59.283 203.079  1.00  0.00     0.293 HD
ENDBRANCH   8  24
TORSDOF 5
ENDMDL
MODEL 8
REMARK VINA RESULT:    -4.998      4.163      8.798
REMARK INTER + INTRA:          -6.174
REMARK INTER:                  -5.873
REMARK INTRA:                  -0.301
REMARK UNBOUND:                -0.299
REMARK SMILES O=c1cc(-c2ccc(O)c(O)c2)oc2cc(O)cc(O)c12
REMARK SMILES IDX 4 1 3 2 2 3 1 4 21 5 19 6 18 7 16 8 15 9 14 10 13 11 5 12
REMARK SMILES IDX 6 13 7 14 8 15 12 16 10 17 9 18 11 20 20 22 17 24
REMARK H PARENT 9 19 11 21 20 23 17 25
REMARK Flexibility Score: inf
ROOT
ATOM      1  C   UNL     1      71.482 -57.351 198.458  1.00  0.00     0.138 A 
ATOM      2  C   UNL     1      72.451 -57.330 199.474  1.00  0.00     0.100 A 
ATOM      3  C   UNL     1      72.360 -58.240 200.529  1.00  0.00     0.197 A 
ATOM      4  O   UNL     1      73.235 -58.214 201.435  1.00  0.00    -0.289 OA
ATOM      5  C   UNL     1      71.299 -59.167 200.558  1.00  0.00     0.107 A 
ATOM      6  C   UNL     1      71.132 -60.121 201.590  1.00  0.00     0.134 A 
ATOM      7  C   UNL     1      70.052 -61.014 201.543  1.00  0.00     0.093 A 
ATOM      8  C   UNL     1      69.139 -60.972 200.486  1.00  0.00     0.123 A 
ATOM      9  C   UNL     1      69.298 -60.031 199.463  1.00  0.00     0.094 A 
ATOM     10  C   UNL     1      70.368 -59.132 199.492  1.00  0.00     0.146 A 
ATOM     11  O   UNL     1      70.497 -58.247 198.510  1.00  0.00    -0.456 OA
ENDROOT
BRANCH   1  12
ATOM     12  C   UNL     1      71.529 -56.409 197.312  1.00  0.00     0.021 A 
ATOM     13  C   UNL     1      71.983 -55.094 197.515  1.00  0.00     0.016 A 
ATOM     14  C   UNL     1      72.045 -54.190 196.451  1.00  0.00     0.051 A 
ATOM     15  C   UNL     1      71.663 -54.587 195.164  1.00  0.00     0.157 A 
ATOM     16  C   UNL     1      71.160 -56.806 196.012  1.00  0.00     0.062 A 
ATOM     17  C   UNL     1      71.223 -55.897 194.943  1.00  0.00     0.158 A 
BRANCH  15  18
ATOM     18  O   UNL     1      71.722 -53.689 194.102  1.00  0.00    -0.504 OA
ATOM     19  H   UNL     1      72.006 -53.983 193.174  1.00  0.00     0.293 HD
ENDBRANCH  15  18
BRANCH  17  20
ATOM     20  O   UNL     1      70.855 -56.294 193.658  1.00  0.00    -0.504 OA
ATOM     21  H   UNL     1      71.546 -56.476 192.941  1.00  0.00     0.293 HD
ENDBRANCH  17  20
ENDBRANCH   1  12
BRANCH   6  22
ATOM     22  O   UNL     1      72.028 -60.187 202.657  1.00  0.00    -0.507 OA
ATOM     23  H   UNL     1      72.286 -59.363 203.189  1.00  0.00     0.293 HD
ENDBRANCH   6  22
BRANCH   8  24
ATOM     24  O   UNL     1      68.074 -61.871 200.463  1.00  0.00    -0.508 OA
ATOM     25  H   UNL     1      67.649 -62.167 199.591  1.00  0.00     0.293 HD
ENDBRANCH   8  24
TORSDOF 5
ENDMDL
MODEL 9
REMARK VINA RESULT:    -4.990      1.886      7.261
REMARK INTER + INTRA:          -6.164
REMARK INTER:                  -5.879
REMARK INTRA:                  -0.285
REMARK UNBOUND:                -0.299
REMARK SMILES O=c1cc(-c2ccc(O)c(O)c2)oc2cc(O)cc(O)c12
REMARK SMILES IDX 4 1 3 2 2 3 1 4 21 5 19 6 18 7 16 8 15 9 14 10 13 11 5 12
REMARK SMILES IDX 6 13 7 14 8 15 12 16 10 17 9 18 11 20 20 22 17 24
REMARK H PARENT 9 19 11 21 20 23 17 25
REMARK Flexibility Score: inf
ROOT
ATOM      1  C   UNL     1      74.892 -54.733 198.165  1.00  0.00     0.138 A 
ATOM      2  C   UNL     1      74.740 -53.615 199.000  1.00  0.00     0.100 A 
ATOM      3  C   UNL     1      74.243 -53.787 200.294  1.00  0.00     0.197 A 
ATOM      4  O   UNL     1      74.112 -52.777 201.037  1.00  0.00    -0.289 OA
ATOM      5  C   UNL     1      73.903 -55.079 200.742  1.00  0.00     0.107 A 
ATOM      6  C   UNL     1      73.392 -55.340 202.036  1.00  0.00     0.134 A 
ATOM      7  C   UNL     1      73.082 -56.656 202.408  1.00  0.00     0.093 A 
ATOM      8  C   UNL     1      73.275 -57.713 201.515  1.00  0.00     0.123 A 
ATOM      9  C   UNL     1      73.780 -57.461 200.235  1.00  0.00     0.094 A 
ATOM     10  C   UNL     1      74.094 -56.156 199.845  1.00  0.00     0.146 A 
ATOM     11  O   UNL     1      74.571 -55.942 198.623  1.00  0.00    -0.456 OA
ENDROOT
BRANCH   1  12
ATOM     12  C   UNL     1      75.417 -54.611 196.781  1.00  0.00     0.021 A 
ATOM     13  C   UNL     1      76.221 -55.637 196.255  1.00  0.00     0.016 A 
ATOM     14  C   UNL     1      76.723 -55.551 194.953  1.00  0.00     0.051 A 
ATOM     15  C   UNL     1      76.421 -54.443 194.153  1.00  0.00     0.157 A 
ATOM     16  C   UNL     1      75.106 -53.506 195.966  1.00  0.00     0.062 A 
ATOM     17  C   UNL     1      75.609 -53.421 194.658  1.00  0.00     0.158 A 
BRANCH  15  18
ATOM     18  O   UNL     1      76.919 -54.352 192.855  1.00  0.00    -0.504 OA
ATOM     19  H   UNL     1      77.871 -54.619 192.633  1.00  0.00     0.293 HD
ENDBRANCH  15  18
BRANCH  17  20
ATOM     20  O   UNL     1      75.300 -52.324 193.855  1.00  0.00    -0.504 OA
ATOM     21  H   UNL     1      75.652 -51.397 194.063  1.00  0.00     0.293 HD
ENDBRANCH  17  20
ENDBRANCH   1  12
BRANCH   6  22
ATOM     22  O   UNL     1      73.189 -54.305 202.949  1.00  0.00    -0.507 OA
ATOM     23  H   UNL     1      72.341 -53.749 202.945  1.00  0.00     0.293 HD
ENDBRANCH   6  22
BRANCH   8  24
ATOM     24  O   UNL     1      72.960 -59.011 201.911  1.00  0.00    -0.508 OA
ATOM     25  H   UNL     1      73.446 -59.465 202.677  1.00  0.00     0.293 HD
ENDBRANCH   8  24
TORSDOF 5
ENDMDL
