MODEL 1
REMARK VINA RESULT:    -6.351      0.000      0.000
REMARK INTER + INTRA:         -11.443
REMARK INTER:                  -9.693
REMARK INTRA:                  -1.750
REMARK UNBOUND:                -1.750
REMARK SMILES CC(=O)CCC=C(C)CCC=C(C)CCC=C(C)C
REMARK SMILES IDX 10 1 11 2 12 3 13 4 14 5 15 6 16 7 18 8 17 9 19 10 9 11 7 12
REMARK SMILES IDX 6 13 8 14 5 15 4 16 2 17 3 18 1 19
REMARK H PARENT
REMARK Flexibility Score: inf
ROOT
ATOM      1  C   UNL     1      -8.708  31.071  20.809  1.00  0.00     0.032 C 
ENDROOT
BRANCH   1   2
ATOM      2  C   UNL     1      -9.024  29.863  21.657  1.00  0.00    -0.028 C 
ATOM      3  C   UNL     1      -8.161  29.290  22.531  1.00  0.00    -0.077 C 
ATOM      4  C   UNL     1      -6.767  29.832  22.763  1.00  0.00     0.039 C 
BRANCH   3   5
ATOM      5  C   UNL     1      -8.613  28.081  23.325  1.00  0.00     0.034 C 
BRANCH   5   6
ATOM      6  C   UNL     1      -9.642  28.482  24.389  1.00  0.00     0.032 C 
BRANCH   6   7
ATOM      7  C   UNL     1      -8.961  29.058  25.605  1.00  0.00    -0.028 C 
ATOM      8  C   UNL     1      -9.716  31.397  25.120  1.00  0.00     0.039 C 
ATOM      9  C   UNL     1      -8.960  30.373  25.927  1.00  0.00    -0.080 C 
ATOM     10  C   UNL     1      -8.203  30.846  27.141  1.00  0.00     0.039 C 
ENDBRANCH   6   7
ENDBRANCH   5   6
ENDBRANCH   3   5
ENDBRANCH   1   2
BRANCH   1  11
ATOM     11  C   UNL     1      -8.817  32.369  21.624  1.00  0.00     0.034 C 
BRANCH  11  12
ATOM     12  C   UNL     1      -7.919  33.454  21.060  1.00  0.00    -0.077 C 
ATOM     13  C   UNL     1      -7.703  34.637  21.686  1.00  0.00    -0.028 C 
ATOM     14  C   UNL     1      -7.208  33.204  19.754  1.00  0.00     0.039 C 
BRANCH  13  15
ATOM     15  C   UNL     1      -8.333  35.065  22.992  1.00  0.00     0.035 C 
BRANCH  15  16
ATOM     16  C   UNL     1      -7.626  34.421  24.188  1.00  0.00     0.079 C 
BRANCH  16  17
ATOM     17  C   UNL     1      -8.209  34.881  25.501  1.00  0.00     0.130 C 
ATOM     18  O   UNL     1      -8.006  34.227  26.515  1.00  0.00    -0.300 OA
ATOM     19  C   UNL     1      -9.044  36.132  25.588  1.00  0.00     0.087 C 
ENDBRANCH  16  17
ENDBRANCH  15  16
ENDBRANCH  13  15
ENDBRANCH  11  12
ENDBRANCH   1  11
TORSDOF 9
ENDMDL
MODEL 2
REMARK VINA RESULT:    -6.287      1.799      6.468
REMARK INTER + INTRA:         -11.345
REMARK INTER:                  -9.778
REMARK INTRA:                  -1.568
REMARK UNBOUND:                -1.750
REMARK SMILES CC(=O)CCC=C(C)CCC=C(C)CCC=C(C)C
REMARK SMILES IDX 10 1 11 2 12 3 13 4 14 5 15 6 16 7 18 8 17 9 19 10 9 11 7 12
REMARK SMILES IDX 6 13 8 14 5 15 4 16 2 17 3 18 1 19
REMARK H PARENT
REMARK Flexibility Score: inf
ROOT
ATOM      1  C   UNL     1      -8.994  33.215  26.558  1.00  0.00     0.032 C 
ENDROOT
BRANCH   1   2
ATOM      2  C   UNL     1      -8.130  33.446  25.343  1.00  0.00    -0.028 C 
ATOM      3  C   UNL     1      -8.101  34.596  24.626  1.00  0.00    -0.077 C 
ATOM      4  C   UNL     1      -8.942  35.800  24.996  1.00  0.00     0.039 C 
BRANCH   3   5
ATOM      5  C   UNL     1      -7.179  34.694  23.429  1.00  0.00     0.034 C 
BRANCH   5   6
ATOM      6  C   UNL     1      -7.983  34.835  22.131  1.00  0.00     0.032 C 
BRANCH   6   7
ATOM      7  C   UNL     1      -8.803  33.595  21.870  1.00  0.00    -0.028 C 
ATOM      8  C   UNL     1      -7.371  32.856  19.951  1.00  0.00     0.039 C 
ATOM      9  C   UNL     1      -8.556  32.715  20.872  1.00  0.00    -0.080 C 
ATOM     10  C   UNL     1      -9.471  31.534  20.671  1.00  0.00     0.039 C 
ENDBRANCH   6   7
ENDBRANCH   5   6
ENDBRANCH   3   5
ENDBRANCH   1   2
BRANCH   1  11
ATOM     11  C   UNL     1      -9.866  31.961  26.392  1.00  0.00     0.034 C 
BRANCH  11  12
ATOM     12  C   UNL     1      -9.333  30.802  27.213  1.00  0.00    -0.077 C 
ATOM     13  C   UNL     1      -8.871  29.653  26.662  1.00  0.00    -0.028 C 
ATOM     14  C   UNL     1      -9.285  30.936  28.714  1.00  0.00     0.039 C 
BRANCH  13  15
ATOM     15  C   UNL     1      -8.848  29.338  25.183  1.00  0.00     0.035 C 
BRANCH  15  16
ATOM     16  C   UNL     1      -7.520  29.756  24.546  1.00  0.00     0.079 C 
BRANCH  16  17
ATOM     17  C   UNL     1      -7.483  29.450  23.070  1.00  0.00     0.130 C 
ATOM     18  O   UNL     1      -6.753  30.101  22.335  1.00  0.00    -0.300 OA
ATOM     19  C   UNL     1      -8.335  28.356  22.479  1.00  0.00     0.087 C 
ENDBRANCH  16  17
ENDBRANCH  15  16
ENDBRANCH  13  15
ENDBRANCH  11  12
ENDBRANCH   1  11
TORSDOF 9
ENDMDL
MODEL 3
REMARK VINA RESULT:    -6.070      1.819      4.592
REMARK INTER + INTRA:         -11.013
REMARK INTER:                  -9.117
REMARK INTRA:                  -1.897
REMARK UNBOUND:                -1.750
REMARK SMILES CC(=O)CCC=C(C)CCC=C(C)CCC=C(C)C
REMARK SMILES IDX 10 1 11 2 12 3 13 4 14 5 15 6 16 7 18 8 17 9 19 10 9 11 7 12
REMARK SMILES IDX 6 13 8 14 5 15 4 16 2 17 3 18 1 19
REMARK H PARENT
REMARK Flexibility Score: inf
ROOT
ATOM      1  C   UNL     1      -8.476  33.876  26.856  1.00  0.00     0.032 C 
ENDROOT
BRANCH   1   2
ATOM      2  C   UNL     1      -9.290  32.785  26.205  1.00  0.00    -0.028 C 
ATOM      3  C   UNL     1      -9.014  31.461  26.294  1.00  0.00    -0.077 C 
ATOM      4  C   UNL     1      -7.842  30.932  27.093  1.00  0.00     0.039 C 
BRANCH   3   5
ATOM      5  C   UNL     1      -9.923  30.472  25.594  1.00  0.00     0.034 C 
BRANCH   5   6
ATOM      6  C   UNL     1      -9.333  29.057  25.649  1.00  0.00     0.032 C 
BRANCH   6   7
ATOM      7  C   UNL     1      -9.393  28.397  24.294  1.00  0.00    -0.028 C 
ATOM      8  C   UNL     1      -7.203  29.360  23.549  1.00  0.00     0.039 C 
ATOM      9  C   UNL     1      -8.456  28.552  23.329  1.00  0.00    -0.080 C 
ATOM     10  C   UNL     1      -8.641  27.884  21.991  1.00  0.00     0.039 C 
ENDBRANCH   6   7
ENDBRANCH   5   6
ENDBRANCH   3   5
ENDBRANCH   1   2
BRANCH   1  11
ATOM     11  C   UNL     1      -7.524  34.538  25.848  1.00  0.00     0.034 C 
BRANCH  11  12
ATOM     12  C   UNL     1      -8.288  35.221  24.729  1.00  0.00    -0.077 C 
ATOM     13  C   UNL     1      -8.280  34.778  23.448  1.00  0.00    -0.028 C 
ATOM     14  C   UNL     1      -9.119  36.437  25.053  1.00  0.00     0.039 C 
BRANCH  13  15
ATOM     15  C   UNL     1      -7.503  33.586  22.938  1.00  0.00     0.035 C 
BRANCH  15  16
ATOM     16  C   UNL     1      -8.440  32.449  22.518  1.00  0.00     0.079 C 
BRANCH  16  17
ATOM     17  C   UNL     1      -8.502  32.297  21.019  1.00  0.00     0.130 C 
ATOM     18  O   UNL     1      -9.369  31.593  20.518  1.00  0.00    -0.300 OA
ATOM     19  C   UNL     1      -7.510  32.992  20.122  1.00  0.00     0.087 C 
ENDBRANCH  16  17
ENDBRANCH  15  16
ENDBRANCH  13  15
ENDBRANCH  11  12
ENDBRANCH   1  11
TORSDOF 9
ENDMDL
MODEL 4
REMARK VINA RESULT:    -6.066      1.844      4.432
REMARK INTER + INTRA:         -11.008
REMARK INTER:                  -9.704
REMARK INTRA:                  -1.304
REMARK UNBOUND:                -1.750
REMARK SMILES CC(=O)CCC=C(C)CCC=C(C)CCC=C(C)C
REMARK SMILES IDX 10 1 11 2 12 3 13 4 14 5 15 6 16 7 18 8 17 9 19 10 9 11 7 12
REMARK SMILES IDX 6 13 8 14 5 15 4 16 2 17 3 18 1 19
REMARK H PARENT
REMARK Flexibility Score: inf
ROOT
ATOM      1  C   UNL     1      -9.243  28.429  24.198  1.00  0.00     0.032 C 
ENDROOT
BRANCH   1   2
ATOM      2  C   UNL     1      -9.608  29.685  24.949  1.00  0.00    -0.028 C 
ATOM      3  C   UNL     1      -8.993  30.114  26.078  1.00  0.00    -0.077 C 
ATOM      4  C   UNL     1      -7.835  29.364  26.701  1.00  0.00     0.039 C 
BRANCH   3   5
ATOM      5  C   UNL     1      -9.460  31.400  26.727  1.00  0.00     0.034 C 
BRANCH   5   6
ATOM      6  C   UNL     1      -8.269  32.202  27.267  1.00  0.00     0.032 C 
BRANCH   6   7
ATOM      7  C   UNL     1      -8.459  33.678  27.019  1.00  0.00    -0.028 C 
ATOM      8  C   UNL     1      -8.196  33.459  24.537  1.00  0.00     0.039 C 
ATOM      9  C   UNL     1      -8.396  34.259  25.798  1.00  0.00    -0.080 C 
ATOM     10  C   UNL     1      -8.551  35.753  25.671  1.00  0.00     0.039 C 
ENDBRANCH   6   7
ENDBRANCH   5   6
ENDBRANCH   3   5
ENDBRANCH   1   2
BRANCH   1  11
ATOM     11  C   UNL     1      -8.901  28.735  22.732  1.00  0.00     0.034 C 
BRANCH  11  12
ATOM     12  C   UNL     1      -7.778  29.749  22.624  1.00  0.00    -0.077 C 
ATOM     13  C   UNL     1      -7.890  30.909  21.932  1.00  0.00    -0.028 C 
ATOM     14  C   UNL     1      -6.479  29.474  23.339  1.00  0.00     0.039 C 
BRANCH  13  15
ATOM     15  C   UNL     1      -9.107  31.348  21.149  1.00  0.00     0.035 C 
BRANCH  15  16
ATOM     16  C   UNL     1      -9.318  32.861  21.254  1.00  0.00     0.079 C 
BRANCH  16  17
ATOM     17  C   UNL     1      -8.098  33.631  20.815  1.00  0.00     0.130 C 
ATOM     18  O   UNL     1      -7.458  33.250  19.844  1.00  0.00    -0.300 OA
ATOM     19  C   UNL     1      -7.645  34.863  21.556  1.00  0.00     0.087 C 
ENDBRANCH  16  17
ENDBRANCH  15  16
ENDBRANCH  13  15
ENDBRANCH  11  12
ENDBRANCH   1  11
TORSDOF 9
ENDMDL
MODEL 5
REMARK VINA RESULT:    -6.018      1.283      5.052
REMARK INTER + INTRA:         -10.934
REMARK INTER:                  -9.742
REMARK INTRA:                  -1.192
REMARK UNBOUND:                -1.750
REMARK SMILES CC(=O)CCC=C(C)CCC=C(C)CCC=C(C)C
REMARK SMILES IDX 10 1 11 2 12 3 13 4 14 5 15 6 16 7 18 8 17 9 19 10 9 11 7 12
REMARK SMILES IDX 6 13 8 14 5 15 4 16 2 17 3 18 1 19
REMARK H PARENT
REMARK Flexibility Score: inf
ROOT
ATOM      1  C   UNL     1      -7.137  30.407  22.387  1.00  0.00     0.032 C 
ENDROOT
BRANCH   1   2
ATOM      2  C   UNL     1      -7.720  31.789  22.554  1.00  0.00    -0.028 C 
ATOM      3  C   UNL     1      -7.867  32.689  21.550  1.00  0.00    -0.077 C 
ATOM      4  C   UNL     1      -7.469  32.379  20.123  1.00  0.00     0.039 C 
BRANCH   3   5
ATOM      5  C   UNL     1      -8.474  34.042  21.859  1.00  0.00     0.034 C 
BRANCH   5   6
ATOM      6  C   UNL     1      -7.483  34.921  22.631  1.00  0.00     0.032 C 
BRANCH   6   7
ATOM      7  C   UNL     1      -7.444  34.533  24.089  1.00  0.00    -0.028 C 
ATOM      8  C   UNL     1      -9.218  36.178  24.740  1.00  0.00     0.039 C 
ATOM      9  C   UNL     1      -8.198  35.114  25.052  1.00  0.00    -0.080 C 
ATOM     10  C   UNL     1      -8.042  34.682  26.487  1.00  0.00     0.039 C 
ENDBRANCH   6   7
ENDBRANCH   5   6
ENDBRANCH   3   5
ENDBRANCH   1   2
BRANCH   1  11
ATOM     11  C   UNL     1      -7.405  29.537  23.624  1.00  0.00     0.034 C 
BRANCH  11  12
ATOM     12  C   UNL     1      -8.533  28.554  23.377  1.00  0.00    -0.077 C 
ATOM     13  C   UNL     1      -9.461  28.239  24.314  1.00  0.00    -0.028 C 
ATOM     14  C   UNL     1      -8.652  27.910  22.019  1.00  0.00     0.039 C 
BRANCH  13  15
ATOM     15  C   UNL     1      -9.497  28.776  25.727  1.00  0.00     0.035 C 
BRANCH  15  16
ATOM     16  C   UNL     1     -10.093  30.187  25.770  1.00  0.00     0.079 C 
BRANCH  16  17
ATOM     17  C   UNL     1      -9.422  31.049  26.810  1.00  0.00     0.130 C 
ATOM     18  O   UNL     1     -10.104  31.750  27.546  1.00  0.00    -0.300 OA
ATOM     19  C   UNL     1      -7.922  31.069  26.958  1.00  0.00     0.087 C 
ENDBRANCH  16  17
ENDBRANCH  15  16
ENDBRANCH  13  15
ENDBRANCH  11  12
ENDBRANCH   1  11
TORSDOF 9
ENDMDL
MODEL 6
REMARK VINA RESULT:    -5.913      1.811      5.029
REMARK INTER + INTRA:         -10.775
REMARK INTER:                  -8.909
REMARK INTRA:                  -1.866
REMARK UNBOUND:                -1.750
REMARK SMILES CC(=O)CCC=C(C)CCC=C(C)CCC=C(C)C
REMARK SMILES IDX 10 1 11 2 12 3 13 4 14 5 15 6 16 7 18 8 17 9 19 10 9 11 7 12
REMARK SMILES IDX 6 13 8 14 5 15 4 16 2 17 3 18 1 19
REMARK H PARENT
REMARK Flexibility Score: inf
ROOT
ATOM      1  C   UNL     1      -7.762  34.709  22.090  1.00  0.00     0.032 C 
ENDROOT
BRANCH   1   2
ATOM      2  C   UNL     1      -7.335  34.604  23.533  1.00  0.00    -0.028 C 
ATOM      3  C   UNL     1      -8.040  35.093  24.582  1.00  0.00    -0.077 C 
ATOM      4  C   UNL     1      -9.372  35.792  24.405  1.00  0.00     0.039 C 
BRANCH   3   5
ATOM      5  C   UNL     1      -7.495  34.912  25.984  1.00  0.00     0.034 C 
BRANCH   5   6
ATOM      6  C   UNL     1      -8.477  34.117  26.853  1.00  0.00     0.032 C 
BRANCH   6   7
ATOM      7  C   UNL     1      -7.976  32.712  27.081  1.00  0.00    -0.028 C 
ATOM      8  C   UNL     1      -9.745  31.675  25.640  1.00  0.00     0.039 C 
ATOM      9  C   UNL     1      -8.558  31.603  26.566  1.00  0.00    -0.080 C 
ATOM     10  C   UNL     1      -8.003  30.242  26.899  1.00  0.00     0.039 C 
ENDBRANCH   6   7
ENDBRANCH   5   6
ENDBRANCH   3   5
ENDBRANCH   1   2
BRANCH   1  11
ATOM     11  C   UNL     1      -7.623  33.360  21.368  1.00  0.00     0.034 C 
BRANCH  11  12
ATOM     12  C   UNL     1      -8.666  32.366  21.843  1.00  0.00    -0.077 C 
ATOM     13  C   UNL     1      -8.353  31.204  22.466  1.00  0.00    -0.028 C 
ATOM     14  C   UNL     1     -10.125  32.691  21.642  1.00  0.00     0.039 C 
BRANCH  13  15
ATOM     15  C   UNL     1      -6.952  30.709  22.746  1.00  0.00     0.035 C 
BRANCH  15  16
ATOM     16  C   UNL     1      -6.973  29.346  23.444  1.00  0.00     0.079 C 
BRANCH  16  17
ATOM     17  C   UNL     1      -8.301  28.650  23.279  1.00  0.00     0.130 C 
ATOM     18  O   UNL     1      -9.121  28.690  24.186  1.00  0.00    -0.300 OA
ATOM     19  C   UNL     1      -8.636  27.899  22.016  1.00  0.00     0.087 C 
ENDBRANCH  16  17
ENDBRANCH  15  16
ENDBRANCH  13  15
ENDBRANCH  11  12
ENDBRANCH   1  11
TORSDOF 9
ENDMDL
MODEL 7
REMARK VINA RESULT:    -5.526      1.901      4.725
REMARK INTER + INTRA:         -10.183
REMARK INTER:                  -8.813
REMARK INTRA:                  -1.370
REMARK UNBOUND:                -1.750
REMARK SMILES CC(=O)CCC=C(C)CCC=C(C)CCC=C(C)C
REMARK SMILES IDX 10 1 11 2 12 3 13 4 14 5 15 6 16 7 18 8 17 9 19 10 9 11 7 12
REMARK SMILES IDX 6 13 8 14 5 15 4 16 2 17 3 18 1 19
REMARK H PARENT
REMARK Flexibility Score: inf
ROOT
ATOM      1  C   UNL     1      -8.280  34.047  23.036  1.00  0.00     0.032 C 
ENDROOT
BRANCH   1   2
ATOM      2  C   UNL     1      -8.352  33.665  24.494  1.00  0.00    -0.028 C 
ATOM      3  C   UNL     1      -8.554  34.539  25.510  1.00  0.00    -0.077 C 
ATOM      4  C   UNL     1      -8.752  36.021  25.273  1.00  0.00     0.039 C 
BRANCH   3   5
ATOM      5  C   UNL     1      -8.610  34.016  26.930  1.00  0.00     0.034 C 
BRANCH   5   6
ATOM      6  C   UNL     1      -7.957  32.632  27.028  1.00  0.00     0.032 C 
BRANCH   6   7
ATOM      7  C   UNL     1      -8.759  31.722  27.925  1.00  0.00    -0.028 C 
ATOM      8  C   UNL     1      -7.956  29.634  26.796  1.00  0.00     0.039 C 
ATOM      9  C   UNL     1      -8.790  30.373  27.810  1.00  0.00    -0.080 C 
ATOM     10  C   UNL     1      -9.667  29.563  28.730  1.00  0.00     0.039 C 
ENDBRANCH   6   7
ENDBRANCH   5   6
ENDBRANCH   3   5
ENDBRANCH   1   2
BRANCH   1  11
ATOM     11  C   UNL     1      -7.379  33.082  22.251  1.00  0.00     0.034 C 
BRANCH  11  12
ATOM     12  C   UNL     1      -7.883  32.882  20.834  1.00  0.00    -0.077 C 
ATOM     13  C   UNL     1      -8.856  31.995  20.511  1.00  0.00    -0.028 C 
ATOM     14  C   UNL     1      -7.298  33.725  19.729  1.00  0.00     0.039 C 
BRANCH  13  15
ATOM     15  C   UNL     1      -9.550  31.064  21.479  1.00  0.00     0.035 C 
BRANCH  15  16
ATOM     16  C   UNL     1      -8.915  29.671  21.463  1.00  0.00     0.079 C 
BRANCH  16  17
ATOM     17  C   UNL     1      -8.333  29.302  22.804  1.00  0.00     0.130 C 
ATOM     18  O   UNL     1      -9.026  28.711  23.622  1.00  0.00    -0.300 OA
ATOM     19  C   UNL     1      -6.912  29.653  23.163  1.00  0.00     0.087 C 
ENDBRANCH  16  17
ENDBRANCH  15  16
ENDBRANCH  13  15
ENDBRANCH  11  12
ENDBRANCH   1  11
TORSDOF 9
ENDMDL
MODEL 8
REMARK VINA RESULT:    -5.450      1.390      2.806
REMARK INTER + INTRA:         -10.067
REMARK INTER:                  -8.130
REMARK INTRA:                  -1.936
REMARK UNBOUND:                -1.750
REMARK SMILES CC(=O)CCC=C(C)CCC=C(C)CCC=C(C)C
REMARK SMILES IDX 10 1 11 2 12 3 13 4 14 5 15 6 16 7 18 8 17 9 19 10 9 11 7 12
REMARK SMILES IDX 6 13 8 14 5 15 4 16 2 17 3 18 1 19
REMARK H PARENT
REMARK Flexibility Score: inf
ROOT
ATOM      1  C   UNL     1      -7.217  29.731  23.318  1.00  0.00     0.032 C 
ENDROOT
BRANCH   1   2
ATOM      2  C   UNL     1      -7.582  29.575  24.774  1.00  0.00    -0.028 C 
ATOM      3  C   UNL     1      -8.688  28.935  25.226  1.00  0.00    -0.077 C 
ATOM      4  C   UNL     1      -9.681  28.280  24.290  1.00  0.00     0.039 C 
BRANCH   3   5
ATOM      5  C   UNL     1      -8.928  28.847  26.719  1.00  0.00     0.034 C 
BRANCH   5   6
ATOM      6  C   UNL     1      -9.895  29.944  27.181  1.00  0.00     0.032 C 
BRANCH   6   7
ATOM      7  C   UNL     1      -9.143  31.195  27.565  1.00  0.00    -0.028 C 
ATOM      8  C   UNL     1      -9.720  32.389  25.439  1.00  0.00     0.039 C 
ATOM      9  C   UNL     1      -9.031  32.289  26.776  1.00  0.00    -0.080 C 
ATOM     10  C   UNL     1      -8.213  33.467  27.240  1.00  0.00     0.039 C 
ENDBRANCH   6   7
ENDBRANCH   5   6
ENDBRANCH   3   5
ENDBRANCH   1   2
BRANCH   1  11
ATOM     11  C   UNL     1      -7.348  31.192  22.864  1.00  0.00     0.034 C 
BRANCH  11  12
ATOM     12  C   UNL     1      -8.274  31.320  21.669  1.00  0.00    -0.077 C 
ATOM     13  C   UNL     1      -8.324  32.425  20.884  1.00  0.00    -0.028 C 
ATOM     14  C   UNL     1      -9.167  30.158  21.313  1.00  0.00     0.039 C 
BRANCH  13  15
ATOM     15  C   UNL     1      -7.512  33.683  21.091  1.00  0.00     0.035 C 
BRANCH  15  16
ATOM     16  C   UNL     1      -8.331  34.762  21.805  1.00  0.00     0.079 C 
BRANCH  16  17
ATOM     17  C   UNL     1      -7.809  35.037  23.194  1.00  0.00     0.130 C 
ATOM     18  O   UNL     1      -6.627  34.846  23.444  1.00  0.00    -0.300 OA
ATOM     19  C   UNL     1      -8.720  35.538  24.285  1.00  0.00     0.087 C 
ENDBRANCH  16  17
ENDBRANCH  15  16
ENDBRANCH  13  15
ENDBRANCH  11  12
ENDBRANCH   1  11
TORSDOF 9
ENDMDL
MODEL 9
REMARK VINA RESULT:    -5.355      1.453      4.546
REMARK INTER + INTRA:          -9.922
REMARK INTER:                  -8.814
REMARK INTRA:                  -1.108
REMARK UNBOUND:                -1.750
REMARK SMILES CC(=O)CCC=C(C)CCC=C(C)CCC=C(C)C
REMARK SMILES IDX 10 1 11 2 12 3 13 4 14 5 15 6 16 7 18 8 17 9 19 10 9 11 7 12
REMARK SMILES IDX 6 13 8 14 5 15 4 16 2 17 3 18 1 19
REMARK H PARENT
REMARK Flexibility Score: inf
ROOT
ATOM      1  C   UNL     1      -8.216  34.445  22.894  1.00  0.00     0.032 C 
ENDROOT
BRANCH   1   2
ATOM      2  C   UNL     1      -8.889  33.331  22.131  1.00  0.00    -0.028 C 
ATOM      3  C   UNL     1      -8.537  32.928  20.886  1.00  0.00    -0.077 C 
ATOM      4  C   UNL     1      -7.390  33.561  20.126  1.00  0.00     0.039 C 
BRANCH   3   5
ATOM      5  C   UNL     1      -9.297  31.789  20.239  1.00  0.00     0.034 C 
BRANCH   5   6
ATOM      6  C   UNL     1      -9.345  30.569  21.167  1.00  0.00     0.032 C 
BRANCH   6   7
ATOM      7  C   UNL     1      -8.066  30.445  21.957  1.00  0.00    -0.028 C 
ATOM      8  C   UNL     1      -8.611  28.143  22.784  1.00  0.00     0.039 C 
ATOM      9  C   UNL     1      -7.739  29.371  22.714  1.00  0.00    -0.080 C 
ATOM     10  C   UNL     1      -6.455  29.373  23.503  1.00  0.00     0.039 C 
ENDBRANCH   6   7
ENDBRANCH   5   6
ENDBRANCH   3   5
ENDBRANCH   1   2
BRANCH   1  11
ATOM     11  C   UNL     1      -9.052  34.874  24.109  1.00  0.00     0.034 C 
BRANCH  11  12
ATOM     12  C   UNL     1      -8.348  34.540  25.411  1.00  0.00    -0.077 C 
ATOM     13  C   UNL     1      -8.373  33.307  25.973  1.00  0.00    -0.028 C 
ATOM     14  C   UNL     1      -7.560  35.620  26.109  1.00  0.00     0.039 C 
BRANCH  13  15
ATOM     15  C   UNL     1      -9.113  32.109  25.423  1.00  0.00     0.035 C 
BRANCH  15  16
ATOM     16  C   UNL     1      -9.932  31.413  26.514  1.00  0.00     0.079 C 
BRANCH  16  17
ATOM     17  C   UNL     1      -9.086  30.480  27.344  1.00  0.00     0.130 C 
ATOM     18  O   UNL     1      -9.080  30.590  28.563  1.00  0.00    -0.300 OA
ATOM     19  C   UNL     1      -8.239  29.413  26.698  1.00  0.00     0.087 C 
ENDBRANCH  16  17
ENDBRANCH  15  16
ENDBRANCH  13  15
ENDBRANCH  11  12
ENDBRANCH   1  11
TORSDOF 9
ENDMDL
