MODEL 1
REMARK VINA RESULT:    -4.564      0.000      0.000
REMARK INTER + INTRA:          -5.060
REMARK INTER:                  -4.964
REMARK INTRA:                  -0.096
REMARK UNBOUND:                -0.096
REMARK SMILES CC(=O)[C@@H]1CC[C@@H]2[C@@H]3CC=C4C[C@@H](O)CC[C@@]4(C)[C@H]3CC[C@@]21C
REMARK SMILES IDX 4 1 5 2 6 3 7 4 22 5 21 6 20 7 19 8 8 9 9 10 10 11 11 12
REMARK SMILES IDX 17 13 16 14 15 15 13 16 12 17 18 18 23 19 2 20 1 21 3 22
REMARK SMILES IDX 14 23
REMARK H PARENT 14 24
REMARK Flexibility Score: inf
ROOT
ATOM      1  C   UNL     1     211.854 215.565 228.261  1.00  0.00     0.062 C 
ATOM      2  C   UNL     1     212.952 215.747 229.320  1.00  0.00     0.012 C 
ATOM      3  C   UNL     1     213.597 214.376 229.522  1.00  0.00     0.005 C 
ATOM      4  C   UNL     1     212.847 213.399 228.601  1.00  0.00    -0.001 C 
ATOM      5  C   UNL     1     212.262 214.283 227.477  1.00  0.00    -0.020 C 
ATOM      6  C   UNL     1     213.355 214.588 226.406  1.00  0.00     0.008 C 
ATOM      7  C   UNL     1     214.047 213.326 225.885  1.00  0.00     0.005 C 
ATOM      8  C   UNL     1     214.716 212.519 227.024  1.00  0.00     0.003 C 
ATOM      9  C   UNL     1     213.673 212.170 228.108  1.00  0.00     0.000 C 
ATOM     10  C   UNL     1     214.377 211.479 229.284  1.00  0.00     0.031 C 
ATOM     11  C   UNL     1     215.129 210.271 228.831  1.00  0.00    -0.027 C 
ATOM     12  C   UNL     1     215.705 210.180 227.615  1.00  0.00    -0.065 C 
ATOM     13  C   UNL     1     215.514 211.241 226.512  1.00  0.00    -0.008 C 
ATOM     14  C   UNL     1     214.774 210.532 225.330  1.00  0.00     0.014 C 
ATOM     15  C   UNL     1     215.393 209.182 224.910  1.00  0.00     0.033 C 
ATOM     16  C   UNL     1     215.548 208.213 226.092  1.00  0.00     0.118 C 
ATOM     17  C   UNL     1     216.352 208.866 227.225  1.00  0.00     0.063 C 
ATOM     18  C   UNL     1     216.910 211.722 226.039  1.00  0.00     0.016 C 
ATOM     19  C   UNL     1     211.022 213.613 226.835  1.00  0.00     0.012 C 
ENDROOT
BRANCH   1  20
ATOM     20  C   UNL     1     211.591 216.818 227.432  1.00  0.00     0.133 C 
ATOM     21  C   UNL     1     210.309 217.008 226.670  1.00  0.00     0.088 C 
ATOM     22  O   UNL     1     212.475 217.647 227.277  1.00  0.00    -0.300 OA
ENDBRANCH   1  20
BRANCH  16  23
ATOM     23  O   UNL     1     214.279 207.826 226.552  1.00  0.00    -0.393 OA
ATOM     24  H   UNL     1     214.162 206.871 226.303  1.00  0.00     0.210 HD
ENDBRANCH  16  23
TORSDOF 2
ENDMDL
MODEL 2
REMARK VINA RESULT:    -4.556      3.279      4.835
REMARK INTER + INTRA:          -5.051
REMARK INTER:                  -4.964
REMARK INTRA:                  -0.087
REMARK UNBOUND:                -0.096
REMARK SMILES CC(=O)[C@@H]1CC[C@@H]2[C@@H]3CC=C4C[C@@H](O)CC[C@@]4(C)[C@H]3CC[C@@]21C
REMARK SMILES IDX 4 1 5 2 6 3 7 4 22 5 21 6 20 7 19 8 8 9 9 10 10 11 11 12
REMARK SMILES IDX 17 13 16 14 15 15 13 16 12 17 18 18 23 19 2 20 1 21 3 22
REMARK SMILES IDX 14 23
REMARK H PARENT 14 24
REMARK Flexibility Score: inf
ROOT
ATOM      1  C   UNL     1     211.555 211.830 228.221  1.00  0.00     0.062 C 
ATOM      2  C   UNL     1     211.373 212.912 229.296  1.00  0.00     0.012 C 
ATOM      3  C   UNL     1     212.746 213.548 229.514  1.00  0.00     0.005 C 
ATOM      4  C   UNL     1     213.723 212.809 228.586  1.00  0.00    -0.001 C 
ATOM      5  C   UNL     1     212.842 212.245 227.449  1.00  0.00    -0.020 C 
ATOM      6  C   UNL     1     212.546 213.356 226.394  1.00  0.00     0.008 C 
ATOM      7  C   UNL     1     213.813 214.050 225.889  1.00  0.00     0.005 C 
ATOM      8  C   UNL     1     214.618 214.698 227.042  1.00  0.00     0.003 C 
ATOM      9  C   UNL     1     214.958 213.637 228.111  1.00  0.00     0.000 C 
ATOM     10  C   UNL     1     215.646 214.320 229.301  1.00  0.00     0.031 C 
ATOM     11  C   UNL     1     216.860 215.074 228.865  1.00  0.00    -0.027 C 
ATOM     12  C   UNL     1     216.958 215.668 227.658  1.00  0.00    -0.065 C 
ATOM     13  C   UNL     1     215.901 215.498 226.548  1.00  0.00    -0.008 C 
ATOM     14  C   UNL     1     216.613 214.775 225.357  1.00  0.00     0.014 C 
ATOM     15  C   UNL     1     217.967 215.394 224.953  1.00  0.00     0.033 C 
ATOM     16  C   UNL     1     218.932 215.527 226.142  1.00  0.00     0.118 C 
ATOM     17  C   UNL     1     218.277 216.316 227.284  1.00  0.00     0.063 C 
ATOM     18  C   UNL     1     215.428 216.904 226.094  1.00  0.00     0.016 C 
ATOM     19  C   UNL     1     213.509 211.012 226.791  1.00  0.00     0.012 C 
ENDROOT
BRANCH   1  20
ATOM     20  C   UNL     1     210.304 211.585 227.383  1.00  0.00     0.133 C 
ATOM     21  C   UNL     1     210.088 210.294 226.643  1.00  0.00     0.088 C 
ATOM     22  O   UNL     1     209.502 212.488 227.201  1.00  0.00    -0.300 OA
ENDBRANCH   1  20
BRANCH  16  23
ATOM     23  O   UNL     1     219.312 214.249 226.584  1.00  0.00    -0.393 OA
ATOM     24  H   UNL     1     219.317 214.279 227.576  1.00  0.00     0.210 HD
ENDBRANCH  16  23
TORSDOF 2
ENDMDL
MODEL 3
REMARK VINA RESULT:    -4.539      1.624      6.807
REMARK INTER + INTRA:          -5.032
REMARK INTER:                  -4.814
REMARK INTRA:                  -0.218
REMARK UNBOUND:                -0.096
REMARK SMILES CC(=O)[C@@H]1CC[C@@H]2[C@@H]3CC=C4C[C@@H](O)CC[C@@]4(C)[C@H]3CC[C@@]21C
REMARK SMILES IDX 4 1 5 2 6 3 7 4 22 5 21 6 20 7 19 8 8 9 9 10 10 11 11 12
REMARK SMILES IDX 17 13 16 14 15 15 13 16 12 17 18 18 23 19 2 20 1 21 3 22
REMARK SMILES IDX 14 23
REMARK H PARENT 14 24
REMARK Flexibility Score: inf
ROOT
ATOM      1  C   UNL     1     215.633 211.513 227.895  1.00  0.00     0.062 C 
ATOM      2  C   UNL     1     214.562 211.250 228.965  1.00  0.00     0.012 C 
ATOM      3  C   UNL     1     213.885 212.591 229.245  1.00  0.00     0.005 C 
ATOM      4  C   UNL     1     214.589 213.631 228.358  1.00  0.00    -0.001 C 
ATOM      5  C   UNL     1     215.174 212.819 227.182  1.00  0.00    -0.020 C 
ATOM      6  C   UNL     1     214.067 212.535 226.119  1.00  0.00     0.008 C 
ATOM      7  C   UNL     1     213.332 213.800 225.673  1.00  0.00     0.005 C 
ATOM      8  C   UNL     1     212.665 214.533 226.862  1.00  0.00     0.003 C 
ATOM      9  C   UNL     1     213.720 214.859 227.941  1.00  0.00     0.000 C 
ATOM     10  C   UNL     1     213.022 215.473 229.163  1.00  0.00     0.031 C 
ATOM     11  C   UNL     1     212.229 216.680 228.783  1.00  0.00    -0.027 C 
ATOM     12  C   UNL     1     211.626 216.813 227.584  1.00  0.00    -0.065 C 
ATOM     13  C   UNL     1     211.823 215.812 226.428  1.00  0.00    -0.008 C 
ATOM     14  C   UNL     1     212.518 216.596 225.267  1.00  0.00     0.014 C 
ATOM     15  C   UNL     1     211.855 217.947 224.925  1.00  0.00     0.033 C 
ATOM     16  C   UNL     1     211.698 218.854 226.155  1.00  0.00     0.118 C 
ATOM     17  C   UNL     1     210.936 218.126 227.270  1.00  0.00     0.063 C 
ATOM     18  C   UNL     1     210.431 215.315 225.959  1.00  0.00     0.016 C 
ATOM     19  C   UNL     1     216.382 213.552 226.549  1.00  0.00     0.012 C 
ENDROOT
BRANCH   1  20
ATOM     20  C   UNL     1     215.912 210.308 227.002  1.00  0.00     0.133 C 
ATOM     21  C   UNL     1     214.932 209.175 226.874  1.00  0.00     0.088 C 
ATOM     22  O   UNL     1     217.000 210.185 226.460  1.00  0.00    -0.300 OA
ENDBRANCH   1  20
BRANCH  16  23
ATOM     23  O   UNL     1     212.966 219.254 226.609  1.00  0.00    -0.393 OA
ATOM     24  H   UNL     1     213.378 219.784 225.877  1.00  0.00     0.210 HD
ENDBRANCH  16  23
TORSDOF 2
ENDMDL
MODEL 4
REMARK VINA RESULT:    -4.509      3.244      4.806
REMARK INTER + INTRA:          -5.000
REMARK INTER:                  -4.786
REMARK INTRA:                  -0.213
REMARK UNBOUND:                -0.096
REMARK SMILES CC(=O)[C@@H]1CC[C@@H]2[C@@H]3CC=C4C[C@@H](O)CC[C@@]4(C)[C@H]3CC[C@@]21C
REMARK SMILES IDX 4 1 5 2 6 3 7 4 22 5 21 6 20 7 19 8 8 9 9 10 10 11 11 12
REMARK SMILES IDX 17 13 16 14 15 15 13 16 12 17 18 18 23 19 2 20 1 21 3 22
REMARK SMILES IDX 14 23
REMARK H PARENT 14 24
REMARK Flexibility Score: inf
ROOT
ATOM      1  C   UNL     1     215.711 215.576 227.887  1.00  0.00     0.062 C 
ATOM      2  C   UNL     1     215.995 214.499 228.945  1.00  0.00     0.012 C 
ATOM      3  C   UNL     1     214.663 213.810 229.238  1.00  0.00     0.005 C 
ATOM      4  C   UNL     1     213.606 214.515 228.372  1.00  0.00    -0.001 C 
ATOM      5  C   UNL     1     214.398 215.114 227.189  1.00  0.00    -0.020 C 
ATOM      6  C   UNL     1     214.674 214.018 226.113  1.00  0.00     0.008 C 
ATOM      7  C   UNL     1     213.406 213.278 225.679  1.00  0.00     0.005 C 
ATOM      8  C   UNL     1     212.695 212.597 226.873  1.00  0.00     0.003 C 
ATOM      9  C   UNL     1     212.377 213.642 227.966  1.00  0.00     0.000 C 
ATOM     10  C   UNL     1     211.785 212.930 229.190  1.00  0.00     0.031 C 
ATOM     11  C   UNL     1     210.578 212.132 228.821  1.00  0.00    -0.027 C 
ATOM     12  C   UNL     1     210.432 211.537 227.619  1.00  0.00    -0.065 C 
ATOM     13  C   UNL     1     211.416 211.750 226.451  1.00  0.00    -0.008 C 
ATOM     14  C   UNL     1     210.610 212.450 225.306  1.00  0.00     0.014 C 
ATOM     15  C   UNL     1     209.259 211.780 224.978  1.00  0.00     0.033 C 
ATOM     16  C   UNL     1     208.370 211.608 226.220  1.00  0.00     0.118 C 
ATOM     17  C   UNL     1     209.120 210.841 227.318  1.00  0.00     0.063 C 
ATOM     18  C   UNL     1     211.914 210.365 225.963  1.00  0.00     0.016 C 
ATOM     19  C   UNL     1     213.647 216.323 226.576  1.00  0.00     0.012 C 
ENDROOT
BRANCH   1  20
ATOM     20  C   UNL     1     216.901 215.870 226.980  1.00  0.00     0.133 C 
ATOM     21  C   UNL     1     218.026 214.888 226.808  1.00  0.00     0.088 C 
ATOM     22  O   UNL     1     217.020 216.970 226.462  1.00  0.00    -0.300 OA
ENDBRANCH   1  20
BRANCH  16  23
ATOM     23  O   UNL     1     207.969 212.869 226.689  1.00  0.00    -0.393 OA
ATOM     24  H   UNL     1     207.126 213.097 226.216  1.00  0.00     0.210 HD
ENDBRANCH  16  23
TORSDOF 2
ENDMDL
MODEL 5
REMARK VINA RESULT:    -4.411      1.744      7.020
REMARK INTER + INTRA:          -4.893
REMARK INTER:                  -4.672
REMARK INTRA:                  -0.220
REMARK UNBOUND:                -0.096
REMARK SMILES CC(=O)[C@@H]1CC[C@@H]2[C@@H]3CC=C4C[C@@H](O)CC[C@@]4(C)[C@H]3CC[C@@]21C
REMARK SMILES IDX 4 1 5 2 6 3 7 4 22 5 21 6 20 7 19 8 8 9 9 10 10 11 11 12
REMARK SMILES IDX 17 13 16 14 15 15 13 16 12 17 18 18 23 19 2 20 1 21 3 22
REMARK SMILES IDX 14 23
REMARK H PARENT 14 24
REMARK Flexibility Score: inf
ROOT
ATOM      1  C   UNL     1     217.145 208.667 225.328  1.00  0.00     0.062 C 
ATOM      2  C   UNL     1     218.332 209.624 225.519  1.00  0.00     0.012 C 
ATOM      3  C   UNL     1     217.742 211.020 225.715  1.00  0.00     0.005 C 
ATOM      4  C   UNL     1     216.216 210.871 225.604  1.00  0.00    -0.001 C 
ATOM      5  C   UNL     1     215.933 209.398 225.977  1.00  0.00    -0.020 C 
ATOM      6  C   UNL     1     215.923 209.227 227.528  1.00  0.00     0.008 C 
ATOM      7  C   UNL     1     214.992 210.219 228.231  1.00  0.00     0.005 C 
ATOM      8  C   UNL     1     215.371 211.688 227.922  1.00  0.00     0.003 C 
ATOM      9  C   UNL     1     215.377 211.922 226.395  1.00  0.00     0.000 C 
ATOM     10  C   UNL     1     215.873 213.346 226.104  1.00  0.00     0.031 C 
ATOM     11  C   UNL     1     215.043 214.364 226.816  1.00  0.00    -0.027 C 
ATOM     12  C   UNL     1     214.470 214.133 228.015  1.00  0.00    -0.065 C 
ATOM     13  C   UNL     1     214.475 212.750 228.697  1.00  0.00    -0.008 C 
ATOM     14  C   UNL     1     212.983 212.290 228.792  1.00  0.00     0.014 C 
ATOM     15  C   UNL     1     212.023 213.355 229.364  1.00  0.00     0.033 C 
ATOM     16  C   UNL     1     212.116 214.693 228.615  1.00  0.00     0.118 C 
ATOM     17  C   UNL     1     213.564 215.202 228.594  1.00  0.00     0.063 C 
ATOM     18  C   UNL     1     215.064 212.903 230.124  1.00  0.00     0.016 C 
ATOM     19  C   UNL     1     214.601 208.915 225.353  1.00  0.00     0.012 C 
ENDROOT
BRANCH   1  20
ATOM     20  C   UNL     1     217.423 207.246 225.806  1.00  0.00     0.133 C 
ATOM     21  C   UNL     1     218.539 206.938 226.765  1.00  0.00     0.088 C 
ATOM     22  O   UNL     1     216.811 206.306 225.322  1.00  0.00    -0.300 OA
ENDBRANCH   1  20
BRANCH  16  23
ATOM     23  O   UNL     1     211.634 214.534 227.305  1.00  0.00    -0.393 OA
ATOM     24  H   UNL     1     212.032 213.695 226.953  1.00  0.00     0.210 HD
ENDBRANCH  16  23
TORSDOF 2
ENDMDL
MODEL 6
REMARK VINA RESULT:    -4.401      2.770      4.911
REMARK INTER + INTRA:          -4.883
REMARK INTER:                  -4.660
REMARK INTRA:                  -0.222
REMARK UNBOUND:                -0.096
REMARK SMILES CC(=O)[C@@H]1CC[C@@H]2[C@@H]3CC=C4C[C@@H](O)CC[C@@]4(C)[C@H]3CC[C@@]21C
REMARK SMILES IDX 4 1 5 2 6 3 7 4 22 5 21 6 20 7 19 8 8 9 9 10 10 11 11 12
REMARK SMILES IDX 17 13 16 14 15 15 13 16 12 17 18 18 23 19 2 20 1 21 3 22
REMARK SMILES IDX 14 23
REMARK H PARENT 14 24
REMARK Flexibility Score: inf
ROOT
ATOM      1  C   UNL     1     209.891 218.496 225.335  1.00  0.00     0.062 C 
ATOM      2  C   UNL     1     208.729 217.523 225.587  1.00  0.00     0.012 C 
ATOM      3  C   UNL     1     209.350 216.141 225.786  1.00  0.00     0.005 C 
ATOM      4  C   UNL     1     210.868 216.314 225.616  1.00  0.00    -0.001 C 
ATOM      5  C   UNL     1     211.138 217.798 225.952  1.00  0.00    -0.020 C 
ATOM      6  C   UNL     1     211.202 217.997 227.499  1.00  0.00     0.008 C 
ATOM      7  C   UNL     1     212.175 217.035 228.184  1.00  0.00     0.005 C 
ATOM      8  C   UNL     1     211.812 215.554 227.915  1.00  0.00     0.003 C 
ATOM      9  C   UNL     1     211.754 215.292 226.394  1.00  0.00     0.000 C 
ATOM     10  C   UNL     1     211.274 213.855 226.146  1.00  0.00     0.031 C 
ATOM     11  C   UNL     1     212.147 212.864 226.845  1.00  0.00    -0.027 C 
ATOM     12  C   UNL     1     212.759 213.127 228.018  1.00  0.00    -0.065 C 
ATOM     13  C   UNL     1     212.754 214.522 228.675  1.00  0.00    -0.008 C 
ATOM     14  C   UNL     1     214.240 215.009 228.708  1.00  0.00     0.014 C 
ATOM     15  C   UNL     1     215.239 213.971 229.263  1.00  0.00     0.033 C 
ATOM     16  C   UNL     1     215.142 212.618 228.541  1.00  0.00     0.118 C 
ATOM     17  C   UNL     1     213.704 212.085 228.582  1.00  0.00     0.063 C 
ATOM     18  C   UNL     1     212.221 214.385 230.125  1.00  0.00     0.016 C 
ATOM     19  C   UNL     1     212.438 218.292 225.272  1.00  0.00     0.012 C 
ENDROOT
BRANCH   1  20
ATOM     20  C   UNL     1     209.606 219.921 225.798  1.00  0.00     0.133 C 
ATOM     21  C   UNL     1     208.503 220.230 226.773  1.00  0.00     0.088 C 
ATOM     22  O   UNL     1     210.198 220.861 225.291  1.00  0.00    -0.300 OA
ENDBRANCH   1  20
BRANCH  16  23
ATOM     23  O   UNL     1     215.574 212.762 227.212  1.00  0.00    -0.393 OA
ATOM     24  H   UNL     1     215.100 213.551 226.841  1.00  0.00     0.210 HD
ENDBRANCH  16  23
TORSDOF 2
ENDMDL
MODEL 7
REMARK VINA RESULT:    -4.400      3.504      6.086
REMARK INTER + INTRA:          -4.881
REMARK INTER:                  -4.662
REMARK INTRA:                  -0.219
REMARK UNBOUND:                -0.096
REMARK SMILES CC(=O)[C@@H]1CC[C@@H]2[C@@H]3CC=C4C[C@@H](O)CC[C@@]4(C)[C@H]3CC[C@@]21C
REMARK SMILES IDX 4 1 5 2 6 3 7 4 22 5 21 6 20 7 19 8 8 9 9 10 10 11 11 12
REMARK SMILES IDX 17 13 16 14 15 15 13 16 12 17 18 18 23 19 2 20 1 21 3 22
REMARK SMILES IDX 14 23
REMARK H PARENT 14 24
REMARK Flexibility Score: inf
ROOT
ATOM      1  C   UNL     1     208.695 209.898 225.315  1.00  0.00     0.062 C 
ATOM      2  C   UNL     1     209.663 208.732 225.567  1.00  0.00     0.012 C 
ATOM      3  C   UNL     1     211.047 209.347 225.772  1.00  0.00     0.005 C 
ATOM      4  C   UNL     1     210.880 210.866 225.606  1.00  0.00    -0.001 C 
ATOM      5  C   UNL     1     209.397 211.141 225.938  1.00  0.00    -0.020 C 
ATOM      6  C   UNL     1     209.192 211.201 227.485  1.00  0.00     0.008 C 
ATOM      7  C   UNL     1     210.156 212.169 228.175  1.00  0.00     0.005 C 
ATOM      8  C   UNL     1     211.636 211.801 227.910  1.00  0.00     0.003 C 
ATOM      9  C   UNL     1     211.904 211.746 226.390  1.00  0.00     0.000 C 
ATOM     10  C   UNL     1     213.339 211.261 226.145  1.00  0.00     0.031 C 
ATOM     11  C   UNL     1     214.331 212.128 226.850  1.00  0.00    -0.027 C 
ATOM     12  C   UNL     1     214.066 212.739 228.024  1.00  0.00    -0.065 C 
ATOM     13  C   UNL     1     212.670 212.737 228.676  1.00  0.00    -0.008 C 
ATOM     14  C   UNL     1     212.188 214.225 228.711  1.00  0.00     0.014 C 
ATOM     15  C   UNL     1     213.228 215.218 229.272  1.00  0.00     0.033 C 
ATOM     16  C   UNL     1     214.583 215.118 228.555  1.00  0.00     0.118 C 
ATOM     17  C   UNL     1     215.111 213.678 228.593  1.00  0.00     0.063 C 
ATOM     18  C   UNL     1     212.800 212.199 230.125  1.00  0.00     0.016 C 
ATOM     19  C   UNL     1     208.909 212.445 225.259  1.00  0.00     0.012 C 
ENDROOT
BRANCH   1  20
ATOM     20  C   UNL     1     207.268 209.617 225.773  1.00  0.00     0.133 C 
ATOM     21  C   UNL     1     206.956 208.533 226.768  1.00  0.00     0.088 C 
ATOM     22  O   UNL     1     206.330 210.195 225.246  1.00  0.00    -0.300 OA
ENDBRANCH   1  20
BRANCH  16  23
ATOM     23  O   UNL     1     214.445 215.554 227.227  1.00  0.00    -0.393 OA
ATOM     24  H   UNL     1     215.010 214.958 226.669  1.00  0.00     0.210 HD
ENDBRANCH  16  23
TORSDOF 2
ENDMDL
MODEL 8
REMARK VINA RESULT:    -4.363      4.085      6.023
REMARK INTER + INTRA:          -4.841
REMARK INTER:                  -4.619
REMARK INTRA:                  -0.222
REMARK UNBOUND:                -0.096
REMARK SMILES CC(=O)[C@@H]1CC[C@@H]2[C@@H]3CC=C4C[C@@H](O)CC[C@@]4(C)[C@H]3CC[C@@]21C
REMARK SMILES IDX 4 1 5 2 6 3 7 4 22 5 21 6 20 7 19 8 8 9 9 10 10 11 11 12
REMARK SMILES IDX 17 13 16 14 15 15 13 16 12 17 18 18 23 19 2 20 1 21 3 22
REMARK SMILES IDX 14 23
REMARK H PARENT 14 24
REMARK Flexibility Score: inf
ROOT
ATOM      1  C   UNL     1     218.478 217.324 225.298  1.00  0.00     0.062 C 
ATOM      2  C   UNL     1     217.483 218.471 225.531  1.00  0.00     0.012 C 
ATOM      3  C   UNL     1     216.111 217.828 225.728  1.00  0.00     0.005 C 
ATOM      4  C   UNL     1     216.312 216.311 225.576  1.00  0.00    -0.001 C 
ATOM      5  C   UNL     1     217.798 216.072 225.925  1.00  0.00    -0.020 C 
ATOM      6  C   UNL     1     217.989 216.029 227.474  1.00  0.00     0.008 C 
ATOM      7  C   UNL     1     217.039 215.047 228.164  1.00  0.00     0.005 C 
ATOM      8  C   UNL     1     215.554 215.380 227.881  1.00  0.00     0.003 C 
ATOM      9  C   UNL     1     215.301 215.416 226.358  1.00  0.00     0.000 C 
ATOM     10  C   UNL     1     213.857 215.867 226.096  1.00  0.00     0.031 C 
ATOM     11  C   UNL     1     212.878 214.985 226.799  1.00  0.00    -0.027 C 
ATOM     12  C   UNL     1     213.144 214.390 227.980  1.00  0.00    -0.065 C 
ATOM     13  C   UNL     1     214.534 214.428 228.646  1.00  0.00    -0.008 C 
ATOM     14  C   UNL     1     215.048 212.951 228.698  1.00  0.00     0.014 C 
ATOM     15  C   UNL     1     214.024 211.941 229.258  1.00  0.00     0.033 C 
ATOM     16  C   UNL     1     212.674 212.004 228.527  1.00  0.00     0.118 C 
ATOM     17  C   UNL     1     212.115 213.433 228.548  1.00  0.00     0.063 C 
ATOM     18  C   UNL     1     214.378 214.975 230.088  1.00  0.00     0.016 C 
ATOM     19  C   UNL     1     218.320 214.773 225.262  1.00  0.00     0.012 C 
ENDROOT
BRANCH   1  20
ATOM     20  C   UNL     1     219.894 217.640 225.767  1.00  0.00     0.133 C 
ATOM     21  C   UNL     1     220.177 218.758 226.732  1.00  0.00     0.088 C 
ATOM     22  O   UNL     1     220.848 217.061 225.271  1.00  0.00    -0.300 OA
ENDBRANCH   1  20
BRANCH  16  23
ATOM     23  O   UNL     1     212.835 211.560 227.204  1.00  0.00    -0.393 OA
ATOM     24  H   UNL     1     212.138 210.871 227.046  1.00  0.00     0.210 HD
ENDBRANCH  16  23
TORSDOF 2
ENDMDL
MODEL 9
REMARK VINA RESULT:    -4.356      2.436      4.052
REMARK INTER + INTRA:          -4.833
REMARK INTER:                  -4.610
REMARK INTRA:                  -0.223
REMARK UNBOUND:                -0.096
REMARK SMILES CC(=O)[C@@H]1CC[C@@H]2[C@@H]3CC=C4C[C@@H](O)CC[C@@]4(C)[C@H]3CC[C@@]21C
REMARK SMILES IDX 4 1 5 2 6 3 7 4 22 5 21 6 20 7 19 8 8 9 9 10 10 11 11 12
REMARK SMILES IDX 17 13 16 14 15 15 13 16 12 17 18 18 23 19 2 20 1 21 3 22
REMARK SMILES IDX 14 23
REMARK H PARENT 14 24
REMARK Flexibility Score: inf
ROOT
ATOM      1  C   UNL     1     210.384 217.791 225.383  1.00  0.00     0.062 C 
ATOM      2  C   UNL     1     211.022 218.834 226.314  1.00  0.00     0.012 C 
ATOM      3  C   UNL     1     211.599 218.066 227.502  1.00  0.00     0.005 C 
ATOM      4  C   UNL     1     211.264 216.583 227.271  1.00  0.00    -0.001 C 
ATOM      5  C   UNL     1     211.091 216.450 225.741  1.00  0.00    -0.020 C 
ATOM      6  C   UNL     1     212.485 216.332 225.049  1.00  0.00     0.008 C 
ATOM      7  C   UNL     1     213.360 215.234 225.657  1.00  0.00     0.005 C 
ATOM      8  C   UNL     1     213.604 215.456 227.169  1.00  0.00     0.003 C 
ATOM      9  C   UNL     1     212.254 215.561 227.912  1.00  0.00     0.000 C 
ATOM     10  C   UNL     1     212.512 215.904 229.386  1.00  0.00     0.031 C 
ATOM     11  C   UNL     1     213.418 214.901 230.023  1.00  0.00    -0.027 C 
ATOM     12  C   UNL     1     214.395 214.263 229.347  1.00  0.00    -0.065 C 
ATOM     13  C   UNL     1     214.575 214.378 227.821  1.00  0.00    -0.008 C 
ATOM     14  C   UNL     1     214.335 212.950 227.230  1.00  0.00     0.014 C 
ATOM     15  C   UNL     1     215.109 211.825 227.949  1.00  0.00     0.033 C 
ATOM     16  C   UNL     1     214.864 211.817 229.466  1.00  0.00     0.118 C 
ATOM     17  C   UNL     1     215.184 213.190 230.072  1.00  0.00     0.063 C 
ATOM     18  C   UNL     1     216.031 214.824 227.525  1.00  0.00     0.016 C 
ATOM     19  C   UNL     1     210.188 215.242 225.389  1.00  0.00     0.012 C 
ENDROOT
BRANCH   1  20
ATOM     20  C   UNL     1     210.393 218.197 223.913  1.00  0.00     0.133 C 
ATOM     21  C   UNL     1     211.261 219.316 223.407  1.00  0.00     0.088 C 
ATOM     22  O   UNL     1     209.600 217.694 223.133  1.00  0.00    -0.300 OA
ENDBRANCH   1  20
BRANCH  16  23
ATOM     23  O   UNL     1     213.528 211.468 229.723  1.00  0.00    -0.393 OA
ATOM     24  H   UNL     1     213.240 211.996 230.513  1.00  0.00     0.210 HD
ENDBRANCH  16  23
TORSDOF 2
ENDMDL
