MODEL 1
REMARK VINA RESULT:    -7.029      0.000      0.000
REMARK INTER + INTRA:         -11.316
REMARK INTER:                 -10.316
REMARK INTRA:                  -1.000
REMARK UNBOUND:                -1.000
REMARK SMILES Cc1cc2c(C(C)C)c(O)c(O)c(C=O)c2c(O)c1-c1c(C)cc2c(C(C)C)c(O)c(O)c(C=O)c2c1O
REMARK SMILES IDX 1 1 2 2 3 3 4 4 16 5 13 6 11 7 9 8 5 9 17 10 19 11 20 12
REMARK SMILES IDX 37 13 21 14 36 15 23 16 22 17 24 18 33 19 25 20 31 21 29 22
REMARK SMILES IDX 38 23 34 25 35 26 26 27 27 28 28 29 32 30 30 32 18 34 6 36
REMARK SMILES IDX 7 37 8 38 14 39 15 40 10 41 12 43
REMARK H PARENT 38 24 32 31 30 33 18 35 10 42 12 44
REMARK Flexibility Score: inf
ROOT
ATOM      1  C   UNL     1     -45.040 -40.635 -22.174  1.00  0.00     0.045 C 
ATOM      2  C   UNL     1     -44.220 -39.469 -21.675  1.00  0.00    -0.039 A 
ATOM      3  C   UNL     1     -42.862 -39.653 -21.417  1.00  0.00     0.013 A 
ATOM      4  C   UNL     1     -42.049 -38.613 -20.911  1.00  0.00    -0.006 A 
ATOM      5  C   UNL     1     -42.627 -37.320 -20.725  1.00  0.00     0.039 A 
ATOM      6  C   UNL     1     -41.805 -36.263 -20.235  1.00  0.00     0.072 A 
ATOM      7  C   UNL     1     -40.417 -36.451 -20.118  1.00  0.00     0.169 A 
ATOM      8  C   UNL     1     -39.842 -37.703 -20.397  1.00  0.00     0.162 A 
ATOM      9  C   UNL     1     -40.664 -38.827 -20.629  1.00  0.00     0.008 A 
ATOM     10  C   UNL     1     -43.994 -37.115 -21.081  1.00  0.00     0.132 A 
ATOM     11  C   UNL     1     -44.788 -38.194 -21.525  1.00  0.00     0.031 A 
ENDROOT
BRANCH  11  12
ATOM     12  C   UNL     1     -46.219 -37.977 -21.867  1.00  0.00     0.031 A 
ATOM     13  C   UNL     1     -47.195 -37.957 -20.849  1.00  0.00     0.132 A 
ATOM     14  C   UNL     1     -46.599 -37.827 -23.210  1.00  0.00    -0.039 A 
ATOM     15  C   UNL     1     -48.568 -37.725 -21.167  1.00  0.00     0.039 A 
ATOM     16  C   UNL     1     -47.950 -37.682 -23.531  1.00  0.00     0.013 A 
ATOM     17  C   UNL     1     -45.578 -37.875 -24.322  1.00  0.00     0.045 C 
ATOM     18  C   UNL     1     -48.948 -37.588 -22.537  1.00  0.00    -0.006 A 
ATOM     19  C   UNL     1     -49.581 -37.682 -20.163  1.00  0.00     0.072 A 
ATOM     20  C   UNL     1     -50.323 -37.397 -22.884  1.00  0.00     0.008 A 
ATOM     21  C   UNL     1     -50.939 -37.690 -20.539  1.00  0.00     0.169 A 
ATOM     22  C   UNL     1     -51.301 -37.587 -21.886  1.00  0.00     0.162 A 
BRANCH  13  23
ATOM     23  O   UNL     1     -46.808 -38.209 -19.528  1.00  0.00    -0.507 OA
ATOM     24  H   UNL     1     -46.776 -39.132 -19.114  1.00  0.00     0.293 HD
ENDBRANCH  13  23
BRANCH  19  25
ATOM     25  C   UNL     1     -49.266 -37.587 -18.722  1.00  0.00     0.264 C 
ATOM     26  O   UNL     1     -49.408 -38.589 -17.973  1.00  0.00    -0.298 OA
ENDBRANCH  19  25
BRANCH  20  27
ATOM     27  C   UNL     1     -50.755 -37.031 -24.315  1.00  0.00     0.017 C 
ATOM     28  C   UNL     1     -49.829 -35.966 -24.910  1.00  0.00     0.012 C 
ATOM     29  C   UNL     1     -50.889 -38.244 -25.256  1.00  0.00     0.012 C 
ENDBRANCH  20  27
BRANCH  21  30
ATOM     30  O   UNL     1     -51.962 -37.767 -19.587  1.00  0.00    -0.504 OA
ATOM     31  H   UNL     1     -52.808 -38.309 -19.705  1.00  0.00     0.293 HD
ENDBRANCH  21  30
BRANCH  22  32
ATOM     32  O   UNL     1     -52.650 -37.666 -22.236  1.00  0.00    -0.504 OA
ATOM     33  H   UNL     1     -53.007 -38.324 -22.919  1.00  0.00     0.293 HD
ENDBRANCH  22  32
ENDBRANCH  11  12
BRANCH  10  34
ATOM     34  O   UNL     1     -44.550 -35.831 -21.040  1.00  0.00    -0.507 OA
ATOM     35  H   UNL     1     -45.100 -35.428 -21.787  1.00  0.00     0.293 HD
ENDBRANCH  10  34
BRANCH   9  36
ATOM     36  C   UNL     1     -40.045 -40.237 -20.626  1.00  0.00     0.017 C 
ATOM     37  C   UNL     1     -40.734 -41.136 -19.594  1.00  0.00     0.012 C 
ATOM     38  C   UNL     1     -40.010 -40.906 -22.014  1.00  0.00     0.012 C 
ENDBRANCH   9  36
BRANCH   6  39
ATOM     39  C   UNL     1     -42.373 -34.980 -19.755  1.00  0.00     0.264 C 
ATOM     40  O   UNL     1     -41.980 -33.878 -20.222  1.00  0.00    -0.298 OA
ENDBRANCH   6  39
BRANCH   8  41
ATOM     41  O   UNL     1     -38.454 -37.849 -20.461  1.00  0.00    -0.504 OA
ATOM     42  H   UNL     1     -37.883 -38.178 -19.695  1.00  0.00     0.293 HD
ENDBRANCH   8  41
BRANCH   7  43
ATOM     43  O   UNL     1     -39.628 -35.384 -19.668  1.00  0.00    -0.504 OA
ATOM     44  H   UNL     1     -38.827 -35.489 -19.061  1.00  0.00     0.293 HD
ENDBRANCH   7  43
TORSDOF 11
ENDMDL
MODEL 2
REMARK VINA RESULT:    -6.998      0.692      8.806
REMARK INTER + INTRA:         -11.270
REMARK INTER:                 -11.055
REMARK INTRA:                  -0.215
REMARK UNBOUND:                -1.000
REMARK SMILES Cc1cc2c(C(C)C)c(O)c(O)c(C=O)c2c(O)c1-c1c(C)cc2c(C(C)C)c(O)c(O)c(C=O)c2c1O
REMARK SMILES IDX 1 1 2 2 3 3 4 4 16 5 13 6 11 7 9 8 5 9 17 10 19 11 20 12
REMARK SMILES IDX 37 13 21 14 36 15 23 16 22 17 24 18 33 19 25 20 31 21 29 22
REMARK SMILES IDX 38 23 34 25 35 26 26 27 27 28 28 29 32 30 30 32 18 34 6 36
REMARK SMILES IDX 7 37 8 38 14 39 15 40 10 41 12 43
REMARK H PARENT 38 24 32 31 30 33 18 35 10 42 12 44
REMARK Flexibility Score: inf
ROOT
ATOM      1  C   UNL     1     -45.592 -38.030 -24.304  1.00  0.00     0.045 C 
ATOM      2  C   UNL     1     -46.555 -37.741 -23.177  1.00  0.00    -0.039 A 
ATOM      3  C   UNL     1     -47.907 -37.557 -23.467  1.00  0.00     0.013 A 
ATOM      4  C   UNL     1     -48.852 -37.244 -22.464  1.00  0.00    -0.006 A 
ATOM      5  C   UNL     1     -48.414 -37.183 -21.106  1.00  0.00     0.039 A 
ATOM      6  C   UNL     1     -49.369 -36.888 -20.088  1.00  0.00     0.072 A 
ATOM      7  C   UNL     1     -50.739 -36.846 -20.402  1.00  0.00     0.169 A 
ATOM      8  C   UNL     1     -51.169 -37.005 -21.731  1.00  0.00     0.162 A 
ATOM      9  C   UNL     1     -50.230 -37.036 -22.784  1.00  0.00     0.008 A 
ATOM     10  C   UNL     1     -47.048 -37.465 -20.805  1.00  0.00     0.132 A 
ATOM     11  C   UNL     1     -46.123 -37.712 -21.842  1.00  0.00     0.031 A 
ENDROOT
BRANCH  11  12
ATOM     12  C   UNL     1     -44.696 -37.978 -21.521  1.00  0.00     0.031 A 
ATOM     13  C   UNL     1     -43.858 -36.926 -21.092  1.00  0.00     0.132 A 
ATOM     14  C   UNL     1     -44.175 -39.272 -21.680  1.00  0.00    -0.039 A 
ATOM     15  C   UNL     1     -42.493 -37.177 -20.760  1.00  0.00     0.039 A 
ATOM     16  C   UNL     1     -42.820 -39.504 -21.433  1.00  0.00     0.013 A 
ATOM     17  C   UNL     1     -45.041 -40.409 -22.166  1.00  0.00     0.045 C 
ATOM     18  C   UNL     1     -41.967 -38.493 -20.938  1.00  0.00    -0.006 A 
ATOM     19  C   UNL     1     -41.621 -36.142 -20.308  1.00  0.00     0.072 A 
ATOM     20  C   UNL     1     -40.592 -38.761 -20.651  1.00  0.00     0.008 A 
ATOM     21  C   UNL     1     -40.235 -36.383 -20.221  1.00  0.00     0.169 A 
ATOM     22  C   UNL     1     -39.726 -37.669 -20.428  1.00  0.00     0.162 A 
BRANCH  13  23
ATOM     23  O   UNL     1     -44.372 -35.625 -21.038  1.00  0.00    -0.507 OA
ATOM     24  H   UNL     1     -45.303 -35.397 -20.717  1.00  0.00     0.293 HD
ENDBRANCH  13  23
BRANCH  19  25
ATOM     25  C   UNL     1     -42.117 -34.817 -19.880  1.00  0.00     0.264 C 
ATOM     26  O   UNL     1     -41.504 -33.770 -20.217  1.00  0.00    -0.298 OA
ENDBRANCH  19  25
BRANCH  20  27
ATOM     27  C   UNL     1     -40.033 -40.195 -20.619  1.00  0.00     0.017 C 
ATOM     28  C   UNL     1     -40.776 -41.048 -19.587  1.00  0.00     0.012 C 
ATOM     29  C   UNL     1     -40.005 -40.884 -21.997  1.00  0.00     0.012 C 
ENDBRANCH  20  27
BRANCH  21  30
ATOM     30  O   UNL     1     -39.333 -35.363 -19.896  1.00  0.00    -0.504 OA
ATOM     31  H   UNL     1     -38.470 -35.189 -20.393  1.00  0.00     0.293 HD
ENDBRANCH  21  30
BRANCH  22  32
ATOM     32  O   UNL     1     -38.344 -37.867 -20.404  1.00  0.00    -0.504 OA
ATOM     33  H   UNL     1     -37.835 -38.311 -21.159  1.00  0.00     0.293 HD
ENDBRANCH  22  32
ENDBRANCH  11  12
BRANCH  10  34
ATOM     34  O   UNL     1     -46.619 -37.546 -19.475  1.00  0.00    -0.507 OA
ATOM     35  H   UNL     1     -46.669 -38.387 -18.914  1.00  0.00     0.293 HD
ENDBRANCH  10  34
BRANCH   9  36
ATOM     36  C   UNL     1     -50.713 -36.900 -24.239  1.00  0.00     0.017 C 
ATOM     37  C   UNL     1     -49.827 -35.925 -25.022  1.00  0.00     0.012 C 
ATOM     38  C   UNL     1     -50.852 -38.244 -24.979  1.00  0.00     0.012 C 
ENDBRANCH   9  36
BRANCH   6  39
ATOM     39  C   UNL     1     -48.964 -36.534 -18.705  1.00  0.00     0.264 C 
ATOM     40  O   UNL     1     -49.061 -35.351 -18.282  1.00  0.00    -0.298 OA
ENDBRANCH   6  39
BRANCH   8  41
ATOM     41  O   UNL     1     -52.528 -37.148 -22.025  1.00  0.00    -0.504 OA
ATOM     42  H   UNL     1     -53.264 -36.627 -21.569  1.00  0.00     0.293 HD
ENDBRANCH   8  41
BRANCH   7  43
ATOM     43  O   UNL     1     -51.658 -36.590 -19.376  1.00  0.00    -0.504 OA
ATOM     44  H   UNL     1     -52.479 -36.013 -19.484  1.00  0.00     0.293 HD
ENDBRANCH   7  43
TORSDOF 11
ENDMDL
MODEL 3
REMARK VINA RESULT:    -6.758      2.437      8.668
REMARK INTER + INTRA:         -10.918
REMARK INTER:                 -10.067
REMARK INTRA:                  -0.851
REMARK UNBOUND:                -1.000
REMARK SMILES Cc1cc2c(C(C)C)c(O)c(O)c(C=O)c2c(O)c1-c1c(C)cc2c(C(C)C)c(O)c(O)c(C=O)c2c1O
REMARK SMILES IDX 1 1 2 2 3 3 4 4 16 5 13 6 11 7 9 8 5 9 17 10 19 11 20 12
REMARK SMILES IDX 37 13 21 14 36 15 23 16 22 17 24 18 33 19 25 20 31 21 29 22
REMARK SMILES IDX 38 23 34 25 35 26 26 27 27 28 28 29 32 30 30 32 18 34 6 36
REMARK SMILES IDX 7 37 8 38 14 39 15 40 10 41 12 43
REMARK H PARENT 38 24 32 31 30 33 18 35 10 42 12 44
REMARK Flexibility Score: inf
ROOT
ATOM      1  C   UNL     1     -46.911 -40.899 -22.872  1.00  0.00     0.045 C 
ATOM      2  C   UNL     1     -47.520 -39.899 -21.919  1.00  0.00    -0.039 A 
ATOM      3  C   UNL     1     -48.873 -39.581 -22.036  1.00  0.00     0.013 A 
ATOM      4  C   UNL     1     -49.492 -38.624 -21.202  1.00  0.00    -0.006 A 
ATOM      5  C   UNL     1     -48.721 -38.016 -20.165  1.00  0.00     0.039 A 
ATOM      6  C   UNL     1     -49.348 -37.066 -19.307  1.00  0.00     0.072 A 
ATOM      7  C   UNL     1     -50.740 -36.876 -19.369  1.00  0.00     0.169 A 
ATOM      8  C   UNL     1     -51.508 -37.553 -20.332  1.00  0.00     0.162 A 
ATOM      9  C   UNL     1     -50.875 -38.294 -21.354  1.00  0.00     0.008 A 
ATOM     10  C   UNL     1     -47.361 -38.415 -19.989  1.00  0.00     0.132 A 
ATOM     11  C   UNL     1     -46.762 -39.329 -20.883  1.00  0.00     0.031 A 
ENDROOT
BRANCH  11  12
ATOM     12  C   UNL     1     -45.338 -39.718 -20.709  1.00  0.00     0.031 A 
ATOM     13  C   UNL     1     -44.982 -40.698 -19.758  1.00  0.00     0.132 A 
ATOM     14  C   UNL     1     -44.343 -39.081 -21.469  1.00  0.00    -0.039 A 
ATOM     15  C   UNL     1     -43.619 -41.094 -19.601  1.00  0.00     0.039 A 
ATOM     16  C   UNL     1     -43.002 -39.408 -21.260  1.00  0.00     0.013 A 
ATOM     17  C   UNL     1     -44.693 -38.008 -22.472  1.00  0.00     0.045 C 
ATOM     18  C   UNL     1     -42.613 -40.431 -20.368  1.00  0.00    -0.006 A 
ATOM     19  C   UNL     1     -43.224 -42.092 -18.661  1.00  0.00     0.072 A 
ATOM     20  C   UNL     1     -41.236 -40.780 -20.199  1.00  0.00     0.008 A 
ATOM     21  C   UNL     1     -41.858 -42.279 -18.373  1.00  0.00     0.169 A 
ATOM     22  C   UNL     1     -40.880 -41.602 -19.108  1.00  0.00     0.162 A 
BRANCH  13  23
ATOM     23  O   UNL     1     -45.977 -41.246 -18.940  1.00  0.00    -0.507 OA
ATOM     24  H   UNL     1     -46.935 -40.921 -18.918  1.00  0.00     0.293 HD
ENDBRANCH  13  23
BRANCH  19  25
ATOM     25  C   UNL     1     -44.197 -42.983 -17.995  1.00  0.00     0.264 C 
ATOM     26  O   UNL     1     -44.686 -43.965 -18.613  1.00  0.00    -0.298 OA
ENDBRANCH  19  25
BRANCH  20  27
ATOM     27  C   UNL     1     -40.143 -40.255 -21.146  1.00  0.00     0.017 C 
ATOM     28  C   UNL     1     -40.544 -40.458 -22.610  1.00  0.00     0.012 C 
ATOM     29  C   UNL     1     -39.733 -38.794 -20.876  1.00  0.00     0.012 C 
ENDBRANCH  20  27
BRANCH  21  30
ATOM     30  O   UNL     1     -41.435 -43.163 -17.374  1.00  0.00    -0.504 OA
ATOM     31  H   UNL     1     -40.964 -42.879 -16.525  1.00  0.00     0.293 HD
ENDBRANCH  21  30
BRANCH  22  32
ATOM     32  O   UNL     1     -39.537 -41.753 -18.757  1.00  0.00    -0.504 OA
ATOM     33  H   UNL     1     -38.969 -42.534 -19.063  1.00  0.00     0.293 HD
ENDBRANCH  22  32
ENDBRANCH  11  12
BRANCH  10  34
ATOM     34  O   UNL     1     -46.621 -37.941 -18.901  1.00  0.00    -0.507 OA
ATOM     35  H   UNL     1     -46.237 -37.006 -18.841  1.00  0.00     0.293 HD
ENDBRANCH  10  34
BRANCH   9  36
ATOM     36  C   UNL     1     -51.694 -38.770 -22.567  1.00  0.00     0.017 C 
ATOM     37  C   UNL     1     -51.183 -38.125 -23.860  1.00  0.00     0.012 C 
ATOM     38  C   UNL     1     -51.776 -40.303 -22.703  1.00  0.00     0.012 C 
ENDBRANCH   9  36
BRANCH   6  39
ATOM     39  C   UNL     1     -48.570 -36.191 -18.396  1.00  0.00     0.264 C 
ATOM     40  O   UNL     1     -48.786 -34.951 -18.342  1.00  0.00    -0.298 OA
ENDBRANCH   6  39
BRANCH   8  41
ATOM     41  O   UNL     1     -52.904 -37.513 -20.283  1.00  0.00    -0.504 OA
ATOM     42  H   UNL     1     -53.492 -38.332 -20.215  1.00  0.00     0.293 HD
ENDBRANCH   8  41
BRANCH   7  43
ATOM     43  O   UNL     1     -51.335 -35.962 -18.490  1.00  0.00    -0.504 OA
ATOM     44  H   UNL     1     -52.047 -35.299 -18.760  1.00  0.00     0.293 HD
ENDBRANCH   7  43
TORSDOF 11
ENDMDL
MODEL 4
REMARK VINA RESULT:    -6.725      1.628      8.987
REMARK INTER + INTRA:         -10.871
REMARK INTER:                 -10.370
REMARK INTRA:                  -0.500
REMARK UNBOUND:                -1.000
REMARK SMILES Cc1cc2c(C(C)C)c(O)c(O)c(C=O)c2c(O)c1-c1c(C)cc2c(C(C)C)c(O)c(O)c(C=O)c2c1O
REMARK SMILES IDX 1 1 2 2 3 3 4 4 16 5 13 6 11 7 9 8 5 9 17 10 19 11 20 12
REMARK SMILES IDX 37 13 21 14 36 15 23 16 22 17 24 18 33 19 25 20 31 21 29 22
REMARK SMILES IDX 38 23 34 25 35 26 26 27 27 28 28 29 32 30 30 32 18 34 6 36
REMARK SMILES IDX 7 37 8 38 14 39 15 40 10 41 12 43
REMARK H PARENT 38 24 32 31 30 33 18 35 10 42 12 44
REMARK Flexibility Score: inf
ROOT
ATOM      1  C   UNL     1     -46.335 -37.643 -18.749  1.00  0.00     0.045 C 
ATOM      2  C   UNL     1     -46.911 -37.565 -20.142  1.00  0.00    -0.039 A 
ATOM      3  C   UNL     1     -48.258 -37.245 -20.306  1.00  0.00     0.013 A 
ATOM      4  C   UNL     1     -48.867 -37.196 -21.580  1.00  0.00    -0.006 A 
ATOM      5  C   UNL     1     -48.057 -37.415 -22.736  1.00  0.00     0.039 A 
ATOM      6  C   UNL     1     -48.663 -37.346 -24.024  1.00  0.00     0.072 A 
ATOM      7  C   UNL     1     -49.985 -36.887 -24.154  1.00  0.00     0.169 A 
ATOM      8  C   UNL     1     -50.747 -36.579 -23.013  1.00  0.00     0.162 A 
ATOM      9  C   UNL     1     -50.256 -36.889 -21.726  1.00  0.00     0.008 A 
ATOM     10  C   UNL     1     -46.659 -37.650 -22.567  1.00  0.00     0.132 A 
ATOM     11  C   UNL     1     -46.101 -37.753 -21.274  1.00  0.00     0.031 A 
ENDROOT
BRANCH  11  12
ATOM     12  C   UNL     1     -44.649 -38.024 -21.107  1.00  0.00     0.031 A 
ATOM     13  C   UNL     1     -43.762 -36.969 -20.803  1.00  0.00     0.132 A 
ATOM     14  C   UNL     1     -44.158 -39.327 -21.288  1.00  0.00    -0.039 A 
ATOM     15  C   UNL     1     -42.369 -37.225 -20.619  1.00  0.00     0.039 A 
ATOM     16  C   UNL     1     -42.786 -39.566 -21.188  1.00  0.00     0.013 A 
ATOM     17  C   UNL     1     -45.081 -40.468 -21.643  1.00  0.00     0.045 C 
ATOM     18  C   UNL     1     -41.876 -38.551 -20.818  1.00  0.00    -0.006 A 
ATOM     19  C   UNL     1     -41.445 -36.187 -20.296  1.00  0.00     0.072 A 
ATOM     20  C   UNL     1     -40.479 -38.825 -20.680  1.00  0.00     0.008 A 
ATOM     21  C   UNL     1     -40.060 -36.440 -20.357  1.00  0.00     0.169 A 
ATOM     22  C   UNL     1     -39.586 -37.736 -20.585  1.00  0.00     0.162 A 
BRANCH  13  23
ATOM     23  O   UNL     1     -44.257 -35.662 -20.728  1.00  0.00    -0.507 OA
ATOM     24  H   UNL     1     -45.157 -35.420 -20.335  1.00  0.00     0.293 HD
ENDBRANCH  13  23
BRANCH  19  25
ATOM     25  C   UNL     1     -41.881 -34.847 -19.851  1.00  0.00     0.264 C 
ATOM     26  O   UNL     1     -41.295 -33.815 -20.274  1.00  0.00    -0.298 OA
ENDBRANCH  19  25
BRANCH  20  27
ATOM     27  C   UNL     1     -39.930 -40.262 -20.672  1.00  0.00     0.017 C 
ATOM     28  C   UNL     1     -40.617 -41.103 -19.591  1.00  0.00     0.012 C 
ATOM     29  C   UNL     1     -39.989 -40.960 -22.045  1.00  0.00     0.012 C 
ENDBRANCH  20  27
BRANCH  21  30
ATOM     30  O   UNL     1     -39.121 -35.421 -20.163  1.00  0.00    -0.504 OA
ATOM     31  H   UNL     1     -39.301 -34.441 -20.338  1.00  0.00     0.293 HD
ENDBRANCH  21  30
BRANCH  22  32
ATOM     32  O   UNL     1     -38.212 -37.947 -20.710  1.00  0.00    -0.504 OA
ATOM     33  H   UNL     1     -37.590 -37.290 -21.167  1.00  0.00     0.293 HD
ENDBRANCH  22  32
ENDBRANCH  11  12
BRANCH  10  34
ATOM     34  O   UNL     1     -45.817 -37.733 -23.681  1.00  0.00    -0.507 OA
ATOM     35  H   UNL     1     -46.143 -37.868 -24.630  1.00  0.00     0.293 HD
ENDBRANCH  10  34
BRANCH   9  36
ATOM     36  C   UNL     1     -51.206 -36.837 -20.516  1.00  0.00     0.017 C 
ATOM     37  C   UNL     1     -51.813 -38.216 -20.236  1.00  0.00     0.012 C 
ATOM     38  C   UNL     1     -50.568 -36.240 -19.246  1.00  0.00     0.012 C 
ENDBRANCH   9  36
BRANCH   6  39
ATOM     39  C   UNL     1     -47.974 -37.827 -25.247  1.00  0.00     0.264 C 
ATOM     40  O   UNL     1     -48.440 -38.781 -25.924  1.00  0.00    -0.298 OA
ENDBRANCH   6  39
BRANCH   8  41
ATOM     41  O   UNL     1     -51.989 -35.952 -23.136  1.00  0.00    -0.504 OA
ATOM     42  H   UNL     1     -52.822 -36.409 -23.480  1.00  0.00     0.293 HD
ENDBRANCH   8  41
BRANCH   7  43
ATOM     43  O   UNL     1     -50.544 -36.794 -25.435  1.00  0.00    -0.504 OA
ATOM     44  H   UNL     1     -51.160 -37.488 -25.835  1.00  0.00     0.293 HD
ENDBRANCH   7  43
TORSDOF 11
ENDMDL
MODEL 5
REMARK VINA RESULT:    -6.686      3.417      6.530
REMARK INTER + INTRA:         -10.812
REMARK INTER:                  -9.678
REMARK INTRA:                  -1.135
REMARK UNBOUND:                -1.000
REMARK SMILES Cc1cc2c(C(C)C)c(O)c(O)c(C=O)c2c(O)c1-c1c(C)cc2c(C(C)C)c(O)c(O)c(C=O)c2c1O
REMARK SMILES IDX 1 1 2 2 3 3 4 4 16 5 13 6 11 7 9 8 5 9 17 10 19 11 20 12
REMARK SMILES IDX 37 13 21 14 36 15 23 16 22 17 24 18 33 19 25 20 31 21 29 22
REMARK SMILES IDX 38 23 34 25 35 26 26 27 27 28 28 29 32 30 30 32 18 34 6 36
REMARK SMILES IDX 7 37 8 38 14 39 15 40 10 41 12 43
REMARK H PARENT 38 24 32 31 30 33 18 35 10 42 12 44
REMARK Flexibility Score: inf
ROOT
ATOM      1  C   UNL     1     -49.357 -39.357 -22.900  1.00  0.00     0.045 C 
ATOM      2  C   UNL     1     -49.176 -38.299 -21.838  1.00  0.00    -0.039 A 
ATOM      3  C   UNL     1     -48.075 -38.371 -20.984  1.00  0.00     0.013 A 
ATOM      4  C   UNL     1     -47.871 -37.436 -19.944  1.00  0.00    -0.006 A 
ATOM      5  C   UNL     1     -48.786 -36.347 -19.813  1.00  0.00     0.039 A 
ATOM      6  C   UNL     1     -48.572 -35.389 -18.779  1.00  0.00     0.072 A 
ATOM      7  C   UNL     1     -47.382 -35.419 -18.030  1.00  0.00     0.169 A 
ATOM      8  C   UNL     1     -46.439 -36.442 -18.234  1.00  0.00     0.162 A 
ATOM      9  C   UNL     1     -46.750 -37.541 -19.064  1.00  0.00     0.008 A 
ATOM     10  C   UNL     1     -49.857 -36.225 -20.748  1.00  0.00     0.132 A 
ATOM     11  C   UNL     1     -50.063 -37.215 -21.734  1.00  0.00     0.031 A 
ENDROOT
BRANCH  11  12
ATOM     12  C   UNL     1     -51.197 -37.095 -22.687  1.00  0.00     0.031 A 
ATOM     13  C   UNL     1     -50.989 -36.545 -23.970  1.00  0.00     0.132 A 
ATOM     14  C   UNL     1     -52.484 -37.497 -22.294  1.00  0.00    -0.039 A 
ATOM     15  C   UNL     1     -52.068 -36.448 -24.900  1.00  0.00     0.039 A 
ATOM     16  C   UNL     1     -53.557 -37.327 -23.172  1.00  0.00     0.013 A 
ATOM     17  C   UNL     1     -52.741 -38.059 -20.917  1.00  0.00     0.045 C 
ATOM     18  C   UNL     1     -53.377 -36.845 -24.487  1.00  0.00    -0.006 A 
ATOM     19  C   UNL     1     -51.892 -35.912 -26.211  1.00  0.00     0.072 A 
ATOM     20  C   UNL     1     -54.482 -36.718 -25.386  1.00  0.00     0.008 A 
ATOM     21  C   UNL     1     -53.019 -35.616 -27.003  1.00  0.00     0.169 A 
ATOM     22  C   UNL     1     -54.300 -35.981 -26.576  1.00  0.00     0.162 A 
BRANCH  13  23
ATOM     23  O   UNL     1     -49.720 -36.058 -24.305  1.00  0.00    -0.507 OA
ATOM     24  H   UNL     1     -49.029 -36.586 -24.821  1.00  0.00     0.293 HD
ENDBRANCH  13  23
BRANCH  19  25
ATOM     25  C   UNL     1     -50.557 -35.689 -26.803  1.00  0.00     0.264 C 
ATOM     26  O   UNL     1     -50.254 -36.215 -27.907  1.00  0.00    -0.298 OA
ENDBRANCH  19  25
BRANCH  20  27
ATOM     27  C   UNL     1     -55.859 -37.327 -25.071  1.00  0.00     0.017 C 
ATOM     28  C   UNL     1     -55.781 -38.856 -25.015  1.00  0.00     0.012 C 
ATOM     29  C   UNL     1     -56.518 -36.755 -23.800  1.00  0.00     0.012 C 
ENDBRANCH  20  27
BRANCH  21  30
ATOM     30  O   UNL     1     -52.896 -34.982 -28.244  1.00  0.00    -0.504 OA
ATOM     31  H   UNL     1     -52.146 -35.159 -28.901  1.00  0.00     0.293 HD
ENDBRANCH  21  30
BRANCH  22  32
ATOM     32  O   UNL     1     -55.405 -35.615 -27.346  1.00  0.00    -0.504 OA
ATOM     33  H   UNL     1     -55.373 -35.529 -28.355  1.00  0.00     0.293 HD
ENDBRANCH  22  32
ENDBRANCH  11  12
BRANCH  10  34
ATOM     34  O   UNL     1     -50.688 -35.099 -20.730  1.00  0.00    -0.507 OA
ATOM     35  H   UNL     1     -51.152 -34.724 -21.547  1.00  0.00     0.293 HD
ENDBRANCH  10  34
BRANCH   9  36
ATOM     36  C   UNL     1     -45.852 -38.791 -19.040  1.00  0.00     0.017 C 
ATOM     37  C   UNL     1     -44.515 -38.519 -19.738  1.00  0.00     0.012 C 
ATOM     38  C   UNL     1     -45.637 -39.378 -17.631  1.00  0.00     0.012 C 
ENDBRANCH   9  36
BRANCH   6  39
ATOM     39  C   UNL     1     -49.606 -34.397 -18.394  1.00  0.00     0.264 C 
ATOM     40  O   UNL     1     -49.383 -33.160 -18.474  1.00  0.00    -0.298 OA
ENDBRANCH   6  39
BRANCH   8  41
ATOM     41  O   UNL     1     -45.180 -36.378 -17.631  1.00  0.00    -0.504 OA
ATOM     42  H   UNL     1     -45.033 -36.229 -16.642  1.00  0.00     0.293 HD
ENDBRANCH   8  41
BRANCH   7  43
ATOM     43  O   UNL     1     -47.181 -34.444 -17.044  1.00  0.00    -0.504 OA
ATOM     44  H   UNL     1     -46.294 -34.270 -16.594  1.00  0.00     0.293 HD
ENDBRANCH   7  43
TORSDOF 11
ENDMDL
MODEL 6
REMARK VINA RESULT:    -6.613      3.428      9.853
REMARK INTER + INTRA:         -10.705
REMARK INTER:                  -9.560
REMARK INTRA:                  -1.145
REMARK UNBOUND:                -1.000
REMARK SMILES Cc1cc2c(C(C)C)c(O)c(O)c(C=O)c2c(O)c1-c1c(C)cc2c(C(C)C)c(O)c(O)c(C=O)c2c1O
REMARK SMILES IDX 1 1 2 2 3 3 4 4 16 5 13 6 11 7 9 8 5 9 17 10 19 11 20 12
REMARK SMILES IDX 37 13 21 14 36 15 23 16 22 17 24 18 33 19 25 20 31 21 29 22
REMARK SMILES IDX 38 23 34 25 35 26 26 27 27 28 28 29 32 30 30 32 18 34 6 36
REMARK SMILES IDX 7 37 8 38 14 39 15 40 10 41 12 43
REMARK H PARENT 38 24 32 31 30 33 18 35 10 42 12 44
REMARK Flexibility Score: inf
ROOT
ATOM      1  C   UNL     1     -52.703 -38.217 -21.013  1.00  0.00     0.045 C 
ATOM      2  C   UNL     1     -52.463 -37.596 -22.368  1.00  0.00    -0.039 A 
ATOM      3  C   UNL     1     -53.537 -37.430 -23.242  1.00  0.00     0.013 A 
ATOM      4  C   UNL     1     -53.371 -36.893 -24.539  1.00  0.00    -0.006 A 
ATOM      5  C   UNL     1     -52.074 -36.445 -24.934  1.00  0.00     0.039 A 
ATOM      6  C   UNL     1     -51.907 -35.882 -26.234  1.00  0.00     0.072 A 
ATOM      7  C   UNL     1     -53.034 -35.607 -27.029  1.00  0.00     0.169 A 
ATOM      8  C   UNL     1     -54.320 -35.964 -26.589  1.00  0.00     0.162 A 
ATOM      9  C   UNL     1     -54.481 -36.753 -25.429  1.00  0.00     0.008 A 
ATOM     10  C   UNL     1     -50.998 -36.530 -24.001  1.00  0.00     0.132 A 
ATOM     11  C   UNL     1     -51.191 -37.130 -22.738  1.00  0.00     0.031 A 
ENDROOT
BRANCH  11  12
ATOM     12  C   UNL     1     -50.057 -37.239 -21.782  1.00  0.00     0.031 A 
ATOM     13  C   UNL     1     -49.887 -36.269 -20.772  1.00  0.00     0.132 A 
ATOM     14  C   UNL     1     -49.136 -38.291 -21.911  1.00  0.00    -0.039 A 
ATOM     15  C   UNL     1     -48.815 -36.379 -19.835  1.00  0.00     0.039 A 
ATOM     16  C   UNL     1     -48.040 -38.355 -21.048  1.00  0.00     0.013 A 
ATOM     17  C   UNL     1     -49.277 -39.325 -23.002  1.00  0.00     0.045 C 
ATOM     18  C   UNL     1     -47.874 -37.444 -19.982  1.00  0.00    -0.006 A 
ATOM     19  C   UNL     1     -48.621 -35.427 -18.791  1.00  0.00     0.072 A 
ATOM     20  C   UNL     1     -46.767 -37.552 -19.082  1.00  0.00     0.008 A 
ATOM     21  C   UNL     1     -47.425 -35.440 -18.045  1.00  0.00     0.169 A 
ATOM     22  C   UNL     1     -46.494 -36.470 -18.218  1.00  0.00     0.162 A 
BRANCH  13  23
ATOM     23  O   UNL     1     -50.758 -35.174 -20.724  1.00  0.00    -0.507 OA
ATOM     24  H   UNL     1     -50.898 -34.597 -19.905  1.00  0.00     0.293 HD
ENDBRANCH  13  23
BRANCH  19  25
ATOM     25  C   UNL     1     -49.651 -34.435 -18.421  1.00  0.00     0.264 C 
ATOM     26  O   UNL     1     -49.394 -33.203 -18.467  1.00  0.00    -0.298 OA
ENDBRANCH  19  25
BRANCH  20  27
ATOM     27  C   UNL     1     -45.854 -38.791 -19.063  1.00  0.00     0.017 C 
ATOM     28  C   UNL     1     -44.487 -38.471 -19.674  1.00  0.00     0.012 C 
ATOM     29  C   UNL     1     -45.708 -39.435 -17.671  1.00  0.00     0.012 C 
ENDBRANCH  20  27
BRANCH  21  30
ATOM     30  O   UNL     1     -47.144 -34.453 -17.094  1.00  0.00    -0.504 OA
ATOM     31  H   UNL     1     -47.384 -34.524 -16.113  1.00  0.00     0.293 HD
ENDBRANCH  21  30
BRANCH  22  32
ATOM     32  O   UNL     1     -45.288 -36.423 -17.518  1.00  0.00    -0.504 OA
ATOM     33  H   UNL     1     -44.896 -37.223 -17.036  1.00  0.00     0.293 HD
ENDBRANCH  22  32
ENDBRANCH  11  12
BRANCH  10  34
ATOM     34  O   UNL     1     -49.750 -35.976 -24.309  1.00  0.00    -0.507 OA
ATOM     35  H   UNL     1     -49.327 -36.009 -25.228  1.00  0.00     0.293 HD
ENDBRANCH  10  34
BRANCH   9  36
ATOM     36  C   UNL     1     -55.849 -37.393 -25.128  1.00  0.00     0.017 C 
ATOM     37  C   UNL     1     -55.744 -38.922 -25.101  1.00  0.00     0.012 C 
ATOM     38  C   UNL     1     -56.521 -36.857 -23.849  1.00  0.00     0.012 C 
ENDBRANCH   9  36
BRANCH   6  39
ATOM     39  C   UNL     1     -50.567 -35.650 -26.827  1.00  0.00     0.264 C 
ATOM     40  O   UNL     1     -50.207 -36.249 -27.874  1.00  0.00    -0.298 OA
ENDBRANCH   6  39
BRANCH   8  41
ATOM     41  O   UNL     1     -55.453 -35.533 -27.283  1.00  0.00    -0.504 OA
ATOM     42  H   UNL     1     -56.401 -35.661 -26.956  1.00  0.00     0.293 HD
ENDBRANCH   8  41
BRANCH   7  43
ATOM     43  O   UNL     1     -52.843 -35.021 -28.287  1.00  0.00    -0.504 OA
ATOM     44  H   UNL     1     -52.560 -35.531 -29.112  1.00  0.00     0.293 HD
ENDBRANCH   7  43
TORSDOF 11
ENDMDL
MODEL 7
REMARK VINA RESULT:    -6.520      2.449      3.861
REMARK INTER + INTRA:         -10.569
REMARK INTER:                  -9.835
REMARK INTRA:                  -0.734
REMARK UNBOUND:                -1.000
REMARK SMILES Cc1cc2c(C(C)C)c(O)c(O)c(C=O)c2c(O)c1-c1c(C)cc2c(C(C)C)c(O)c(O)c(C=O)c2c1O
REMARK SMILES IDX 1 1 2 2 3 3 4 4 16 5 13 6 11 7 9 8 5 9 17 10 19 11 20 12
REMARK SMILES IDX 37 13 21 14 36 15 23 16 22 17 24 18 33 19 25 20 31 21 29 22
REMARK SMILES IDX 38 23 34 25 35 26 26 27 27 28 28 29 32 30 30 32 18 34 6 36
REMARK SMILES IDX 7 37 8 38 14 39 15 40 10 41 12 43
REMARK H PARENT 38 24 32 31 30 33 18 35 10 42 12 44
REMARK Flexibility Score: inf
ROOT
ATOM      1  C   UNL     1     -44.758 -38.146 -22.610  1.00  0.00     0.045 C 
ATOM      2  C   UNL     1     -44.395 -39.169 -21.562  1.00  0.00    -0.039 A 
ATOM      3  C   UNL     1     -43.054 -39.505 -21.373  1.00  0.00     0.013 A 
ATOM      4  C   UNL     1     -42.652 -40.484 -20.436  1.00  0.00    -0.006 A 
ATOM      5  C   UNL     1     -43.647 -41.095 -19.614  1.00  0.00     0.039 A 
ATOM      6  C   UNL     1     -43.243 -42.068 -18.653  1.00  0.00     0.072 A 
ATOM      7  C   UNL     1     -41.876 -42.277 -18.399  1.00  0.00     0.169 A 
ATOM      8  C   UNL     1     -40.900 -41.596 -19.148  1.00  0.00     0.162 A 
ATOM      9  C   UNL     1     -41.275 -40.831 -20.274  1.00  0.00     0.008 A 
ATOM     10  C   UNL     1     -45.006 -40.679 -19.746  1.00  0.00     0.132 A 
ATOM     11  C   UNL     1     -45.375 -39.744 -20.737  1.00  0.00     0.031 A 
ENDROOT
BRANCH  11  12
ATOM     12  C   UNL     1     -46.797 -39.337 -20.886  1.00  0.00     0.031 A 
ATOM     13  C   UNL     1     -47.357 -38.384 -20.009  1.00  0.00     0.132 A 
ATOM     14  C   UNL     1     -47.592 -39.929 -21.881  1.00  0.00    -0.039 A 
ATOM     15  C   UNL     1     -48.715 -37.970 -20.159  1.00  0.00     0.039 A 
ATOM     16  C   UNL     1     -48.942 -39.587 -21.978  1.00  0.00     0.013 A 
ATOM     17  C   UNL     1     -47.026 -40.974 -22.813  1.00  0.00     0.045 C 
ATOM     18  C   UNL     1     -49.520 -38.589 -21.164  1.00  0.00    -0.006 A 
ATOM     19  C   UNL     1     -49.310 -36.998 -19.301  1.00  0.00     0.072 A 
ATOM     20  C   UNL     1     -50.895 -38.222 -21.308  1.00  0.00     0.008 A 
ATOM     21  C   UNL     1     -50.704 -36.797 -19.333  1.00  0.00     0.169 A 
ATOM     22  C   UNL     1     -51.489 -37.432 -20.301  1.00  0.00     0.162 A 
BRANCH  13  23
ATOM     23  O   UNL     1     -46.576 -37.880 -18.961  1.00  0.00    -0.507 OA
ATOM     24  H   UNL     1     -45.851 -38.407 -18.492  1.00  0.00     0.293 HD
ENDBRANCH  13  23
BRANCH  19  25
ATOM     25  C   UNL     1     -48.513 -36.147 -18.393  1.00  0.00     0.264 C 
ATOM     26  O   UNL     1     -48.762 -34.917 -18.293  1.00  0.00    -0.298 OA
ENDBRANCH  19  25
BRANCH  20  27
ATOM     27  C   UNL     1     -51.741 -38.696 -22.503  1.00  0.00     0.017 C 
ATOM     28  C   UNL     1     -51.293 -38.008 -23.796  1.00  0.00     0.012 C 
ATOM     29  C   UNL     1     -51.783 -40.227 -22.670  1.00  0.00     0.012 C 
ENDBRANCH  20  27
BRANCH  21  30
ATOM     30  O   UNL     1     -51.342 -35.940 -18.428  1.00  0.00    -0.504 OA
ATOM     31  H   UNL     1     -50.887 -35.167 -17.960  1.00  0.00     0.293 HD
ENDBRANCH  21  30
BRANCH  22  32
ATOM     32  O   UNL     1     -52.876 -37.270 -20.267  1.00  0.00    -0.504 OA
ATOM     33  H   UNL     1     -53.333 -36.380 -20.423  1.00  0.00     0.293 HD
ENDBRANCH  22  32
ENDBRANCH  11  12
BRANCH  10  34
ATOM     34  O   UNL     1     -45.981 -41.159 -18.865  1.00  0.00    -0.507 OA
ATOM     35  H   UNL     1     -46.831 -41.622 -19.158  1.00  0.00     0.293 HD
ENDBRANCH  10  34
BRANCH   9  36
ATOM     36  C   UNL     1     -40.195 -40.349 -21.260  1.00  0.00     0.017 C 
ATOM     37  C   UNL     1     -40.666 -40.507 -22.709  1.00  0.00     0.012 C 
ATOM     38  C   UNL     1     -39.696 -38.916 -20.988  1.00  0.00     0.012 C 
ENDBRANCH   9  36
BRANCH   6  39
ATOM     39  C   UNL     1     -44.218 -42.945 -17.960  1.00  0.00     0.264 C 
ATOM     40  O   UNL     1     -44.612 -44.021 -18.483  1.00  0.00    -0.298 OA
ENDBRANCH   6  39
BRANCH   8  41
ATOM     41  O   UNL     1     -39.553 -41.658 -18.782  1.00  0.00    -0.504 OA
ATOM     42  H   UNL     1     -38.962 -42.464 -18.930  1.00  0.00     0.293 HD
ENDBRANCH   8  41
BRANCH   7  43
ATOM     43  O   UNL     1     -41.507 -43.213 -17.424  1.00  0.00    -0.504 OA
ATOM     44  H   UNL     1     -41.369 -42.989 -16.449  1.00  0.00     0.293 HD
ENDBRANCH   7  43
TORSDOF 11
ENDMDL
MODEL 8
REMARK VINA RESULT:    -6.460      3.109      4.298
REMARK INTER + INTRA:         -10.481
REMARK INTER:                  -9.031
REMARK INTRA:                  -1.450
REMARK UNBOUND:                -1.000
REMARK SMILES Cc1cc2c(C(C)C)c(O)c(O)c(C=O)c2c(O)c1-c1c(C)cc2c(C(C)C)c(O)c(O)c(C=O)c2c1O
REMARK SMILES IDX 1 1 2 2 3 3 4 4 16 5 13 6 11 7 9 8 5 9 17 10 19 11 20 12
REMARK SMILES IDX 37 13 21 14 36 15 23 16 22 17 24 18 33 19 25 20 31 21 29 22
REMARK SMILES IDX 38 23 34 25 35 26 26 27 27 28 28 29 32 30 30 32 18 34 6 36
REMARK SMILES IDX 7 37 8 38 14 39 15 40 10 41 12 43
REMARK H PARENT 38 24 32 31 30 33 18 35 10 42 12 44
REMARK Flexibility Score: inf
ROOT
ATOM      1  C   UNL     1     -48.410 -40.998 -17.913  1.00  0.00     0.045 C 
ATOM      2  C   UNL     1     -47.043 -40.874 -18.542  1.00  0.00    -0.039 A 
ATOM      3  C   UNL     1     -45.918 -41.251 -17.808  1.00  0.00     0.013 A 
ATOM      4  C   UNL     1     -44.609 -41.121 -18.325  1.00  0.00    -0.006 A 
ATOM      5  C   UNL     1     -44.444 -40.654 -19.664  1.00  0.00     0.039 A 
ATOM      6  C   UNL     1     -43.126 -40.542 -20.196  1.00  0.00     0.072 A 
ATOM      7  C   UNL     1     -42.033 -41.059 -19.478  1.00  0.00     0.169 A 
ATOM      8  C   UNL     1     -42.219 -41.608 -18.197  1.00  0.00     0.162 A 
ATOM      9  C   UNL     1     -43.467 -41.491 -17.548  1.00  0.00     0.008 A 
ATOM     10  C   UNL     1     -45.603 -40.359 -20.442  1.00  0.00     0.132 A 
ATOM     11  C   UNL     1     -46.891 -40.442 -19.869  1.00  0.00     0.031 A 
ENDROOT
BRANCH  11  12
ATOM     12  C   UNL     1     -48.091 -40.107 -20.679  1.00  0.00     0.031 A 
ATOM     13  C   UNL     1     -48.588 -38.786 -20.697  1.00  0.00     0.132 A 
ATOM     14  C   UNL     1     -48.750 -41.116 -21.400  1.00  0.00    -0.039 A 
ATOM     15  C   UNL     1     -49.726 -38.451 -21.491  1.00  0.00     0.039 A 
ATOM     16  C   UNL     1     -49.911 -40.807 -22.112  1.00  0.00     0.013 A 
ATOM     17  C   UNL     1     -48.257 -42.543 -21.375  1.00  0.00     0.045 C 
ATOM     18  C   UNL     1     -50.399 -39.486 -22.209  1.00  0.00    -0.006 A 
ATOM     19  C   UNL     1     -50.248 -37.124 -21.545  1.00  0.00     0.072 A 
ATOM     20  C   UNL     1     -51.566 -39.183 -22.978  1.00  0.00     0.008 A 
ATOM     21  C   UNL     1     -51.500 -36.888 -22.145  1.00  0.00     0.169 A 
ATOM     22  C   UNL     1     -52.167 -37.916 -22.819  1.00  0.00     0.162 A 
BRANCH  13  23
ATOM     23  O   UNL     1     -47.977 -37.817 -19.892  1.00  0.00    -0.507 OA
ATOM     24  H   UNL     1     -48.482 -37.101 -19.386  1.00  0.00     0.293 HD
ENDBRANCH  13  23
BRANCH  19  25
ATOM     25  C   UNL     1     -49.502 -35.957 -21.028  1.00  0.00     0.264 C 
ATOM     26  O   UNL     1     -49.877 -35.378 -19.974  1.00  0.00    -0.298 OA
ENDBRANCH  19  25
BRANCH  20  27
ATOM     27  C   UNL     1     -52.197 -40.210 -23.936  1.00  0.00     0.017 C 
ATOM     28  C   UNL     1     -51.279 -40.477 -25.132  1.00  0.00     0.012 C 
ATOM     29  C   UNL     1     -52.619 -41.524 -23.251  1.00  0.00     0.012 C 
ENDBRANCH  20  27
BRANCH  21  30
ATOM     30  O   UNL     1     -52.101 -35.624 -22.115  1.00  0.00    -0.504 OA
ATOM     31  H   UNL     1     -52.709 -35.267 -22.840  1.00  0.00     0.293 HD
ENDBRANCH  21  30
BRANCH  22  32
ATOM     32  O   UNL     1     -53.438 -37.675 -23.345  1.00  0.00    -0.504 OA
ATOM     33  H   UNL     1     -53.601 -37.464 -24.322  1.00  0.00     0.293 HD
ENDBRANCH  22  32
ENDBRANCH  11  12
BRANCH  10  34
ATOM     34  O   UNL     1     -45.480 -40.030 -21.797  1.00  0.00    -0.507 OA
ATOM     35  H   UNL     1     -46.001 -39.290 -22.250  1.00  0.00     0.293 HD
ENDBRANCH  10  34
BRANCH   9  36
ATOM     36  C   UNL     1     -43.577 -41.813 -16.046  1.00  0.00     0.017 C 
ATOM     37  C   UNL     1     -43.482 -43.322 -15.801  1.00  0.00     0.012 C 
ATOM     38  C   UNL     1     -42.574 -41.040 -15.167  1.00  0.00     0.012 C 
ENDBRANCH   9  36
BRANCH   6  39
ATOM     39  C   UNL     1     -42.843 -39.814 -21.457  1.00  0.00     0.264 C 
ATOM     40  O   UNL     1     -42.507 -40.430 -22.503  1.00  0.00    -0.298 OA
ENDBRANCH   6  39
BRANCH   8  41
ATOM     41  O   UNL     1     -41.179 -42.286 -17.557  1.00  0.00    -0.504 OA
ATOM     42  H   UNL     1     -40.314 -41.852 -17.266  1.00  0.00     0.293 HD
ENDBRANCH   8  41
BRANCH   7  43
ATOM     43  O   UNL     1     -40.753 -40.968 -20.040  1.00  0.00    -0.504 OA
ATOM     44  H   UNL     1     -40.568 -40.627 -20.973  1.00  0.00     0.293 HD
ENDBRANCH   7  43
TORSDOF 11
ENDMDL
MODEL 9
REMARK VINA RESULT:    -6.415      3.096      9.254
REMARK INTER + INTRA:         -10.415
REMARK INTER:                  -8.950
REMARK INTRA:                  -1.464
REMARK UNBOUND:                -1.000
REMARK SMILES Cc1cc2c(C(C)C)c(O)c(O)c(C=O)c2c(O)c1-c1c(C)cc2c(C(C)C)c(O)c(O)c(C=O)c2c1O
REMARK SMILES IDX 1 1 2 2 3 3 4 4 16 5 13 6 11 7 9 8 5 9 17 10 19 11 20 12
REMARK SMILES IDX 37 13 21 14 36 15 23 16 22 17 24 18 33 19 25 20 31 21 29 22
REMARK SMILES IDX 38 23 34 25 35 26 26 27 27 28 28 29 32 30 30 32 18 34 6 36
REMARK SMILES IDX 7 37 8 38 14 39 15 40 10 41 12 43
REMARK H PARENT 38 24 32 31 30 33 18 35 10 42 12 44
REMARK Flexibility Score: inf
ROOT
ATOM      1  C   UNL     1     -48.178 -42.571 -21.534  1.00  0.00     0.045 C 
ATOM      2  C   UNL     1     -48.691 -41.151 -21.517  1.00  0.00    -0.039 A 
ATOM      3  C   UNL     1     -49.854 -40.837 -22.221  1.00  0.00     0.013 A 
ATOM      4  C   UNL     1     -50.362 -39.520 -22.277  1.00  0.00    -0.006 A 
ATOM      5  C   UNL     1     -49.699 -38.497 -21.533  1.00  0.00     0.039 A 
ATOM      6  C   UNL     1     -50.222 -37.171 -21.571  1.00  0.00     0.072 A 
ATOM      7  C   UNL     1     -51.467 -36.924 -22.176  1.00  0.00     0.169 A 
ATOM      8  C   UNL     1     -52.161 -37.961 -22.823  1.00  0.00     0.162 A 
ATOM      9  C   UNL     1     -51.542 -39.214 -23.024  1.00  0.00     0.008 A 
ATOM     10  C   UNL     1     -48.565 -38.842 -20.739  1.00  0.00     0.132 A 
ATOM     11  C   UNL     1     -48.051 -40.157 -20.759  1.00  0.00     0.031 A 
ENDROOT
BRANCH  11  12
ATOM     12  C   UNL     1     -46.852 -40.502 -19.950  1.00  0.00     0.031 A 
ATOM     13  C   UNL     1     -45.562 -40.383 -20.510  1.00  0.00     0.132 A 
ATOM     14  C   UNL     1     -47.009 -40.979 -18.639  1.00  0.00    -0.039 A 
ATOM     15  C   UNL     1     -44.404 -40.690 -19.732  1.00  0.00     0.039 A 
ATOM     16  C   UNL     1     -45.884 -41.358 -17.904  1.00  0.00     0.013 A 
ATOM     17  C   UNL     1     -48.380 -41.145 -18.027  1.00  0.00     0.045 C 
ATOM     18  C   UNL     1     -44.574 -41.189 -18.404  1.00  0.00    -0.006 A 
ATOM     19  C   UNL     1     -43.084 -40.567 -20.258  1.00  0.00     0.072 A 
ATOM     20  C   UNL     1     -43.432 -41.543 -17.619  1.00  0.00     0.008 A 
ATOM     21  C   UNL     1     -41.994 -41.102 -19.544  1.00  0.00     0.169 A 
ATOM     22  C   UNL     1     -42.175 -41.618 -18.257  1.00  0.00     0.162 A 
BRANCH  13  23
ATOM     23  O   UNL     1     -45.433 -40.003 -21.850  1.00  0.00    -0.507 OA
ATOM     24  H   UNL     1     -45.052 -40.598 -22.574  1.00  0.00     0.293 HD
ENDBRANCH  13  23
BRANCH  19  25
ATOM     25  C   UNL     1     -42.797 -39.855 -21.521  1.00  0.00     0.264 C 
ATOM     26  O   UNL     1     -42.453 -40.497 -22.549  1.00  0.00    -0.298 OA
ENDBRANCH  19  25
BRANCH  20  27
ATOM     27  C   UNL     1     -43.547 -41.877 -16.122  1.00  0.00     0.017 C 
ATOM     28  C   UNL     1     -43.432 -43.387 -15.889  1.00  0.00     0.012 C 
ATOM     29  C   UNL     1     -42.561 -41.098 -15.231  1.00  0.00     0.012 C 
ENDBRANCH  20  27
BRANCH  21  30
ATOM     30  O   UNL     1     -40.700 -41.108 -20.079  1.00  0.00    -0.504 OA
ATOM     31  H   UNL     1     -40.484 -41.325 -21.043  1.00  0.00     0.293 HD
ENDBRANCH  21  30
BRANCH  22  32
ATOM     32  O   UNL     1     -41.092 -42.204 -17.599  1.00  0.00    -0.504 OA
ATOM     33  H   UNL     1     -40.152 -41.828 -17.636  1.00  0.00     0.293 HD
ENDBRANCH  22  32
ENDBRANCH  11  12
BRANCH  10  34
ATOM     34  O   UNL     1     -47.977 -37.893 -19.895  1.00  0.00    -0.507 OA
ATOM     35  H   UNL     1     -47.042 -37.526 -20.019  1.00  0.00     0.293 HD
ENDBRANCH  10  34
BRANCH   9  36
ATOM     36  C   UNL     1     -52.177 -40.230 -23.991  1.00  0.00     0.017 C 
ATOM     37  C   UNL     1     -51.254 -40.502 -25.183  1.00  0.00     0.012 C 
ATOM     38  C   UNL     1     -52.618 -41.543 -23.315  1.00  0.00     0.012 C 
ENDBRANCH   9  36
BRANCH   6  39
ATOM     39  C   UNL     1     -49.455 -36.006 -21.065  1.00  0.00     0.264 C 
ATOM     40  O   UNL     1     -49.808 -35.398 -20.019  1.00  0.00    -0.298 OA
ENDBRANCH   6  39
BRANCH   8  41
ATOM     41  O   UNL     1     -53.473 -37.770 -23.264  1.00  0.00    -0.504 OA
ATOM     42  H   UNL     1     -54.104 -37.078 -22.882  1.00  0.00     0.293 HD
ENDBRANCH   8  41
BRANCH   7  43
ATOM     43  O   UNL     1     -51.973 -35.618 -22.166  1.00  0.00    -0.504 OA
ATOM     44  H   UNL     1     -51.398 -34.788 -22.156  1.00  0.00     0.293 HD
ENDBRANCH   7  43
TORSDOF 11
ENDMDL
