MODEL 1
REMARK VINA RESULT:    -5.241      0.000      0.000
REMARK INTER + INTRA:          -5.635
REMARK INTER:                  -5.548
REMARK INTRA:                  -0.088
REMARK UNBOUND:                -0.088
REMARK SMILES C=C(C)[C@@H]1CC=C(C)C(=O)C1
REMARK SMILES IDX 8 1 7 2 6 3 5 4 4 5 11 6 9 7 10 8 2 9 1 10 3 11
REMARK H PARENT
REMARK Flexibility Score: inf
ROOT
ATOM      1  C   UNL     1     258.447 261.441 244.665  1.00  0.00     0.048 C 
ATOM      2  C   UNL     1     257.136 261.023 245.272  1.00  0.00    -0.012 C 
ATOM      3  C   UNL     1     256.117 260.655 244.477  1.00  0.00    -0.019 C 
ATOM      4  C   UNL     1     254.791 260.210 245.032  1.00  0.00     0.036 C 
ATOM      5  C   UNL     1     254.467 260.942 246.348  1.00  0.00     0.025 C 
ATOM      6  C   UNL     1     255.613 260.757 247.359  1.00  0.00     0.089 C 
ATOM      7  C   UNL     1     256.931 261.135 246.738  1.00  0.00     0.158 C 
ATOM      8  O   UNL     1     257.874 261.514 247.483  1.00  0.00    -0.295 OA
ENDROOT
BRANCH   5   9
ATOM      9  C   UNL     1     253.135 260.485 246.927  1.00  0.00    -0.077 C 
ATOM     10  C   UNL     1     252.178 261.383 247.208  1.00  0.00     0.008 C 
ATOM     11  C   UNL     1     252.857 259.027 247.202  1.00  0.00     0.039 C 
ENDBRANCH   5   9
TORSDOF 1
ENDMDL
MODEL 2
REMARK VINA RESULT:    -5.240      2.436      5.006
REMARK INTER + INTRA:          -5.633
REMARK INTER:                  -5.546
REMARK INTRA:                  -0.087
REMARK UNBOUND:                -0.088
REMARK SMILES C=C(C)[C@@H]1CC=C(C)C(=O)C1
REMARK SMILES IDX 8 1 7 2 6 3 5 4 4 5 11 6 9 7 10 8 2 9 1 10 3 11
REMARK H PARENT
REMARK Flexibility Score: inf
ROOT
ATOM      1  C   UNL     1     250.120 259.085 246.901  1.00  0.00     0.048 C 
ATOM      2  C   UNL     1     251.566 259.482 247.012  1.00  0.00    -0.012 C 
ATOM      3  C   UNL     1     251.893 260.765 247.237  1.00  0.00    -0.019 C 
ATOM      4  C   UNL     1     253.323 261.214 247.377  1.00  0.00     0.036 C 
ATOM      5  C   UNL     1     254.258 260.362 246.497  1.00  0.00     0.025 C 
ATOM      6  C   UNL     1     254.082 258.867 246.821  1.00  0.00     0.089 C 
ATOM      7  C   UNL     1     252.630 258.480 246.752  1.00  0.00     0.158 C 
ATOM      8  O   UNL     1     252.326 257.281 246.505  1.00  0.00    -0.295 OA
ENDROOT
BRANCH   5   9
ATOM      9  C   UNL     1     255.710 260.795 246.645  1.00  0.00    -0.077 C 
ATOM     10  C   UNL     1     256.391 261.246 245.580  1.00  0.00     0.008 C 
ATOM     11  C   UNL     1     256.419 260.729 247.977  1.00  0.00     0.039 C 
ENDBRANCH   5   9
TORSDOF 1
ENDMDL
MODEL 3
REMARK VINA RESULT:    -5.220      1.299      2.251
REMARK INTER + INTRA:          -5.612
REMARK INTER:                  -5.514
REMARK INTRA:                  -0.098
REMARK UNBOUND:                -0.088
REMARK SMILES C=C(C)[C@@H]1CC=C(C)C(=O)C1
REMARK SMILES IDX 8 1 7 2 6 3 5 4 4 5 11 6 9 7 10 8 2 9 1 10 3 11
REMARK H PARENT
REMARK Flexibility Score: inf
ROOT
ATOM      1  C   UNL     1     260.389 262.277 246.484  1.00  0.00     0.048 C 
ATOM      2  C   UNL     1     259.007 261.699 246.347  1.00  0.00    -0.012 C 
ATOM      3  C   UNL     1     258.445 261.587 245.132  1.00  0.00    -0.019 C 
ATOM      4  C   UNL     1     257.073 260.999 244.937  1.00  0.00     0.036 C 
ATOM      5  C   UNL     1     256.162 261.307 246.140  1.00  0.00     0.025 C 
ATOM      6  C   UNL     1     256.822 260.827 247.447  1.00  0.00     0.089 C 
ATOM      7  C   UNL     1     258.220 261.370 247.562  1.00  0.00     0.158 C 
ATOM      8  O   UNL     1     258.731 261.508 248.706  1.00  0.00    -0.295 OA
ENDROOT
BRANCH   5   9
ATOM      9  C   UNL     1     254.778 260.700 245.961  1.00  0.00    -0.077 C 
ATOM     10  C   UNL     1     254.519 259.910 244.907  1.00  0.00     0.008 C 
ATOM     11  C   UNL     1     253.668 260.969 246.949  1.00  0.00     0.039 C 
ENDBRANCH   5   9
TORSDOF 1
ENDMDL
MODEL 4
REMARK VINA RESULT:    -5.150      1.339      2.101
REMARK INTER + INTRA:          -5.539
REMARK INTER:                  -5.443
REMARK INTRA:                  -0.096
REMARK UNBOUND:                -0.088
REMARK SMILES C=C(C)[C@@H]1CC=C(C)C(=O)C1
REMARK SMILES IDX 8 1 7 2 6 3 5 4 4 5 11 6 9 7 10 8 2 9 1 10 3 11
REMARK H PARENT
REMARK Flexibility Score: inf
ROOT
ATOM      1  C   UNL     1     259.111 261.360 247.000  1.00  0.00     0.048 C 
ATOM      2  C   UNL     1     257.613 261.219 247.006  1.00  0.00    -0.012 C 
ATOM      3  C   UNL     1     256.968 260.974 248.160  1.00  0.00    -0.019 C 
ATOM      4  C   UNL     1     255.470 260.844 248.226  1.00  0.00     0.036 C 
ATOM      5  C   UNL     1     254.910 260.231 246.928  1.00  0.00     0.025 C 
ATOM      6  C   UNL     1     255.371 261.050 245.708  1.00  0.00     0.089 C 
ATOM      7  C   UNL     1     256.864 261.228 245.725  1.00  0.00     0.158 C 
ATOM      8  O   UNL     1     257.471 261.421 244.637  1.00  0.00    -0.295 OA
ENDROOT
BRANCH   5   9
ATOM      9  C   UNL     1     253.393 260.112 246.977  1.00  0.00    -0.077 C 
ATOM     10  C   UNL     1     252.638 261.201 247.188  1.00  0.00     0.008 C 
ATOM     11  C   UNL     1     252.703 258.781 246.796  1.00  0.00     0.039 C 
ENDBRANCH   5   9
TORSDOF 1
ENDMDL
MODEL 5
REMARK VINA RESULT:    -5.122      2.730      5.280
REMARK INTER + INTRA:          -5.509
REMARK INTER:                  -5.422
REMARK INTRA:                  -0.087
REMARK UNBOUND:                -0.088
REMARK SMILES C=C(C)[C@@H]1CC=C(C)C(=O)C1
REMARK SMILES IDX 8 1 7 2 6 3 5 4 4 5 11 6 9 7 10 8 2 9 1 10 3 11
REMARK H PARENT
REMARK Flexibility Score: inf
ROOT
ATOM      1  C   UNL     1     249.428 259.158 246.971  1.00  0.00     0.048 C 
ATOM      2  C   UNL     1     250.886 259.526 246.971  1.00  0.00    -0.012 C 
ATOM      3  C   UNL     1     251.820 258.563 247.035  1.00  0.00    -0.019 C 
ATOM      4  C   UNL     1     253.293 258.875 247.020  1.00  0.00     0.036 C 
ATOM      5  C   UNL     1     253.580 260.222 247.709  1.00  0.00     0.025 C 
ATOM      6  C   UNL     1     252.740 261.342 247.066  1.00  0.00     0.089 C 
ATOM      7  C   UNL     1     251.287 260.954 247.027  1.00  0.00     0.158 C 
ATOM      8  O   UNL     1     250.411 261.861 247.003  1.00  0.00    -0.295 OA
ENDROOT
BRANCH   5   9
ATOM      9  C   UNL     1     255.065 260.556 247.682  1.00  0.00    -0.077 C 
ATOM     10  C   UNL     1     255.784 260.526 248.816  1.00  0.00     0.008 C 
ATOM     11  C   UNL     1     255.764 260.930 246.397  1.00  0.00     0.039 C 
ENDBRANCH   5   9
TORSDOF 1
ENDMDL
MODEL 6
REMARK VINA RESULT:    -5.122      4.183      5.594
REMARK INTER + INTRA:          -5.508
REMARK INTER:                  -5.413
REMARK INTRA:                  -0.095
REMARK UNBOUND:                -0.088
REMARK SMILES C=C(C)[C@@H]1CC=C(C)C(=O)C1
REMARK SMILES IDX 8 1 7 2 6 3 5 4 4 5 11 6 9 7 10 8 2 9 1 10 3 11
REMARK H PARENT
REMARK Flexibility Score: inf
ROOT
ATOM      1  C   UNL     1     249.984 262.599 246.607  1.00  0.00     0.048 C 
ATOM      2  C   UNL     1     250.846 261.401 246.899  1.00  0.00    -0.012 C 
ATOM      3  C   UNL     1     252.169 261.556 247.078  1.00  0.00    -0.019 C 
ATOM      4  C   UNL     1     253.074 260.395 247.392  1.00  0.00     0.036 C 
ATOM      5  C   UNL     1     252.571 259.103 246.720  1.00  0.00     0.025 C 
ATOM      6  C   UNL     1     251.110 258.827 247.119  1.00  0.00     0.089 C 
ATOM      7  C   UNL     1     250.256 260.040 246.867  1.00  0.00     0.158 C 
ATOM      8  O   UNL     1     249.021 259.889 246.663  1.00  0.00    -0.295 OA
ENDROOT
BRANCH   5   9
ATOM      9  C   UNL     1     253.470 257.919 247.046  1.00  0.00    -0.077 C 
ATOM     10  C   UNL     1     253.215 256.712 246.515  1.00  0.00     0.008 C 
ATOM     11  C   UNL     1     254.658 258.063 247.967  1.00  0.00     0.039 C 
ENDBRANCH   5   9
TORSDOF 1
ENDMDL
MODEL 7
REMARK VINA RESULT:    -5.100      1.622      2.248
REMARK INTER + INTRA:          -5.486
REMARK INTER:                  -5.390
REMARK INTRA:                  -0.096
REMARK UNBOUND:                -0.088
REMARK SMILES C=C(C)[C@@H]1CC=C(C)C(=O)C1
REMARK SMILES IDX 8 1 7 2 6 3 5 4 4 5 11 6 9 7 10 8 2 9 1 10 3 11
REMARK H PARENT
REMARK Flexibility Score: inf
ROOT
ATOM      1  C   UNL     1     258.276 261.255 247.906  1.00  0.00     0.048 C 
ATOM      2  C   UNL     1     256.823 260.929 247.697  1.00  0.00    -0.012 C 
ATOM      3  C   UNL     1     256.299 260.969 246.461  1.00  0.00    -0.019 C 
ATOM      4  C   UNL     1     254.856 260.633 246.192  1.00  0.00     0.036 C 
ATOM      5  C   UNL     1     253.964 261.037 247.381  1.00  0.00     0.025 C 
ATOM      6  C   UNL     1     254.481 260.393 248.681  1.00  0.00     0.089 C 
ATOM      7  C   UNL     1     255.945 260.684 248.868  1.00  0.00     0.158 C 
ATOM      8  O   UNL     1     256.427 260.680 250.033  1.00  0.00    -0.295 OA
ENDROOT
BRANCH   5   9
ATOM      9  C   UNL     1     252.505 260.684 247.128  1.00  0.00    -0.077 C 
ATOM     10  C   UNL     1     252.135 259.401 246.992  1.00  0.00     0.008 C 
ATOM     11  C   UNL     1     251.445 261.754 247.020  1.00  0.00     0.039 C 
ENDBRANCH   5   9
TORSDOF 1
ENDMDL
MODEL 8
REMARK VINA RESULT:    -5.052      2.341      3.499
REMARK INTER + INTRA:          -5.435
REMARK INTER:                  -5.344
REMARK INTRA:                  -0.091
REMARK UNBOUND:                -0.088
REMARK SMILES C=C(C)[C@@H]1CC=C(C)C(=O)C1
REMARK SMILES IDX 8 1 7 2 6 3 5 4 4 5 11 6 9 7 10 8 2 9 1 10 3 11
REMARK H PARENT
REMARK Flexibility Score: inf
ROOT
ATOM      1  C   UNL     1     257.493 261.267 244.636  1.00  0.00     0.048 C 
ATOM      2  C   UNL     1     257.018 261.233 246.062  1.00  0.00    -0.012 C 
ATOM      3  C   UNL     1     257.892 261.426 247.064  1.00  0.00    -0.019 C 
ATOM      4  C   UNL     1     257.467 261.421 248.508  1.00  0.00     0.036 C 
ATOM      5  C   UNL     1     256.292 260.450 248.736  1.00  0.00     0.025 C 
ATOM      6  C   UNL     1     255.128 260.787 247.786  1.00  0.00     0.089 C 
ATOM      7  C   UNL     1     255.612 260.864 246.364  1.00  0.00     0.158 C 
ATOM      8  O   UNL     1     254.798 260.647 245.427  1.00  0.00    -0.295 OA
ENDROOT
BRANCH   5   9
ATOM      9  C   UNL     1     255.842 260.452 250.190  1.00  0.00    -0.077 C 
ATOM     10  C   UNL     1     255.234 259.373 250.709  1.00  0.00     0.008 C 
ATOM     11  C   UNL     1     256.062 261.652 251.080  1.00  0.00     0.039 C 
ENDBRANCH   5   9
TORSDOF 1
ENDMDL
MODEL 9
REMARK VINA RESULT:    -5.052      3.923      5.013
REMARK INTER + INTRA:          -5.435
REMARK INTER:                  -5.337
REMARK INTRA:                  -0.098
REMARK UNBOUND:                -0.088
REMARK SMILES C=C(C)[C@@H]1CC=C(C)C(=O)C1
REMARK SMILES IDX 8 1 7 2 6 3 5 4 4 5 11 6 9 7 10 8 2 9 1 10 3 11
REMARK H PARENT
REMARK Flexibility Score: inf
ROOT
ATOM      1  C   UNL     1     258.624 260.808 247.663  1.00  0.00     0.048 C 
ATOM      2  C   UNL     1     257.718 261.243 248.782  1.00  0.00    -0.012 C 
ATOM      3  C   UNL     1     258.181 262.064 249.738  1.00  0.00    -0.019 C 
ATOM      4  C   UNL     1     257.312 262.546 250.869  1.00  0.00     0.036 C 
ATOM      5  C   UNL     1     256.270 261.480 251.259  1.00  0.00     0.025 C 
ATOM      6  C   UNL     1     255.446 261.062 250.027  1.00  0.00     0.089 C 
ATOM      7  C   UNL     1     256.354 260.667 248.894  1.00  0.00     0.158 C 
ATOM      8  O   UNL     1     255.928 259.868 248.017  1.00  0.00    -0.295 OA
ENDROOT
BRANCH   5   9
ATOM      9  C   UNL     1     255.373 261.965 252.389  1.00  0.00    -0.077 C 
ATOM     10  C   UNL     1     254.121 262.373 252.129  1.00  0.00     0.008 C 
ATOM     11  C   UNL     1     255.861 262.003 253.818  1.00  0.00     0.039 C 
ENDBRANCH   5   9
TORSDOF 1
ENDMDL
