MODEL 1
REMARK VINA RESULT:    -4.277      0.000      0.000
REMARK INTER + INTRA:          -6.105
REMARK INTER:                  -5.277
REMARK INTRA:                  -0.828
REMARK UNBOUND:                -0.828
REMARK SMILES CCCCCc1ccccc1
REMARK SMILES IDX 4 1 3 2 2 3 1 4 5 5 6 6 7 7 11 8 8 9 10 10 9 11
REMARK H PARENT
REMARK Flexibility Score: inf
ROOT
ATOM      1  C   UNL     1      61.224  57.426 245.434  1.00  0.00     0.005 C 
ENDROOT
BRANCH   1   2
ATOM      2  C   UNL     1      60.352  56.566 246.361  1.00  0.00     0.000 C 
BRANCH   2   3
ATOM      3  C   UNL     1      60.295  57.115 247.795  1.00  0.00    -0.003 C 
ATOM      4  C   UNL     1      58.877  57.480 248.233  1.00  0.00     0.004 C 
ENDBRANCH   2   3
ENDBRANCH   1   2
BRANCH   1   5
ATOM      5  C   UNL     1      60.371  58.124 244.369  1.00  0.00     0.035 C 
BRANCH   5   6
ATOM      6  C   UNL     1      59.487  59.167 244.998  1.00  0.00    -0.048 A 
ATOM      7  C   UNL     1      58.090  59.022 244.972  1.00  0.00     0.004 A 
ATOM      8  C   UNL     1      60.048  60.323 245.566  1.00  0.00     0.004 A 
ATOM      9  C   UNL     1      57.269  60.007 245.528  1.00  0.00     0.000 A 
ATOM     10  C   UNL     1      59.224  61.306 246.122  1.00  0.00     0.000 A 
ATOM     11  C   UNL     1      57.835  61.148 246.104  1.00  0.00     0.000 A 
ENDBRANCH   5   6
ENDBRANCH   1   5
TORSDOF 4
ENDMDL
MODEL 2
REMARK VINA RESULT:    -4.024      3.593      6.175
REMARK INTER + INTRA:          -5.793
REMARK INTER:                  -4.907
REMARK INTRA:                  -0.886
REMARK UNBOUND:                -0.828
REMARK SMILES CCCCCc1ccccc1
REMARK SMILES IDX 4 1 3 2 2 3 1 4 5 5 6 6 7 7 11 8 8 9 10 10 9 11
REMARK H PARENT
REMARK Flexibility Score: inf
ROOT
ATOM      1  C   UNL     1      52.563  60.838 245.083  1.00  0.00     0.005 C 
ENDROOT
BRANCH   1   2
ATOM      2  C   UNL     1      53.246  61.884 245.976  1.00  0.00     0.000 C 
BRANCH   2   3
ATOM      3  C   UNL     1      53.237  61.489 247.462  1.00  0.00    -0.003 C 
ATOM      4  C   UNL     1      54.643  61.332 248.040  1.00  0.00     0.004 C 
ENDBRANCH   2   3
ENDBRANCH   1   2
BRANCH   1   5
ATOM      5  C   UNL     1      53.578  60.163 244.154  1.00  0.00     0.035 C 
BRANCH   5   6
ATOM      6  C   UNL     1      54.512  59.282 244.940  1.00  0.00    -0.048 A 
ATOM      7  C   UNL     1      54.013  58.179 245.652  1.00  0.00     0.004 A 
ATOM      8  C   UNL     1      55.880  59.590 245.017  1.00  0.00     0.004 A 
ATOM      9  C   UNL     1      54.877  57.380 246.408  1.00  0.00     0.000 A 
ATOM     10  C   UNL     1      56.741  58.789 245.774  1.00  0.00     0.000 A 
ATOM     11  C   UNL     1      56.240  57.683 246.468  1.00  0.00     0.000 A 
ENDBRANCH   5   6
ENDBRANCH   1   5
TORSDOF 4
ENDMDL
MODEL 3
REMARK VINA RESULT:    -4.022      1.037      3.978
REMARK INTER + INTRA:          -5.791
REMARK INTER:                  -4.942
REMARK INTRA:                  -0.849
REMARK UNBOUND:                -0.828
REMARK SMILES CCCCCc1ccccc1
REMARK SMILES IDX 4 1 3 2 2 3 1 4 5 5 6 6 7 7 11 8 8 9 10 10 9 11
REMARK H PARENT
REMARK Flexibility Score: inf
ROOT
ATOM      1  C   UNL     1      57.522  60.600 246.220  1.00  0.00     0.005 C 
ENDROOT
BRANCH   1   2
ATOM      2  C   UNL     1      58.759  61.478 245.984  1.00  0.00     0.000 C 
BRANCH   2   3
ATOM      3  C   UNL     1      59.658  61.577 247.227  1.00  0.00    -0.003 C 
ATOM      4  C   UNL     1      60.970  60.809 247.070  1.00  0.00     0.004 C 
ENDBRANCH   2   3
ENDBRANCH   1   2
BRANCH   1   5
ATOM      5  C   UNL     1      57.466  59.447 245.211  1.00  0.00     0.035 C 
BRANCH   5   6
ATOM      6  C   UNL     1      58.616  58.500 245.424  1.00  0.00    -0.048 A 
ATOM      7  C   UNL     1      58.666  57.694 246.574  1.00  0.00     0.004 A 
ATOM      8  C   UNL     1      59.678  58.455 244.505  1.00  0.00     0.004 A 
ATOM      9  C   UNL     1      59.751  56.839 246.787  1.00  0.00     0.000 A 
ATOM     10  C   UNL     1      60.761  57.598 244.722  1.00  0.00     0.000 A 
ATOM     11  C   UNL     1      60.797  56.789 245.862  1.00  0.00     0.000 A 
ENDBRANCH   5   6
ENDBRANCH   1   5
TORSDOF 4
ENDMDL
MODEL 4
REMARK VINA RESULT:    -4.014      1.082      4.215
REMARK INTER + INTRA:          -5.782
REMARK INTER:                  -4.868
REMARK INTRA:                  -0.913
REMARK UNBOUND:                -0.828
REMARK SMILES CCCCCc1ccccc1
REMARK SMILES IDX 4 1 3 2 2 3 1 4 5 5 6 6 7 7 11 8 8 9 10 10 9 11
REMARK H PARENT
REMARK Flexibility Score: inf
ROOT
ATOM      1  C   UNL     1      59.849  61.267 247.299  1.00  0.00     0.005 C 
ENDROOT
BRANCH   1   2
ATOM      2  C   UNL     1      59.061  61.394 245.988  1.00  0.00     0.000 C 
BRANCH   2   3
ATOM      3  C   UNL     1      57.696  60.688 246.050  1.00  0.00    -0.003 C 
ATOM      4  C   UNL     1      57.669  59.385 245.251  1.00  0.00     0.004 C 
ENDBRANCH   2   3
ENDBRANCH   1   2
BRANCH   1   5
ATOM      5  C   UNL     1      61.186  60.554 247.069  1.00  0.00     0.035 C 
BRANCH   5   6
ATOM      6  C   UNL     1      60.965  59.091 246.788  1.00  0.00    -0.048 A 
ATOM      7  C   UNL     1      61.352  58.540 245.555  1.00  0.00     0.004 A 
ATOM      8  C   UNL     1      60.317  58.278 247.733  1.00  0.00     0.004 A 
ATOM      9  C   UNL     1      61.116  57.190 245.283  1.00  0.00     0.000 A 
ATOM     10  C   UNL     1      60.083  56.928 247.457  1.00  0.00     0.000 A 
ATOM     11  C   UNL     1      60.484  56.382 246.233  1.00  0.00     0.000 A 
ENDBRANCH   5   6
ENDBRANCH   1   5
TORSDOF 4
ENDMDL
MODEL 5
REMARK VINA RESULT:    -3.985      3.707      5.330
REMARK INTER + INTRA:          -5.745
REMARK INTER:                  -4.872
REMARK INTRA:                  -0.873
REMARK UNBOUND:                -0.828
REMARK SMILES CCCCCc1ccccc1
REMARK SMILES IDX 4 1 3 2 2 3 1 4 5 5 6 6 7 7 11 8 8 9 10 10 9 11
REMARK H PARENT
REMARK Flexibility Score: inf
ROOT
ATOM      1  C   UNL     1      56.271  58.486 246.486  1.00  0.00     0.005 C 
ENDROOT
BRANCH   1   2
ATOM      2  C   UNL     1      55.218  57.381 246.321  1.00  0.00     0.000 C 
BRANCH   2   3
ATOM      3  C   UNL     1      54.177  57.382 247.452  1.00  0.00    -0.003 C 
ATOM      4  C   UNL     1      52.833  57.968 247.017  1.00  0.00     0.004 C 
ENDBRANCH   2   3
ENDBRANCH   1   2
BRANCH   1   5
ATOM      5  C   UNL     1      56.310  59.396 245.254  1.00  0.00     0.035 C 
BRANCH   5   6
ATOM      6  C   UNL     1      55.061  60.234 245.175  1.00  0.00    -0.048 A 
ATOM      7  C   UNL     1      54.800  61.209 246.151  1.00  0.00     0.004 A 
ATOM      8  C   UNL     1      54.120  60.009 244.158  1.00  0.00     0.004 A 
ATOM      9  C   UNL     1      53.625  61.964 246.095  1.00  0.00     0.000 A 
ATOM     10  C   UNL     1      52.946  60.766 244.104  1.00  0.00     0.000 A 
ATOM     11  C   UNL     1      52.698  61.745 245.072  1.00  0.00     0.000 A 
ENDBRANCH   5   6
ENDBRANCH   1   5
TORSDOF 4
ENDMDL
MODEL 6
REMARK VINA RESULT:    -3.981      5.918      8.220
REMARK INTER + INTRA:          -5.740
REMARK INTER:                  -5.088
REMARK INTRA:                  -0.652
REMARK UNBOUND:                -0.828
REMARK SMILES CCCCCc1ccccc1
REMARK SMILES IDX 4 1 3 2 2 3 1 4 5 5 6 6 7 7 11 8 8 9 10 10 9 11
REMARK H PARENT
REMARK Flexibility Score: inf
ROOT
ATOM      1  C   UNL     1      53.070  61.996 245.665  1.00  0.00     0.005 C 
ENDROOT
BRANCH   1   2
ATOM      2  C   UNL     1      54.519  61.611 245.994  1.00  0.00     0.000 C 
BRANCH   2   3
ATOM      3  C   UNL     1      54.684  61.115 247.440  1.00  0.00    -0.003 C 
ATOM      4  C   UNL     1      53.546  61.570 248.354  1.00  0.00     0.004 C 
ENDBRANCH   2   3
ENDBRANCH   1   2
BRANCH   1   5
ATOM      5  C   UNL     1      52.403  60.927 244.792  1.00  0.00     0.035 C 
BRANCH   5   6
ATOM      6  C   UNL     1      51.424  60.119 245.601  1.00  0.00    -0.048 A 
ATOM      7  C   UNL     1      51.855  58.982 246.304  1.00  0.00     0.004 A 
ATOM      8  C   UNL     1      50.061  60.460 245.612  1.00  0.00     0.004 A 
ATOM      9  C   UNL     1      50.939  58.213 247.029  1.00  0.00     0.000 A 
ATOM     10  C   UNL     1      49.149  59.689 246.338  1.00  0.00     0.000 A 
ATOM     11  C   UNL     1      49.587  58.566 247.048  1.00  0.00     0.000 A 
ENDBRANCH   5   6
ENDBRANCH   1   5
TORSDOF 4
ENDMDL
MODEL 7
REMARK VINA RESULT:    -3.927      2.940      4.403
REMARK INTER + INTRA:          -5.674
REMARK INTER:                  -5.392
REMARK INTRA:                  -0.282
REMARK UNBOUND:                -0.828
REMARK SMILES CCCCCc1ccccc1
REMARK SMILES IDX 4 1 3 2 2 3 1 4 5 5 6 6 7 7 11 8 8 9 10 10 9 11
REMARK H PARENT
REMARK Flexibility Score: inf
ROOT
ATOM      1  C   UNL     1      57.256  59.361 245.247  1.00  0.00     0.005 C 
ENDROOT
BRANCH   1   2
ATOM      2  C   UNL     1      57.537  58.142 246.136  1.00  0.00     0.000 C 
BRANCH   2   3
ATOM      3  C   UNL     1      58.984  57.638 246.007  1.00  0.00    -0.003 C 
ATOM      4  C   UNL     1      59.543  57.104 247.326  1.00  0.00     0.004 C 
ENDBRANCH   2   3
ENDBRANCH   1   2
BRANCH   1   5
ATOM      5  C   UNL     1      56.586  60.482 246.048  1.00  0.00     0.035 C 
BRANCH   5   6
ATOM      6  C   UNL     1      55.178  60.710 245.565  1.00  0.00    -0.048 A 
ATOM      7  C   UNL     1      54.662  59.949 244.504  1.00  0.00     0.004 A 
ATOM      8  C   UNL     1      54.389  61.724 246.133  1.00  0.00     0.004 A 
ATOM      9  C   UNL     1      53.366  60.183 244.035  1.00  0.00     0.000 A 
ATOM     10  C   UNL     1      53.093  61.955 245.661  1.00  0.00     0.000 A 
ATOM     11  C   UNL     1      52.581  61.184 244.613  1.00  0.00     0.000 A 
ENDBRANCH   5   6
ENDBRANCH   1   5
TORSDOF 4
ENDMDL
MODEL 8
REMARK VINA RESULT:    -3.912      4.752      6.868
REMARK INTER + INTRA:          -5.655
REMARK INTER:                  -4.749
REMARK INTRA:                  -0.906
REMARK UNBOUND:                -0.828
REMARK SMILES CCCCCc1ccccc1
REMARK SMILES IDX 4 1 3 2 2 3 1 4 5 5 6 6 7 7 11 8 8 9 10 10 9 11
REMARK H PARENT
REMARK Flexibility Score: inf
ROOT
ATOM      1  C   UNL     1      55.396  59.912 245.340  1.00  0.00     0.005 C 
ENDROOT
BRANCH   1   2
ATOM      2  C   UNL     1      55.292  61.233 246.116  1.00  0.00     0.000 C 
BRANCH   2   3
ATOM      3  C   UNL     1      55.162  61.018 247.632  1.00  0.00    -0.003 C 
ATOM      4  C   UNL     1      53.802  61.453 248.177  1.00  0.00     0.004 C 
ENDBRANCH   2   3
ENDBRANCH   1   2
BRANCH   1   5
ATOM      5  C   UNL     1      54.235  59.762 244.351  1.00  0.00     0.035 C 
BRANCH   5   6
ATOM      6  C   UNL     1      52.925  59.652 245.086  1.00  0.00    -0.048 A 
ATOM      7  C   UNL     1      51.917  60.609 244.884  1.00  0.00     0.004 A 
ATOM      8  C   UNL     1      52.722  58.624 246.021  1.00  0.00     0.004 A 
ATOM      9  C   UNL     1      50.714  60.524 245.591  1.00  0.00     0.000 A 
ATOM     10  C   UNL     1      51.517  58.542 246.726  1.00  0.00     0.000 A 
ATOM     11  C   UNL     1      50.512  59.491 246.510  1.00  0.00     0.000 A 
ENDBRANCH   5   6
ENDBRANCH   1   5
TORSDOF 4
ENDMDL
MODEL 9
REMARK VINA RESULT:    -3.888      1.706      4.710
REMARK INTER + INTRA:          -5.625
REMARK INTER:                  -5.332
REMARK INTRA:                  -0.294
REMARK UNBOUND:                -0.828
REMARK SMILES CCCCCc1ccccc1
REMARK SMILES IDX 4 1 3 2 2 3 1 4 5 5 6 6 7 7 11 8 8 9 10 10 9 11
REMARK H PARENT
REMARK Flexibility Score: inf
ROOT
ATOM      1  C   UNL     1      56.547  59.466 245.218  1.00  0.00     0.005 C 
ENDROOT
BRANCH   1   2
ATOM      2  C   UNL     1      56.275  60.775 245.973  1.00  0.00     0.000 C 
BRANCH   2   3
ATOM      3  C   UNL     1      54.888  60.797 246.636  1.00  0.00    -0.003 C 
ATOM      4  C   UNL     1      53.963  61.857 246.037  1.00  0.00     0.004 C 
ENDBRANCH   2   3
ENDBRANCH   1   2
BRANCH   1   5
ATOM      5  C   UNL     1      57.057  58.379 246.171  1.00  0.00     0.035 C 
BRANCH   5   6
ATOM      6  C   UNL     1      58.467  57.986 245.819  1.00  0.00    -0.048 A 
ATOM      7  C   UNL     1      59.143  57.018 246.580  1.00  0.00     0.004 A 
ATOM      8  C   UNL     1      59.138  58.623 244.762  1.00  0.00     0.004 A 
ATOM      9  C   UNL     1      60.463  56.677 246.272  1.00  0.00     0.000 A 
ATOM     10  C   UNL     1      60.458  58.279 244.457  1.00  0.00     0.000 A 
ATOM     11  C   UNL     1      61.121  57.305 245.211  1.00  0.00     0.000 A 
ENDBRANCH   5   6
ENDBRANCH   1   5
TORSDOF 4
ENDMDL
