MODEL 1
REMARK VINA RESULT:    -4.006      0.000      0.000
REMARK INTER + INTRA:          -9.629
REMARK INTER:                  -7.284
REMARK INTRA:                  -2.344
REMARK UNBOUND:                -2.344
REMARK SMILES CCCCCCCCCCCCCCCC(=O)[O-]
REMARK SMILES IDX 9 1 10 2 11 3 12 4 13 5 14 6 15 7 16 8 17 9 18 10 8 11 7 12
REMARK SMILES IDX 6 13 5 14 4 15 3 16 2 17 1 18
REMARK H PARENT
REMARK Flexibility Score: inf
ROOT
ATOM      1  C   UNL     1     -51.120  13.906 -30.956  1.00  0.00     0.000 C 
ENDROOT
BRANCH   1   2
ATOM      2  C   UNL     1     -52.203  13.006 -31.568  1.00  0.00     0.000 C 
BRANCH   2   3
ATOM      3  C   UNL     1     -53.515  13.112 -30.779  1.00  0.00     0.000 C 
BRANCH   3   4
ATOM      4  C   UNL     1     -53.438  12.309 -29.472  1.00  0.00     0.000 C 
BRANCH   4   5
ATOM      5  C   UNL     1     -53.602  13.190 -28.224  1.00  0.00     0.000 C 
BRANCH   5   6
ATOM      6  C   UNL     1     -53.919  14.655 -28.573  1.00  0.00     0.006 C 
BRANCH   6   7
ATOM      7  C   UNL     1     -52.813  15.613 -28.111  1.00  0.00     0.053 C 
BRANCH   7   8
ATOM      8  C   UNL     1     -52.720  16.821 -28.991  1.00  0.00     0.041 C 
ATOM      9  O   UNL     1     -52.250  17.898 -28.541  1.00  0.00    -0.550 OA
ATOM     10  O   UNL     1     -53.121  16.746 -30.320  1.00  0.00    -0.550 OA
ENDBRANCH   7   8
ENDBRANCH   6   7
ENDBRANCH   5   6
ENDBRANCH   4   5
ENDBRANCH   3   4
ENDBRANCH   2   3
ENDBRANCH   1   2
BRANCH   1  11
ATOM     11  C   UNL     1     -49.727  13.255 -30.979  1.00  0.00     0.000 C 
BRANCH  11  12
ATOM     12  C   UNL     1     -49.178  12.983 -29.571  1.00  0.00    -0.000 C 
BRANCH  12  13
ATOM     13  C   UNL     1     -49.803  11.717 -28.973  1.00  0.00    -0.000 C 
BRANCH  13  14
ATOM     14  C   UNL     1     -48.828  10.532 -29.051  1.00  0.00    -0.000 C 
BRANCH  14  15
ATOM     15  C   UNL     1     -49.345   9.387 -29.939  1.00  0.00    -0.000 C 
BRANCH  15  16
ATOM     16  C   UNL     1     -50.729   9.630 -30.577  1.00  0.00    -0.000 C 
BRANCH  16  17
ATOM     17  C   UNL     1     -50.726   9.737 -32.112  1.00  0.00    -0.003 C 
ATOM     18  C   UNL     1     -49.328   9.609 -32.716  1.00  0.00     0.004 C 
ENDBRANCH  16  17
ENDBRANCH  15  16
ENDBRANCH  14  15
ENDBRANCH  13  14
ENDBRANCH  12  13
ENDBRANCH  11  12
ENDBRANCH   1  11
TORSDOF 14
ENDMDL
MODEL 2
REMARK VINA RESULT:    -3.995     14.728     16.691
REMARK INTER + INTRA:          -9.610
REMARK INTER:                  -7.377
REMARK INTRA:                  -2.233
REMARK UNBOUND:                -2.344
REMARK SMILES CCCCCCCCCCCCCCCC(=O)[O-]
REMARK SMILES IDX 9 1 10 2 11 3 12 4 13 5 14 6 15 7 16 8 17 9 18 10 8 11 7 12
REMARK SMILES IDX 6 13 5 14 4 15 3 16 2 17 1 18
REMARK H PARENT
REMARK Flexibility Score: inf
ROOT
ATOM      1  C   UNL     1     -35.830  22.584 -28.452  1.00  0.00     0.000 C 
ENDROOT
BRANCH   1   2
ATOM      2  C   UNL     1     -35.711  22.984 -29.930  1.00  0.00     0.000 C 
BRANCH   2   3
ATOM      3  C   UNL     1     -35.194  21.813 -30.776  1.00  0.00     0.000 C 
BRANCH   3   4
ATOM      4  C   UNL     1     -36.288  20.756 -30.981  1.00  0.00     0.000 C 
BRANCH   4   5
ATOM      5  C   UNL     1     -37.400  21.231 -31.931  1.00  0.00     0.000 C 
BRANCH   5   6
ATOM      6  C   UNL     1     -38.806  20.868 -31.423  1.00  0.00     0.006 C 
BRANCH   6   7
ATOM      7  C   UNL     1     -38.912  20.959 -29.895  1.00  0.00     0.053 C 
BRANCH   7   8
ATOM      8  C   UNL     1     -39.759  22.117 -29.465  1.00  0.00     0.041 C 
ATOM      9  O   UNL     1     -39.360  22.889 -28.555  1.00  0.00    -0.550 OA
ATOM     10  O   UNL     1     -40.972  22.365 -30.096  1.00  0.00    -0.550 OA
ENDBRANCH   7   8
ENDBRANCH   6   7
ENDBRANCH   5   6
ENDBRANCH   4   5
ENDBRANCH   3   4
ENDBRANCH   2   3
ENDBRANCH   1   2
BRANCH   1  11
ATOM     11  C   UNL     1     -34.468  22.532 -27.741  1.00  0.00     0.000 C 
BRANCH  11  12
ATOM     12  C   UNL     1     -34.286  21.259 -26.902  1.00  0.00    -0.000 C 
BRANCH  12  13
ATOM     13  C   UNL     1     -34.434  20.004 -27.771  1.00  0.00    -0.000 C 
BRANCH  13  14
ATOM     14  C   UNL     1     -35.424  19.012 -27.140  1.00  0.00    -0.000 C 
BRANCH  14  15
ATOM     15  C   UNL     1     -36.792  19.000 -27.845  1.00  0.00    -0.000 C 
BRANCH  15  16
ATOM     16  C   UNL     1     -37.274  17.611 -28.313  1.00  0.00    -0.000 C 
BRANCH  16  17
ATOM     17  C   UNL     1     -36.905  17.250 -29.761  1.00  0.00    -0.003 C 
ATOM     18  C   UNL     1     -38.060  17.460 -30.741  1.00  0.00     0.004 C 
ENDBRANCH  16  17
ENDBRANCH  15  16
ENDBRANCH  14  15
ENDBRANCH  13  14
ENDBRANCH  12  13
ENDBRANCH  11  12
ENDBRANCH   1  11
TORSDOF 14
ENDMDL
MODEL 3
REMARK VINA RESULT:    -3.967      2.137      4.101
REMARK INTER + INTRA:          -9.558
REMARK INTER:                  -7.403
REMARK INTRA:                  -2.155
REMARK UNBOUND:                -2.344
REMARK SMILES CCCCCCCCCCCCCCCC(=O)[O-]
REMARK SMILES IDX 9 1 10 2 11 3 12 4 13 5 14 6 15 7 16 8 17 9 18 10 8 11 7 12
REMARK SMILES IDX 6 13 5 14 4 15 3 16 2 17 1 18
REMARK H PARENT
REMARK Flexibility Score: inf
ROOT
ATOM      1  C   UNL     1     -48.480  10.361 -29.151  1.00  0.00     0.000 C 
ENDROOT
BRANCH   1   2
ATOM      2  C   UNL     1     -48.789  11.865 -29.182  1.00  0.00     0.000 C 
BRANCH   2   3
ATOM      3  C   UNL     1     -49.486  12.256 -30.492  1.00  0.00     0.000 C 
BRANCH   3   4
ATOM      4  C   UNL     1     -49.792  13.761 -30.524  1.00  0.00     0.000 C 
BRANCH   4   5
ATOM      5  C   UNL     1     -51.290  14.056 -30.703  1.00  0.00     0.000 C 
BRANCH   5   6
ATOM      6  C   UNL     1     -52.073  12.842 -31.232  1.00  0.00     0.006 C 
BRANCH   6   7
ATOM      7  C   UNL     1     -53.352  12.582 -30.424  1.00  0.00     0.053 C 
BRANCH   7   8
ATOM      8  C   UNL     1     -53.064  12.421 -28.964  1.00  0.00     0.041 C 
ATOM      9  O   UNL     1     -53.578  13.208 -28.127  1.00  0.00    -0.550 OA
ATOM     10  O   UNL     1     -52.257  11.379 -28.523  1.00  0.00    -0.550 OA
ENDBRANCH   7   8
ENDBRANCH   6   7
ENDBRANCH   5   6
ENDBRANCH   4   5
ENDBRANCH   3   4
ENDBRANCH   2   3
ENDBRANCH   1   2
BRANCH   1  11
ATOM     11  C   UNL     1     -47.060  10.038 -29.642  1.00  0.00     0.000 C 
BRANCH  11  12
ATOM     12  C   UNL     1     -46.781   8.528 -29.694  1.00  0.00    -0.000 C 
BRANCH  12  13
ATOM     13  C   UNL     1     -47.731   7.828 -30.672  1.00  0.00    -0.000 C 
BRANCH  13  14
ATOM     14  C   UNL     1     -47.287   8.051 -32.126  1.00  0.00    -0.000 C 
BRANCH  14  15
ATOM     15  C   UNL     1     -48.468   8.297 -33.082  1.00  0.00    -0.000 C 
BRANCH  15  16
ATOM     16  C   UNL     1     -49.356   9.508 -32.726  1.00  0.00    -0.000 C 
BRANCH  16  17
ATOM     17  C   UNL     1     -50.860   9.203 -32.627  1.00  0.00    -0.003 C 
ATOM     18  C   UNL     1     -51.365   9.156 -31.185  1.00  0.00     0.004 C 
ENDBRANCH  16  17
ENDBRANCH  15  16
ENDBRANCH  14  15
ENDBRANCH  13  14
ENDBRANCH  12  13
ENDBRANCH  11  12
ENDBRANCH   1  11
TORSDOF 14
ENDMDL
MODEL 4
REMARK VINA RESULT:    -3.922      4.357      7.115
REMARK INTER + INTRA:          -9.476
REMARK INTER:                  -7.494
REMARK INTRA:                  -1.982
REMARK UNBOUND:                -2.344
REMARK SMILES CCCCCCCCCCCCCCCC(=O)[O-]
REMARK SMILES IDX 9 1 10 2 11 3 12 4 13 5 14 6 15 7 16 8 17 9 18 10 8 11 7 12
REMARK SMILES IDX 6 13 5 14 4 15 3 16 2 17 1 18
REMARK H PARENT
REMARK Flexibility Score: inf
ROOT
ATOM      1  C   UNL     1     -52.350   9.435 -31.396  1.00  0.00     0.000 C 
ENDROOT
BRANCH   1   2
ATOM      2  C   UNL     1     -52.839   8.092 -31.957  1.00  0.00     0.000 C 
BRANCH   2   3
ATOM      3  C   UNL     1     -52.427   7.928 -33.426  1.00  0.00     0.000 C 
BRANCH   3   4
ATOM      4  C   UNL     1     -51.576   6.664 -33.621  1.00  0.00     0.000 C 
BRANCH   4   5
ATOM      5  C   UNL     1     -50.440   6.550 -32.592  1.00  0.00     0.000 C 
BRANCH   5   6
ATOM      6  C   UNL     1     -49.089   7.030 -33.148  1.00  0.00     0.006 C 
BRANCH   6   7
ATOM      7  C   UNL     1     -47.902   6.461 -32.359  1.00  0.00     0.053 C 
BRANCH   7   8
ATOM      8  C   UNL     1     -47.359   7.454 -31.379  1.00  0.00     0.041 C 
ATOM      9  O   UNL     1     -46.853   8.532 -31.785  1.00  0.00    -0.550 OA
ATOM     10  O   UNL     1     -47.445   7.204 -30.014  1.00  0.00    -0.550 OA
ENDBRANCH   7   8
ENDBRANCH   6   7
ENDBRANCH   5   6
ENDBRANCH   4   5
ENDBRANCH   3   4
ENDBRANCH   2   3
ENDBRANCH   1   2
BRANCH   1  11
ATOM     11  C   UNL     1     -51.434  10.187 -32.375  1.00  0.00     0.000 C 
BRANCH  11  12
ATOM     12  C   UNL     1     -49.975  10.244 -31.898  1.00  0.00    -0.000 C 
BRANCH  12  13
ATOM     13  C   UNL     1     -49.879   9.955 -30.395  1.00  0.00    -0.000 C 
BRANCH  13  14
ATOM     14  C   UNL     1     -48.762  10.786 -29.745  1.00  0.00    -0.000 C 
BRANCH  14  15
ATOM     15  C   UNL     1     -49.299  11.891 -28.818  1.00  0.00    -0.000 C 
BRANCH  15  16
ATOM     16  C   UNL     1     -50.084  13.015 -29.527  1.00  0.00    -0.000 C 
BRANCH  16  17
ATOM     17  C   UNL     1     -49.319  13.729 -30.654  1.00  0.00    -0.003 C 
ATOM     18  C   UNL     1     -50.176  14.747 -31.405  1.00  0.00     0.004 C 
ENDBRANCH  16  17
ENDBRANCH  15  16
ENDBRANCH  14  15
ENDBRANCH  13  14
ENDBRANCH  12  13
ENDBRANCH  11  12
ENDBRANCH   1  11
TORSDOF 14
ENDMDL
MODEL 5
REMARK VINA RESULT:    -3.909      2.219      4.347
REMARK INTER + INTRA:          -9.452
REMARK INTER:                  -7.442
REMARK INTRA:                  -2.010
REMARK UNBOUND:                -2.344
REMARK SMILES CCCCCCCCCCCCCCCC(=O)[O-]
REMARK SMILES IDX 9 1 10 2 11 3 12 4 13 5 14 6 15 7 16 8 17 9 18 10 8 11 7 12
REMARK SMILES IDX 6 13 5 14 4 15 3 16 2 17 1 18
REMARK H PARENT
REMARK Flexibility Score: inf
ROOT
ATOM      1  C   UNL     1     -49.428  10.370 -32.013  1.00  0.00     0.000 C 
ENDROOT
BRANCH   1   2
ATOM      2  C   UNL     1     -50.710  10.189 -31.187  1.00  0.00     0.000 C 
BRANCH   2   3
ATOM      3  C   UNL     1     -50.464  10.529 -29.711  1.00  0.00     0.000 C 
BRANCH   3   4
ATOM      4  C   UNL     1     -49.224  11.420 -29.550  1.00  0.00     0.000 C 
BRANCH   4   5
ATOM      5  C   UNL     1     -49.581  12.898 -29.330  1.00  0.00     0.000 C 
BRANCH   5   6
ATOM      6  C   UNL     1     -49.491  13.728 -30.623  1.00  0.00     0.006 C 
BRANCH   6   7
ATOM      7  C   UNL     1     -50.871  13.980 -31.246  1.00  0.00     0.053 C 
BRANCH   7   8
ATOM      8  C   UNL     1     -51.340  15.382 -31.007  1.00  0.00     0.041 C 
ATOM      9  O   UNL     1     -50.820  16.340 -31.636  1.00  0.00    -0.550 OA
ATOM     10  O   UNL     1     -52.378  15.626 -30.115  1.00  0.00    -0.550 OA
ENDBRANCH   7   8
ENDBRANCH   6   7
ENDBRANCH   5   6
ENDBRANCH   4   5
ENDBRANCH   3   4
ENDBRANCH   2   3
ENDBRANCH   1   2
BRANCH   1  11
ATOM     11  C   UNL     1     -49.237   9.260 -33.059  1.00  0.00     0.000 C 
BRANCH  11  12
ATOM     12  C   UNL     1     -50.268   8.131 -32.920  1.00  0.00    -0.000 C 
BRANCH  12  13
ATOM     13  C   UNL     1     -49.581   6.761 -32.883  1.00  0.00    -0.000 C 
BRANCH  13  14
ATOM     14  C   UNL     1     -48.063   6.901 -33.080  1.00  0.00    -0.000 C 
BRANCH  14  15
ATOM     15  C   UNL     1     -47.250   6.269 -31.936  1.00  0.00    -0.000 C 
BRANCH  15  16
ATOM     16  C   UNL     1     -47.931   6.304 -30.552  1.00  0.00    -0.000 C 
BRANCH  16  17
ATOM     17  C   UNL     1     -48.028   7.698 -29.911  1.00  0.00    -0.003 C 
ATOM     18  C   UNL     1     -46.716   8.479 -29.981  1.00  0.00     0.004 C 
ENDBRANCH  16  17
ENDBRANCH  15  16
ENDBRANCH  14  15
ENDBRANCH  13  14
ENDBRANCH  12  13
ENDBRANCH  11  12
ENDBRANCH   1  11
TORSDOF 14
ENDMDL
MODEL 6
REMARK VINA RESULT:    -3.885      3.891      6.981
REMARK INTER + INTRA:          -9.409
REMARK INTER:                  -7.229
REMARK INTRA:                  -2.180
REMARK UNBOUND:                -2.344
REMARK SMILES CCCCCCCCCCCCCCCC(=O)[O-]
REMARK SMILES IDX 9 1 10 2 11 3 12 4 13 5 14 6 15 7 16 8 17 9 18 10 8 11 7 12
REMARK SMILES IDX 6 13 5 14 4 15 3 16 2 17 1 18
REMARK H PARENT
REMARK Flexibility Score: inf
ROOT
ATOM      1  C   UNL     1     -49.521  10.777 -30.829  1.00  0.00     0.000 C 
ENDROOT
BRANCH   1   2
ATOM      2  C   UNL     1     -50.520   9.611 -30.842  1.00  0.00     0.000 C 
BRANCH   2   3
ATOM      3  C   UNL     1     -50.801   9.145 -32.277  1.00  0.00     0.000 C 
BRANCH   3   4
ATOM      4  C   UNL     1     -49.497   8.784 -33.004  1.00  0.00     0.000 C 
BRANCH   4   5
ATOM      5  C   UNL     1     -49.216   7.273 -32.999  1.00  0.00     0.000 C 
BRANCH   5   6
ATOM      6  C   UNL     1     -47.852   6.928 -32.375  1.00  0.00     0.006 C 
BRANCH   6   7
ATOM      7  C   UNL     1     -47.894   6.955 -30.841  1.00  0.00     0.053 C 
BRANCH   7   8
ATOM      8  C   UNL     1     -46.896   7.917 -30.275  1.00  0.00     0.041 C 
ATOM      9  O   UNL     1     -46.289   7.645 -29.207  1.00  0.00    -0.550 OA
ATOM     10  O   UNL     1     -46.610   9.100 -30.947  1.00  0.00    -0.550 OA
ENDBRANCH   7   8
ENDBRANCH   6   7
ENDBRANCH   5   6
ENDBRANCH   4   5
ENDBRANCH   3   4
ENDBRANCH   2   3
ENDBRANCH   1   2
BRANCH   1  11
ATOM     11  C   UNL     1     -49.413  11.448 -29.450  1.00  0.00     0.000 C 
BRANCH  11  12
ATOM     12  C   UNL     1     -49.345  12.980 -29.541  1.00  0.00    -0.000 C 
BRANCH  12  13
ATOM     13  C   UNL     1     -49.722  13.463 -30.947  1.00  0.00    -0.000 C 
BRANCH  13  14
ATOM     14  C   UNL     1     -50.690  14.654 -30.879  1.00  0.00    -0.000 C 
BRANCH  14  15
ATOM     15  C   UNL     1     -52.138  14.233 -30.568  1.00  0.00    -0.000 C 
BRANCH  15  16
ATOM     16  C   UNL     1     -52.601  12.930 -31.252  1.00  0.00    -0.000 C 
BRANCH  16  17
ATOM     17  C   UNL     1     -53.231  11.891 -30.310  1.00  0.00    -0.003 C 
ATOM     18  C   UNL     1     -52.998  12.206 -28.832  1.00  0.00     0.004 C 
ENDBRANCH  16  17
ENDBRANCH  15  16
ENDBRANCH  14  15
ENDBRANCH  13  14
ENDBRANCH  12  13
ENDBRANCH  11  12
ENDBRANCH   1  11
TORSDOF 14
ENDMDL
MODEL 7
REMARK VINA RESULT:    -3.861      3.008      5.433
REMARK INTER + INTRA:          -9.365
REMARK INTER:                  -7.231
REMARK INTRA:                  -2.135
REMARK UNBOUND:                -2.344
REMARK SMILES CCCCCCCCCCCCCCCC(=O)[O-]
REMARK SMILES IDX 9 1 10 2 11 3 12 4 13 5 14 6 15 7 16 8 17 9 18 10 8 11 7 12
REMARK SMILES IDX 6 13 5 14 4 15 3 16 2 17 1 18
REMARK H PARENT
REMARK Flexibility Score: inf
ROOT
ATOM      1  C   UNL     1     -46.934   8.795 -30.672  1.00  0.00     0.000 C 
ENDROOT
BRANCH   1   2
ATOM      2  C   UNL     1     -47.777   9.642 -29.708  1.00  0.00     0.000 C 
BRANCH   2   3
ATOM      3  C   UNL     1     -49.269   9.549 -30.056  1.00  0.00     0.000 C 
BRANCH   3   4
ATOM      4  C   UNL     1     -49.614  10.458 -31.245  1.00  0.00     0.000 C 
BRANCH   4   5
ATOM      5  C   UNL     1     -51.045  10.238 -31.763  1.00  0.00     0.000 C 
BRANCH   5   6
ATOM      6  C   UNL     1     -52.022   9.832 -30.645  1.00  0.00     0.006 C 
BRANCH   6   7
ATOM      7  C   UNL     1     -53.049  10.932 -30.347  1.00  0.00     0.053 C 
BRANCH   7   8
ATOM      8  C   UNL     1     -52.752  11.635 -29.059  1.00  0.00     0.041 C 
ATOM      9  O   UNL     1     -51.715  11.348 -28.405  1.00  0.00    -0.550 OA
ATOM     10  O   UNL     1     -53.602  12.634 -28.598  1.00  0.00    -0.550 OA
ENDBRANCH   7   8
ENDBRANCH   6   7
ENDBRANCH   5   6
ENDBRANCH   4   5
ENDBRANCH   3   4
ENDBRANCH   2   3
ENDBRANCH   1   2
BRANCH   1  11
ATOM     11  C   UNL     1     -47.322   7.308 -30.648  1.00  0.00     0.000 C 
BRANCH  11  12
ATOM     12  C   UNL     1     -47.343   6.678 -32.048  1.00  0.00    -0.000 C 
BRANCH  12  13
ATOM     13  C   UNL     1     -48.201   7.509 -33.010  1.00  0.00    -0.000 C 
BRANCH  13  14
ATOM     14  C   UNL     1     -49.495   6.765 -33.376  1.00  0.00    -0.000 C 
BRANCH  14  15
ATOM     15  C   UNL     1     -50.461   6.622 -32.187  1.00  0.00    -0.000 C 
BRANCH  15  16
ATOM     16  C   UNL     1     -51.959   6.687 -32.551  1.00  0.00    -0.000 C 
BRANCH  16  17
ATOM     17  C   UNL     1     -52.255   7.011 -34.024  1.00  0.00    -0.003 C 
ATOM     18  C   UNL     1     -53.511   7.864 -34.207  1.00  0.00     0.004 C 
ENDBRANCH  16  17
ENDBRANCH  15  16
ENDBRANCH  14  15
ENDBRANCH  13  14
ENDBRANCH  12  13
ENDBRANCH  11  12
ENDBRANCH   1  11
TORSDOF 14
ENDMDL
MODEL 8
REMARK VINA RESULT:    -3.847      1.941      3.615
REMARK INTER + INTRA:          -9.340
REMARK INTER:                  -7.709
REMARK INTRA:                  -1.631
REMARK UNBOUND:                -2.344
REMARK SMILES CCCCCCCCCCCCCCCC(=O)[O-]
REMARK SMILES IDX 9 1 10 2 11 3 12 4 13 5 14 6 15 7 16 8 17 9 18 10 8 11 7 12
REMARK SMILES IDX 6 13 5 14 4 15 3 16 2 17 1 18
REMARK H PARENT
REMARK Flexibility Score: inf
ROOT
ATOM      1  C   UNL     1     -48.779  10.766 -28.567  1.00  0.00     0.000 C 
ENDROOT
BRANCH   1   2
ATOM      2  C   UNL     1     -49.724  11.922 -28.926  1.00  0.00     0.000 C 
BRANCH   2   3
ATOM      3  C   UNL     1     -49.263  12.630 -30.207  1.00  0.00     0.000 C 
BRANCH   3   4
ATOM      4  C   UNL     1     -50.396  13.477 -30.806  1.00  0.00     0.000 C 
BRANCH   4   5
ATOM      5  C   UNL     1     -49.942  14.900 -31.170  1.00  0.00     0.000 C 
BRANCH   5   6
ATOM      6  C   UNL     1     -51.066  15.731 -31.814  1.00  0.00     0.006 C 
BRANCH   6   7
ATOM      7  C   UNL     1     -51.239  17.095 -31.132  1.00  0.00     0.053 C 
BRANCH   7   8
ATOM      8  C   UNL     1     -52.067  16.993 -29.888  1.00  0.00     0.041 C 
ATOM      9  O   UNL     1     -52.951  16.103 -29.787  1.00  0.00    -0.550 OA
ATOM     10  O   UNL     1     -51.836  17.858 -28.824  1.00  0.00    -0.550 OA
ENDBRANCH   7   8
ENDBRANCH   6   7
ENDBRANCH   5   6
ENDBRANCH   4   5
ENDBRANCH   3   4
ENDBRANCH   2   3
ENDBRANCH   1   2
BRANCH   1  11
ATOM     11  C   UNL     1     -47.784  10.443 -29.693  1.00  0.00     0.000 C 
BRANCH  11  12
ATOM     12  C   UNL     1     -47.797   8.959 -30.088  1.00  0.00    -0.000 C 
BRANCH  12  13
ATOM     13  C   UNL     1     -47.002   8.728 -31.378  1.00  0.00    -0.000 C 
BRANCH  13  14
ATOM     14  C   UNL     1     -47.880   8.079 -32.459  1.00  0.00    -0.000 C 
BRANCH  14  15
ATOM     15  C   UNL     1     -48.914   9.052 -33.055  1.00  0.00    -0.000 C 
BRANCH  15  16
ATOM     16  C   UNL     1     -50.378   8.776 -32.653  1.00  0.00    -0.000 C 
BRANCH  16  17
ATOM     17  C   UNL     1     -51.120   9.976 -32.043  1.00  0.00    -0.003 C 
ATOM     18  C   UNL     1     -51.928   9.608 -30.798  1.00  0.00     0.004 C 
ENDBRANCH  16  17
ENDBRANCH  15  16
ENDBRANCH  14  15
ENDBRANCH  13  14
ENDBRANCH  12  13
ENDBRANCH  11  12
ENDBRANCH   1  11
TORSDOF 14
ENDMDL
MODEL 9
REMARK VINA RESULT:    -3.845      3.712      6.308
REMARK INTER + INTRA:          -9.337
REMARK INTER:                  -7.211
REMARK INTRA:                  -2.125
REMARK UNBOUND:                -2.344
REMARK SMILES CCCCCCCCCCCCCCCC(=O)[O-]
REMARK SMILES IDX 9 1 10 2 11 3 12 4 13 5 14 6 15 7 16 8 17 9 18 10 8 11 7 12
REMARK SMILES IDX 6 13 5 14 4 15 3 16 2 17 1 18
REMARK H PARENT
REMARK Flexibility Score: inf
ROOT
ATOM      1  C   UNL     1     -52.971  12.507 -28.877  1.00  0.00     0.000 C 
ENDROOT
BRANCH   1   2
ATOM      2  C   UNL     1     -53.334  11.535 -30.009  1.00  0.00     0.000 C 
BRANCH   2   3
ATOM      3  C   UNL     1     -52.193  10.543 -30.268  1.00  0.00     0.000 C 
BRANCH   3   4
ATOM      4  C   UNL     1     -51.843  10.484 -31.762  1.00  0.00     0.000 C 
BRANCH   4   5
ATOM      5  C   UNL     1     -51.389   9.086 -32.210  1.00  0.00     0.000 C 
BRANCH   5   6
ATOM      6  C   UNL     1     -50.120   8.614 -31.478  1.00  0.00     0.006 C 
BRANCH   6   7
ATOM      7  C   UNL     1     -48.881   9.421 -31.888  1.00  0.00     0.053 C 
BRANCH   7   8
ATOM      8  C   UNL     1     -47.632   8.598 -31.814  1.00  0.00     0.041 C 
ATOM      9  O   UNL     1     -47.465   7.630 -32.600  1.00  0.00    -0.550 OA
ATOM     10  O   UNL     1     -46.637   8.923 -30.899  1.00  0.00    -0.550 OA
ENDBRANCH   7   8
ENDBRANCH   6   7
ENDBRANCH   5   6
ENDBRANCH   4   5
ENDBRANCH   3   4
ENDBRANCH   2   3
ENDBRANCH   1   2
BRANCH   1  11
ATOM     11  C   UNL     1     -53.469  13.937 -29.143  1.00  0.00     0.000 C 
BRANCH  11  12
ATOM     12  C   UNL     1     -52.387  14.997 -28.888  1.00  0.00    -0.000 C 
BRANCH  12  13
ATOM     13  C   UNL     1     -52.046  15.754 -30.177  1.00  0.00    -0.000 C 
BRANCH  13  14
ATOM     14  C   UNL     1     -51.554  14.790 -31.268  1.00  0.00    -0.000 C 
BRANCH  14  15
ATOM     15  C   UNL     1     -50.035  14.552 -31.217  1.00  0.00    -0.000 C 
BRANCH  15  16
ATOM     16  C   UNL     1     -49.610  13.124 -30.815  1.00  0.00    -0.000 C 
BRANCH  16  17
ATOM     17  C   UNL     1     -49.310  12.934 -29.318  1.00  0.00    -0.003 C 
ATOM     18  C   UNL     1     -48.830  11.522 -28.981  1.00  0.00     0.004 C 
ENDBRANCH  16  17
ENDBRANCH  15  16
ENDBRANCH  14  15
ENDBRANCH  13  14
ENDBRANCH  12  13
ENDBRANCH  11  12
ENDBRANCH   1  11
TORSDOF 14
ENDMDL
