MODEL 1
REMARK VINA RESULT:    -6.729      0.000      0.000
REMARK INTER + INTRA:         -10.762
REMARK INTER:                  -9.483
REMARK INTRA:                  -1.279
REMARK UNBOUND:                -1.279
REMARK SMILES COc1c(O[C@H]2O[C@H](C(=O)[O-])[C@@H](O)[C@H](O)[C@@H]2O)cc(O)c2c(=O)cc(-c3ccccc3)oc12
REMARK SMILES IDX 5 1 6 2 8 3 12 4 7 5 14 6 16 7 9 8 10 9 11 10 13 11 15 13
REMARK SMILES IDX 17 15 4 17 3 18 18 19 33 20 19 21 21 22 32 23 22 24 25 25
REMARK SMILES IDX 24 26 23 27 2 28 1 29 20 30 26 32 27 33 31 34 28 35 30 36
REMARK SMILES IDX 29 37
REMARK H PARENT 13 12 15 14 17 16 20 31
REMARK Flexibility Score: inf
ROOT
ATOM      1  O   UNL     1     -17.346  32.991  18.909  1.00  0.00    -0.458 OA
ENDROOT
BRANCH   1   2
ATOM      2  C   UNL     1     -16.757  34.299  18.907  1.00  0.00     0.339 C 
ATOM      3  C   UNL     1     -18.599  35.069  17.657  1.00  0.00     0.199 C 
ATOM      4  C   UNL     1     -19.330  35.336  19.008  1.00  0.00     0.180 C 
ATOM      5  O   UNL     1     -17.179  35.031  17.770  1.00  0.00    -0.328 OA
ATOM      6  C   UNL     1     -18.364  35.967  20.035  1.00  0.00     0.181 C 
ATOM      7  C   UNL     1     -17.099  35.086  20.203  1.00  0.00     0.214 C 
BRANCH   3   8
ATOM      8  C   UNL     1     -18.967  36.128  16.657  1.00  0.00     0.073 C 
ATOM      9  O   UNL     1     -19.839  35.903  15.776  1.00  0.00    -0.547 OA
ATOM     10  O   UNL     1     -18.295  37.345  16.661  1.00  0.00    -0.547 OA
ENDBRANCH   3   8
BRANCH   4  11
ATOM     11  O   UNL     1     -19.834  34.122  19.507  1.00  0.00    -0.387 OA
ATOM     12  H   UNL     1     -19.548  34.058  20.456  1.00  0.00     0.211 HD
ENDBRANCH   4  11
BRANCH   6  13
ATOM     13  O   UNL     1     -18.012  37.269  19.628  1.00  0.00    -0.387 OA
ATOM     14  H   UNL     1     -18.155  37.312  18.646  1.00  0.00     0.211 HD
ENDBRANCH   6  13
BRANCH   7  15
ATOM     15  O   UNL     1     -16.004  35.857  20.639  1.00  0.00    -0.384 OA
ATOM     16  H   UNL     1     -16.070  35.951  21.625  1.00  0.00     0.211 HD
ENDBRANCH   7  15
ENDBRANCH   1   2
BRANCH   1  17
ATOM     17  C   UNL     1     -16.590  31.823  18.785  1.00  0.00     0.172 A 
ATOM     18  C   UNL     1     -16.114  31.421  17.530  1.00  0.00     0.205 A 
ATOM     19  C   UNL     1     -16.343  31.051  19.921  1.00  0.00     0.097 A 
ATOM     20  C   UNL     1     -15.363  30.221  17.421  1.00  0.00     0.188 A 
ATOM     21  C   UNL     1     -15.576  29.886  19.838  1.00  0.00     0.134 A 
ATOM     22  C   UNL     1     -15.078  29.459  18.587  1.00  0.00     0.111 A 
ATOM     23  O   UNL     1     -14.939  29.794  16.232  1.00  0.00    -0.452 OA
ATOM     24  C   UNL     1     -14.305  28.291  18.440  1.00  0.00     0.197 A 
ATOM     25  C   UNL     1     -14.240  28.675  16.055  1.00  0.00     0.138 A 
ATOM     26  C   UNL     1     -13.883  27.903  17.172  1.00  0.00     0.100 A 
ATOM     27  O   UNL     1     -13.990  27.580  19.434  1.00  0.00    -0.289 OA
BRANCH  18  28
ATOM     28  O   UNL     1     -16.433  32.247  16.435  1.00  0.00    -0.490 OA
ATOM     29  C   UNL     1     -17.522  32.075  15.536  1.00  0.00     0.278 C 
ENDBRANCH  18  28
BRANCH  21  30
ATOM     30  O   UNL     1     -15.325  29.157  21.004  1.00  0.00    -0.507 OA
ATOM     31  H   UNL     1     -14.738  28.327  20.997  1.00  0.00     0.293 HD
ENDBRANCH  21  30
BRANCH  25  32
ATOM     32  C   UNL     1     -13.857  28.272  14.674  1.00  0.00     0.017 A 
ATOM     33  C   UNL     1     -13.657  26.919  14.327  1.00  0.00     0.012 A 
ATOM     34  C   UNL     1     -13.728  29.250  13.668  1.00  0.00     0.012 A 
ATOM     35  C   UNL     1     -13.315  26.564  13.018  1.00  0.00     0.001 A 
ATOM     36  C   UNL     1     -13.388  28.887  12.360  1.00  0.00     0.001 A 
ATOM     37  C   UNL     1     -13.180  27.546  12.035  1.00  0.00     0.000 A 
ENDBRANCH  25  32
ENDBRANCH   1  17
TORSDOF 9
ENDMDL
MODEL 2
REMARK VINA RESULT:    -6.573      2.445      7.755
REMARK INTER + INTRA:         -10.541
REMARK INTER:                  -8.968
REMARK INTRA:                  -1.574
REMARK UNBOUND:                -1.279
REMARK SMILES COc1c(O[C@H]2O[C@H](C(=O)[O-])[C@@H](O)[C@H](O)[C@@H]2O)cc(O)c2c(=O)cc(-c3ccccc3)oc12
REMARK SMILES IDX 5 1 6 2 8 3 12 4 7 5 14 6 16 7 9 8 10 9 11 10 13 11 15 13
REMARK SMILES IDX 17 15 4 17 3 18 18 19 33 20 19 21 21 22 32 23 22 24 25 25
REMARK SMILES IDX 24 26 23 27 2 28 1 29 20 30 26 32 27 33 31 34 28 35 30 36
REMARK SMILES IDX 29 37
REMARK H PARENT 13 12 15 14 17 16 20 31
REMARK Flexibility Score: inf
ROOT
ATOM      1  O   UNL     1     -16.432  30.973  18.530  1.00  0.00    -0.458 OA
ENDROOT
BRANCH   1   2
ATOM      2  C   UNL     1     -15.555  30.421  19.523  1.00  0.00     0.339 C 
ATOM      3  C   UNL     1     -15.624  28.370  18.368  1.00  0.00     0.199 C 
ATOM      4  C   UNL     1     -14.427  28.879  17.509  1.00  0.00     0.180 C 
ATOM      5  O   UNL     1     -15.744  29.022  19.630  1.00  0.00    -0.328 OA
ATOM      6  C   UNL     1     -13.389  29.601  18.394  1.00  0.00     0.181 C 
ATOM      7  C   UNL     1     -14.064  30.734  19.211  1.00  0.00     0.214 C 
BRANCH   3   8
ATOM      8  C   UNL     1     -15.490  26.893  18.608  1.00  0.00     0.073 C 
ATOM      9  O   UNL     1     -16.037  26.064  17.833  1.00  0.00    -0.547 OA
ATOM     10  O   UNL     1     -14.812  26.435  19.733  1.00  0.00    -0.547 OA
ENDBRANCH   3   8
BRANCH   4  11
ATOM     11  O   UNL     1     -14.909  29.758  16.523  1.00  0.00    -0.387 OA
ATOM     12  H   UNL     1     -15.510  30.404  16.979  1.00  0.00     0.211 HD
ENDBRANCH   4  11
BRANCH   6  13
ATOM     13  O   UNL     1     -12.762  28.677  19.253  1.00  0.00    -0.387 OA
ATOM     14  H   UNL     1     -11.873  28.475  18.859  1.00  0.00     0.211 HD
ENDBRANCH   6  13
BRANCH   7  15
ATOM     15  O   UNL     1     -13.340  31.006  20.388  1.00  0.00    -0.384 OA
ATOM     16  H   UNL     1     -12.907  30.162  20.681  1.00  0.00     0.211 HD
ENDBRANCH   7  15
ENDBRANCH   1   2
BRANCH   1  17
ATOM     17  C   UNL     1     -16.668  32.344  18.412  1.00  0.00     0.172 A 
ATOM     18  C   UNL     1     -16.911  32.912  17.154  1.00  0.00     0.205 A 
ATOM     19  C   UNL     1     -16.627  33.141  19.557  1.00  0.00     0.097 A 
ATOM     20  C   UNL     1     -17.129  34.312  17.052  1.00  0.00     0.188 A 
ATOM     21  C   UNL     1     -16.874  34.514  19.479  1.00  0.00     0.134 A 
ATOM     22  C   UNL     1     -17.128  35.113  18.225  1.00  0.00     0.111 A 
ATOM     23  O   UNL     1     -17.317  34.881  15.862  1.00  0.00    -0.452 OA
ATOM     24  C   UNL     1     -17.378  36.492  18.083  1.00  0.00     0.197 A 
ATOM     25  C   UNL     1     -17.518  36.186  15.691  1.00  0.00     0.138 A 
ATOM     26  C   UNL     1     -17.577  37.026  16.813  1.00  0.00     0.100 A 
ATOM     27  O   UNL     1     -17.421  37.260  19.084  1.00  0.00    -0.289 OA
BRANCH  18  28
ATOM     28  O   UNL     1     -16.907  32.037  16.050  1.00  0.00    -0.490 OA
ATOM     29  C   UNL     1     -18.046  31.446  15.437  1.00  0.00     0.278 C 
ENDBRANCH  18  28
BRANCH  21  30
ATOM     30  O   UNL     1     -16.855  35.273  20.653  1.00  0.00    -0.507 OA
ATOM     31  H   UNL     1     -15.983  35.579  21.075  1.00  0.00     0.293 HD
ENDBRANCH  21  30
BRANCH  25  32
ATOM     32  C   UNL     1     -17.671  36.720  14.309  1.00  0.00     0.017 A 
ATOM     33  C   UNL     1     -17.667  38.106  14.047  1.00  0.00     0.012 A 
ATOM     34  C   UNL     1     -17.781  35.830  13.221  1.00  0.00     0.012 A 
ATOM     35  C   UNL     1     -17.795  38.582  12.737  1.00  0.00     0.001 A 
ATOM     36  C   UNL     1     -17.907  36.314  11.914  1.00  0.00     0.001 A 
ATOM     37  C   UNL     1     -17.915  37.688  11.672  1.00  0.00     0.000 A 
ENDBRANCH  25  32
ENDBRANCH   1  17
TORSDOF 9
ENDMDL
MODEL 3
REMARK VINA RESULT:    -6.436      2.477      7.749
REMARK INTER + INTRA:         -10.349
REMARK INTER:                  -8.914
REMARK INTRA:                  -1.435
REMARK UNBOUND:                -1.279
REMARK SMILES COc1c(O[C@H]2O[C@H](C(=O)[O-])[C@@H](O)[C@H](O)[C@@H]2O)cc(O)c2c(=O)cc(-c3ccccc3)oc12
REMARK SMILES IDX 5 1 6 2 8 3 12 4 7 5 14 6 16 7 9 8 10 9 11 10 13 11 15 13
REMARK SMILES IDX 17 15 4 17 3 18 18 19 33 20 19 21 21 22 32 23 22 24 25 25
REMARK SMILES IDX 24 26 23 27 2 28 1 29 20 30 26 32 27 33 31 34 28 35 30 36
REMARK SMILES IDX 29 37
REMARK H PARENT 13 12 15 14 17 16 20 31
REMARK Flexibility Score: inf
ROOT
ATOM      1  O   UNL     1     -15.075  30.540  18.810  1.00  0.00    -0.458 OA
ENDROOT
BRANCH   1   2
ATOM      2  C   UNL     1     -15.190  29.651  19.930  1.00  0.00     0.339 C 
ATOM      3  C   UNL     1     -16.003  27.996  18.465  1.00  0.00     0.199 C 
ATOM      4  C   UNL     1     -14.524  27.577  18.209  1.00  0.00     0.180 C 
ATOM      5  O   UNL     1     -16.200  28.687  19.696  1.00  0.00    -0.328 OA
ATOM      6  C   UNL     1     -13.723  27.571  19.529  1.00  0.00     0.181 C 
ATOM      7  C   UNL     1     -13.841  28.943  20.243  1.00  0.00     0.214 C 
BRANCH   3   8
ATOM      8  C   UNL     1     -16.888  26.783  18.454  1.00  0.00     0.073 C 
ATOM      9  O   UNL     1     -18.142  26.901  18.497  1.00  0.00    -0.547 OA
ATOM     10  O   UNL     1     -16.320  25.513  18.464  1.00  0.00    -0.547 OA
ENDBRANCH   3   8
BRANCH   4  11
ATOM     11  O   UNL     1     -13.941  28.477  17.299  1.00  0.00    -0.387 OA
ATOM     12  H   UNL     1     -13.149  28.873  17.750  1.00  0.00     0.211 HD
ENDBRANCH   4  11
BRANCH   6  13
ATOM     13  O   UNL     1     -14.182  26.535  20.366  1.00  0.00    -0.387 OA
ATOM     14  H   UNL     1     -13.471  25.842  20.382  1.00  0.00     0.211 HD
ENDBRANCH   6  13
BRANCH   7  15
ATOM     15  O   UNL     1     -13.644  28.806  21.631  1.00  0.00    -0.384 OA
ATOM     16  H   UNL     1     -14.347  28.198  21.980  1.00  0.00     0.211 HD
ENDBRANCH   7  15
ENDBRANCH   1   2
BRANCH   1  17
ATOM     17  C   UNL     1     -15.800  31.730  18.715  1.00  0.00     0.172 A 
ATOM     18  C   UNL     1     -16.728  31.910  17.680  1.00  0.00     0.205 A 
ATOM     19  C   UNL     1     -15.565  32.744  19.644  1.00  0.00     0.097 A 
ATOM     20  C   UNL     1     -17.441  33.134  17.588  1.00  0.00     0.188 A 
ATOM     21  C   UNL     1     -16.283  33.941  19.590  1.00  0.00     0.134 A 
ATOM     22  C   UNL     1     -17.229  34.148  18.562  1.00  0.00     0.111 A 
ATOM     23  O   UNL     1     -18.295  33.346  16.587  1.00  0.00    -0.452 OA
ATOM     24  C   UNL     1     -17.979  35.336  18.452  1.00  0.00     0.197 A 
ATOM     25  C   UNL     1     -18.989  34.472  16.434  1.00  0.00     0.138 A 
ATOM     26  C   UNL     1     -18.862  35.493  17.388  1.00  0.00     0.100 A 
ATOM     27  O   UNL     1     -17.864  36.267  19.295  1.00  0.00    -0.289 OA
BRANCH  18  28
ATOM     28  O   UNL     1     -16.881  30.844  16.771  1.00  0.00    -0.490 OA
ATOM     29  C   UNL     1     -16.202  30.687  15.532  1.00  0.00     0.278 C 
ENDBRANCH  18  28
BRANCH  21  30
ATOM     30  O   UNL     1     -16.041  34.920  20.558  1.00  0.00    -0.507 OA
ATOM     31  H   UNL     1     -15.133  35.015  21.004  1.00  0.00     0.293 HD
ENDBRANCH  21  30
BRANCH  25  32
ATOM     32  C   UNL     1     -19.881  34.616  15.250  1.00  0.00     0.017 A 
ATOM     33  C   UNL     1     -19.752  33.781  14.121  1.00  0.00     0.012 A 
ATOM     34  C   UNL     1     -20.911  35.578  15.261  1.00  0.00     0.012 A 
ATOM     35  C   UNL     1     -20.613  33.925  13.028  1.00  0.00     0.001 A 
ATOM     36  C   UNL     1     -21.770  35.715  14.165  1.00  0.00     0.001 A 
ATOM     37  C   UNL     1     -21.621  34.891  13.049  1.00  0.00     0.000 A 
ENDBRANCH  25  32
ENDBRANCH   1  17
TORSDOF 9
ENDMDL
MODEL 4
REMARK VINA RESULT:    -6.285      3.144      8.439
REMARK INTER + INTRA:         -10.136
REMARK INTER:                  -8.717
REMARK INTRA:                  -1.419
REMARK UNBOUND:                -1.279
REMARK SMILES COc1c(O[C@H]2O[C@H](C(=O)[O-])[C@@H](O)[C@H](O)[C@@H]2O)cc(O)c2c(=O)cc(-c3ccccc3)oc12
REMARK SMILES IDX 5 1 6 2 8 3 12 4 7 5 14 6 16 7 9 8 10 9 11 10 13 11 15 13
REMARK SMILES IDX 17 15 4 17 3 18 18 19 33 20 19 21 21 22 32 23 22 24 25 25
REMARK SMILES IDX 24 26 23 27 2 28 1 29 20 30 26 32 27 33 31 34 28 35 30 36
REMARK SMILES IDX 29 37
REMARK H PARENT 13 12 15 14 17 16 20 31
REMARK Flexibility Score: inf
ROOT
ATOM      1  O   UNL     1     -15.871  30.610  17.898  1.00  0.00    -0.458 OA
ENDROOT
BRANCH   1   2
ATOM      2  C   UNL     1     -15.289  30.204  19.145  1.00  0.00     0.339 C 
ATOM      3  C   UNL     1     -15.185  28.001  18.319  1.00  0.00     0.199 C 
ATOM      4  C   UNL     1     -13.792  28.355  17.715  1.00  0.00     0.180 C 
ATOM      5  O   UNL     1     -15.570  28.840  19.404  1.00  0.00    -0.328 OA
ATOM      6  C   UNL     1     -12.961  29.188  18.714  1.00  0.00     0.181 C 
ATOM      7  C   UNL     1     -13.753  30.443  19.167  1.00  0.00     0.214 C 
BRANCH   3   8
ATOM      8  C   UNL     1     -15.190  26.577  18.795  1.00  0.00     0.073 C 
ATOM      9  O   UNL     1     -14.774  26.283  19.947  1.00  0.00    -0.547 OA
ATOM     10  O   UNL     1     -15.597  25.562  17.934  1.00  0.00    -0.547 OA
ENDBRANCH   3   8
BRANCH   4  11
ATOM     11  O   UNL     1     -13.976  29.079  16.524  1.00  0.00    -0.387 OA
ATOM     12  H   UNL     1     -14.660  28.593  15.992  1.00  0.00     0.211 HD
ENDBRANCH   4  11
BRANCH   6  13
ATOM     13  O   UNL     1     -12.608  28.397  19.825  1.00  0.00    -0.387 OA
ATOM     14  H   UNL     1     -11.962  28.927  20.362  1.00  0.00     0.211 HD
ENDBRANCH   6  13
BRANCH   7  15
ATOM     15  O   UNL     1     -13.319  30.881  20.433  1.00  0.00    -0.384 OA
ATOM     16  H   UNL     1     -14.123  31.034  20.994  1.00  0.00     0.211 HD
ENDBRANCH   7  15
ENDBRANCH   1   2
BRANCH   1  17
ATOM     17  C   UNL     1     -16.768  31.676  17.798  1.00  0.00     0.172 A 
ATOM     18  C   UNL     1     -18.140  31.432  17.649  1.00  0.00     0.205 A 
ATOM     19  C   UNL     1     -16.275  32.981  17.817  1.00  0.00     0.097 A 
ATOM     20  C   UNL     1     -19.034  32.529  17.528  1.00  0.00     0.188 A 
ATOM     21  C   UNL     1     -17.144  34.073  17.735  1.00  0.00     0.134 A 
ATOM     22  C   UNL     1     -18.532  33.858  17.590  1.00  0.00     0.111 A 
ATOM     23  O   UNL     1     -20.336  32.322  17.339  1.00  0.00    -0.452 OA
ATOM     24  C   UNL     1     -19.456  34.917  17.496  1.00  0.00     0.197 A 
ATOM     25  C   UNL     1     -21.229  33.301  17.209  1.00  0.00     0.138 A 
ATOM     26  C   UNL     1     -20.806  34.635  17.310  1.00  0.00     0.100 A 
ATOM     27  O   UNL     1     -19.086  36.121  17.572  1.00  0.00    -0.289 OA
BRANCH  18  28
ATOM     28  O   UNL     1     -18.545  30.084  17.612  1.00  0.00    -0.490 OA
ATOM     29  C   UNL     1     -19.047  29.323  18.704  1.00  0.00     0.278 C 
ENDBRANCH  18  28
BRANCH  21  30
ATOM     30  O   UNL     1     -16.613  35.365  17.790  1.00  0.00    -0.507 OA
ATOM     31  H   UNL     1     -17.210  36.188  17.753  1.00  0.00     0.293 HD
ENDBRANCH  21  30
BRANCH  25  32
ATOM     32  C   UNL     1     -22.654  32.952  16.956  1.00  0.00     0.017 A 
ATOM     33  C   UNL     1     -23.139  31.640  17.142  1.00  0.00     0.012 A 
ATOM     34  C   UNL     1     -23.563  33.954  16.561  1.00  0.00     0.012 A 
ATOM     35  C   UNL     1     -24.487  31.341  16.914  1.00  0.00     0.001 A 
ATOM     36  C   UNL     1     -24.910  33.649  16.337  1.00  0.00     0.001 A 
ATOM     37  C   UNL     1     -25.371  32.343  16.511  1.00  0.00     0.000 A 
ENDBRANCH  25  32
ENDBRANCH   1  17
TORSDOF 9
ENDMDL
MODEL 5
REMARK VINA RESULT:    -6.265      2.707      8.710
REMARK INTER + INTRA:         -10.108
REMARK INTER:                  -8.762
REMARK INTRA:                  -1.347
REMARK UNBOUND:                -1.279
REMARK SMILES COc1c(O[C@H]2O[C@H](C(=O)[O-])[C@@H](O)[C@H](O)[C@@H]2O)cc(O)c2c(=O)cc(-c3ccccc3)oc12
REMARK SMILES IDX 5 1 6 2 8 3 12 4 7 5 14 6 16 7 9 8 10 9 11 10 13 11 15 13
REMARK SMILES IDX 17 15 4 17 3 18 18 19 33 20 19 21 21 22 32 23 22 24 25 25
REMARK SMILES IDX 24 26 23 27 2 28 1 29 20 30 26 32 27 33 31 34 28 35 30 36
REMARK SMILES IDX 29 37
REMARK H PARENT 13 12 15 14 17 16 20 31
REMARK Flexibility Score: inf
ROOT
ATOM      1  O   UNL     1     -16.454  29.768  18.334  1.00  0.00    -0.458 OA
ENDROOT
BRANCH   1   2
ATOM      2  C   UNL     1     -16.226  28.787  19.356  1.00  0.00     0.339 C 
ATOM      3  C   UNL     1     -15.411  27.327  17.696  1.00  0.00     0.199 C 
ATOM      4  C   UNL     1     -14.004  27.963  17.909  1.00  0.00     0.180 C 
ATOM      5  O   UNL     1     -16.285  27.481  18.811  1.00  0.00    -0.328 OA
ATOM      6  C   UNL     1     -13.723  28.175  19.412  1.00  0.00     0.181 C 
ATOM      7  C   UNL     1     -14.860  29.004  20.066  1.00  0.00     0.214 C 
BRANCH   3   8
ATOM      8  C   UNL     1     -15.272  25.861  17.401  1.00  0.00     0.073 C 
ATOM      9  O   UNL     1     -15.148  25.026  18.335  1.00  0.00    -0.547 OA
ATOM     10  O   UNL     1     -15.212  25.426  16.081  1.00  0.00    -0.547 OA
ENDBRANCH   3   8
BRANCH   4  11
ATOM     11  O   UNL     1     -13.948  29.195  17.233  1.00  0.00    -0.387 OA
ATOM     12  H   UNL     1     -13.729  28.996  16.284  1.00  0.00     0.211 HD
ENDBRANCH   4  11
BRANCH   6  13
ATOM     13  O   UNL     1     -13.584  26.930  20.056  1.00  0.00    -0.387 OA
ATOM     14  H   UNL     1     -12.629  26.844  20.314  1.00  0.00     0.211 HD
ENDBRANCH   6  13
BRANCH   7  15
ATOM     15  O   UNL     1     -14.950  28.733  21.445  1.00  0.00    -0.384 OA
ATOM     16  H   UNL     1     -15.767  29.178  21.790  1.00  0.00     0.211 HD
ENDBRANCH   7  15
ENDBRANCH   1   2
BRANCH   1  17
ATOM     17  C   UNL     1     -17.385  30.800  18.476  1.00  0.00     0.172 A 
ATOM     18  C   UNL     1     -16.956  32.133  18.537  1.00  0.00     0.205 A 
ATOM     19  C   UNL     1     -18.739  30.482  18.588  1.00  0.00     0.097 A 
ATOM     20  C   UNL     1     -17.915  33.167  18.701  1.00  0.00     0.188 A 
ATOM     21  C   UNL     1     -19.700  31.489  18.715  1.00  0.00     0.134 A 
ATOM     22  C   UNL     1     -19.297  32.842  18.772  1.00  0.00     0.111 A 
ATOM     23  O   UNL     1     -17.528  34.438  18.807  1.00  0.00    -0.452 OA
ATOM     24  C   UNL     1     -20.218  33.900  18.906  1.00  0.00     0.197 A 
ATOM     25  C   UNL     1     -18.371  35.455  18.972  1.00  0.00     0.138 A 
ATOM     26  C   UNL     1     -19.752  35.207  19.001  1.00  0.00     0.100 A 
ATOM     27  O   UNL     1     -21.462  33.689  18.947  1.00  0.00    -0.289 OA
BRANCH  18  28
ATOM     28  O   UNL     1     -15.569  32.359  18.443  1.00  0.00    -0.490 OA
ATOM     29  C   UNL     1     -14.658  32.483  19.528  1.00  0.00     0.278 C 
ENDBRANCH  18  28
BRANCH  21  30
ATOM     30  O   UNL     1     -21.049  31.131  18.792  1.00  0.00    -0.507 OA
ATOM     31  H   UNL     1     -21.501  30.596  18.056  1.00  0.00     0.293 HD
ENDBRANCH  21  30
BRANCH  25  32
ATOM     32  C   UNL     1     -17.822  36.831  19.124  1.00  0.00     0.017 A 
ATOM     33  C   UNL     1     -16.829  37.332  18.256  1.00  0.00     0.012 A 
ATOM     34  C   UNL     1     -18.327  37.681  20.129  1.00  0.00     0.012 A 
ATOM     35  C   UNL     1     -16.342  38.635  18.409  1.00  0.00     0.001 A 
ATOM     36  C   UNL     1     -17.837  38.983  20.275  1.00  0.00     0.001 A 
ATOM     37  C   UNL     1     -16.845  39.460  19.417  1.00  0.00     0.000 A 
ENDBRANCH  25  32
ENDBRANCH   1  17
TORSDOF 9
ENDMDL
MODEL 6
REMARK VINA RESULT:    -6.260      2.843      3.585
REMARK INTER + INTRA:         -10.101
REMARK INTER:                  -8.692
REMARK INTRA:                  -1.409
REMARK UNBOUND:                -1.279
REMARK SMILES COc1c(O[C@H]2O[C@H](C(=O)[O-])[C@@H](O)[C@H](O)[C@@H]2O)cc(O)c2c(=O)cc(-c3ccccc3)oc12
REMARK SMILES IDX 5 1 6 2 8 3 12 4 7 5 14 6 16 7 9 8 10 9 11 10 13 11 15 13
REMARK SMILES IDX 17 15 4 17 3 18 18 19 33 20 19 21 21 22 32 23 22 24 25 25
REMARK SMILES IDX 24 26 23 27 2 28 1 29 20 30 26 32 27 33 31 34 28 35 30 36
REMARK SMILES IDX 29 37
REMARK H PARENT 13 12 15 14 17 16 20 31
REMARK Flexibility Score: inf
ROOT
ATOM      1  O   UNL     1     -17.202  33.175  19.510  1.00  0.00    -0.458 OA
ENDROOT
BRANCH   1   2
ATOM      2  C   UNL     1     -16.635  34.469  19.261  1.00  0.00     0.339 C 
ATOM      3  C   UNL     1     -18.285  34.818  17.618  1.00  0.00     0.199 C 
ATOM      4  C   UNL     1     -19.209  35.373  18.744  1.00  0.00     0.180 C 
ATOM      5  O   UNL     1     -16.896  34.879  17.931  1.00  0.00    -0.328 OA
ATOM      6  C   UNL     1     -18.411  36.283  19.704  1.00  0.00     0.181 C 
ATOM      7  C   UNL     1     -17.172  35.533  20.260  1.00  0.00     0.214 C 
BRANCH   3   8
ATOM      8  C   UNL     1     -18.518  35.579  16.344  1.00  0.00     0.073 C 
ATOM      9  O   UNL     1     -19.151  35.056  15.389  1.00  0.00    -0.547 OA
ATOM     10  O   UNL     1     -17.974  36.850  16.189  1.00  0.00    -0.547 OA
ENDBRANCH   3   8
BRANCH   4  11
ATOM     11  O   UNL     1     -19.764  34.296  19.456  1.00  0.00    -0.387 OA
ATOM     12  H   UNL     1     -19.881  34.598  20.395  1.00  0.00     0.211 HD
ENDBRANCH   4  11
BRANCH   6  13
ATOM     13  O   UNL     1     -18.020  37.460  19.037  1.00  0.00    -0.387 OA
ATOM     14  H   UNL     1     -18.850  37.889  18.700  1.00  0.00     0.211 HD
ENDBRANCH   6  13
BRANCH   7  15
ATOM     15  O   UNL     1     -16.162  36.441  20.636  1.00  0.00    -0.384 OA
ATOM     16  H   UNL     1     -15.844  36.185  21.541  1.00  0.00     0.211 HD
ENDBRANCH   7  15
ENDBRANCH   1   2
BRANCH   1  17
ATOM     17  C   UNL     1     -16.469  31.993  19.374  1.00  0.00     0.172 A 
ATOM     18  C   UNL     1     -17.126  30.781  19.124  1.00  0.00     0.205 A 
ATOM     19  C   UNL     1     -15.082  32.034  19.520  1.00  0.00     0.097 A 
ATOM     20  C   UNL     1     -16.366  29.587  19.009  1.00  0.00     0.188 A 
ATOM     21  C   UNL     1     -14.315  30.875  19.374  1.00  0.00     0.134 A 
ATOM     22  C   UNL     1     -14.950  29.640  19.116  1.00  0.00     0.111 A 
ATOM     23  O   UNL     1     -16.972  28.416  18.817  1.00  0.00    -0.452 OA
ATOM     24  C   UNL     1     -14.231  28.438  18.966  1.00  0.00     0.197 A 
ATOM     25  C   UNL     1     -16.324  27.258  18.709  1.00  0.00     0.138 A 
ATOM     26  C   UNL     1     -14.921  27.247  18.758  1.00  0.00     0.100 A 
ATOM     27  O   UNL     1     -12.971  28.413  19.021  1.00  0.00    -0.289 OA
BRANCH  18  28
ATOM     28  O   UNL     1     -18.530  30.829  19.018  1.00  0.00    -0.490 OA
ATOM     29  C   UNL     1     -19.283  30.946  17.817  1.00  0.00     0.278 C 
ENDBRANCH  18  28
BRANCH  21  30
ATOM     30  O   UNL     1     -12.925  30.963  19.497  1.00  0.00    -0.507 OA
ATOM     31  H   UNL     1     -12.358  31.435  18.798  1.00  0.00     0.293 HD
ENDBRANCH  21  30
BRANCH  25  32
ATOM     32  C   UNL     1     -17.108  26.003  18.542  1.00  0.00     0.017 A 
ATOM     33  C   UNL     1     -16.518  24.733  18.716  1.00  0.00     0.012 A 
ATOM     34  C   UNL     1     -18.483  26.069  18.244  1.00  0.00     0.012 A 
ATOM     35  C   UNL     1     -17.280  23.569  18.571  1.00  0.00     0.001 A 
ATOM     36  C   UNL     1     -19.240  24.900  18.102  1.00  0.00     0.001 A 
ATOM     37  C   UNL     1     -18.639  23.652  18.264  1.00  0.00     0.000 A 
ENDBRANCH  25  32
ENDBRANCH   1  17
TORSDOF 9
ENDMDL
MODEL 7
REMARK VINA RESULT:    -6.256      1.680      2.565
REMARK INTER + INTRA:         -10.095
REMARK INTER:                  -8.757
REMARK INTRA:                  -1.339
REMARK UNBOUND:                -1.279
REMARK SMILES COc1c(O[C@H]2O[C@H](C(=O)[O-])[C@@H](O)[C@H](O)[C@@H]2O)cc(O)c2c(=O)cc(-c3ccccc3)oc12
REMARK SMILES IDX 5 1 6 2 8 3 12 4 7 5 14 6 16 7 9 8 10 9 11 10 13 11 15 13
REMARK SMILES IDX 17 15 4 17 3 18 18 19 33 20 19 21 21 22 32 23 22 24 25 25
REMARK SMILES IDX 24 26 23 27 2 28 1 29 20 30 26 32 27 33 31 34 28 35 30 36
REMARK SMILES IDX 29 37
REMARK H PARENT 13 12 15 14 17 16 20 31
REMARK Flexibility Score: inf
ROOT
ATOM      1  O   UNL     1     -16.813  33.360  18.078  1.00  0.00    -0.458 OA
ENDROOT
BRANCH   1   2
ATOM      2  C   UNL     1     -17.860  33.586  19.032  1.00  0.00     0.339 C 
ATOM      3  C   UNL     1     -17.247  35.859  19.088  1.00  0.00     0.199 C 
ATOM      4  C   UNL     1     -18.212  36.090  17.885  1.00  0.00     0.180 C 
ATOM      5  O   UNL     1     -17.552  34.697  19.854  1.00  0.00    -0.328 OA
ATOM      6  C   UNL     1     -19.528  35.307  18.085  1.00  0.00     0.181 C 
ATOM      7  C   UNL     1     -19.234  33.805  18.337  1.00  0.00     0.214 C 
BRANCH   3   8
ATOM      8  C   UNL     1     -17.274  37.051  20.002  1.00  0.00     0.073 C 
ATOM      9  O   UNL     1     -16.356  37.913  19.961  1.00  0.00    -0.547 OA
ATOM     10  O   UNL     1     -18.286  37.173  20.948  1.00  0.00    -0.547 OA
ENDBRANCH   3   8
BRANCH   4  11
ATOM     11  O   UNL     1     -17.580  35.672  16.701  1.00  0.00    -0.387 OA
ATOM     12  H   UNL     1     -18.200  35.878  15.953  1.00  0.00     0.211 HD
ENDBRANCH   4  11
BRANCH   6  13
ATOM     13  O   UNL     1     -20.257  35.857  19.157  1.00  0.00    -0.387 OA
ATOM     14  H   UNL     1     -19.652  35.862  19.944  1.00  0.00     0.211 HD
ENDBRANCH   6  13
BRANCH   7  15
ATOM     15  O   UNL     1     -20.279  33.204  19.065  1.00  0.00    -0.384 OA
ATOM     16  H   UNL     1     -20.274  33.589  19.979  1.00  0.00     0.211 HD
ENDBRANCH   7  15
ENDBRANCH   1   2
BRANCH   1  17
ATOM     17  C   UNL     1     -15.991  32.231  18.115  1.00  0.00     0.172 A 
ATOM     18  C   UNL     1     -16.071  31.268  17.100  1.00  0.00     0.205 A 
ATOM     19  C   UNL     1     -15.115  32.064  19.188  1.00  0.00     0.097 A 
ATOM     20  C   UNL     1     -15.242  30.117  17.166  1.00  0.00     0.188 A 
ATOM     21  C   UNL     1     -14.267  30.956  19.250  1.00  0.00     0.134 A 
ATOM     22  C   UNL     1     -14.321  29.971  18.238  1.00  0.00     0.111 A 
ATOM     23  O   UNL     1     -15.333  29.165  16.237  1.00  0.00    -0.452 OA
ATOM     24  C   UNL     1     -13.496  28.829  18.250  1.00  0.00     0.197 A 
ATOM     25  C   UNL     1     -14.594  28.057  16.241  1.00  0.00     0.138 A 
ATOM     26  C   UNL     1     -13.632  27.875  17.246  1.00  0.00     0.100 A 
ATOM     27  O   UNL     1     -12.636  28.647  19.155  1.00  0.00    -0.289 OA
BRANCH  18  28
ATOM     28  O   UNL     1     -17.002  31.505  16.070  1.00  0.00    -0.490 OA
ATOM     29  C   UNL     1     -16.732  32.104  14.809  1.00  0.00     0.278 C 
ENDBRANCH  18  28
BRANCH  21  30
ATOM     30  O   UNL     1     -13.381  30.840  20.325  1.00  0.00    -0.507 OA
ATOM     31  H   UNL     1     -12.438  30.482  20.203  1.00  0.00     0.293 HD
ENDBRANCH  21  30
BRANCH  25  32
ATOM     32  C   UNL     1     -14.813  27.039  15.177  1.00  0.00     0.017 A 
ATOM     33  C   UNL     1     -13.904  25.980  14.968  1.00  0.00     0.012 A 
ATOM     34  C   UNL     1     -15.972  27.096  14.378  1.00  0.00     0.012 A 
ATOM     35  C   UNL     1     -14.141  25.025  13.974  1.00  0.00     0.001 A 
ATOM     36  C   UNL     1     -16.204  26.137  13.386  1.00  0.00     0.001 A 
ATOM     37  C   UNL     1     -15.288  25.103  13.183  1.00  0.00     0.000 A 
ENDBRANCH  25  32
ENDBRANCH   1  17
TORSDOF 9
ENDMDL
MODEL 8
REMARK VINA RESULT:    -6.248      2.963      4.675
REMARK INTER + INTRA:         -10.085
REMARK INTER:                  -8.797
REMARK INTRA:                  -1.287
REMARK UNBOUND:                -1.279
REMARK SMILES COc1c(O[C@H]2O[C@H](C(=O)[O-])[C@@H](O)[C@H](O)[C@@H]2O)cc(O)c2c(=O)cc(-c3ccccc3)oc12
REMARK SMILES IDX 5 1 6 2 8 3 12 4 7 5 14 6 16 7 9 8 10 9 11 10 13 11 15 13
REMARK SMILES IDX 17 15 4 17 3 18 18 19 33 20 19 21 21 22 32 23 22 24 25 25
REMARK SMILES IDX 24 26 23 27 2 28 1 29 20 30 26 32 27 33 31 34 28 35 30 36
REMARK SMILES IDX 29 37
REMARK H PARENT 13 12 15 14 17 16 20 31
REMARK Flexibility Score: inf
ROOT
ATOM      1  O   UNL     1     -16.420  31.411  17.954  1.00  0.00    -0.458 OA
ENDROOT
BRANCH   1   2
ATOM      2  C   UNL     1     -15.594  32.521  18.334  1.00  0.00     0.339 C 
ATOM      3  C   UNL     1     -17.126  33.956  17.267  1.00  0.00     0.199 C 
ATOM      4  C   UNL     1     -17.921  34.012  18.607  1.00  0.00     0.180 C 
ATOM      5  O   UNL     1     -15.757  33.594  17.424  1.00  0.00    -0.328 OA
ATOM      6  C   UNL     1     -16.957  34.138  19.806  1.00  0.00     0.181 C 
ATOM      7  C   UNL     1     -15.904  32.999  19.781  1.00  0.00     0.214 C 
BRANCH   3   8
ATOM      8  C   UNL     1     -17.189  35.290  16.579  1.00  0.00     0.073 C 
ATOM      9  O   UNL     1     -16.367  36.201  16.867  1.00  0.00    -0.547 OA
ATOM     10  O   UNL     1     -18.203  35.548  15.662  1.00  0.00    -0.547 OA
ENDBRANCH   3   8
BRANCH   4  11
ATOM     11  O   UNL     1     -18.692  32.843  18.734  1.00  0.00    -0.387 OA
ATOM     12  H   UNL     1     -18.925  32.548  17.814  1.00  0.00     0.211 HD
ENDBRANCH   4  11
BRANCH   6  13
ATOM     13  O   UNL     1     -16.325  35.397  19.786  1.00  0.00    -0.387 OA
ATOM     14  H   UNL     1     -16.714  35.902  19.023  1.00  0.00     0.211 HD
ENDBRANCH   6  13
BRANCH   7  15
ATOM     15  O   UNL     1     -14.730  33.385  20.457  1.00  0.00    -0.384 OA
ATOM     16  H   UNL     1     -14.997  33.892  21.267  1.00  0.00     0.211 HD
ENDBRANCH   7  15
ENDBRANCH   1   2
BRANCH   1  17
ATOM     17  C   UNL     1     -15.891  30.196  17.510  1.00  0.00     0.172 A 
ATOM     18  C   UNL     1     -16.146  29.015  18.218  1.00  0.00     0.205 A 
ATOM     19  C   UNL     1     -15.083  30.184  16.372  1.00  0.00     0.097 A 
ATOM     20  C   UNL     1     -15.583  27.794  17.762  1.00  0.00     0.188 A 
ATOM     21  C   UNL     1     -14.551  28.986  15.889  1.00  0.00     0.134 A 
ATOM     22  C   UNL     1     -14.796  27.778  16.579  1.00  0.00     0.111 A 
ATOM     23  O   UNL     1     -15.774  26.665  18.444  1.00  0.00    -0.452 OA
ATOM     24  C   UNL     1     -14.281  26.541  16.144  1.00  0.00     0.197 A 
ATOM     25  C   UNL     1     -15.269  25.487  18.081  1.00  0.00     0.138 A 
ATOM     26  C   UNL     1     -14.524  25.395  16.895  1.00  0.00     0.100 A 
ATOM     27  O   UNL     1     -13.598  26.447  15.087  1.00  0.00    -0.289 OA
BRANCH  18  28
ATOM     28  O   UNL     1     -16.949  29.125  19.370  1.00  0.00    -0.490 OA
ATOM     29  C   UNL     1     -18.370  29.104  19.414  1.00  0.00     0.278 C 
ENDBRANCH  18  28
BRANCH  21  30
ATOM     30  O   UNL     1     -13.773  29.011  14.727  1.00  0.00    -0.507 OA
ATOM     31  H   UNL     1     -13.398  29.880  14.356  1.00  0.00     0.293 HD
ENDBRANCH  21  30
BRANCH  25  32
ATOM     32  C   UNL     1     -15.509  24.299  18.945  1.00  0.00     0.017 A 
ATOM     33  C   UNL     1     -15.154  24.294  20.311  1.00  0.00     0.012 A 
ATOM     34  C   UNL     1     -16.144  23.160  18.412  1.00  0.00     0.012 A 
ATOM     35  C   UNL     1     -15.406  23.172  21.107  1.00  0.00     0.001 A 
ATOM     36  C   UNL     1     -16.394  22.041  19.215  1.00  0.00     0.001 A 
ATOM     37  C   UNL     1     -16.025  22.046  20.560  1.00  0.00     0.000 A 
ENDBRANCH  25  32
ENDBRANCH   1  17
TORSDOF 9
ENDMDL
MODEL 9
REMARK VINA RESULT:    -6.079      2.099      4.507
REMARK INTER + INTRA:          -9.846
REMARK INTER:                  -8.304
REMARK INTRA:                  -1.542
REMARK UNBOUND:                -1.279
REMARK SMILES COc1c(O[C@H]2O[C@H](C(=O)[O-])[C@@H](O)[C@H](O)[C@@H]2O)cc(O)c2c(=O)cc(-c3ccccc3)oc12
REMARK SMILES IDX 5 1 6 2 8 3 12 4 7 5 14 6 16 7 9 8 10 9 11 10 13 11 15 13
REMARK SMILES IDX 17 15 4 17 3 18 18 19 33 20 19 21 21 22 32 23 22 24 25 25
REMARK SMILES IDX 24 26 23 27 2 28 1 29 20 30 26 32 27 33 31 34 28 35 30 36
REMARK SMILES IDX 29 37
REMARK H PARENT 13 12 15 14 17 16 20 31
REMARK Flexibility Score: inf
ROOT
ATOM      1  O   UNL     1     -18.101  35.069  17.983  1.00  0.00    -0.458 OA
ENDROOT
BRANCH   1   2
ATOM      2  C   UNL     1     -18.148  36.498  18.103  1.00  0.00     0.339 C 
ATOM      3  C   UNL     1     -18.585  36.236  20.402  1.00  0.00     0.199 C 
ATOM      4  C   UNL     1     -17.044  36.208  20.634  1.00  0.00     0.180 C 
ATOM      5  O   UNL     1     -18.973  36.877  19.190  1.00  0.00    -0.328 OA
ATOM      6  C   UNL     1     -16.343  37.278  19.769  1.00  0.00     0.181 C 
ATOM      7  C   UNL     1     -16.728  37.107  18.275  1.00  0.00     0.214 C 
BRANCH   3   8
ATOM      8  C   UNL     1     -19.262  36.936  21.546  1.00  0.00     0.073 C 
ATOM      9  O   UNL     1     -19.828  36.277  22.458  1.00  0.00    -0.547 OA
ATOM     10  O   UNL     1     -19.323  38.326  21.567  1.00  0.00    -0.547 OA
ENDBRANCH   3   8
BRANCH   4  11
ATOM     11  O   UNL     1     -16.552  34.932  20.308  1.00  0.00    -0.387 OA
ATOM     12  H   UNL     1     -17.304  34.428  19.899  1.00  0.00     0.211 HD
ENDBRANCH   4  11
BRANCH   6  13
ATOM     13  O   UNL     1     -16.687  38.567  20.224  1.00  0.00    -0.387 OA
ATOM     14  H   UNL     1     -16.831  39.128  19.418  1.00  0.00     0.211 HD
ENDBRANCH   6  13
BRANCH   7  15
ATOM     15  O   UNL     1     -16.605  38.327  17.582  1.00  0.00    -0.384 OA
ATOM     16  H   UNL     1     -16.298  38.124  16.660  1.00  0.00     0.211 HD
ENDBRANCH   7  15
ENDBRANCH   1   2
BRANCH   1  17
ATOM     17  C   UNL     1     -17.678  34.425  16.818  1.00  0.00     0.172 A 
ATOM     18  C   UNL     1     -17.059  33.169  16.891  1.00  0.00     0.205 A 
ATOM     19  C   UNL     1     -17.852  35.062  15.589  1.00  0.00     0.097 A 
ATOM     20  C   UNL     1     -16.618  32.539  15.697  1.00  0.00     0.188 A 
ATOM     21  C   UNL     1     -17.456  34.441  14.401  1.00  0.00     0.134 A 
ATOM     22  C   UNL     1     -16.836  33.173  14.443  1.00  0.00     0.111 A 
ATOM     23  O   UNL     1     -15.987  31.367  15.745  1.00  0.00    -0.452 OA
ATOM     24  C   UNL     1     -16.410  32.500  13.281  1.00  0.00     0.197 A 
ATOM     25  C   UNL     1     -15.539  30.724  14.668  1.00  0.00     0.138 A 
ATOM     26  C   UNL     1     -15.765  31.273  13.397  1.00  0.00     0.100 A 
ATOM     27  O   UNL     1     -16.595  32.989  12.132  1.00  0.00    -0.289 OA
BRANCH  18  28
ATOM     28  O   UNL     1     -16.900  32.613  18.175  1.00  0.00    -0.490 OA
ATOM     29  C   UNL     1     -17.751  31.654  18.791  1.00  0.00     0.278 C 
ENDBRANCH  18  28
BRANCH  21  30
ATOM     30  O   UNL     1     -17.677  35.099  13.187  1.00  0.00    -0.507 OA
ATOM     31  H   UNL     1     -18.218  35.958  13.138  1.00  0.00     0.293 HD
ENDBRANCH  21  30
BRANCH  25  32
ATOM     32  C   UNL     1     -14.806  29.440  14.845  1.00  0.00     0.017 A 
ATOM     33  C   UNL     1     -14.100  28.839  13.781  1.00  0.00     0.012 A 
ATOM     34  C   UNL     1     -14.772  28.819  16.110  1.00  0.00     0.012 A 
ATOM     35  C   UNL     1     -13.404  27.641  13.977  1.00  0.00     0.001 A 
ATOM     36  C   UNL     1     -14.072  27.622  16.299  1.00  0.00     0.001 A 
ATOM     37  C   UNL     1     -13.391  27.033  15.233  1.00  0.00     0.000 A 
ENDBRANCH  25  32
ENDBRANCH   1  17
TORSDOF 9
ENDMDL
