MODEL 1
REMARK VINA RESULT:    -2.321      0.000      0.000
REMARK INTER + INTRA:          -2.829
REMARK INTER:                  -2.728
REMARK INTRA:                  -0.101
REMARK UNBOUND:                -0.101
REMARK SMILES CCCCC(=O)[O-]
REMARK SMILES IDX 4 1 5 2 6 3 7 4 3 5 2 6 1 7
REMARK H PARENT
REMARK Flexibility Score: inf
ROOT
ATOM      1  C   UNL     1     147.911 154.767 160.037  1.00  0.00     0.053 C 
ENDROOT
BRANCH   1   2
ATOM      2  C   UNL     1     147.054 153.695 159.441  1.00  0.00     0.041 C 
ATOM      3  O   UNL     1     147.406 153.122 158.377  1.00  0.00    -0.550 OA
ATOM      4  O   UNL     1     145.891 153.295 160.087  1.00  0.00    -0.550 OA
ENDBRANCH   1   2
BRANCH   1   5
ATOM      5  C   UNL     1     147.043 155.858 160.670  1.00  0.00     0.006 C 
BRANCH   5   6
ATOM      6  C   UNL     1     147.189 155.861 162.196  1.00  0.00    -0.003 C 
ATOM      7  C   UNL     1     145.881 155.466 162.875  1.00  0.00     0.004 C 
ENDBRANCH   5   6
ENDBRANCH   1   5
TORSDOF 3
ENDMDL
MODEL 2
REMARK VINA RESULT:    -2.317      1.418      2.441
REMARK INTER + INTRA:          -2.824
REMARK INTER:                  -2.754
REMARK INTRA:                  -0.070
REMARK UNBOUND:                -0.101
REMARK SMILES CCCCC(=O)[O-]
REMARK SMILES IDX 4 1 5 2 6 3 7 4 3 5 2 6 1 7
REMARK H PARENT
REMARK Flexibility Score: inf
ROOT
ATOM      1  C   UNL     1     147.995 154.672 160.098  1.00  0.00     0.053 C 
ENDROOT
BRANCH   1   2
ATOM      2  C   UNL     1     147.072 153.672 159.478  1.00  0.00     0.041 C 
ATOM      3  O   UNL     1     147.369 153.130 158.381  1.00  0.00    -0.550 OA
ATOM      4  O   UNL     1     145.905 153.301 160.135  1.00  0.00    -0.550 OA
ENDBRANCH   1   2
BRANCH   1   5
ATOM      5  C   UNL     1     147.319 156.043 160.187  1.00  0.00     0.006 C 
BRANCH   5   6
ATOM      6  C   UNL     1     147.958 157.035 159.209  1.00  0.00    -0.003 C 
ATOM      7  C   UNL     1     149.259 156.481 158.633  1.00  0.00     0.004 C 
ENDBRANCH   5   6
ENDBRANCH   1   5
TORSDOF 3
ENDMDL
MODEL 3
REMARK VINA RESULT:    -2.298      2.877      3.462
REMARK INTER + INTRA:          -2.802
REMARK INTER:                  -2.699
REMARK INTRA:                  -0.103
REMARK UNBOUND:                -0.101
REMARK SMILES CCCCC(=O)[O-]
REMARK SMILES IDX 4 1 5 2 6 3 7 4 3 5 2 6 1 7
REMARK H PARENT
REMARK Flexibility Score: inf
ROOT
ATOM      1  C   UNL     1     148.697 155.833 158.990  1.00  0.00     0.053 C 
ENDROOT
BRANCH   1   2
ATOM      2  C   UNL     1     147.923 157.111 159.040  1.00  0.00     0.041 C 
ATOM      3  O   UNL     1     148.169 158.034 158.219  1.00  0.00    -0.550 OA
ATOM      4  O   UNL     1     146.896 157.267 159.962  1.00  0.00    -0.550 OA
ENDBRANCH   1   2
BRANCH   1   5
ATOM      5  C   UNL     1     148.149 154.833 160.012  1.00  0.00     0.006 C 
BRANCH   5   6
ATOM      6  C   UNL     1     147.284 153.768 159.330  1.00  0.00    -0.003 C 
ATOM      7  C   UNL     1     145.899 153.691 159.969  1.00  0.00     0.004 C 
ENDBRANCH   5   6
ENDBRANCH   1   5
TORSDOF 3
ENDMDL
MODEL 4
REMARK VINA RESULT:    -2.226     12.874     13.499
REMARK INTER + INTRA:          -2.718
REMARK INTER:                  -2.684
REMARK INTRA:                  -0.035
REMARK UNBOUND:                -0.101
REMARK SMILES CCCCC(=O)[O-]
REMARK SMILES IDX 4 1 5 2 6 3 7 4 3 5 2 6 1 7
REMARK H PARENT
REMARK Flexibility Score: inf
ROOT
ATOM      1  C   UNL     1     146.143 165.408 153.024  1.00  0.00     0.053 C 
ENDROOT
BRANCH   1   2
ATOM      2  C   UNL     1     146.480 165.736 151.604  1.00  0.00     0.041 C 
ATOM      3  O   UNL     1     147.345 166.613 151.344  1.00  0.00    -0.550 OA
ATOM      4  O   UNL     1     145.875 165.038 150.567  1.00  0.00    -0.550 OA
ENDBRANCH   1   2
BRANCH   1   5
ATOM      5  C   UNL     1     147.272 165.851 153.959  1.00  0.00     0.006 C 
BRANCH   5   6
ATOM      6  C   UNL     1     146.716 166.304 155.315  1.00  0.00    -0.003 C 
ATOM      7  C   UNL     1     145.935 165.181 155.993  1.00  0.00     0.004 C 
ENDBRANCH   5   6
ENDBRANCH   1   5
TORSDOF 3
ENDMDL
MODEL 5
REMARK VINA RESULT:    -2.213      2.754      3.878
REMARK INTER + INTRA:          -2.703
REMARK INTER:                  -2.654
REMARK INTRA:                  -0.049
REMARK UNBOUND:                -0.101
REMARK SMILES CCCCC(=O)[O-]
REMARK SMILES IDX 4 1 5 2 6 3 7 4 3 5 2 6 1 7
REMARK H PARENT
REMARK Flexibility Score: inf
ROOT
ATOM      1  C   UNL     1     146.990 155.804 161.104  1.00  0.00     0.053 C 
ENDROOT
BRANCH   1   2
ATOM      2  C   UNL     1     146.413 156.293 162.394  1.00  0.00     0.041 C 
ATOM      3  O   UNL     1     146.156 157.516 162.550  1.00  0.00    -0.550 OA
ATOM      4  O   UNL     1     146.114 155.392 163.408  1.00  0.00    -0.550 OA
ENDBRANCH   1   2
BRANCH   1   5
ATOM      5  C   UNL     1     145.876 155.348 160.156  1.00  0.00     0.006 C 
BRANCH   5   6
ATOM      6  C   UNL     1     145.932 153.833 159.931  1.00  0.00    -0.003 C 
ATOM      7  C   UNL     1     147.165 153.441 159.120  1.00  0.00     0.004 C 
ENDBRANCH   5   6
ENDBRANCH   1   5
TORSDOF 3
ENDMDL
MODEL 6
REMARK VINA RESULT:    -2.183      2.609      3.644
REMARK INTER + INTRA:          -2.668
REMARK INTER:                  -2.564
REMARK INTRA:                  -0.103
REMARK UNBOUND:                -0.101
REMARK SMILES CCCCC(=O)[O-]
REMARK SMILES IDX 4 1 5 2 6 3 7 4 3 5 2 6 1 7
REMARK H PARENT
REMARK Flexibility Score: inf
ROOT
ATOM      1  C   UNL     1     147.064 155.612 161.093  1.00  0.00     0.053 C 
ENDROOT
BRANCH   1   2
ATOM      2  C   UNL     1     146.599 156.990 160.744  1.00  0.00     0.041 C 
ATOM      3  O   UNL     1     146.104 157.223 159.610  1.00  0.00    -0.550 OA
ATOM      4  O   UNL     1     146.668 158.007 161.687  1.00  0.00    -0.550 OA
ENDBRANCH   1   2
BRANCH   1   5
ATOM      5  C   UNL     1     145.875 154.651 161.181  1.00  0.00     0.006 C 
BRANCH   5   6
ATOM      6  C   UNL     1     145.875 153.667 160.005  1.00  0.00    -0.003 C 
ATOM      7  C   UNL     1     147.258 153.574 159.364  1.00  0.00     0.004 C 
ENDBRANCH   5   6
ENDBRANCH   1   5
TORSDOF 3
ENDMDL
MODEL 7
REMARK VINA RESULT:    -2.072     12.883     13.634
REMARK INTER + INTRA:          -2.537
REMARK INTER:                  -2.507
REMARK INTRA:                  -0.030
REMARK UNBOUND:                -0.101
REMARK SMILES CCCCC(=O)[O-]
REMARK SMILES IDX 4 1 5 2 6 3 7 4 3 5 2 6 1 7
REMARK H PARENT
REMARK Flexibility Score: inf
ROOT
ATOM      1  C   UNL     1     145.983 165.293 151.544  1.00  0.00     0.053 C 
ENDROOT
BRANCH   1   2
ATOM      2  C   UNL     1     146.940 166.150 152.310  1.00  0.00     0.041 C 
ATOM      3  O   UNL     1     147.664 166.985 151.708  1.00  0.00    -0.550 OA
ATOM      4  O   UNL     1     146.997 166.062 153.695  1.00  0.00    -0.550 OA
ENDBRANCH   1   2
BRANCH   1   5
ATOM      5  C   UNL     1     145.913 163.890 152.153  1.00  0.00     0.006 C 
BRANCH   5   6
ATOM      6  C   UNL     1     146.487 162.844 151.190  1.00  0.00    -0.003 C 
ATOM      7  C   UNL     1     146.881 161.569 151.933  1.00  0.00     0.004 C 
ENDBRANCH   5   6
ENDBRANCH   1   5
TORSDOF 3
ENDMDL
MODEL 8
REMARK VINA RESULT:    -2.061     11.472     12.121
REMARK INTER + INTRA:          -2.524
REMARK INTER:                  -2.485
REMARK INTRA:                  -0.039
REMARK UNBOUND:                -0.101
REMARK SMILES CCCCC(=O)[O-]
REMARK SMILES IDX 4 1 5 2 6 3 7 4 3 5 2 6 1 7
REMARK H PARENT
REMARK Flexibility Score: inf
ROOT
ATOM      1  C   UNL     1     146.590 163.475 153.390  1.00  0.00     0.053 C 
ENDROOT
BRANCH   1   2
ATOM      2  C   UNL     1     146.451 162.747 152.092  1.00  0.00     0.041 C 
ATOM      3  O   UNL     1     146.221 163.383 151.030  1.00  0.00    -0.550 OA
ATOM      4  O   UNL     1     146.623 161.369 152.045  1.00  0.00    -0.550 OA
ENDBRANCH   1   2
BRANCH   1   5
ATOM      5  C   UNL     1     146.041 164.900 153.269  1.00  0.00     0.006 C 
BRANCH   5   6
ATOM      6  C   UNL     1     147.011 165.917 153.882  1.00  0.00    -0.003 C 
ATOM      7  C   UNL     1     146.693 166.161 155.356  1.00  0.00     0.004 C 
ENDBRANCH   5   6
ENDBRANCH   1   5
TORSDOF 3
ENDMDL
MODEL 9
REMARK VINA RESULT:    -2.054      1.205      2.221
REMARK INTER + INTRA:          -2.515
REMARK INTER:                  -2.461
REMARK INTRA:                  -0.055
REMARK UNBOUND:                -0.101
REMARK SMILES CCCCC(=O)[O-]
REMARK SMILES IDX 4 1 5 2 6 3 7 4 3 5 2 6 1 7
REMARK H PARENT
REMARK Flexibility Score: inf
ROOT
ATOM      1  C   UNL     1     147.507 155.211 160.046  1.00  0.00     0.053 C 
ENDROOT
BRANCH   1   2
ATOM      2  C   UNL     1     146.886 153.897 159.696  1.00  0.00     0.041 C 
ATOM      3  O   UNL     1     145.875 153.487 160.325  1.00  0.00    -0.550 OA
ATOM      4  O   UNL     1     147.392 153.146 158.643  1.00  0.00    -0.550 OA
ENDBRANCH   1   2
BRANCH   1   5
ATOM      5  C   UNL     1     146.647 155.957 161.069  1.00  0.00     0.006 C 
BRANCH   5   6
ATOM      6  C   UNL     1     145.897 157.122 160.413  1.00  0.00    -0.003 C 
ATOM      7  C   UNL     1     146.848 158.268 160.075  1.00  0.00     0.004 C 
ENDBRANCH   5   6
ENDBRANCH   1   5
TORSDOF 3
ENDMDL
