MODEL 1
REMARK VINA RESULT:    -4.826      0.000      0.000
REMARK INTER + INTRA:          -7.161
REMARK INTER:                  -6.518
REMARK INTRA:                  -0.642
REMARK UNBOUND:                -0.642
REMARK SMILES COc1ccc(-c2cc(=O)c3c(OC)c(OC)c(OC)c(OC)c3o2)cc1
REMARK SMILES IDX 7 1 8 2 9 3 10 4 11 5 24 6 25 7 21 8 18 9 15 10 12 11 6 12
REMARK SMILES IDX 3 13 4 14 27 15 5 16 26 17 2 18 1 19 22 20 23 21 13 22 14 23
REMARK SMILES IDX 19 24 20 25 16 26 17 27
REMARK H PARENT
REMARK Flexibility Score: inf
ROOT
ATOM      1  C   UNL     1       7.385  11.428  73.338  1.00  0.00     0.138 A 
ATOM      2  C   UNL     1       8.034  12.534  72.773  1.00  0.00     0.100 A 
ATOM      3  C   UNL     1       7.346  13.738  72.635  1.00  0.00     0.197 A 
ATOM      4  O   UNL     1       7.950  14.723  72.131  1.00  0.00    -0.289 OA
ATOM      5  C   UNL     1       6.001  13.830  73.060  1.00  0.00     0.115 A 
ATOM      6  C   UNL     1       5.405  12.661  73.587  1.00  0.00     0.188 A 
ATOM      7  O   UNL     1       6.110  11.537  73.703  1.00  0.00    -0.452 OA
ATOM      8  C   UNL     1       4.067  12.674  73.998  1.00  0.00     0.209 A 
ATOM      9  C   UNL     1       3.323  13.853  73.933  1.00  0.00     0.211 A 
ATOM     10  C   UNL     1       3.920  15.048  73.482  1.00  0.00     0.208 A 
ATOM     11  C   UNL     1       5.251  15.034  72.988  1.00  0.00     0.179 A 
ENDROOT
BRANCH   1  12
ATOM     12  C   UNL     1       8.079  10.128  73.531  1.00  0.00     0.018 A 
ATOM     13  C   UNL     1       9.434   7.684  73.941  1.00  0.00     0.118 A 
ATOM     14  C   UNL     1       9.312   8.611  74.981  1.00  0.00     0.047 A 
ATOM     15  C   UNL     1       8.881   7.988  72.684  1.00  0.00     0.047 A 
ATOM     16  C   UNL     1       8.647   9.822  74.779  1.00  0.00     0.016 A 
ATOM     17  C   UNL     1       8.213   9.200  72.480  1.00  0.00     0.016 A 
BRANCH  13  18
ATOM     18  O   UNL     1      10.111   6.481  74.195  1.00  0.00    -0.497 OA
ATOM     19  C   UNL     1      11.465   6.230  73.835  1.00  0.00     0.278 C 
ENDBRANCH  13  18
ENDBRANCH   1  12
BRANCH   8  20
ATOM     20  O   UNL     1       3.454  11.514  74.478  1.00  0.00    -0.490 OA
ATOM     21  C   UNL     1       2.920  10.527  73.603  1.00  0.00     0.278 C 
ENDBRANCH   8  20
BRANCH  11  22
ATOM     22  O   UNL     1       5.873  16.177  72.445  1.00  0.00    -0.492 OA
ATOM     23  C   UNL     1       5.520  16.857  71.246  1.00  0.00     0.278 C 
ENDBRANCH  11  22
BRANCH   9  24
ATOM     24  O   UNL     1       1.975  13.802  74.306  1.00  0.00    -0.490 OA
ATOM     25  C   UNL     1       0.925  13.683  73.352  1.00  0.00     0.279 C 
ENDBRANCH   9  24
BRANCH  10  26
ATOM     26  O   UNL     1       3.204  16.248  73.540  1.00  0.00    -0.490 OA
ATOM     27  C   UNL     1       3.306  17.146  74.641  1.00  0.00     0.278 C 
ENDBRANCH  10  26
TORSDOF 6
ENDMDL
MODEL 2
REMARK VINA RESULT:    -4.500     12.950     16.383
REMARK INTER + INTRA:          -6.720
REMARK INTER:                  -6.094
REMARK INTRA:                  -0.627
REMARK UNBOUND:                -0.642
REMARK SMILES COc1ccc(-c2cc(=O)c3c(OC)c(OC)c(OC)c(OC)c3o2)cc1
REMARK SMILES IDX 7 1 8 2 9 3 10 4 11 5 24 6 25 7 21 8 18 9 15 10 12 11 6 12
REMARK SMILES IDX 3 13 4 14 27 15 5 16 26 17 2 18 1 19 22 20 23 21 13 22 14 23
REMARK SMILES IDX 19 24 20 25 16 26 17 27
REMARK H PARENT
REMARK Flexibility Score: inf
ROOT
ATOM      1  C   UNL     1       1.981  17.782  59.939  1.00  0.00     0.138 A 
ATOM      2  C   UNL     1       2.749  17.315  61.013  1.00  0.00     0.100 A 
ATOM      3  C   UNL     1       2.304  16.218  61.750  1.00  0.00     0.197 A 
ATOM      4  O   UNL     1       3.013  15.808  62.709  1.00  0.00    -0.289 OA
ATOM      5  C   UNL     1       1.084  15.592  61.409  1.00  0.00     0.115 A 
ATOM      6  C   UNL     1       0.349  16.145  60.335  1.00  0.00     0.188 A 
ATOM      7  O   UNL     1       0.822  17.190  59.659  1.00  0.00    -0.452 OA
ATOM      8  C   UNL     1      -0.883  15.593  59.965  1.00  0.00     0.209 A 
ATOM      9  C   UNL     1      -1.377  14.466  60.625  1.00  0.00     0.211 A 
ATOM     10  C   UNL     1      -0.624  13.855  61.648  1.00  0.00     0.208 A 
ATOM     11  C   UNL     1       0.589  14.447  62.088  1.00  0.00     0.179 A 
ENDROOT
BRANCH   1  12
ATOM     12  C   UNL     1       2.419  18.932  59.106  1.00  0.00     0.018 A 
ATOM     13  C   UNL     1       3.307  21.088  57.511  1.00  0.00     0.118 A 
ATOM     14  C   UNL     1       3.766  19.789  57.267  1.00  0.00     0.047 A 
ATOM     15  C   UNL     1       2.405  21.309  58.567  1.00  0.00     0.047 A 
ATOM     16  C   UNL     1       3.332  18.722  58.058  1.00  0.00     0.016 A 
ATOM     17  C   UNL     1       1.968  20.241  59.358  1.00  0.00     0.016 A 
BRANCH  13  18
ATOM     18  O   UNL     1       3.772  22.125  56.688  1.00  0.00    -0.497 OA
ATOM     19  C   UNL     1       5.037  22.125  56.034  1.00  0.00     0.278 C 
ENDBRANCH  13  18
ENDBRANCH   1  12
BRANCH   8  20
ATOM     20  O   UNL     1      -1.640  16.157  58.934  1.00  0.00    -0.490 OA
ATOM     21  C   UNL     1      -2.589  17.189  59.175  1.00  0.00     0.278 C 
ENDBRANCH   8  20
BRANCH  11  22
ATOM     22  O   UNL     1       1.342  13.931  63.163  1.00  0.00    -0.492 OA
ATOM     23  C   UNL     1       0.960  13.889  64.534  1.00  0.00     0.278 C 
ENDBRANCH  11  22
BRANCH   9  24
ATOM     24  O   UNL     1      -2.636  13.984  60.253  1.00  0.00    -0.490 OA
ATOM     25  C   UNL     1      -2.805  12.968  59.270  1.00  0.00     0.279 C 
ENDBRANCH   9  24
BRANCH  10  26
ATOM     26  O   UNL     1      -1.067  12.655  62.215  1.00  0.00    -0.490 OA
ATOM     27  C   UNL     1      -0.595  11.384  61.779  1.00  0.00     0.278 C 
ENDBRANCH  10  26
TORSDOF 6
ENDMDL
MODEL 3
REMARK VINA RESULT:    -4.497      2.221      3.898
REMARK INTER + INTRA:          -6.717
REMARK INTER:                  -6.106
REMARK INTRA:                  -0.611
REMARK UNBOUND:                -0.642
REMARK SMILES COc1ccc(-c2cc(=O)c3c(OC)c(OC)c(OC)c(OC)c3o2)cc1
REMARK SMILES IDX 7 1 8 2 9 3 10 4 11 5 24 6 25 7 21 8 18 9 15 10 12 11 6 12
REMARK SMILES IDX 3 13 4 14 27 15 5 16 26 17 2 18 1 19 22 20 23 21 13 22 14 23
REMARK SMILES IDX 19 24 20 25 16 26 17 27
REMARK H PARENT
REMARK Flexibility Score: inf
ROOT
ATOM      1  C   UNL     1       4.466  13.893  73.490  1.00  0.00     0.138 A 
ATOM      2  C   UNL     1       4.823  15.185  73.085  1.00  0.00     0.100 A 
ATOM      3  C   UNL     1       3.864  16.196  73.087  1.00  0.00     0.197 A 
ATOM      4  O   UNL     1       4.206  17.354  72.726  1.00  0.00    -0.289 OA
ATOM      5  C   UNL     1       2.541  15.907  73.492  1.00  0.00     0.115 A 
ATOM      6  C   UNL     1       2.250  14.570  73.853  1.00  0.00     0.188 A 
ATOM      7  O   UNL     1       3.206  13.644  73.840  1.00  0.00    -0.452 OA
ATOM      8  C   UNL     1       0.953  14.208  74.234  1.00  0.00     0.209 A 
ATOM      9  C   UNL     1      -0.055  15.172  74.304  1.00  0.00     0.211 A 
ATOM     10  C   UNL     1       0.232  16.523  74.022  1.00  0.00     0.208 A 
ATOM     11  C   UNL     1       1.521  16.893  73.558  1.00  0.00     0.179 A 
ENDROOT
BRANCH   1  12
ATOM     12  C   UNL     1       5.455  12.784  73.531  1.00  0.00     0.018 A 
ATOM     13  C   UNL     1       7.380  10.719  73.615  1.00  0.00     0.118 A 
ATOM     14  C   UNL     1       7.591  11.915  74.311  1.00  0.00     0.047 A 
ATOM     15  C   UNL     1       6.201  10.562  72.866  1.00  0.00     0.047 A 
ATOM     16  C   UNL     1       6.643  12.939  74.266  1.00  0.00     0.016 A 
ATOM     17  C   UNL     1       5.250  11.586  72.821  1.00  0.00     0.016 A 
BRANCH  13  18
ATOM     18  O   UNL     1       8.363   9.720  73.693  1.00  0.00    -0.497 OA
ATOM     19  C   UNL     1       8.892   9.208  74.912  1.00  0.00     0.278 C 
ENDBRANCH  13  18
ENDBRANCH   1  12
BRANCH   8  20
ATOM     20  O   UNL     1       0.643  12.883  74.549  1.00  0.00    -0.490 OA
ATOM     21  C   UNL     1       0.307  11.929  73.548  1.00  0.00     0.278 C 
ENDBRANCH   8  20
BRANCH  11  22
ATOM     22  O   UNL     1       1.844  18.213  73.179  1.00  0.00    -0.492 OA
ATOM     23  C   UNL     1       1.360  18.920  72.042  1.00  0.00     0.278 C 
ENDBRANCH  11  22
BRANCH   9  24
ATOM     24  O   UNL     1      -1.346  14.751  74.639  1.00  0.00    -0.490 OA
ATOM     25  C   UNL     1      -2.368  14.575  73.663  1.00  0.00     0.279 C 
ENDBRANCH   9  24
BRANCH  10  26
ATOM     26  O   UNL     1      -0.752  17.498  74.217  1.00  0.00    -0.490 OA
ATOM     27  C   UNL     1      -0.755  18.365  75.347  1.00  0.00     0.278 C 
ENDBRANCH  10  26
TORSDOF 6
ENDMDL
MODEL 4
REMARK VINA RESULT:    -4.443      2.316      8.509
REMARK INTER + INTRA:          -6.644
REMARK INTER:                  -6.021
REMARK INTRA:                  -0.623
REMARK UNBOUND:                -0.642
REMARK SMILES COc1ccc(-c2cc(=O)c3c(OC)c(OC)c(OC)c(OC)c3o2)cc1
REMARK SMILES IDX 7 1 8 2 9 3 10 4 11 5 24 6 25 7 21 8 18 9 15 10 12 11 6 12
REMARK SMILES IDX 3 13 4 14 27 15 5 16 26 17 2 18 1 19 22 20 23 21 13 22 14 23
REMARK SMILES IDX 19 24 20 25 16 26 17 27
REMARK H PARENT
REMARK Flexibility Score: inf
ROOT
ATOM      1  C   UNL     1       2.639  13.508  73.869  1.00  0.00     0.138 A 
ATOM      2  C   UNL     1       1.556  12.635  74.036  1.00  0.00     0.100 A 
ATOM      3  C   UNL     1       1.748  11.263  73.877  1.00  0.00     0.197 A 
ATOM      4  O   UNL     1       0.763  10.493  74.038  1.00  0.00    -0.289 OA
ATOM      5  C   UNL     1       3.030  10.768  73.547  1.00  0.00     0.115 A 
ATOM      6  C   UNL     1       4.064  11.715  73.361  1.00  0.00     0.188 A 
ATOM      7  O   UNL     1       3.828  13.014  73.531  1.00  0.00    -0.452 OA
ATOM      8  C   UNL     1       5.350  11.295  73.001  1.00  0.00     0.209 A 
ATOM      9  C   UNL     1       5.634   9.935  72.867  1.00  0.00     0.211 A 
ATOM     10  C   UNL     1       4.637   8.971  73.122  1.00  0.00     0.208 A 
ATOM     11  C   UNL     1       3.310   9.382  73.410  1.00  0.00     0.179 A 
ENDROOT
BRANCH   1  12
ATOM     12  C   UNL     1       2.496  14.975  74.049  1.00  0.00     0.018 A 
ATOM     13  C   UNL     1       2.180  17.766  74.347  1.00  0.00     0.118 A 
ATOM     14  C   UNL     1       1.119  16.977  73.892  1.00  0.00     0.047 A 
ATOM     15  C   UNL     1       3.410  17.154  74.646  1.00  0.00     0.047 A 
ATOM     16  C   UNL     1       1.274  15.597  73.739  1.00  0.00     0.016 A 
ATOM     17  C   UNL     1       3.567  15.773  74.495  1.00  0.00     0.016 A 
BRANCH  13  18
ATOM     18  O   UNL     1       1.972  19.148  74.484  1.00  0.00    -0.497 OA
ATOM     19  C   UNL     1       1.830  19.818  75.733  1.00  0.00     0.278 C 
ENDBRANCH  13  18
ENDBRANCH   1  12
BRANCH   8  20
ATOM     20  O   UNL     1       6.368  12.224  72.771  1.00  0.00    -0.490 OA
ATOM     21  C   UNL     1       7.153  12.759  73.831  1.00  0.00     0.278 C 
ENDBRANCH   8  20
BRANCH  11  22
ATOM     22  O   UNL     1       2.251   8.467  73.590  1.00  0.00    -0.492 OA
ATOM     23  C   UNL     1       1.681   7.612  72.605  1.00  0.00     0.278 C 
ENDBRANCH  11  22
BRANCH   9  24
ATOM     24  O   UNL     1       6.920   9.568  72.455  1.00  0.00    -0.490 OA
ATOM     25  C   UNL     1       7.953   9.244  73.379  1.00  0.00     0.279 C 
ENDBRANCH   9  24
BRANCH  10  26
ATOM     26  O   UNL     1       4.965   7.611  73.108  1.00  0.00    -0.490 OA
ATOM     27  C   UNL     1       5.297   6.893  74.292  1.00  0.00     0.278 C 
ENDBRANCH  10  26
TORSDOF 6
ENDMDL
MODEL 5
REMARK VINA RESULT:    -4.426      3.200      8.733
REMARK INTER + INTRA:          -6.621
REMARK INTER:                  -6.011
REMARK INTRA:                  -0.610
REMARK UNBOUND:                -0.642
REMARK SMILES COc1ccc(-c2cc(=O)c3c(OC)c(OC)c(OC)c(OC)c3o2)cc1
REMARK SMILES IDX 7 1 8 2 9 3 10 4 11 5 24 6 25 7 21 8 18 9 15 10 12 11 6 12
REMARK SMILES IDX 3 13 4 14 27 15 5 16 26 17 2 18 1 19 22 20 23 21 13 22 14 23
REMARK SMILES IDX 19 24 20 25 16 26 17 27
REMARK H PARENT
REMARK Flexibility Score: inf
ROOT
ATOM      1  C   UNL     1       2.852  16.875  74.022  1.00  0.00     0.138 A 
ATOM      2  C   UNL     1       4.096  17.122  73.428  1.00  0.00     0.100 A 
ATOM      3  C   UNL     1       4.894  16.049  73.032  1.00  0.00     0.197 A 
ATOM      4  O   UNL     1       6.008  16.292  72.493  1.00  0.00    -0.289 OA
ATOM      5  C   UNL     1       4.443  14.726  73.238  1.00  0.00     0.115 A 
ATOM      6  C   UNL     1       3.192  14.559  73.876  1.00  0.00     0.188 A 
ATOM      7  O   UNL     1       2.466  15.618  74.228  1.00  0.00    -0.452 OA
ATOM      8  C   UNL     1       2.699  13.275  74.139  1.00  0.00     0.209 A 
ATOM      9  C   UNL     1       3.418  12.149  73.734  1.00  0.00     0.211 A 
ATOM     10  C   UNL     1       4.630  12.294  73.029  1.00  0.00     0.208 A 
ATOM     11  C   UNL     1       5.181  13.586  72.824  1.00  0.00     0.179 A 
ENDROOT
BRANCH   1  12
ATOM     12  C   UNL     1       1.952  17.981  74.441  1.00  0.00     0.018 A 
ATOM     13  C   UNL     1       0.274  20.089  75.288  1.00  0.00     0.118 A 
ATOM     14  C   UNL     1       1.611  20.037  75.698  1.00  0.00     0.047 A 
ATOM     15  C   UNL     1      -0.227  19.072  74.456  1.00  0.00     0.047 A 
ATOM     16  C   UNL     1       2.441  18.993  75.284  1.00  0.00     0.016 A 
ATOM     17  C   UNL     1       0.603  18.027  74.039  1.00  0.00     0.016 A 
BRANCH  13  18
ATOM     18  O   UNL     1      -0.518  21.160  75.731  1.00  0.00    -0.497 OA
ATOM     19  C   UNL     1      -1.906  21.304  75.445  1.00  0.00     0.278 C 
ENDBRANCH  13  18
ENDBRANCH   1  12
BRANCH   8  20
ATOM     20  O   UNL     1       1.485  13.097  74.809  1.00  0.00    -0.490 OA
ATOM     21  C   UNL     1       0.235  13.164  74.132  1.00  0.00     0.278 C 
ENDBRANCH   8  20
BRANCH  11  22
ATOM     22  O   UNL     1       6.431  13.790  72.203  1.00  0.00    -0.492 OA
ATOM     23  C   UNL     1       7.713  13.471  72.732  1.00  0.00     0.278 C 
ENDBRANCH  11  22
BRANCH   9  24
ATOM     24  O   UNL     1       2.909  10.889  74.066  1.00  0.00    -0.490 OA
ATOM     25  C   UNL     1       2.088  10.139  73.177  1.00  0.00     0.279 C 
ENDBRANCH   9  24
BRANCH  10  26
ATOM     26  O   UNL     1       5.277  11.164  72.518  1.00  0.00    -0.490 OA
ATOM     27  C   UNL     1       5.155  10.765  71.156  1.00  0.00     0.278 C 
ENDBRANCH  10  26
TORSDOF 6
ENDMDL
MODEL 6
REMARK VINA RESULT:    -4.426     14.014     16.571
REMARK INTER + INTRA:          -6.621
REMARK INTER:                  -5.992
REMARK INTRA:                  -0.629
REMARK UNBOUND:                -0.642
REMARK SMILES COc1ccc(-c2cc(=O)c3c(OC)c(OC)c(OC)c(OC)c3o2)cc1
REMARK SMILES IDX 7 1 8 2 9 3 10 4 11 5 24 6 25 7 21 8 18 9 15 10 12 11 6 12
REMARK SMILES IDX 3 13 4 14 27 15 5 16 26 17 2 18 1 19 22 20 23 21 13 22 14 23
REMARK SMILES IDX 19 24 20 25 16 26 17 27
REMARK H PARENT
REMARK Flexibility Score: inf
ROOT
ATOM      1  C   UNL     1      -2.406  14.022  59.503  1.00  0.00     0.138 A 
ATOM      2  C   UNL     1      -3.344  14.971  59.077  1.00  0.00     0.100 A 
ATOM      3  C   UNL     1      -3.043  16.328  59.178  1.00  0.00     0.197 A 
ATOM      4  O   UNL     1      -3.897  17.167  58.783  1.00  0.00    -0.289 OA
ATOM      5  C   UNL     1      -1.798  16.733  59.712  1.00  0.00     0.115 A 
ATOM      6  C   UNL     1      -0.920  15.715  60.153  1.00  0.00     0.188 A 
ATOM      7  O   UNL     1      -1.254  14.433  60.027  1.00  0.00    -0.452 OA
ATOM      8  C   UNL     1       0.316  16.047  60.721  1.00  0.00     0.209 A 
ATOM      9  C   UNL     1       0.711  17.383  60.817  1.00  0.00     0.211 A 
ATOM     10  C   UNL     1      -0.117  18.407  60.314  1.00  0.00     0.208 A 
ATOM     11  C   UNL     1      -1.406  18.094  59.808  1.00  0.00     0.179 A 
ENDROOT
BRANCH   1  12
ATOM     12  C   UNL     1      -2.666  12.563  59.396  1.00  0.00     0.018 A 
ATOM     13  C   UNL     1      -3.130   9.788  59.138  1.00  0.00     0.118 A 
ATOM     14  C   UNL     1      -1.991  10.373  58.573  1.00  0.00     0.047 A 
ATOM     15  C   UNL     1      -4.047  10.601  59.828  1.00  0.00     0.047 A 
ATOM     16  C   UNL     1      -1.763  11.745  58.695  1.00  0.00     0.016 A 
ATOM     17  C   UNL     1      -3.819  11.975  59.953  1.00  0.00     0.016 A 
BRANCH  13  18
ATOM     18  O   UNL     1      -3.313   8.405  58.988  1.00  0.00    -0.497 OA
ATOM     19  C   UNL     1      -4.485   7.804  58.445  1.00  0.00     0.278 C 
ENDBRANCH  13  18
ENDBRANCH   1  12
BRANCH   8  20
ATOM     20  O   UNL     1       1.173  15.053  61.201  1.00  0.00    -0.490 OA
ATOM     21  C   UNL     1       1.071  14.547  62.527  1.00  0.00     0.278 C 
ENDBRANCH   8  20
BRANCH  11  22
ATOM     22  O   UNL     1      -2.313  19.082  59.371  1.00  0.00    -0.492 OA
ATOM     23  C   UNL     1      -2.930  20.089  60.164  1.00  0.00     0.278 C 
ENDBRANCH  11  22
BRANCH   9  24
ATOM     24  O   UNL     1       1.931  17.665  61.440  1.00  0.00    -0.490 OA
ATOM     25  C   UNL     1       3.162  17.700  60.725  1.00  0.00     0.279 C 
ENDBRANCH   9  24
BRANCH  10  26
ATOM     26  O   UNL     1       0.342  19.728  60.300  1.00  0.00    -0.490 OA
ATOM     27  C   UNL     1       1.025  20.288  59.183  1.00  0.00     0.278 C 
ENDBRANCH  10  26
TORSDOF 6
ENDMDL
MODEL 7
REMARK VINA RESULT:    -4.423      1.945      8.553
REMARK INTER + INTRA:          -6.616
REMARK INTER:                  -5.942
REMARK INTRA:                  -0.675
REMARK UNBOUND:                -0.642
REMARK SMILES COc1ccc(-c2cc(=O)c3c(OC)c(OC)c(OC)c(OC)c3o2)cc1
REMARK SMILES IDX 7 1 8 2 9 3 10 4 11 5 24 6 25 7 21 8 18 9 15 10 12 11 6 12
REMARK SMILES IDX 3 13 4 14 27 15 5 16 26 17 2 18 1 19 22 20 23 21 13 22 14 23
REMARK SMILES IDX 19 24 20 25 16 26 17 27
REMARK H PARENT
REMARK Flexibility Score: inf
ROOT
ATOM      1  C   UNL     1       3.318  14.974  73.894  1.00  0.00     0.138 A 
ATOM      2  C   UNL     1       2.621  13.768  74.044  1.00  0.00     0.100 A 
ATOM      3  C   UNL     1       3.270  12.562  73.788  1.00  0.00     0.197 A 
ATOM      4  O   UNL     1       2.627  11.487  73.935  1.00  0.00    -0.289 OA
ATOM      5  C   UNL     1       4.622  12.566  73.376  1.00  0.00     0.115 A 
ATOM      6  C   UNL     1       5.246  13.825  73.213  1.00  0.00     0.188 A 
ATOM      7  O   UNL     1       4.582  14.948  73.478  1.00  0.00    -0.452 OA
ATOM      8  C   UNL     1       6.574  13.902  72.778  1.00  0.00     0.209 A 
ATOM      9  C   UNL     1       7.308  12.738  72.542  1.00  0.00     0.211 A 
ATOM     10  C   UNL     1       6.727  11.474  72.772  1.00  0.00     0.208 A 
ATOM     11  C   UNL     1       5.359  11.376  73.137  1.00  0.00     0.179 A 
ENDROOT
BRANCH   1  12
ATOM     12  C   UNL     1       2.682  16.286  74.177  1.00  0.00     0.018 A 
ATOM     13  C   UNL     1       1.510  18.788  74.764  1.00  0.00     0.118 A 
ATOM     14  C   UNL     1       2.843  18.533  75.101  1.00  0.00     0.047 A 
ATOM     15  C   UNL     1       0.756  17.780  74.137  1.00  0.00     0.047 A 
ATOM     16  C   UNL     1       3.424  17.295  74.816  1.00  0.00     0.016 A 
ATOM     17  C   UNL     1       1.336  16.540  73.850  1.00  0.00     0.016 A 
BRANCH  13  18
ATOM     18  O   UNL     1       0.974  20.049  75.070  1.00  0.00    -0.497 OA
ATOM     19  C   UNL     1       1.553  20.964  75.995  1.00  0.00     0.278 C 
ENDBRANCH  13  18
ENDBRANCH   1  12
BRANCH   8  20
ATOM     20  O   UNL     1       7.189  15.141  72.570  1.00  0.00    -0.490 OA
ATOM     21  C   UNL     1       7.022  15.871  71.360  1.00  0.00     0.278 C 
ENDBRANCH   8  20
BRANCH  11  22
ATOM     22  O   UNL     1       4.700  10.139  73.296  1.00  0.00    -0.492 OA
ATOM     23  C   UNL     1       4.429   9.177  72.284  1.00  0.00     0.278 C 
ENDBRANCH  11  22
BRANCH   9  24
ATOM     24  O   UNL     1       8.613  12.869  72.058  1.00  0.00    -0.490 OA
ATOM     25  C   UNL     1       8.931  12.731  70.677  1.00  0.00     0.279 C 
ENDBRANCH   9  24
BRANCH  10  26
ATOM     26  O   UNL     1       7.508  10.319  72.655  1.00  0.00    -0.490 OA
ATOM     27  C   UNL     1       8.217   9.761  73.757  1.00  0.00     0.278 C 
ENDBRANCH  10  26
TORSDOF 6
ENDMDL
MODEL 8
REMARK VINA RESULT:    -4.401      2.799      8.948
REMARK INTER + INTRA:          -6.587
REMARK INTER:                  -6.035
REMARK INTRA:                  -0.552
REMARK UNBOUND:                -0.642
REMARK SMILES COc1ccc(-c2cc(=O)c3c(OC)c(OC)c(OC)c(OC)c3o2)cc1
REMARK SMILES IDX 7 1 8 2 9 3 10 4 11 5 24 6 25 7 21 8 18 9 15 10 12 11 6 12
REMARK SMILES IDX 3 13 4 14 27 15 5 16 26 17 2 18 1 19 22 20 23 21 13 22 14 23
REMARK SMILES IDX 19 24 20 25 16 26 17 27
REMARK H PARENT
REMARK Flexibility Score: inf
ROOT
ATOM      1  C   UNL     1       3.643  16.145  73.899  1.00  0.00     0.138 A 
ATOM      2  C   UNL     1       3.584  14.813  74.329  1.00  0.00     0.100 A 
ATOM      3  C   UNL     1       4.604  13.931  73.976  1.00  0.00     0.197 A 
ATOM      4  O   UNL     1       4.536  12.738  74.379  1.00  0.00    -0.289 OA
ATOM      5  C   UNL     1       5.684  14.387  73.186  1.00  0.00     0.115 A 
ATOM      6  C   UNL     1       5.653  15.736  72.762  1.00  0.00     0.188 A 
ATOM      7  O   UNL     1       4.658  16.538  73.133  1.00  0.00    -0.452 OA
ATOM      8  C   UNL     1       6.675  16.244  71.952  1.00  0.00     0.209 A 
ATOM      9  C   UNL     1       7.755  15.437  71.591  1.00  0.00     0.211 A 
ATOM     10  C   UNL     1       7.843  14.112  72.066  1.00  0.00     0.208 A 
ATOM     11  C   UNL     1       6.778  13.558  72.823  1.00  0.00     0.179 A 
ENDROOT
BRANCH   1  12
ATOM     12  C   UNL     1       2.595  17.133  74.266  1.00  0.00     0.018 A 
ATOM     13  C   UNL     1       0.636  19.024  75.015  1.00  0.00     0.118 A 
ATOM     14  C   UNL     1       1.970  19.194  75.401  1.00  0.00     0.047 A 
ATOM     15  C   UNL     1       0.280  17.894  74.257  1.00  0.00     0.047 A 
ATOM     16  C   UNL     1       2.939  18.257  75.036  1.00  0.00     0.016 A 
ATOM     17  C   UNL     1       1.250  16.956  73.889  1.00  0.00     0.016 A 
BRANCH  13  18
ATOM     18  O   UNL     1      -0.300  19.994  75.407  1.00  0.00    -0.497 OA
ATOM     19  C   UNL     1      -1.709  19.790  75.424  1.00  0.00     0.278 C 
ENDBRANCH  13  18
ENDBRANCH   1  12
BRANCH   8  20
ATOM     20  O   UNL     1       6.633  17.562  71.489  1.00  0.00    -0.490 OA
ATOM     21  C   UNL     1       5.985  17.913  70.272  1.00  0.00     0.278 C 
ENDBRANCH   8  20
BRANCH  11  22
ATOM     22  O   UNL     1       6.768  12.214  73.253  1.00  0.00    -0.492 OA
ATOM     23  C   UNL     1       7.612  11.622  74.234  1.00  0.00     0.278 C 
ENDBRANCH  11  22
BRANCH   9  24
ATOM     24  O   UNL     1       8.724  15.975  70.737  1.00  0.00    -0.490 OA
ATOM     25  C   UNL     1       9.930  16.555  71.222  1.00  0.00     0.279 C 
ENDBRANCH   9  24
BRANCH  10  26
ATOM     26  O   UNL     1       8.988  13.354  71.805  1.00  0.00    -0.490 OA
ATOM     27  C   UNL     1       9.095  12.496  70.672  1.00  0.00     0.278 C 
ENDBRANCH  10  26
TORSDOF 6
ENDMDL
MODEL 9
REMARK VINA RESULT:    -4.385      2.423      8.269
REMARK INTER + INTRA:          -6.565
REMARK INTER:                  -6.026
REMARK INTRA:                  -0.539
REMARK UNBOUND:                -0.642
REMARK SMILES COc1ccc(-c2cc(=O)c3c(OC)c(OC)c(OC)c(OC)c3o2)cc1
REMARK SMILES IDX 7 1 8 2 9 3 10 4 11 5 24 6 25 7 21 8 18 9 15 10 12 11 6 12
REMARK SMILES IDX 3 13 4 14 27 15 5 16 26 17 2 18 1 19 22 20 23 21 13 22 14 23
REMARK SMILES IDX 19 24 20 25 16 26 17 27
REMARK H PARENT
REMARK Flexibility Score: inf
ROOT
ATOM      1  C   UNL     1       3.342  15.874  73.804  1.00  0.00     0.138 A 
ATOM      2  C   UNL     1       4.573  16.082  73.169  1.00  0.00     0.100 A 
ATOM      3  C   UNL     1       5.322  14.986  72.745  1.00  0.00     0.197 A 
ATOM      4  O   UNL     1       6.424  15.194  72.169  1.00  0.00    -0.289 OA
ATOM      5  C   UNL     1       4.835  13.677  72.963  1.00  0.00     0.115 A 
ATOM      6  C   UNL     1       3.601  13.548  73.642  1.00  0.00     0.188 A 
ATOM      7  O   UNL     1       2.922  14.629  74.020  1.00  0.00    -0.452 OA
ATOM      8  C   UNL     1       3.075  12.280  73.918  1.00  0.00     0.209 A 
ATOM      9  C   UNL     1       3.743  11.133  73.487  1.00  0.00     0.211 A 
ATOM     10  C   UNL     1       4.936  11.241  72.742  1.00  0.00     0.208 A 
ATOM     11  C   UNL     1       5.522  12.515  72.522  1.00  0.00     0.179 A 
ENDROOT
BRANCH   1  12
ATOM     12  C   UNL     1       2.493  17.007  74.255  1.00  0.00     0.018 A 
ATOM     13  C   UNL     1       0.843  19.153  75.061  1.00  0.00     0.118 A 
ATOM     14  C   UNL     1       0.319  18.103  74.299  1.00  0.00     0.047 A 
ATOM     15  C   UNL     1       2.204  19.132  75.413  1.00  0.00     0.047 A 
ATOM     16  C   UNL     1       1.134  17.043  73.895  1.00  0.00     0.016 A 
ATOM     17  C   UNL     1       3.021  18.071  75.010  1.00  0.00     0.016 A 
BRANCH  13  18
ATOM     18  O   UNL     1      -0.018  20.194  75.442  1.00  0.00    -0.497 OA
ATOM     19  C   UNL     1      -1.440  20.107  75.426  1.00  0.00     0.278 C 
ENDBRANCH  13  18
ENDBRANCH   1  12
BRANCH   8  20
ATOM     20  O   UNL     1       1.880  12.140  74.627  1.00  0.00    -0.490 OA
ATOM     21  C   UNL     1       0.611  12.257  73.994  1.00  0.00     0.278 C 
ENDBRANCH   8  20
BRANCH  11  22
ATOM     22  O   UNL     1       6.756  12.680  71.860  1.00  0.00    -0.492 OA
ATOM     23  C   UNL     1       8.052  12.413  72.384  1.00  0.00     0.278 C 
ENDBRANCH  11  22
BRANCH   9  24
ATOM     24  O   UNL     1       3.205   9.889  73.833  1.00  0.00    -0.490 OA
ATOM     25  C   UNL     1       2.353   9.157  72.959  1.00  0.00     0.279 C 
ENDBRANCH   9  24
BRANCH  10  26
ATOM     26  O   UNL     1       5.528  10.092  72.208  1.00  0.00    -0.490 OA
ATOM     27  C   UNL     1       6.406   9.263  72.963  1.00  0.00     0.278 C 
ENDBRANCH  10  26
TORSDOF 6
ENDMDL
