MODEL 1
REMARK VINA RESULT:    -5.112      0.000      0.000
REMARK INTER + INTRA:         -12.755
REMARK INTER:                 -11.687
REMARK INTRA:                  -1.068
REMARK UNBOUND:                -1.068
REMARK SMILES CCCCCCCCCCCCCCCCCCCCCCCC(=O)[O-]
REMARK SMILES IDX 13 1 14 2 15 3 16 4 17 5 18 6 19 7 20 8 21 9 22 10 23 11
REMARK SMILES IDX 24 12 25 13 26 14 12 15 11 16 10 17 9 18 8 19 7 20 6 21 5 22
REMARK SMILES IDX 4 23 3 24 2 25 1 26
REMARK H PARENT
REMARK Flexibility Score: inf
ROOT
ATOM      1  C   UNL     1     126.682 124.611 126.119  1.00  0.00     0.000 C 
ENDROOT
BRANCH   1   2
ATOM      2  C   UNL     1     127.585 125.130 124.985  1.00  0.00     0.000 C 
BRANCH   2   3
ATOM      3  C   UNL     1     126.967 124.983 123.581  1.00  0.00     0.000 C 
BRANCH   3   4
ATOM      4  C   UNL     1     126.467 126.328 123.022  1.00  0.00     0.000 C 
BRANCH   4   5
ATOM      5  C   UNL     1     127.605 127.209 122.482  1.00  0.00     0.000 C 
BRANCH   5   6
ATOM      6  C   UNL     1     128.008 128.381 123.397  1.00  0.00     0.000 C 
BRANCH   6   7
ATOM      7  C   UNL     1     128.741 129.522 122.659  1.00  0.00     0.000 C 
BRANCH   7   8
ATOM      8  C   UNL     1     129.259 130.599 123.628  1.00  0.00     0.000 C 
BRANCH   8   9
ATOM      9  C   UNL     1     128.383 130.752 124.885  1.00  0.00     0.000 C 
BRANCH   9  10
ATOM     10  C   UNL     1     129.133 131.203 126.152  1.00  0.00     0.006 C 
BRANCH  10  11
ATOM     11  C   UNL     1     128.193 131.523 127.321  1.00  0.00     0.053 C 
BRANCH  11  12
ATOM     12  C   UNL     1     128.419 132.919 127.808  1.00  0.00     0.041 C 
ATOM     13  O   UNL     1     129.563 133.277 128.197  1.00  0.00    -0.550 OA
ATOM     14  O   UNL     1     127.359 133.815 127.871  1.00  0.00    -0.550 OA
ENDBRANCH  11  12
ENDBRANCH  10  11
ENDBRANCH   9  10
ENDBRANCH   8   9
ENDBRANCH   7   8
ENDBRANCH   6   7
ENDBRANCH   5   6
ENDBRANCH   4   5
ENDBRANCH   3   4
ENDBRANCH   2   3
ENDBRANCH   1   2
BRANCH   1  15
ATOM     15  C   UNL     1     127.486 124.189 127.358  1.00  0.00     0.000 C 
BRANCH  15  16
ATOM     16  C   UNL     1     126.789 123.040 128.103  1.00  0.00     0.000 C 
BRANCH  16  17
ATOM     17  C   UNL     1     125.257 123.093 127.975  1.00  0.00     0.000 C 
BRANCH  17  18
ATOM     18  C   UNL     1     124.541 122.793 129.304  1.00  0.00    -0.000 C 
BRANCH  18  19
ATOM     19  C   UNL     1     125.189 121.624 130.066  1.00  0.00    -0.000 C 
BRANCH  19  20
ATOM     20  C   UNL     1     124.333 121.151 131.254  1.00  0.00    -0.000 C 
BRANCH  20  21
ATOM     21  C   UNL     1     124.386 122.121 132.445  1.00  0.00    -0.000 C 
BRANCH  21  22
ATOM     22  C   UNL     1     123.550 121.642 133.643  1.00  0.00    -0.000 C 
BRANCH  22  23
ATOM     23  C   UNL     1     124.083 122.236 134.955  1.00  0.00    -0.000 C 
BRANCH  23  24
ATOM     24  C   UNL     1     125.060 123.401 134.723  1.00  0.00    -0.000 C 
BRANCH  24  25
ATOM     25  C   UNL     1     126.109 123.521 135.837  1.00  0.00    -0.003 C 
ATOM     26  C   UNL     1     127.316 124.331 135.370  1.00  0.00     0.004 C 
ENDBRANCH  24  25
ENDBRANCH  23  24
ENDBRANCH  22  23
ENDBRANCH  21  22
ENDBRANCH  20  21
ENDBRANCH  19  20
ENDBRANCH  18  19
ENDBRANCH  17  18
ENDBRANCH  16  17
ENDBRANCH  15  16
ENDBRANCH   1  15
TORSDOF 22
ENDMDL
MODEL 2
REMARK VINA RESULT:    -5.094      1.766      2.931
REMARK INTER + INTRA:         -12.714
REMARK INTER:                 -11.414
REMARK INTRA:                  -1.300
REMARK UNBOUND:                -1.068
REMARK SMILES CCCCCCCCCCCCCCCCCCCCCCCC(=O)[O-]
REMARK SMILES IDX 13 1 14 2 15 3 16 4 17 5 18 6 19 7 20 8 21 9 22 10 23 11
REMARK SMILES IDX 24 12 25 13 26 14 12 15 11 16 10 17 9 18 8 19 7 20 6 21 5 22
REMARK SMILES IDX 4 23 3 24 2 25 1 26
REMARK H PARENT
REMARK Flexibility Score: inf
ROOT
ATOM      1  C   UNL     1     126.870 124.642 126.047  1.00  0.00     0.000 C 
ENDROOT
BRANCH   1   2
ATOM      2  C   UNL     1     127.653 125.147 124.820  1.00  0.00     0.000 C 
BRANCH   2   3
ATOM      3  C   UNL     1     126.881 125.013 123.493  1.00  0.00     0.000 C 
BRANCH   3   4
ATOM      4  C   UNL     1     126.914 126.312 122.668  1.00  0.00     0.000 C 
BRANCH   4   5
ATOM      5  C   UNL     1     127.657 127.454 123.381  1.00  0.00     0.000 C 
BRANCH   5   6
ATOM      6  C   UNL     1     128.217 128.545 122.448  1.00  0.00     0.000 C 
BRANCH   6   7
ATOM      7  C   UNL     1     129.144 129.553 123.159  1.00  0.00     0.000 C 
BRANCH   7   8
ATOM      8  C   UNL     1     128.373 130.465 124.130  1.00  0.00     0.000 C 
BRANCH   8   9
ATOM      9  C   UNL     1     129.253 131.025 125.261  1.00  0.00     0.000 C 
BRANCH   9  10
ATOM     10  C   UNL     1     128.521 131.282 126.591  1.00  0.00     0.006 C 
BRANCH  10  11
ATOM     11  C   UNL     1     129.373 130.938 127.819  1.00  0.00     0.053 C 
BRANCH  11  12
ATOM     12  C   UNL     1     129.831 132.185 128.506  1.00  0.00     0.041 C 
ATOM     13  O   UNL     1     129.263 133.284 128.269  1.00  0.00    -0.550 OA
ATOM     14  O   UNL     1     130.913 132.142 129.377  1.00  0.00    -0.550 OA
ENDBRANCH  11  12
ENDBRANCH  10  11
ENDBRANCH   9  10
ENDBRANCH   8   9
ENDBRANCH   7   8
ENDBRANCH   6   7
ENDBRANCH   5   6
ENDBRANCH   4   5
ENDBRANCH   3   4
ENDBRANCH   2   3
ENDBRANCH   1   2
BRANCH   1  15
ATOM     15  C   UNL     1     127.771 123.904 127.050  1.00  0.00     0.000 C 
BRANCH  15  16
ATOM     16  C   UNL     1     126.960 123.404 128.255  1.00  0.00     0.000 C 
BRANCH  16  17
ATOM     17  C   UNL     1     125.755 124.303 128.574  1.00  0.00     0.000 C 
BRANCH  17  18
ATOM     18  C   UNL     1     124.571 123.519 129.167  1.00  0.00    -0.000 C 
BRANCH  18  19
ATOM     19  C   UNL     1     124.756 121.996 129.042  1.00  0.00    -0.000 C 
BRANCH  19  20
ATOM     20  C   UNL     1     124.482 121.260 130.364  1.00  0.00    -0.000 C 
BRANCH  20  21
ATOM     21  C   UNL     1     123.902 122.184 131.447  1.00  0.00    -0.000 C 
BRANCH  21  22
ATOM     22  C   UNL     1     123.699 121.472 132.794  1.00  0.00    -0.000 C 
BRANCH  22  23
ATOM     23  C   UNL     1     122.960 120.139 132.603  1.00  0.00    -0.000 C 
BRANCH  23  24
ATOM     24  C   UNL     1     121.582 120.124 133.287  1.00  0.00    -0.000 C 
BRANCH  24  25
ATOM     25  C   UNL     1     120.427 120.276 132.287  1.00  0.00    -0.003 C 
ATOM     26  C   UNL     1     119.944 118.915 131.794  1.00  0.00     0.004 C 
ENDBRANCH  24  25
ENDBRANCH  23  24
ENDBRANCH  22  23
ENDBRANCH  21  22
ENDBRANCH  20  21
ENDBRANCH  19  20
ENDBRANCH  18  19
ENDBRANCH  17  18
ENDBRANCH  16  17
ENDBRANCH  15  16
ENDBRANCH   1  15
TORSDOF 22
ENDMDL
MODEL 3
REMARK VINA RESULT:    -4.965      4.407      8.752
REMARK INTER + INTRA:         -12.418
REMARK INTER:                 -10.308
REMARK INTRA:                  -2.110
REMARK UNBOUND:                -1.068
REMARK SMILES CCCCCCCCCCCCCCCCCCCCCCCC(=O)[O-]
REMARK SMILES IDX 13 1 14 2 15 3 16 4 17 5 18 6 19 7 20 8 21 9 22 10 23 11
REMARK SMILES IDX 24 12 25 13 26 14 12 15 11 16 10 17 9 18 8 19 7 20 6 21 5 22
REMARK SMILES IDX 4 23 3 24 2 25 1 26
REMARK H PARENT
REMARK Flexibility Score: inf
ROOT
ATOM      1  C   UNL     1     122.986 122.295 132.569  1.00  0.00     0.000 C 
ENDROOT
BRANCH   1   2
ATOM      2  C   UNL     1     123.465 122.889 133.907  1.00  0.00     0.000 C 
BRANCH   2   3
ATOM      3  C   UNL     1     124.916 122.515 134.268  1.00  0.00     0.000 C 
BRANCH   3   4
ATOM      4  C   UNL     1     125.253 122.845 135.733  1.00  0.00     0.000 C 
BRANCH   4   5
ATOM      5  C   UNL     1     125.774 124.280 135.917  1.00  0.00     0.000 C 
BRANCH   5   6
ATOM      6  C   UNL     1     126.590 124.830 134.731  1.00  0.00     0.000 C 
BRANCH   6   7
ATOM      7  C   UNL     1     125.835 125.884 133.894  1.00  0.00     0.000 C 
BRANCH   7   8
ATOM      8  C   UNL     1     126.619 127.204 133.781  1.00  0.00     0.000 C 
BRANCH   8   9
ATOM      9  C   UNL     1     126.619 128.019 135.087  1.00  0.00     0.000 C 
BRANCH   9  10
ATOM     10  C   UNL     1     127.884 128.862 135.330  1.00  0.00     0.006 C 
BRANCH  10  11
ATOM     11  C   UNL     1     129.161 128.017 135.407  1.00  0.00     0.053 C 
BRANCH  11  12
ATOM     12  C   UNL     1     130.059 128.316 134.249  1.00  0.00     0.041 C 
ATOM     13  O   UNL     1     129.789 129.266 133.467  1.00  0.00    -0.550 OA
ATOM     14  O   UNL     1     131.173 127.521 134.009  1.00  0.00    -0.550 OA
ENDBRANCH  11  12
ENDBRANCH  10  11
ENDBRANCH   9  10
ENDBRANCH   8   9
ENDBRANCH   7   8
ENDBRANCH   6   7
ENDBRANCH   5   6
ENDBRANCH   4   5
ENDBRANCH   3   4
ENDBRANCH   2   3
ENDBRANCH   1   2
BRANCH   1  15
ATOM     15  C   UNL     1     121.902 121.223 132.761  1.00  0.00     0.000 C 
BRANCH  15  16
ATOM     16  C   UNL     1     122.202 119.978 131.912  1.00  0.00     0.000 C 
BRANCH  16  17
ATOM     17  C   UNL     1     123.185 119.015 132.598  1.00  0.00     0.000 C 
BRANCH  17  18
ATOM     18  C   UNL     1     123.844 118.037 131.609  1.00  0.00    -0.000 C 
BRANCH  18  19
ATOM     19  C   UNL     1     125.315 118.394 131.328  1.00  0.00    -0.000 C 
BRANCH  19  20
ATOM     20  C   UNL     1     125.479 119.251 130.061  1.00  0.00    -0.000 C 
BRANCH  20  21
ATOM     21  C   UNL     1     125.716 120.736 130.376  1.00  0.00    -0.000 C 
BRANCH  21  22
ATOM     22  C   UNL     1     124.730 121.665 129.651  1.00  0.00    -0.000 C 
BRANCH  22  23
ATOM     23  C   UNL     1     125.436 122.446 128.531  1.00  0.00    -0.000 C 
BRANCH  23  24
ATOM     24  C   UNL     1     125.396 123.966 128.755  1.00  0.00    -0.000 C 
BRANCH  24  25
ATOM     25  C   UNL     1     126.704 124.657 128.344  1.00  0.00    -0.003 C 
ATOM     26  C   UNL     1     126.864 124.671 126.827  1.00  0.00     0.004 C 
ENDBRANCH  24  25
ENDBRANCH  23  24
ENDBRANCH  22  23
ENDBRANCH  21  22
ENDBRANCH  20  21
ENDBRANCH  19  20
ENDBRANCH  18  19
ENDBRANCH  17  18
ENDBRANCH  16  17
ENDBRANCH  15  16
ENDBRANCH   1  15
TORSDOF 22
ENDMDL
MODEL 4
REMARK VINA RESULT:    -4.932      5.242      8.818
REMARK INTER + INTRA:         -12.344
REMARK INTER:                  -8.610
REMARK INTRA:                  -3.734
REMARK UNBOUND:                -1.068
REMARK SMILES CCCCCCCCCCCCCCCCCCCCCCCC(=O)[O-]
REMARK SMILES IDX 13 1 14 2 15 3 16 4 17 5 18 6 19 7 20 8 21 9 22 10 23 11
REMARK SMILES IDX 24 12 25 13 26 14 12 15 11 16 10 17 9 18 8 19 7 20 6 21 5 22
REMARK SMILES IDX 4 23 3 24 2 25 1 26
REMARK H PARENT
REMARK Flexibility Score: inf
ROOT
ATOM      1  C   UNL     1     120.864 120.297 132.732  1.00  0.00     0.000 C 
ENDROOT
BRANCH   1   2
ATOM      2  C   UNL     1     121.891 119.434 131.976  1.00  0.00     0.000 C 
BRANCH   2   3
ATOM      3  C   UNL     1     122.606 118.399 132.867  1.00  0.00     0.000 C 
BRANCH   3   4
ATOM      4  C   UNL     1     123.966 117.972 132.284  1.00  0.00     0.000 C 
BRANCH   4   5
ATOM      5  C   UNL     1     124.235 118.573 130.895  1.00  0.00     0.000 C 
BRANCH   5   6
ATOM      6  C   UNL     1     125.705 118.945 130.623  1.00  0.00     0.000 C 
BRANCH   6   7
ATOM      7  C   UNL     1     125.923 120.444 130.326  1.00  0.00     0.000 C 
BRANCH   7   8
ATOM      8  C   UNL     1     124.648 121.118 129.789  1.00  0.00     0.000 C 
BRANCH   8   9
ATOM      9  C   UNL     1     124.743 122.654 129.762  1.00  0.00     0.000 C 
BRANCH   9  10
ATOM     10  C   UNL     1     124.998 123.268 128.373  1.00  0.00     0.006 C 
BRANCH  10  11
ATOM     11  C   UNL     1     126.181 124.244 128.357  1.00  0.00     0.053 C 
BRANCH  11  12
ATOM     12  C   UNL     1     127.300 123.698 127.528  1.00  0.00     0.041 C 
ATOM     13  O   UNL     1     127.952 122.696 127.926  1.00  0.00    -0.550 OA
ATOM     14  O   UNL     1     127.650 124.319 126.336  1.00  0.00    -0.550 OA
ENDBRANCH  11  12
ENDBRANCH  10  11
ENDBRANCH   9  10
ENDBRANCH   8   9
ENDBRANCH   7   8
ENDBRANCH   6   7
ENDBRANCH   5   6
ENDBRANCH   4   5
ENDBRANCH   3   4
ENDBRANCH   2   3
ENDBRANCH   1   2
BRANCH   1  15
ATOM     15  C   UNL     1     121.527 121.443 133.513  1.00  0.00     0.000 C 
BRANCH  15  16
ATOM     16  C   UNL     1     122.681 122.062 132.709  1.00  0.00     0.000 C 
BRANCH  16  17
ATOM     17  C   UNL     1     124.051 121.842 133.373  1.00  0.00     0.000 C 
BRANCH  17  18
ATOM     18  C   UNL     1     124.725 123.161 133.792  1.00  0.00    -0.000 C 
BRANCH  18  19
ATOM     19  C   UNL     1     125.417 123.053 135.162  1.00  0.00    -0.000 C 
BRANCH  19  20
ATOM     20  C   UNL     1     124.812 124.011 136.203  1.00  0.00    -0.000 C 
BRANCH  20  21
ATOM     21  C   UNL     1     123.458 124.588 135.760  1.00  0.00    -0.000 C 
BRANCH  21  22
ATOM     22  C   UNL     1     122.326 124.285 136.754  1.00  0.00    -0.000 C 
BRANCH  22  23
ATOM     23  C   UNL     1     122.511 122.898 137.389  1.00  0.00    -0.000 C 
BRANCH  23  24
ATOM     24  C   UNL     1     121.428 121.899 136.951  1.00  0.00    -0.000 C 
BRANCH  24  25
ATOM     25  C   UNL     1     121.906 120.442 137.026  1.00  0.00    -0.003 C 
ATOM     26  C   UNL     1     123.387 120.331 136.677  1.00  0.00     0.004 C 
ENDBRANCH  24  25
ENDBRANCH  23  24
ENDBRANCH  22  23
ENDBRANCH  21  22
ENDBRANCH  20  21
ENDBRANCH  19  20
ENDBRANCH  18  19
ENDBRANCH  17  18
ENDBRANCH  16  17
ENDBRANCH  15  16
ENDBRANCH   1  15
TORSDOF 22
ENDMDL
MODEL 5
REMARK VINA RESULT:    -4.931      6.125     10.272
REMARK INTER + INTRA:         -12.342
REMARK INTER:                 -10.042
REMARK INTRA:                  -2.300
REMARK UNBOUND:                -1.068
REMARK SMILES CCCCCCCCCCCCCCCCCCCCCCCC(=O)[O-]
REMARK SMILES IDX 13 1 14 2 15 3 16 4 17 5 18 6 19 7 20 8 21 9 22 10 23 11
REMARK SMILES IDX 24 12 25 13 26 14 12 15 11 16 10 17 9 18 8 19 7 20 6 21 5 22
REMARK SMILES IDX 4 23 3 24 2 25 1 26
REMARK H PARENT
REMARK Flexibility Score: inf
ROOT
ATOM      1  C   UNL     1     133.576 134.856 133.314  1.00  0.00     0.000 C 
ENDROOT
BRANCH   1   2
ATOM      2  C   UNL     1     133.627 136.180 132.529  1.00  0.00     0.000 C 
BRANCH   2   3
ATOM      3  C   UNL     1     132.849 137.329 133.199  1.00  0.00     0.000 C 
BRANCH   3   4
ATOM      4  C   UNL     1     131.854 137.998 132.232  1.00  0.00     0.000 C 
BRANCH   4   5
ATOM      5  C   UNL     1     131.690 137.223 130.915  1.00  0.00     0.000 C 
BRANCH   5   6
ATOM      6  C   UNL     1     130.236 136.865 130.551  1.00  0.00     0.000 C 
BRANCH   6   7
ATOM      7  C   UNL     1     130.004 135.355 130.330  1.00  0.00     0.000 C 
BRANCH   7   8
ATOM      8  C   UNL     1     131.296 134.625 129.921  1.00  0.00     0.000 C 
BRANCH   8   9
ATOM      9  C   UNL     1     131.088 133.119 129.683  1.00  0.00     0.000 C 
BRANCH   9  10
ATOM     10  C   UNL     1     130.671 132.735 128.251  1.00  0.00     0.006 C 
BRANCH  10  11
ATOM     11  C   UNL     1     129.742 131.517 128.204  1.00  0.00     0.053 C 
BRANCH  11  12
ATOM     12  C   UNL     1     128.473 131.852 127.486  1.00  0.00     0.041 C 
ATOM     13  O   UNL     1     128.304 131.483 126.293  1.00  0.00    -0.550 OA
ATOM     14  O   UNL     1     127.494 132.609 128.118  1.00  0.00    -0.550 OA
ENDBRANCH  11  12
ENDBRANCH  10  11
ENDBRANCH   9  10
ENDBRANCH   8   9
ENDBRANCH   7   8
ENDBRANCH   6   7
ENDBRANCH   5   6
ENDBRANCH   4   5
ENDBRANCH   3   4
ENDBRANCH   2   3
ENDBRANCH   1   2
BRANCH   1  15
ATOM     15  C   UNL     1     132.216 134.153 133.182  1.00  0.00     0.000 C 
BRANCH  15  16
ATOM     16  C   UNL     1     131.961 133.218 134.374  1.00  0.00     0.000 C 
BRANCH  16  17
ATOM     17  C   UNL     1     130.490 133.214 134.820  1.00  0.00     0.000 C 
BRANCH  17  18
ATOM     18  C   UNL     1     130.312 132.731 136.271  1.00  0.00    -0.000 C 
BRANCH  18  19
ATOM     19  C   UNL     1     129.268 131.606 136.389  1.00  0.00    -0.000 C 
BRANCH  19  20
ATOM     20  C   UNL     1     128.981 130.928 135.038  1.00  0.00    -0.000 C 
BRANCH  20  21
ATOM     21  C   UNL     1     129.592 129.521 134.940  1.00  0.00    -0.000 C 
BRANCH  21  22
ATOM     22  C   UNL     1     128.773 128.575 134.047  1.00  0.00    -0.000 C 
BRANCH  22  23
ATOM     23  C   UNL     1     128.121 127.462 134.881  1.00  0.00    -0.000 C 
BRANCH  23  24
ATOM     24  C   UNL     1     128.215 127.724 136.393  1.00  0.00    -0.000 C 
BRANCH  24  25
ATOM     25  C   UNL     1     126.883 128.197 136.992  1.00  0.00    -0.003 C 
ATOM     26  C   UNL     1     127.115 129.143 138.167  1.00  0.00     0.004 C 
ENDBRANCH  24  25
ENDBRANCH  23  24
ENDBRANCH  22  23
ENDBRANCH  21  22
ENDBRANCH  20  21
ENDBRANCH  19  20
ENDBRANCH  18  19
ENDBRANCH  17  18
ENDBRANCH  16  17
ENDBRANCH  15  16
ENDBRANCH   1  15
TORSDOF 22
ENDMDL
MODEL 6
REMARK VINA RESULT:    -4.922      5.428     10.730
REMARK INTER + INTRA:         -12.322
REMARK INTER:                  -9.255
REMARK INTRA:                  -3.066
REMARK UNBOUND:                -1.068
REMARK SMILES CCCCCCCCCCCCCCCCCCCCCCCC(=O)[O-]
REMARK SMILES IDX 13 1 14 2 15 3 16 4 17 5 18 6 19 7 20 8 21 9 22 10 23 11
REMARK SMILES IDX 24 12 25 13 26 14 12 15 11 16 10 17 9 18 8 19 7 20 6 21 5 22
REMARK SMILES IDX 4 23 3 24 2 25 1 26
REMARK H PARENT
REMARK Flexibility Score: inf
ROOT
ATOM      1  C   UNL     1     126.774 126.630 137.444  1.00  0.00     0.000 C 
ENDROOT
BRANCH   1   2
ATOM      2  C   UNL     1     128.020 125.851 136.981  1.00  0.00     0.000 C 
BRANCH   2   3
ATOM      3  C   UNL     1     127.738 124.846 135.848  1.00  0.00     0.000 C 
BRANCH   3   4
ATOM      4  C   UNL     1     126.572 123.900 136.189  1.00  0.00     0.000 C 
BRANCH   4   5
ATOM      5  C   UNL     1     125.733 123.520 134.957  1.00  0.00     0.000 C 
BRANCH   5   6
ATOM      6  C   UNL     1     124.643 122.462 135.217  1.00  0.00     0.000 C 
BRANCH   6   7
ATOM      7  C   UNL     1     123.703 122.231 134.015  1.00  0.00     0.000 C 
BRANCH   7   8
ATOM      8  C   UNL     1     124.339 122.681 132.688  1.00  0.00     0.000 C 
BRANCH   8   9
ATOM      9  C   UNL     1     123.976 121.767 131.504  1.00  0.00     0.000 C 
BRANCH   9  10
ATOM     10  C   UNL     1     124.796 122.003 130.222  1.00  0.00     0.006 C 
BRANCH  10  11
ATOM     11  C   UNL     1     124.674 123.436 129.689  1.00  0.00     0.053 C 
BRANCH  11  12
ATOM     12  C   UNL     1     125.729 123.705 128.663  1.00  0.00     0.041 C 
ATOM     13  O   UNL     1     125.839 124.851 128.153  1.00  0.00    -0.550 OA
ATOM     14  O   UNL     1     126.566 122.679 128.240  1.00  0.00    -0.550 OA
ENDBRANCH  11  12
ENDBRANCH  10  11
ENDBRANCH   9  10
ENDBRANCH   8   9
ENDBRANCH   7   8
ENDBRANCH   6   7
ENDBRANCH   5   6
ENDBRANCH   4   5
ENDBRANCH   3   4
ENDBRANCH   2   3
ENDBRANCH   1   2
BRANCH   1  15
ATOM     15  C   UNL     1     126.934 128.148 137.260  1.00  0.00     0.000 C 
BRANCH  15  16
ATOM     16  C   UNL     1     128.373 128.591 137.563  1.00  0.00     0.000 C 
BRANCH  16  17
ATOM     17  C   UNL     1     128.583 130.102 137.367  1.00  0.00     0.000 C 
BRANCH  17  18
ATOM     18  C   UNL     1     127.925 130.630 136.080  1.00  0.00    -0.000 C 
BRANCH  18  19
ATOM     19  C   UNL     1     128.959 131.153 135.067  1.00  0.00    -0.000 C 
BRANCH  19  20
ATOM     20  C   UNL     1     129.950 130.063 134.623  1.00  0.00    -0.000 C 
BRANCH  20  21
ATOM     21  C   UNL     1     129.441 129.256 133.418  1.00  0.00    -0.000 C 
BRANCH  21  22
ATOM     22  C   UNL     1     128.647 128.006 133.829  1.00  0.00    -0.000 C 
BRANCH  22  23
ATOM     23  C   UNL     1     127.389 127.847 132.961  1.00  0.00    -0.000 C 
BRANCH  23  24
ATOM     24  C   UNL     1     126.320 126.964 133.627  1.00  0.00    -0.000 C 
BRANCH  24  25
ATOM     25  C   UNL     1     125.112 127.773 134.120  1.00  0.00    -0.003 C 
ATOM     26  C   UNL     1     124.171 126.904 134.950  1.00  0.00     0.004 C 
ENDBRANCH  24  25
ENDBRANCH  23  24
ENDBRANCH  22  23
ENDBRANCH  21  22
ENDBRANCH  20  21
ENDBRANCH  19  20
ENDBRANCH  18  19
ENDBRANCH  17  18
ENDBRANCH  16  17
ENDBRANCH  15  16
ENDBRANCH   1  15
TORSDOF 22
ENDMDL
MODEL 7
REMARK VINA RESULT:    -4.903      6.843     13.627
REMARK INTER + INTRA:         -12.277
REMARK INTER:                  -9.651
REMARK INTRA:                  -2.626
REMARK UNBOUND:                -1.068
REMARK SMILES CCCCCCCCCCCCCCCCCCCCCCCC(=O)[O-]
REMARK SMILES IDX 13 1 14 2 15 3 16 4 17 5 18 6 19 7 20 8 21 9 22 10 23 11
REMARK SMILES IDX 24 12 25 13 26 14 12 15 11 16 10 17 9 18 8 19 7 20 6 21 5 22
REMARK SMILES IDX 4 23 3 24 2 25 1 26
REMARK H PARENT
REMARK Flexibility Score: inf
ROOT
ATOM      1  C   UNL     1     131.977 133.598 134.074  1.00  0.00     0.000 C 
ENDROOT
BRANCH   1   2
ATOM      2  C   UNL     1     132.421 133.752 135.541  1.00  0.00     0.000 C 
BRANCH   2   3
ATOM      3  C   UNL     1     131.259 134.029 136.515  1.00  0.00     0.000 C 
BRANCH   3   4
ATOM      4  C   UNL     1     131.015 132.851 137.477  1.00  0.00     0.000 C 
BRANCH   4   5
ATOM      5  C   UNL     1     130.386 131.633 136.782  1.00  0.00     0.000 C 
BRANCH   5   6
ATOM      6  C   UNL     1     128.952 131.852 136.263  1.00  0.00     0.000 C 
BRANCH   6   7
ATOM      7  C   UNL     1     128.587 130.966 135.052  1.00  0.00     0.000 C 
BRANCH   7   8
ATOM      8  C   UNL     1     129.836 130.461 134.308  1.00  0.00     0.000 C 
BRANCH   8   9
ATOM      9  C   UNL     1     129.551 129.247 133.406  1.00  0.00     0.000 C 
BRANCH   9  10
ATOM     10  C   UNL     1     128.589 128.203 134.001  1.00  0.00     0.006 C 
BRANCH  10  11
ATOM     11  C   UNL     1     129.189 127.448 135.194  1.00  0.00     0.053 C 
BRANCH  11  12
ATOM     12  C   UNL     1     128.146 127.204 136.238  1.00  0.00     0.041 C 
ATOM     13  O   UNL     1     128.374 126.408 137.187  1.00  0.00    -0.550 OA
ATOM     14  O   UNL     1     126.906 127.823 136.141  1.00  0.00    -0.550 OA
ENDBRANCH  11  12
ENDBRANCH  10  11
ENDBRANCH   9  10
ENDBRANCH   8   9
ENDBRANCH   7   8
ENDBRANCH   6   7
ENDBRANCH   5   6
ENDBRANCH   4   5
ENDBRANCH   3   4
ENDBRANCH   2   3
ENDBRANCH   1   2
BRANCH   1  15
ATOM     15  C   UNL     1     132.891 134.364 133.105  1.00  0.00     0.000 C 
BRANCH  15  16
ATOM     16  C   UNL     1     132.846 135.874 133.383  1.00  0.00     0.000 C 
BRANCH  16  17
ATOM     17  C   UNL     1     133.483 136.704 132.256  1.00  0.00     0.000 C 
BRANCH  17  18
ATOM     18  C   UNL     1     132.704 137.999 131.960  1.00  0.00    -0.000 C 
BRANCH  18  19
ATOM     19  C   UNL     1     131.204 137.740 131.733  1.00  0.00    -0.000 C 
BRANCH  19  20
ATOM     20  C   UNL     1     130.911 137.182 130.329  1.00  0.00    -0.000 C 
BRANCH  20  21
ATOM     21  C   UNL     1     129.745 136.180 130.321  1.00  0.00    -0.000 C 
BRANCH  21  22
ATOM     22  C   UNL     1     130.184 134.751 130.675  1.00  0.00    -0.000 C 
BRANCH  22  23
ATOM     23  C   UNL     1     131.305 134.274 129.740  1.00  0.00    -0.000 C 
BRANCH  23  24
ATOM     24  C   UNL     1     131.145 132.801 129.329  1.00  0.00    -0.000 C 
BRANCH  24  25
ATOM     25  C   UNL     1     130.022 132.595 128.302  1.00  0.00    -0.003 C 
ATOM     26  C   UNL     1     129.596 131.130 128.242  1.00  0.00     0.004 C 
ENDBRANCH  24  25
ENDBRANCH  23  24
ENDBRANCH  22  23
ENDBRANCH  21  22
ENDBRANCH  20  21
ENDBRANCH  19  20
ENDBRANCH  18  19
ENDBRANCH  17  18
ENDBRANCH  16  17
ENDBRANCH  15  16
ENDBRANCH   1  15
TORSDOF 22
ENDMDL
MODEL 8
REMARK VINA RESULT:    -4.886      5.364      9.329
REMARK INTER + INTRA:         -12.237
REMARK INTER:                  -9.317
REMARK INTRA:                  -2.920
REMARK UNBOUND:                -1.068
REMARK SMILES CCCCCCCCCCCCCCCCCCCCCCCC(=O)[O-]
REMARK SMILES IDX 13 1 14 2 15 3 16 4 17 5 18 6 19 7 20 8 21 9 22 10 23 11
REMARK SMILES IDX 24 12 25 13 26 14 12 15 11 16 10 17 9 18 8 19 7 20 6 21 5 22
REMARK SMILES IDX 4 23 3 24 2 25 1 26
REMARK H PARENT
REMARK Flexibility Score: inf
ROOT
ATOM      1  C   UNL     1     127.946 130.598 138.782  1.00  0.00     0.000 C 
ENDROOT
BRANCH   1   2
ATOM      2  C   UNL     1     129.179 131.471 138.482  1.00  0.00     0.000 C 
BRANCH   2   3
ATOM      3  C   UNL     1     129.277 131.919 137.011  1.00  0.00     0.000 C 
BRANCH   3   4
ATOM      4  C   UNL     1     130.628 131.539 136.377  1.00  0.00     0.000 C 
BRANCH   4   5
ATOM      5  C   UNL     1     130.585 131.530 134.840  1.00  0.00     0.000 C 
BRANCH   5   6
ATOM      6  C   UNL     1     130.675 132.920 134.182  1.00  0.00     0.000 C 
BRANCH   6   7
ATOM      7  C   UNL     1     131.481 132.933 132.865  1.00  0.00     0.000 C 
BRANCH   7   8
ATOM      8  C   UNL     1     131.223 134.208 132.042  1.00  0.00     0.000 C 
BRANCH   8   9
ATOM      9  C   UNL     1     131.752 134.112 130.599  1.00  0.00     0.000 C 
BRANCH   9  10
ATOM     10  C   UNL     1     130.667 134.079 129.507  1.00  0.00     0.006 C 
BRANCH  10  11
ATOM     11  C   UNL     1     130.892 132.969 128.474  1.00  0.00     0.053 C 
BRANCH  11  12
ATOM     12  C   UNL     1     129.584 132.481 127.936  1.00  0.00     0.041 C 
ATOM     13  O   UNL     1     128.550 133.193 128.041  1.00  0.00    -0.550 OA
ATOM     14  O   UNL     1     129.497 131.222 127.354  1.00  0.00    -0.550 OA
ENDBRANCH  11  12
ENDBRANCH  10  11
ENDBRANCH   9  10
ENDBRANCH   8   9
ENDBRANCH   7   8
ENDBRANCH   6   7
ENDBRANCH   5   6
ENDBRANCH   4   5
ENDBRANCH   3   4
ENDBRANCH   2   3
ENDBRANCH   1   2
BRANCH   1  15
ATOM     15  C   UNL     1     127.480 129.804 137.552  1.00  0.00     0.000 C 
BRANCH  15  16
ATOM     16  C   UNL     1     127.259 128.324 137.903  1.00  0.00     0.000 C 
BRANCH  16  17
ATOM     17  C   UNL     1     128.426 127.428 137.456  1.00  0.00     0.000 C 
BRANCH  17  18
ATOM     18  C   UNL     1     129.357 128.125 136.448  1.00  0.00    -0.000 C 
BRANCH  18  19
ATOM     19  C   UNL     1     129.280 127.494 135.047  1.00  0.00    -0.000 C 
BRANCH  19  20
ATOM     20  C   UNL     1     128.458 128.345 134.064  1.00  0.00    -0.000 C 
BRANCH  20  21
ATOM     21  C   UNL     1     127.179 127.637 133.592  1.00  0.00    -0.000 C 
BRANCH  21  22
ATOM     22  C   UNL     1     125.968 127.926 134.493  1.00  0.00    -0.000 C 
BRANCH  22  23
ATOM     23  C   UNL     1     125.262 126.624 134.897  1.00  0.00    -0.000 C 
BRANCH  23  24
ATOM     24  C   UNL     1     125.860 125.388 134.204  1.00  0.00    -0.000 C 
BRANCH  24  25
ATOM     25  C   UNL     1     126.184 124.258 135.191  1.00  0.00    -0.003 C 
ATOM     26  C   UNL     1     127.649 124.305 135.618  1.00  0.00     0.004 C 
ENDBRANCH  24  25
ENDBRANCH  23  24
ENDBRANCH  22  23
ENDBRANCH  21  22
ENDBRANCH  20  21
ENDBRANCH  19  20
ENDBRANCH  18  19
ENDBRANCH  17  18
ENDBRANCH  16  17
ENDBRANCH  15  16
ENDBRANCH   1  15
TORSDOF 22
ENDMDL
MODEL 9
REMARK VINA RESULT:    -4.874      4.774      9.109
REMARK INTER + INTRA:         -12.211
REMARK INTER:                  -9.985
REMARK INTRA:                  -2.225
REMARK UNBOUND:                -1.068
REMARK SMILES CCCCCCCCCCCCCCCCCCCCCCCC(=O)[O-]
REMARK SMILES IDX 13 1 14 2 15 3 16 4 17 5 18 6 19 7 20 8 21 9 22 10 23 11
REMARK SMILES IDX 24 12 25 13 26 14 12 15 11 16 10 17 9 18 8 19 7 20 6 21 5 22
REMARK SMILES IDX 4 23 3 24 2 25 1 26
REMARK H PARENT
REMARK Flexibility Score: inf
ROOT
ATOM      1  C   UNL     1     122.459 121.490 132.723  1.00  0.00     0.000 C 
ENDROOT
BRANCH   1   2
ATOM      2  C   UNL     1     122.187 120.034 132.302  1.00  0.00     0.000 C 
BRANCH   2   3
ATOM      3  C   UNL     1     122.761 118.988 133.277  1.00  0.00     0.000 C 
BRANCH   3   4
ATOM      4  C   UNL     1     123.731 118.016 132.581  1.00  0.00     0.000 C 
BRANCH   4   5
ATOM      5  C   UNL     1     124.062 118.434 131.139  1.00  0.00     0.000 C 
BRANCH   5   6
ATOM      6  C   UNL     1     125.561 118.648 130.854  1.00  0.00     0.000 C 
BRANCH   6   7
ATOM      7  C   UNL     1     125.899 120.062 130.336  1.00  0.00     0.000 C 
BRANCH   7   8
ATOM      8  C   UNL     1     124.642 120.833 129.897  1.00  0.00     0.000 C 
BRANCH   8   9
ATOM      9  C   UNL     1     124.889 122.343 129.724  1.00  0.00     0.000 C 
BRANCH   9  10
ATOM     10  C   UNL     1     125.088 122.809 128.270  1.00  0.00     0.006 C 
BRANCH  10  11
ATOM     11  C   UNL     1     126.561 123.034 127.910  1.00  0.00     0.053 C 
BRANCH  11  12
ATOM     12  C   UNL     1     126.786 124.448 127.478  1.00  0.00     0.041 C 
ATOM     13  O   UNL     1     127.264 124.694 126.339  1.00  0.00    -0.550 OA
ATOM     14  O   UNL     1     126.506 125.494 128.348  1.00  0.00    -0.550 OA
ENDBRANCH  11  12
ENDBRANCH  10  11
ENDBRANCH   9  10
ENDBRANCH   8   9
ENDBRANCH   7   8
ENDBRANCH   6   7
ENDBRANCH   5   6
ENDBRANCH   4   5
ENDBRANCH   3   4
ENDBRANCH   2   3
ENDBRANCH   1   2
BRANCH   1  15
ATOM     15  C   UNL     1     123.772 121.633 133.510  1.00  0.00     0.000 C 
BRANCH  15  16
ATOM     16  C   UNL     1     123.527 122.291 134.877  1.00  0.00     0.000 C 
BRANCH  16  17
ATOM     17  C   UNL     1     124.653 122.005 135.883  1.00  0.00     0.000 C 
BRANCH  17  18
ATOM     18  C   UNL     1     125.406 123.278 136.309  1.00  0.00    -0.000 C 
BRANCH  18  19
ATOM     19  C   UNL     1     126.152 123.935 135.134  1.00  0.00    -0.000 C 
BRANCH  19  20
ATOM     20  C   UNL     1     125.530 125.280 134.722  1.00  0.00    -0.000 C 
BRANCH  20  21
ATOM     21  C   UNL     1     126.581 126.306 134.269  1.00  0.00    -0.000 C 
BRANCH  21  22
ATOM     22  C   UNL     1     127.648 126.581 135.341  1.00  0.00    -0.000 C 
BRANCH  22  23
ATOM     23  C   UNL     1     127.111 127.539 136.415  1.00  0.00    -0.000 C 
BRANCH  23  24
ATOM     24  C   UNL     1     127.007 128.989 135.915  1.00  0.00    -0.000 C 
BRANCH  24  25
ATOM     25  C   UNL     1     128.208 129.846 136.341  1.00  0.00    -0.003 C 
ATOM     26  C   UNL     1     128.348 131.077 135.448  1.00  0.00     0.004 C 
ENDBRANCH  24  25
ENDBRANCH  23  24
ENDBRANCH  22  23
ENDBRANCH  21  22
ENDBRANCH  20  21
ENDBRANCH  19  20
ENDBRANCH  18  19
ENDBRANCH  17  18
ENDBRANCH  16  17
ENDBRANCH  15  16
ENDBRANCH   1  15
TORSDOF 22
ENDMDL
