MODEL 1
REMARK VINA RESULT:    -3.244      0.000      0.000
REMARK INTER + INTRA:          -8.065
REMARK INTER:                  -5.899
REMARK INTRA:                  -2.165
REMARK UNBOUND:                -2.165
REMARK SMILES CCCCCCCCCCCCCC[C@@H](C)C(=O)[O-]
REMARK SMILES IDX 9 1 10 2 11 3 12 4 13 5 14 6 15 7 16 8 17 9 18 10 19 11 8 12
REMARK SMILES IDX 7 13 6 14 5 15 4 16 3 17 2 18 1 19
REMARK H PARENT
REMARK Flexibility Score: inf
ROOT
ATOM      1  C   UNL     1      32.565  11.721  22.448  1.00  0.00     0.000 C 
ENDROOT
BRANCH   1   2
ATOM      2  C   UNL     1      32.125  10.681  23.492  1.00  0.00     0.000 C 
BRANCH   2   3
ATOM      3  C   UNL     1      31.238   9.572  22.896  1.00  0.00     0.000 C 
BRANCH   3   4
ATOM      4  C   UNL     1      31.913   8.703  21.817  1.00  0.00     0.000 C 
BRANCH   4   5
ATOM      5  C   UNL     1      31.252   7.332  21.573  1.00  0.00     0.001 C 
BRANCH   5   6
ATOM      6  C   UNL     1      31.983   6.422  20.565  1.00  0.00     0.009 C 
BRANCH   6   7
ATOM      7  C   UNL     1      33.180   5.634  21.144  1.00  0.00     0.032 C 
ATOM      8  C   UNL     1      32.739   4.398  21.941  1.00  0.00     0.014 C 
BRANCH   7   9
ATOM      9  C   UNL     1      34.102   5.222  20.029  1.00  0.00     0.044 C 
ATOM     10  O   UNL     1      35.219   5.784  19.880  1.00  0.00    -0.550 OA
ATOM     11  O   UNL     1      33.729   4.203  19.161  1.00  0.00    -0.550 OA
ENDBRANCH   7   9
ENDBRANCH   6   7
ENDBRANCH   5   6
ENDBRANCH   4   5
ENDBRANCH   3   4
ENDBRANCH   2   3
ENDBRANCH   1   2
BRANCH   1  12
ATOM     12  C   UNL     1      34.076  12.012  22.494  1.00  0.00     0.000 C 
BRANCH  12  13
ATOM     13  C   UNL     1      34.914  10.999  23.301  1.00  0.00    -0.000 C 
BRANCH  13  14
ATOM     14  C   UNL     1      35.999  10.254  22.497  1.00  0.00    -0.000 C 
BRANCH  14  15
ATOM     15  C   UNL     1      35.483   9.098  21.620  1.00  0.00    -0.000 C 
BRANCH  15  16
ATOM     16  C   UNL     1      35.660   9.366  20.117  1.00  0.00    -0.000 C 
BRANCH  16  17
ATOM     17  C   UNL     1      34.341   9.237  19.336  1.00  0.00    -0.000 C 
BRANCH  17  18
ATOM     18  C   UNL     1      33.660  10.593  19.094  1.00  0.00    -0.003 C 
ATOM     19  C   UNL     1      33.253  10.749  17.632  1.00  0.00     0.004 C 
ENDBRANCH  17  18
ENDBRANCH  16  17
ENDBRANCH  15  16
ENDBRANCH  14  15
ENDBRANCH  13  14
ENDBRANCH  12  13
ENDBRANCH   1  12
TORSDOF 14
ENDMDL
MODEL 2
REMARK VINA RESULT:    -3.239      1.387      2.053
REMARK INTER + INTRA:          -8.056
REMARK INTER:                  -5.907
REMARK INTRA:                  -2.149
REMARK UNBOUND:                -2.165
REMARK SMILES CCCCCCCCCCCCCC[C@@H](C)C(=O)[O-]
REMARK SMILES IDX 9 1 10 2 11 3 12 4 13 5 14 6 15 7 16 8 17 9 18 10 19 11 8 12
REMARK SMILES IDX 7 13 6 14 5 15 4 16 3 17 2 18 1 19
REMARK H PARENT
REMARK Flexibility Score: inf
ROOT
ATOM      1  C   UNL     1      34.485  11.350  23.288  1.00  0.00     0.000 C 
ENDROOT
BRANCH   1   2
ATOM      2  C   UNL     1      33.183  11.307  22.470  1.00  0.00     0.000 C 
BRANCH   2   3
ATOM      3  C   UNL     1      31.954  10.936  23.320  1.00  0.00     0.000 C 
BRANCH   3   4
ATOM      4  C   UNL     1      31.272   9.606  22.941  1.00  0.00     0.000 C 
BRANCH   4   5
ATOM      5  C   UNL     1      31.975   8.805  21.827  1.00  0.00     0.001 C 
BRANCH   5   6
ATOM      6  C   UNL     1      31.340   7.438  21.502  1.00  0.00     0.009 C 
BRANCH   6   7
ATOM      7  C   UNL     1      32.299   6.407  20.863  1.00  0.00     0.032 C 
ATOM      8  C   UNL     1      32.340   5.084  21.640  1.00  0.00     0.014 C 
BRANCH   7   9
ATOM      9  C   UNL     1      31.891   6.151  19.438  1.00  0.00     0.044 C 
ATOM     10  O   UNL     1      32.399   5.200  18.787  1.00  0.00    -0.550 OA
ATOM     11  O   UNL     1      30.936   6.960  18.834  1.00  0.00    -0.550 OA
ENDBRANCH   7   9
ENDBRANCH   6   7
ENDBRANCH   5   6
ENDBRANCH   4   5
ENDBRANCH   3   4
ENDBRANCH   2   3
ENDBRANCH   1   2
BRANCH   1  12
ATOM     12  C   UNL     1      35.672  11.923  22.493  1.00  0.00     0.000 C 
BRANCH  12  13
ATOM     13  C   UNL     1      37.050  11.335  22.859  1.00  0.00    -0.000 C 
BRANCH  13  14
ATOM     14  C   UNL     1      37.077   9.809  23.080  1.00  0.00    -0.000 C 
BRANCH  14  15
ATOM     15  C   UNL     1      37.115   8.965  21.793  1.00  0.00    -0.000 C 
BRANCH  15  16
ATOM     16  C   UNL     1      35.759   8.321  21.462  1.00  0.00    -0.000 C 
BRANCH  16  17
ATOM     17  C   UNL     1      35.144   8.876  20.167  1.00  0.00    -0.000 C 
BRANCH  17  18
ATOM     18  C   UNL     1      36.127   9.743  19.367  1.00  0.00    -0.003 C 
ATOM     19  C   UNL     1      35.459  11.027  18.884  1.00  0.00     0.004 C 
ENDBRANCH  17  18
ENDBRANCH  16  17
ENDBRANCH  15  16
ENDBRANCH  14  15
ENDBRANCH  13  14
ENDBRANCH  12  13
ENDBRANCH   1  12
TORSDOF 14
ENDMDL
MODEL 3
REMARK VINA RESULT:    -3.221      1.558      3.582
REMARK INTER + INTRA:          -8.022
REMARK INTER:                  -5.751
REMARK INTRA:                  -2.272
REMARK UNBOUND:                -2.165
REMARK SMILES CCCCCCCCCCCCCC[C@@H](C)C(=O)[O-]
REMARK SMILES IDX 9 1 10 2 11 3 12 4 13 5 14 6 15 7 16 8 17 9 18 10 19 11 8 12
REMARK SMILES IDX 7 13 6 14 5 15 4 16 3 17 2 18 1 19
REMARK H PARENT
REMARK Flexibility Score: inf
ROOT
ATOM      1  C   UNL     1      35.756  10.586  22.863  1.00  0.00     0.000 C 
ENDROOT
BRANCH   1   2
ATOM      2  C   UNL     1      35.731  10.638  21.326  1.00  0.00     0.000 C 
BRANCH   2   3
ATOM      3  C   UNL     1      36.226   9.334  20.675  1.00  0.00     0.000 C 
BRANCH   3   4
ATOM      4  C   UNL     1      36.099   8.074  21.554  1.00  0.00     0.000 C 
BRANCH   4   5
ATOM      5  C   UNL     1      36.052   6.740  20.784  1.00  0.00     0.001 C 
BRANCH   5   6
ATOM      6  C   UNL     1      35.190   5.637  21.432  1.00  0.00     0.009 C 
BRANCH   6   7
ATOM      7  C   UNL     1      34.633   4.580  20.451  1.00  0.00     0.032 C 
ATOM      8  C   UNL     1      35.710   3.590  19.984  1.00  0.00     0.014 C 
BRANCH   7   9
ATOM      9  C   UNL     1      33.500   3.835  21.099  1.00  0.00     0.044 C 
ATOM     10  O   UNL     1      33.029   2.794  20.567  1.00  0.00    -0.550 OA
ATOM     11  O   UNL     1      32.971   4.285  22.302  1.00  0.00    -0.550 OA
ENDBRANCH   7   9
ENDBRANCH   6   7
ENDBRANCH   5   6
ENDBRANCH   4   5
ENDBRANCH   3   4
ENDBRANCH   2   3
ENDBRANCH   1   2
BRANCH   1  12
ATOM     12  C   UNL     1      34.616  11.398  23.506  1.00  0.00     0.000 C 
BRANCH  12  13
ATOM     13  C   UNL     1      33.301  11.432  22.702  1.00  0.00    -0.000 C 
BRANCH  13  14
ATOM     14  C   UNL     1      32.070  10.851  23.427  1.00  0.00    -0.000 C 
BRANCH  14  15
ATOM     15  C   UNL     1      31.502   9.558  22.813  1.00  0.00    -0.000 C 
BRANCH  15  16
ATOM     16  C   UNL     1      32.348   9.033  21.641  1.00  0.00    -0.000 C 
BRANCH  16  17
ATOM     17  C   UNL     1      31.989   7.588  21.257  1.00  0.00    -0.000 C 
BRANCH  17  18
ATOM     18  C   UNL     1      32.211   7.300  19.764  1.00  0.00    -0.003 C 
ATOM     19  C   UNL     1      33.136   8.338  19.136  1.00  0.00     0.004 C 
ENDBRANCH  17  18
ENDBRANCH  16  17
ENDBRANCH  15  16
ENDBRANCH  14  15
ENDBRANCH  13  14
ENDBRANCH  12  13
ENDBRANCH   1  12
TORSDOF 14
ENDMDL
MODEL 4
REMARK VINA RESULT:    -3.219      2.019      3.418
REMARK INTER + INTRA:          -8.019
REMARK INTER:                  -6.640
REMARK INTRA:                  -1.379
REMARK UNBOUND:                -2.165
REMARK SMILES CCCCCCCCCCCCCC[C@@H](C)C(=O)[O-]
REMARK SMILES IDX 9 1 10 2 11 3 12 4 13 5 14 6 15 7 16 8 17 9 18 10 19 11 8 12
REMARK SMILES IDX 7 13 6 14 5 15 4 16 3 17 2 18 1 19
REMARK H PARENT
REMARK Flexibility Score: inf
ROOT
ATOM      1  C   UNL     1      32.747  11.524  22.245  1.00  0.00     0.000 C 
ENDROOT
BRANCH   1   2
ATOM      2  C   UNL     1      31.838  10.924  23.330  1.00  0.00     0.000 C 
BRANCH   2   3
ATOM      3  C   UNL     1      31.171   9.607  22.892  1.00  0.00     0.000 C 
BRANCH   3   4
ATOM      4  C   UNL     1      31.956   8.792  21.845  1.00  0.00     0.000 C 
BRANCH   4   5
ATOM      5  C   UNL     1      31.309   7.454  21.438  1.00  0.00     0.001 C 
BRANCH   5   6
ATOM      6  C   UNL     1      31.826   6.851  20.116  1.00  0.00     0.009 C 
BRANCH   6   7
ATOM      7  C   UNL     1      32.777   5.642  20.276  1.00  0.00     0.032 C 
ATOM      8  C   UNL     1      34.161   6.051  20.798  1.00  0.00     0.014 C 
BRANCH   7   9
ATOM      9  C   UNL     1      32.159   4.631  21.201  1.00  0.00     0.044 C 
ATOM     10  O   UNL     1      32.682   4.383  22.321  1.00  0.00    -0.550 OA
ATOM     11  O   UNL     1      30.994   3.971  20.830  1.00  0.00    -0.550 OA
ENDBRANCH   7   9
ENDBRANCH   6   7
ENDBRANCH   5   6
ENDBRANCH   4   5
ENDBRANCH   3   4
ENDBRANCH   2   3
ENDBRANCH   1   2
BRANCH   1  12
ATOM     12  C   UNL     1      34.064  12.085  22.811  1.00  0.00     0.000 C 
BRANCH  12  13
ATOM     13  C   UNL     1      35.137  11.028  23.143  1.00  0.00    -0.000 C 
BRANCH  13  14
ATOM     14  C   UNL     1      35.323   9.923  22.084  1.00  0.00    -0.000 C 
BRANCH  14  15
ATOM     15  C   UNL     1      36.695   9.224  22.104  1.00  0.00    -0.000 C 
BRANCH  15  16
ATOM     16  C   UNL     1      37.549   9.625  23.317  1.00  0.00    -0.000 C 
BRANCH  16  17
ATOM     17  C   UNL     1      38.434   8.473  23.821  1.00  0.00    -0.000 C 
BRANCH  17  18
ATOM     18  C   UNL     1      38.255   7.186  23.002  1.00  0.00    -0.003 C 
ATOM     19  C   UNL     1      37.805   6.029  23.890  1.00  0.00     0.004 C 
ENDBRANCH  17  18
ENDBRANCH  16  17
ENDBRANCH  15  16
ENDBRANCH  14  15
ENDBRANCH  13  14
ENDBRANCH  12  13
ENDBRANCH   1  12
TORSDOF 14
ENDMDL
MODEL 5
REMARK VINA RESULT:    -3.185      1.584      5.012
REMARK INTER + INTRA:          -7.956
REMARK INTER:                  -6.278
REMARK INTRA:                  -1.678
REMARK UNBOUND:                -2.165
REMARK SMILES CCCCCCCCCCCCCC[C@@H](C)C(=O)[O-]
REMARK SMILES IDX 9 1 10 2 11 3 12 4 13 5 14 6 15 7 16 8 17 9 18 10 19 11 8 12
REMARK SMILES IDX 7 13 6 14 5 15 4 16 3 17 2 18 1 19
REMARK H PARENT
REMARK Flexibility Score: inf
ROOT
ATOM      1  C   UNL     1      32.312  10.231  23.136  1.00  0.00     0.000 C 
ENDROOT
BRANCH   1   2
ATOM      2  C   UNL     1      32.596  11.495  22.307  1.00  0.00     0.000 C 
BRANCH   2   3
ATOM      3  C   UNL     1      34.050  11.984  22.440  1.00  0.00     0.000 C 
BRANCH   3   4
ATOM      4  C   UNL     1      34.960  11.101  23.317  1.00  0.00     0.000 C 
BRANCH   4   5
ATOM      5  C   UNL     1      36.424  10.996  22.844  1.00  0.00     0.001 C 
BRANCH   5   6
ATOM      6  C   UNL     1      36.881   9.581  22.435  1.00  0.00     0.009 C 
BRANCH   6   7
ATOM      7  C   UNL     1      35.858   8.780  21.595  1.00  0.00     0.032 C 
ATOM      8  C   UNL     1      35.679   9.357  20.184  1.00  0.00     0.014 C 
BRANCH   7   9
ATOM      9  C   UNL     1      36.288   7.342  21.509  1.00  0.00     0.044 C 
ATOM     10  O   UNL     1      36.888   6.794  22.472  1.00  0.00    -0.550 OA
ATOM     11  O   UNL     1      36.012   6.602  20.366  1.00  0.00    -0.550 OA
ENDBRANCH   7   9
ENDBRANCH   6   7
ENDBRANCH   5   6
ENDBRANCH   4   5
ENDBRANCH   3   4
ENDBRANCH   2   3
ENDBRANCH   1   2
BRANCH   1  12
ATOM     12  C   UNL     1      31.010   9.523  22.719  1.00  0.00     0.000 C 
BRANCH  12  13
ATOM     13  C   UNL     1      31.193   8.115  22.118  1.00  0.00    -0.000 C 
BRANCH  13  14
ATOM     14  C   UNL     1      32.312   7.989  21.065  1.00  0.00    -0.000 C 
BRANCH  14  15
ATOM     15  C   UNL     1      32.514   6.573  20.493  1.00  0.00    -0.000 C 
BRANCH  15  16
ATOM     16  C   UNL     1      31.955   5.475  21.412  1.00  0.00    -0.000 C 
BRANCH  16  17
ATOM     17  C   UNL     1      33.049   4.524  21.926  1.00  0.00    -0.000 C 
BRANCH  17  18
ATOM     18  C   UNL     1      32.956   3.122  21.304  1.00  0.00    -0.003 C 
ATOM     19  C   UNL     1      31.556   2.857  20.757  1.00  0.00     0.004 C 
ENDBRANCH  17  18
ENDBRANCH  16  17
ENDBRANCH  15  16
ENDBRANCH  14  15
ENDBRANCH  13  14
ENDBRANCH  12  13
ENDBRANCH   1  12
TORSDOF 14
ENDMDL
MODEL 6
REMARK VINA RESULT:    -3.084      1.958      4.764
REMARK INTER + INTRA:          -7.774
REMARK INTER:                  -5.671
REMARK INTRA:                  -2.102
REMARK UNBOUND:                -2.165
REMARK SMILES CCCCCCCCCCCCCC[C@@H](C)C(=O)[O-]
REMARK SMILES IDX 9 1 10 2 11 3 12 4 13 5 14 6 15 7 16 8 17 9 18 10 19 11 8 12
REMARK SMILES IDX 7 13 6 14 5 15 4 16 3 17 2 18 1 19
REMARK H PARENT
REMARK Flexibility Score: inf
ROOT
ATOM      1  C   UNL     1      31.940   8.723  21.806  1.00  0.00     0.000 C 
ENDROOT
BRANCH   1   2
ATOM      2  C   UNL     1      31.220   9.529  22.900  1.00  0.00     0.000 C 
BRANCH   2   3
ATOM      3  C   UNL     1      32.104  10.631  23.512  1.00  0.00     0.000 C 
BRANCH   3   4
ATOM      4  C   UNL     1      32.783  11.567  22.492  1.00  0.00     0.000 C 
BRANCH   4   5
ATOM      5  C   UNL     1      34.305  11.736  22.670  1.00  0.00     0.001 C 
BRANCH   5   6
ATOM      6  C   UNL     1      35.117  10.425  22.639  1.00  0.00     0.009 C 
BRANCH   6   7
ATOM      7  C   UNL     1      36.603  10.585  22.243  1.00  0.00     0.032 C 
ATOM      8  C   UNL     1      37.199  11.914  22.729  1.00  0.00     0.014 C 
BRANCH   7   9
ATOM      9  C   UNL     1      37.401   9.435  22.790  1.00  0.00     0.044 C 
ATOM     10  O   UNL     1      38.439   9.643  23.474  1.00  0.00    -0.550 OA
ATOM     11  O   UNL     1      36.987   8.129  22.556  1.00  0.00    -0.550 OA
ENDBRANCH   7   9
ENDBRANCH   6   7
ENDBRANCH   5   6
ENDBRANCH   4   5
ENDBRANCH   3   4
ENDBRANCH   2   3
ENDBRANCH   1   2
BRANCH   1  12
ATOM     12  C   UNL     1      31.211   7.414  21.451  1.00  0.00     0.000 C 
BRANCH  12  13
ATOM     13  C   UNL     1      31.935   6.519  20.425  1.00  0.00    -0.000 C 
BRANCH  13  14
ATOM     14  C   UNL     1      33.133   5.720  20.978  1.00  0.00    -0.000 C 
BRANCH  14  15
ATOM     15  C   UNL     1      34.518   6.289  20.618  1.00  0.00    -0.000 C 
BRANCH  15  16
ATOM     16  C   UNL     1      34.506   7.108  19.317  1.00  0.00    -0.000 C 
BRANCH  16  17
ATOM     17  C   UNL     1      35.013   8.545  19.520  1.00  0.00    -0.000 C 
BRANCH  17  18
ATOM     18  C   UNL     1      34.003   9.602  19.050  1.00  0.00    -0.003 C 
ATOM     19  C   UNL     1      33.095   9.046  17.957  1.00  0.00     0.004 C 
ENDBRANCH  17  18
ENDBRANCH  16  17
ENDBRANCH  15  16
ENDBRANCH  14  15
ENDBRANCH  13  14
ENDBRANCH  12  13
ENDBRANCH   1  12
TORSDOF 14
ENDMDL
MODEL 7
REMARK VINA RESULT:    -3.079      2.711      5.569
REMARK INTER + INTRA:          -7.764
REMARK INTER:                  -6.325
REMARK INTRA:                  -1.439
REMARK UNBOUND:                -2.165
REMARK SMILES CCCCCCCCCCCCCC[C@@H](C)C(=O)[O-]
REMARK SMILES IDX 9 1 10 2 11 3 12 4 13 5 14 6 15 7 16 8 17 9 18 10 19 11 8 12
REMARK SMILES IDX 7 13 6 14 5 15 4 16 3 17 2 18 1 19
REMARK H PARENT
REMARK Flexibility Score: inf
ROOT
ATOM      1  C   UNL     1      31.962   8.650  21.789  1.00  0.00     0.000 C 
ENDROOT
BRANCH   1   2
ATOM      2  C   UNL     1      31.222   9.435  22.885  1.00  0.00     0.000 C 
BRANCH   2   3
ATOM      3  C   UNL     1      32.036  10.626  23.422  1.00  0.00     0.000 C 
BRANCH   3   4
ATOM      4  C   UNL     1      32.482  11.648  22.357  1.00  0.00     0.000 C 
BRANCH   4   5
ATOM      5  C   UNL     1      33.958  12.081  22.443  1.00  0.00     0.001 C 
BRANCH   5   6
ATOM      6  C   UNL     1      34.833  11.244  23.398  1.00  0.00     0.009 C 
BRANCH   6   7
ATOM      7  C   UNL     1      35.729  10.189  22.708  1.00  0.00     0.032 C 
ATOM      8  C   UNL     1      35.553  10.178  21.183  1.00  0.00     0.014 C 
BRANCH   7   9
ATOM      9  C   UNL     1      37.170  10.443  23.056  1.00  0.00     0.044 C 
ATOM     10  O   UNL     1      37.650  11.606  22.989  1.00  0.00    -0.550 OA
ATOM     11  O   UNL     1      37.980   9.392  23.468  1.00  0.00    -0.550 OA
ENDBRANCH   7   9
ENDBRANCH   6   7
ENDBRANCH   5   6
ENDBRANCH   4   5
ENDBRANCH   3   4
ENDBRANCH   2   3
ENDBRANCH   1   2
BRANCH   1  12
ATOM     12  C   UNL     1      31.195   7.396  21.331  1.00  0.00     0.000 C 
BRANCH  12  13
ATOM     13  C   UNL     1      32.004   6.083  21.370  1.00  0.00    -0.000 C 
BRANCH  13  14
ATOM     14  C   UNL     1      33.085   5.944  20.279  1.00  0.00    -0.000 C 
BRANCH  14  15
ATOM     15  C   UNL     1      34.386   6.724  20.547  1.00  0.00    -0.000 C 
BRANCH  15  16
ATOM     16  C   UNL     1      35.469   5.863  21.217  1.00  0.00    -0.000 C 
BRANCH  16  17
ATOM     17  C   UNL     1      36.729   6.671  21.570  1.00  0.00    -0.000 C 
BRANCH  17  18
ATOM     18  C   UNL     1      37.787   5.830  22.301  1.00  0.00    -0.003 C 
ATOM     19  C   UNL     1      38.283   4.687  21.420  1.00  0.00     0.004 C 
ENDBRANCH  17  18
ENDBRANCH  16  17
ENDBRANCH  15  16
ENDBRANCH  14  15
ENDBRANCH  13  14
ENDBRANCH  12  13
ENDBRANCH   1  12
TORSDOF 14
ENDMDL
MODEL 8
REMARK VINA RESULT:    -3.051      2.235      4.458
REMARK INTER + INTRA:          -7.713
REMARK INTER:                  -5.891
REMARK INTRA:                  -1.823
REMARK UNBOUND:                -2.165
REMARK SMILES CCCCCCCCCCCCCC[C@@H](C)C(=O)[O-]
REMARK SMILES IDX 9 1 10 2 11 3 12 4 13 5 14 6 15 7 16 8 17 9 18 10 19 11 8 12
REMARK SMILES IDX 7 13 6 14 5 15 4 16 3 17 2 18 1 19
REMARK H PARENT
REMARK Flexibility Score: inf
ROOT
ATOM      1  C   UNL     1      33.781  11.912  22.132  1.00  0.00     0.000 C 
ENDROOT
BRANCH   1   2
ATOM      2  C   UNL     1      34.731  11.407  23.230  1.00  0.00     0.000 C 
BRANCH   2   3
ATOM      3  C   UNL     1      35.976  10.699  22.666  1.00  0.00     0.000 C 
BRANCH   3   4
ATOM      4  C   UNL     1      35.721   9.299  22.073  1.00  0.00     0.000 C 
BRANCH   4   5
ATOM      5  C   UNL     1      36.353   9.049  20.689  1.00  0.00     0.001 C 
BRANCH   5   6
ATOM      6  C   UNL     1      37.116   7.716  20.548  1.00  0.00     0.009 C 
BRANCH   6   7
ATOM      7  C   UNL     1      36.517   6.532  21.341  1.00  0.00     0.032 C 
ATOM      8  C   UNL     1      36.063   5.384  20.428  1.00  0.00     0.014 C 
BRANCH   7   9
ATOM      9  C   UNL     1      37.525   6.026  22.335  1.00  0.00     0.044 C 
ATOM     10  O   UNL     1      38.355   5.136  22.010  1.00  0.00    -0.550 OA
ATOM     11  O   UNL     1      37.556   6.551  23.621  1.00  0.00    -0.550 OA
ENDBRANCH   7   9
ENDBRANCH   6   7
ENDBRANCH   5   6
ENDBRANCH   4   5
ENDBRANCH   3   4
ENDBRANCH   2   3
ENDBRANCH   1   2
BRANCH   1  12
ATOM     12  C   UNL     1      32.350  11.362  22.279  1.00  0.00     0.000 C 
BRANCH  12  13
ATOM     13  C   UNL     1      32.246   9.980  22.956  1.00  0.00    -0.000 C 
BRANCH  13  14
ATOM     14  C   UNL     1      30.935   9.214  22.689  1.00  0.00    -0.000 C 
BRANCH  14  15
ATOM     15  C   UNL     1      31.096   7.902  21.899  1.00  0.00    -0.000 C 
BRANCH  15  16
ATOM     16  C   UNL     1      32.441   7.814  21.159  1.00  0.00    -0.000 C 
BRANCH  16  17
ATOM     17  C   UNL     1      32.527   6.586  20.238  1.00  0.00    -0.000 C 
BRANCH  17  18
ATOM     18  C   UNL     1      31.821   5.354  20.824  1.00  0.00    -0.003 C 
ATOM     19  C   UNL     1      32.707   4.648  21.846  1.00  0.00     0.004 C 
ENDBRANCH  17  18
ENDBRANCH  16  17
ENDBRANCH  15  16
ENDBRANCH  14  15
ENDBRANCH  13  14
ENDBRANCH  12  13
ENDBRANCH   1  12
TORSDOF 14
ENDMDL
