MODEL 1
REMARK VINA RESULT:    -3.637      0.000      0.000
REMARK INTER + INTRA:          -4.315
REMARK INTER:                  -4.168
REMARK INTRA:                  -0.147
REMARK UNBOUND:                -0.147
REMARK SMILES CC=Cc1ccc(O)c(OC)c1
REMARK SMILES IDX 4 1 12 2 9 3 7 4 6 5 5 6 3 7 1 8 2 9 10 10 11 11 8 12
REMARK H PARENT 8 13
REMARK Flexibility Score: inf
ROOT
ATOM      1  C   UNL     1     165.602 164.849 168.556  1.00  0.00    -0.022 A 
ATOM      2  C   UNL     1     164.966 164.464 167.363  1.00  0.00     0.058 A 
ATOM      3  C   UNL     1     165.145 165.201 166.175  1.00  0.00     0.161 A 
ATOM      4  C   UNL     1     165.965 166.343 166.194  1.00  0.00     0.157 A 
ATOM      5  C   UNL     1     166.587 166.738 167.381  1.00  0.00     0.051 A 
ATOM      6  C   UNL     1     166.407 166.005 168.555  1.00  0.00     0.012 A 
ENDROOT
BRANCH   1   7
ATOM      7  C   UNL     1     165.370 164.041 169.778  1.00  0.00     0.003 C 
ATOM      8  C   UNL     1     165.348 161.983 171.133  1.00  0.00     0.035 C 
ATOM      9  C   UNL     1     165.622 162.730 169.868  1.00  0.00    -0.030 C 
ENDBRANCH   1   7
BRANCH   3  10
ATOM     10  O   UNL     1     164.529 164.830 164.970  1.00  0.00    -0.493 OA
ATOM     11  C   UNL     1     163.307 164.105 164.877  1.00  0.00     0.278 C 
ENDBRANCH   3  10
BRANCH   4  12
ATOM     12  O   UNL     1     166.171 167.102 165.041  1.00  0.00    -0.504 OA
ATOM     13  H   UNL     1     167.065 167.129 164.565  1.00  0.00     0.293 HD
ENDBRANCH   4  12
TORSDOF 3
ENDMDL
MODEL 2
REMARK VINA RESULT:    -3.622      3.090      4.444
REMARK INTER + INTRA:          -4.298
REMARK INTER:                  -4.135
REMARK INTRA:                  -0.164
REMARK UNBOUND:                -0.147
REMARK SMILES CC=Cc1ccc(O)c(OC)c1
REMARK SMILES IDX 4 1 12 2 9 3 7 4 6 5 5 6 3 7 1 8 2 9 10 10 11 11 8 12
REMARK H PARENT 8 13
REMARK Flexibility Score: inf
ROOT
ATOM      1  C   UNL     1     165.787 165.756 166.143  1.00  0.00    -0.022 A 
ATOM      2  C   UNL     1     166.502 165.985 167.331  1.00  0.00     0.058 A 
ATOM      3  C   UNL     1     167.786 166.566 167.303  1.00  0.00     0.161 A 
ATOM      4  C   UNL     1     168.357 166.908 166.064  1.00  0.00     0.157 A 
ATOM      5  C   UNL     1     167.656 166.667 164.880  1.00  0.00     0.051 A 
ATOM      6  C   UNL     1     166.384 166.092 164.913  1.00  0.00     0.012 A 
ENDROOT
BRANCH   1   7
ATOM      7  C   UNL     1     164.443 165.133 166.232  1.00  0.00     0.003 C 
ATOM      8  C   UNL     1     162.391 164.096 165.345  1.00  0.00     0.035 C 
ATOM      9  C   UNL     1     163.748 164.700 165.174  1.00  0.00    -0.030 C 
ENDBRANCH   1   7
BRANCH   3  10
ATOM     10  O   UNL     1     168.516 166.815 168.476  1.00  0.00    -0.493 OA
ATOM     11  C   UNL     1     167.977 166.748 169.792  1.00  0.00     0.278 C 
ENDBRANCH   3  10
BRANCH   4  12
ATOM     12  O   UNL     1     169.625 167.485 165.990  1.00  0.00    -0.504 OA
ATOM     13  H   UNL     1     169.804 168.329 165.458  1.00  0.00     0.293 HD
ENDBRANCH   4  12
TORSDOF 3
ENDMDL
MODEL 3
REMARK VINA RESULT:    -3.607      3.038      4.731
REMARK INTER + INTRA:          -4.281
REMARK INTER:                  -4.124
REMARK INTRA:                  -0.156
REMARK UNBOUND:                -0.147
REMARK SMILES CC=Cc1ccc(O)c(OC)c1
REMARK SMILES IDX 4 1 12 2 9 3 7 4 6 5 5 6 3 7 1 8 2 9 10 10 11 11 8 12
REMARK H PARENT 8 13
REMARK Flexibility Score: inf
ROOT
ATOM      1  C   UNL     1     161.417 164.288 166.638  1.00  0.00    -0.022 A 
ATOM      2  C   UNL     1     162.440 164.422 167.593  1.00  0.00     0.058 A 
ATOM      3  C   UNL     1     163.784 164.581 167.197  1.00  0.00     0.161 A 
ATOM      4  C   UNL     1     164.099 164.595 165.827  1.00  0.00     0.157 A 
ATOM      5  C   UNL     1     163.086 164.446 164.875  1.00  0.00     0.051 A 
ATOM      6  C   UNL     1     161.757 164.288 165.272  1.00  0.00     0.012 A 
ENDROOT
BRANCH   1   7
ATOM      7  C   UNL     1     160.022 164.113 167.112  1.00  0.00     0.003 C 
ATOM      8  C   UNL     1     158.245 163.223 168.569  1.00  0.00     0.035 C 
ATOM      9  C   UNL     1     159.678 163.359 168.162  1.00  0.00    -0.030 C 
ENDBRANCH   1   7
BRANCH   3  10
ATOM     10  O   UNL     1     164.822 164.727 168.131  1.00  0.00    -0.493 OA
ATOM     11  C   UNL     1     164.989 163.913 169.287  1.00  0.00     0.278 C 
ENDBRANCH   3  10
BRANCH   4  12
ATOM     12  O   UNL     1     165.415 164.750 165.390  1.00  0.00    -0.504 OA
ATOM     13  H   UNL     1     165.897 164.031 164.864  1.00  0.00     0.293 HD
ENDBRANCH   4  12
TORSDOF 3
ENDMDL
MODEL 4
REMARK VINA RESULT:    -3.571      1.809      3.751
REMARK INTER + INTRA:          -4.240
REMARK INTER:                  -4.097
REMARK INTRA:                  -0.143
REMARK UNBOUND:                -0.147
REMARK SMILES CC=Cc1ccc(O)c(OC)c1
REMARK SMILES IDX 4 1 12 2 9 3 7 4 6 5 5 6 3 7 1 8 2 9 10 10 11 11 8 12
REMARK H PARENT 8 13
REMARK Flexibility Score: inf
ROOT
ATOM      1  C   UNL     1     165.685 166.390 168.683  1.00  0.00    -0.022 A 
ATOM      2  C   UNL     1     166.273 166.776 167.466  1.00  0.00     0.058 A 
ATOM      3  C   UNL     1     166.059 166.030 166.289  1.00  0.00     0.161 A 
ATOM      4  C   UNL     1     165.255 164.878 166.344  1.00  0.00     0.157 A 
ATOM      5  C   UNL     1     164.681 164.482 167.556  1.00  0.00     0.051 A 
ATOM      6  C   UNL     1     164.896 165.225 168.718  1.00  0.00     0.012 A 
ENDROOT
BRANCH   1   7
ATOM      7  C   UNL     1     165.952 167.209 169.891  1.00  0.00     0.003 C 
ATOM      8  C   UNL     1     165.952 169.265 171.250  1.00  0.00     0.035 C 
ATOM      9  C   UNL     1     165.637 168.505 170.001  1.00  0.00    -0.030 C 
ENDBRANCH   1   7
BRANCH   3  10
ATOM     10  O   UNL     1     166.627 166.400 165.060  1.00  0.00    -0.493 OA
ATOM     11  C   UNL     1     167.501 167.508 164.875  1.00  0.00     0.278 C 
ENDBRANCH   3  10
BRANCH   4  12
ATOM     12  O   UNL     1     165.016 164.109 165.205  1.00  0.00    -0.504 OA
ATOM     13  H   UNL     1     165.361 163.161 165.112  1.00  0.00     0.293 HD
ENDBRANCH   4  12
TORSDOF 3
ENDMDL
MODEL 5
REMARK VINA RESULT:    -3.491      9.781     11.256
REMARK INTER + INTRA:          -4.147
REMARK INTER:                  -3.976
REMARK INTRA:                  -0.171
REMARK UNBOUND:                -0.147
REMARK SMILES CC=Cc1ccc(O)c(OC)c1
REMARK SMILES IDX 4 1 12 2 9 3 7 4 6 5 5 6 3 7 1 8 2 9 10 10 11 11 8 12
REMARK H PARENT 8 13
REMARK Flexibility Score: inf
ROOT
ATOM      1  C   UNL     1     160.810 175.430 167.481  1.00  0.00    -0.022 A 
ATOM      2  C   UNL     1     161.268 174.574 168.497  1.00  0.00     0.058 A 
ATOM      3  C   UNL     1     162.604 174.124 168.517  1.00  0.00     0.161 A 
ATOM      4  C   UNL     1     163.481 174.531 167.496  1.00  0.00     0.157 A 
ATOM      5  C   UNL     1     163.024 175.369 166.475  1.00  0.00     0.051 A 
ATOM      6  C   UNL     1     161.701 175.813 166.460  1.00  0.00     0.012 A 
ENDROOT
BRANCH   1   7
ATOM      7  C   UNL     1     159.392 175.865 167.505  1.00  0.00     0.003 C 
ATOM      8  C   UNL     1     156.964 175.579 167.820  1.00  0.00     0.035 C 
ATOM      9  C   UNL     1     158.369 175.067 167.833  1.00  0.00    -0.030 C 
ENDBRANCH   1   7
BRANCH   3  10
ATOM     10  O   UNL     1     163.088 173.277 169.526  1.00  0.00    -0.493 OA
ATOM     11  C   UNL     1     162.811 171.883 169.614  1.00  0.00     0.278 C 
ENDBRANCH   3  10
BRANCH   4  12
ATOM     12  O   UNL     1     164.810 174.109 167.476  1.00  0.00    -0.504 OA
ATOM     13  H   UNL     1     165.313 173.950 166.611  1.00  0.00     0.293 HD
ENDBRANCH   4  12
TORSDOF 3
ENDMDL
MODEL 6
REMARK VINA RESULT:    -3.482      2.516      3.986
REMARK INTER + INTRA:          -4.138
REMARK INTER:                  -3.981
REMARK INTRA:                  -0.157
REMARK UNBOUND:                -0.147
REMARK SMILES CC=Cc1ccc(O)c(OC)c1
REMARK SMILES IDX 4 1 12 2 9 3 7 4 6 5 5 6 3 7 1 8 2 9 10 10 11 11 8 12
REMARK H PARENT 8 13
REMARK Flexibility Score: inf
ROOT
ATOM      1  C   UNL     1     164.086 164.827 166.063  1.00  0.00    -0.022 A 
ATOM      2  C   UNL     1     164.675 165.139 167.300  1.00  0.00     0.058 A 
ATOM      3  C   UNL     1     165.930 165.777 167.365  1.00  0.00     0.161 A 
ATOM      4  C   UNL     1     166.602 166.093 166.170  1.00  0.00     0.157 A 
ATOM      5  C   UNL     1     166.026 165.771 164.938  1.00  0.00     0.051 A 
ATOM      6  C   UNL     1     164.782 165.139 164.880  1.00  0.00     0.012 A 
ENDROOT
BRANCH   1   7
ATOM      7  C   UNL     1     162.767 164.147 166.055  1.00  0.00     0.003 C 
ATOM      8  C   UNL     1     160.434 163.775 166.755  1.00  0.00     0.035 C 
ATOM      9  C   UNL     1     161.728 164.522 166.810  1.00  0.00    -0.030 C 
ENDBRANCH   1   7
BRANCH   3  10
ATOM     10  O   UNL     1     166.535 166.107 168.588  1.00  0.00    -0.493 OA
ATOM     11  C   UNL     1     165.894 166.823 169.639  1.00  0.00     0.278 C 
ENDBRANCH   3  10
BRANCH   4  12
ATOM     12  O   UNL     1     167.846 166.724 166.187  1.00  0.00    -0.504 OA
ATOM     13  H   UNL     1     167.940 167.727 166.295  1.00  0.00     0.293 HD
ENDBRANCH   4  12
TORSDOF 3
ENDMDL
MODEL 7
REMARK VINA RESULT:    -3.441      2.812      5.404
REMARK INTER + INTRA:          -4.091
REMARK INTER:                  -3.921
REMARK INTRA:                  -0.170
REMARK UNBOUND:                -0.147
REMARK SMILES CC=Cc1ccc(O)c(OC)c1
REMARK SMILES IDX 4 1 12 2 9 3 7 4 6 5 5 6 3 7 1 8 2 9 10 10 11 11 8 12
REMARK H PARENT 8 13
REMARK Flexibility Score: inf
ROOT
ATOM      1  C   UNL     1     165.807 166.168 167.588  1.00  0.00    -0.022 A 
ATOM      2  C   UNL     1     166.030 166.162 168.975  1.00  0.00     0.058 A 
ATOM      3  C   UNL     1     165.812 164.997 169.739  1.00  0.00     0.161 A 
ATOM      4  C   UNL     1     165.354 163.832 169.098  1.00  0.00     0.157 A 
ATOM      5  C   UNL     1     165.115 163.840 167.721  1.00  0.00     0.051 A 
ATOM      6  C   UNL     1     165.333 164.996 166.969  1.00  0.00     0.012 A 
ENDROOT
BRANCH   1   7
ATOM      7  C   UNL     1     166.045 167.425 166.836  1.00  0.00     0.003 C 
ATOM      8  C   UNL     1     166.715 168.779 164.889  1.00  0.00     0.035 C 
ATOM      9  C   UNL     1     166.487 167.469 165.574  1.00  0.00    -0.030 C 
ENDBRANCH   1   7
BRANCH   3  10
ATOM     10  O   UNL     1     166.037 164.962 171.124  1.00  0.00    -0.493 OA
ATOM     11  C   UNL     1     167.261 165.329 171.752  1.00  0.00     0.278 C 
ENDBRANCH   3  10
BRANCH   4  12
ATOM     12  O   UNL     1     165.124 162.657 169.814  1.00  0.00    -0.504 OA
ATOM     13  H   UNL     1     164.295 162.093 169.673  1.00  0.00     0.293 HD
ENDBRANCH   4  12
TORSDOF 3
ENDMDL
MODEL 8
REMARK VINA RESULT:    -3.422      9.718     10.918
REMARK INTER + INTRA:          -4.068
REMARK INTER:                  -3.907
REMARK INTRA:                  -0.162
REMARK UNBOUND:                -0.147
REMARK SMILES CC=Cc1ccc(O)c(OC)c1
REMARK SMILES IDX 4 1 12 2 9 3 7 4 6 5 5 6 3 7 1 8 2 9 10 10 11 11 8 12
REMARK H PARENT 8 13
REMARK Flexibility Score: inf
ROOT
ATOM      1  C   UNL     1     160.781 174.545 169.080  1.00  0.00    -0.022 A 
ATOM      2  C   UNL     1     161.257 175.277 167.979  1.00  0.00     0.058 A 
ATOM      3  C   UNL     1     162.516 174.995 167.410  1.00  0.00     0.161 A 
ATOM      4  C   UNL     1     163.306 173.973 167.966  1.00  0.00     0.157 A 
ATOM      5  C   UNL     1     162.843 173.254 169.071  1.00  0.00     0.051 A 
ATOM      6  C   UNL     1     161.596 173.537 169.630  1.00  0.00     0.012 A 
ENDROOT
BRANCH   1   7
ATOM      7  C   UNL     1     159.453 174.891 169.643  1.00  0.00     0.003 C 
ATOM      8  C   UNL     1     157.231 174.417 170.596  1.00  0.00     0.035 C 
ATOM      9  C   UNL     1     158.556 173.987 170.053  1.00  0.00    -0.030 C 
ENDBRANCH   1   7
BRANCH   3  10
ATOM     10  O   UNL     1     163.008 175.705 166.304  1.00  0.00    -0.493 OA
ATOM     11  C   UNL     1     162.229 176.082 165.174  1.00  0.00     0.278 C 
ENDBRANCH   3  10
BRANCH   4  12
ATOM     12  O   UNL     1     164.558 173.660 167.436  1.00  0.00    -0.504 OA
ATOM     13  H   UNL     1     165.220 174.375 167.157  1.00  0.00     0.293 HD
ENDBRANCH   4  12
TORSDOF 3
ENDMDL
MODEL 9
REMARK VINA RESULT:    -3.400      2.855      4.246
REMARK INTER + INTRA:          -4.043
REMARK INTER:                  -3.868
REMARK INTRA:                  -0.176
REMARK UNBOUND:                -0.147
REMARK SMILES CC=Cc1ccc(O)c(OC)c1
REMARK SMILES IDX 4 1 12 2 9 3 7 4 6 5 5 6 3 7 1 8 2 9 10 10 11 11 8 12
REMARK H PARENT 8 13
REMARK Flexibility Score: inf
ROOT
ATOM      1  C   UNL     1     165.442 165.133 167.553  1.00  0.00    -0.022 A 
ATOM      2  C   UNL     1     165.221 165.145 168.941  1.00  0.00     0.058 A 
ATOM      3  C   UNL     1     165.398 166.324 169.693  1.00  0.00     0.161 A 
ATOM      4  C   UNL     1     165.811 167.499 169.039  1.00  0.00     0.157 A 
ATOM      5  C   UNL     1     166.047 167.486 167.662  1.00  0.00     0.051 A 
ATOM      6  C   UNL     1     165.871 166.316 166.922  1.00  0.00     0.012 A 
ENDROOT
BRANCH   1   7
ATOM      7  C   UNL     1     165.250 163.861 166.814  1.00  0.00     0.003 C 
ATOM      8  C   UNL     1     164.646 162.465 164.875  1.00  0.00     0.035 C 
ATOM      9  C   UNL     1     164.829 163.789 165.546  1.00  0.00    -0.030 C 
ENDBRANCH   1   7
BRANCH   3  10
ATOM     10  O   UNL     1     165.174 166.364 171.078  1.00  0.00    -0.493 OA
ATOM     11  C   UNL     1     163.906 166.175 171.697  1.00  0.00     0.278 C 
ENDBRANCH   3  10
BRANCH   4  12
ATOM     12  O   UNL     1     165.998 168.688 169.743  1.00  0.00    -0.504 OA
ATOM     13  H   UNL     1     166.815 168.851 170.320  1.00  0.00     0.293 HD
ENDBRANCH   4  12
TORSDOF 3
ENDMDL
