MODEL 1
REMARK VINA RESULT:    -5.664      0.000      0.000
REMARK INTER + INTRA:          -9.299
REMARK INTER:                  -8.643
REMARK INTRA:                  -0.655
REMARK UNBOUND:                -0.655
REMARK SMILES CC(=O)CCC=C(C)CCC=C(C)CCC=C(C)C
REMARK SMILES IDX 10 1 11 2 12 3 13 4 14 5 15 6 16 7 18 8 17 9 19 10 9 11 7 12
REMARK SMILES IDX 6 13 8 14 5 15 4 16 2 17 3 18 1 19
REMARK H PARENT
REMARK Flexibility Score: inf
ROOT
ATOM      1  C   UNL     1     101.209  34.769  61.980  1.00  0.00     0.032 C 
ENDROOT
BRANCH   1   2
ATOM      2  C   UNL     1      99.704  34.634  62.016  1.00  0.00    -0.028 C 
ATOM      3  C   UNL     1      99.017  33.871  62.897  1.00  0.00    -0.077 C 
ATOM      4  C   UNL     1      99.700  33.125  64.017  1.00  0.00     0.039 C 
BRANCH   3   5
ATOM      5  C   UNL     1      97.508  33.795  62.788  1.00  0.00     0.034 C 
BRANCH   5   6
ATOM      6  C   UNL     1      96.871  33.265  64.080  1.00  0.00     0.032 C 
BRANCH   6   7
ATOM      7  C   UNL     1      95.853  34.226  64.647  1.00  0.00    -0.028 C 
ATOM      8  C   UNL     1      97.543  35.487  65.999  1.00  0.00     0.039 C 
ATOM      9  C   UNL     1      96.135  35.200  65.541  1.00  0.00    -0.080 C 
ATOM     10  C   UNL     1      95.028  36.081  66.061  1.00  0.00     0.039 C 
ENDBRANCH   6   7
ENDBRANCH   5   6
ENDBRANCH   3   5
ENDBRANCH   1   2
BRANCH   1  11
ATOM     11  C   UNL     1     101.877  33.409  61.744  1.00  0.00     0.034 C 
BRANCH  11  12
ATOM     12  C   UNL     1     102.381  33.270  60.322  1.00  0.00    -0.077 C 
ATOM     13  C   UNL     1     103.693  33.021  60.114  1.00  0.00    -0.028 C 
ATOM     14  C   UNL     1     101.395  33.376  59.183  1.00  0.00     0.039 C 
BRANCH  13  15
ATOM     15  C   UNL     1     104.334  32.878  58.753  1.00  0.00     0.035 C 
BRANCH  15  16
ATOM     16  C   UNL     1     105.393  33.960  58.509  1.00  0.00     0.079 C 
BRANCH  16  17
ATOM     17  C   UNL     1     106.616  33.395  57.831  1.00  0.00     0.130 C 
ATOM     18  O   UNL     1     106.667  33.359  56.611  1.00  0.00    -0.300 OA
ATOM     19  C   UNL     1     107.777  32.875  58.627  1.00  0.00     0.087 C 
ENDBRANCH  16  17
ENDBRANCH  15  16
ENDBRANCH  13  15
ENDBRANCH  11  12
ENDBRANCH   1  11
TORSDOF 9
ENDMDL
MODEL 2
REMARK VINA RESULT:    -5.643      3.229     10.512
REMARK INTER + INTRA:          -9.267
REMARK INTER:                  -8.411
REMARK INTRA:                  -0.856
REMARK UNBOUND:                -0.655
REMARK SMILES CC(=O)CCC=C(C)CCC=C(C)CCC=C(C)C
REMARK SMILES IDX 10 1 11 2 12 3 13 4 14 5 15 6 16 7 18 8 17 9 19 10 9 11 7 12
REMARK SMILES IDX 6 13 8 14 5 15 4 16 2 17 3 18 1 19
REMARK H PARENT
REMARK Flexibility Score: inf
ROOT
ATOM      1  C   UNL     1     103.807  33.834  59.667  1.00  0.00     0.032 C 
ENDROOT
BRANCH   1   2
ATOM      2  C   UNL     1     105.167  33.212  59.456  1.00  0.00    -0.028 C 
ATOM      3  C   UNL     1     106.094  33.657  58.576  1.00  0.00    -0.077 C 
ATOM      4  C   UNL     1     105.887  34.907  57.756  1.00  0.00     0.039 C 
BRANCH   3   5
ATOM      5  C   UNL     1     107.402  32.906  58.438  1.00  0.00     0.034 C 
BRANCH   5   6
ATOM      6  C   UNL     1     108.536  33.824  57.962  1.00  0.00     0.032 C 
BRANCH   6   7
ATOM      7  C   UNL     1     109.462  33.127  56.993  1.00  0.00    -0.028 C 
ATOM      8  C   UNL     1     111.148  34.980  57.004  1.00  0.00     0.039 C 
ATOM      9  C   UNL     1     110.616  33.653  56.523  1.00  0.00    -0.080 C 
ATOM     10  C   UNL     1     111.443  32.875  55.533  1.00  0.00     0.039 C 
ENDBRANCH   6   7
ENDBRANCH   5   6
ENDBRANCH   3   5
ENDBRANCH   1   2
BRANCH   1  11
ATOM     11  C   UNL     1     102.691  32.879  59.227  1.00  0.00     0.034 C 
BRANCH  11  12
ATOM     12  C   UNL     1     101.504  32.930  60.166  1.00  0.00    -0.077 C 
ATOM     13  C   UNL     1     101.725  32.923  61.500  1.00  0.00    -0.028 C 
ATOM     14  C   UNL     1     100.114  33.026  59.585  1.00  0.00     0.039 C 
BRANCH  13  15
ATOM     15  C   UNL     1     100.638  32.951  62.549  1.00  0.00     0.035 C 
BRANCH  15  16
ATOM     16  C   UNL     1     100.576  34.305  63.267  1.00  0.00     0.079 C 
BRANCH  16  17
ATOM     17  C   UNL     1      99.160  34.813  63.372  1.00  0.00     0.130 C 
ATOM     18  O   UNL     1      98.930  35.828  64.012  1.00  0.00    -0.300 OA
ATOM     19  C   UNL     1      98.025  34.096  62.703  1.00  0.00     0.087 C 
ENDBRANCH  16  17
ENDBRANCH  15  16
ENDBRANCH  13  15
ENDBRANCH  11  12
ENDBRANCH   1  11
TORSDOF 9
ENDMDL
MODEL 3
REMARK VINA RESULT:    -5.281     16.723     18.458
REMARK INTER + INTRA:          -8.715
REMARK INTER:                  -7.567
REMARK INTRA:                  -1.148
REMARK UNBOUND:                -0.655
REMARK SMILES CC(=O)CCC=C(C)CCC=C(C)CCC=C(C)C
REMARK SMILES IDX 10 1 11 2 12 3 13 4 14 5 15 6 16 7 18 8 17 9 19 10 9 11 7 12
REMARK SMILES IDX 6 13 8 14 5 15 4 16 2 17 3 18 1 19
REMARK H PARENT
REMARK Flexibility Score: inf
ROOT
ATOM      1  C   UNL     1     107.504  48.557  60.786  1.00  0.00     0.032 C 
ENDROOT
BRANCH   1   2
ATOM      2  C   UNL     1     107.697  50.042  60.586  1.00  0.00    -0.028 C 
ATOM      3  C   UNL     1     107.128  51.006  61.345  1.00  0.00    -0.077 C 
ATOM      4  C   UNL     1     106.286  50.682  62.555  1.00  0.00     0.039 C 
BRANCH   3   5
ATOM      5  C   UNL     1     107.374  52.460  61.001  1.00  0.00     0.034 C 
BRANCH   5   6
ATOM      6  C   UNL     1     108.861  52.826  61.111  1.00  0.00     0.032 C 
BRANCH   6   7
ATOM      7  C   UNL     1     109.610  51.889  62.031  1.00  0.00    -0.028 C 
ATOM      8  C   UNL     1     108.720  52.952  64.117  1.00  0.00     0.039 C 
ATOM      9  C   UNL     1     109.588  51.962  63.381  1.00  0.00    -0.080 C 
ATOM     10  C   UNL     1     110.402  50.990  64.195  1.00  0.00     0.039 C 
ENDBRANCH   6   7
ENDBRANCH   5   6
ENDBRANCH   3   5
ENDBRANCH   1   2
BRANCH   1  11
ATOM     11  C   UNL     1     108.809  47.794  60.532  1.00  0.00     0.034 C 
BRANCH  11  12
ATOM     12  C   UNL     1     109.576  47.549  61.815  1.00  0.00    -0.077 C 
ATOM     13  C   UNL     1     109.289  46.450  62.549  1.00  0.00    -0.028 C 
ATOM     14  C   UNL     1     110.661  48.519  62.216  1.00  0.00     0.039 C 
BRANCH  13  15
ATOM     15  C   UNL     1     109.959  46.093  63.856  1.00  0.00     0.035 C 
BRANCH  15  16
ATOM     16  C   UNL     1     108.995  46.224  65.041  1.00  0.00     0.079 C 
BRANCH  16  17
ATOM     17  C   UNL     1     108.884  47.652  65.511  1.00  0.00     0.130 C 
ATOM     18  O   UNL     1     109.627  48.057  66.392  1.00  0.00    -0.300 OA
ATOM     19  C   UNL     1     107.876  48.591  64.916  1.00  0.00     0.087 C 
ENDBRANCH  16  17
ENDBRANCH  15  16
ENDBRANCH  13  15
ENDBRANCH  11  12
ENDBRANCH   1  11
TORSDOF 9
ENDMDL
MODEL 4
REMARK VINA RESULT:    -5.232      4.759     13.007
REMARK INTER + INTRA:          -8.639
REMARK INTER:                  -7.922
REMARK INTRA:                  -0.717
REMARK UNBOUND:                -0.655
REMARK SMILES CC(=O)CCC=C(C)CCC=C(C)CCC=C(C)C
REMARK SMILES IDX 10 1 11 2 12 3 13 4 14 5 15 6 16 7 18 8 17 9 19 10 9 11 7 12
REMARK SMILES IDX 6 13 8 14 5 15 4 16 2 17 3 18 1 19
REMARK H PARENT
REMARK Flexibility Score: inf
ROOT
ATOM      1  C   UNL     1     108.380  33.547  57.332  1.00  0.00     0.032 C 
ENDROOT
BRANCH   1   2
ATOM      2  C   UNL     1     109.877  33.343  57.315  1.00  0.00    -0.028 C 
ATOM      3  C   UNL     1     110.625  33.186  56.199  1.00  0.00    -0.077 C 
ATOM      4  C   UNL     1     110.032  33.288  54.815  1.00  0.00     0.039 C 
BRANCH   3   5
ATOM      5  C   UNL     1     112.114  32.944  56.335  1.00  0.00     0.034 C 
BRANCH   5   6
ATOM      6  C   UNL     1     112.810  32.908  54.967  1.00  0.00     0.032 C 
BRANCH   6   7
ATOM      7  C   UNL     1     113.369  34.257  54.578  1.00  0.00    -0.028 C 
ATOM      8  C   UNL     1     112.872  33.952  52.143  1.00  0.00     0.039 C 
ATOM      9  C   UNL     1     113.441  34.719  53.310  1.00  0.00    -0.080 C 
ATOM     10  C   UNL     1     114.048  36.072  53.041  1.00  0.00     0.039 C 
ENDBRANCH   6   7
ENDBRANCH   5   6
ENDBRANCH   3   5
ENDBRANCH   1   2
BRANCH   1  11
ATOM     11  C   UNL     1     107.764  32.993  58.621  1.00  0.00     0.034 C 
BRANCH  11  12
ATOM     12  C   UNL     1     106.252  32.931  58.540  1.00  0.00    -0.077 C 
ATOM     13  C   UNL     1     105.534  32.950  59.685  1.00  0.00    -0.028 C 
ATOM     14  C   UNL     1     105.593  32.889  57.182  1.00  0.00     0.039 C 
BRANCH  13  15
ATOM     15  C   UNL     1     104.027  32.875  59.754  1.00  0.00     0.035 C 
BRANCH  15  16
ATOM     16  C   UNL     1     103.417  34.179  60.282  1.00  0.00     0.079 C 
BRANCH  16  17
ATOM     17  C   UNL     1     102.028  33.961  60.828  1.00  0.00     0.130 C 
ATOM     18  O   UNL     1     101.839  34.016  62.033  1.00  0.00    -0.300 OA
ATOM     19  C   UNL     1     100.870  33.678  59.917  1.00  0.00     0.087 C 
ENDBRANCH  16  17
ENDBRANCH  15  16
ENDBRANCH  13  15
ENDBRANCH  11  12
ENDBRANCH   1  11
TORSDOF 9
ENDMDL
MODEL 5
REMARK VINA RESULT:    -5.139     16.666     18.545
REMARK INTER + INTRA:          -8.499
REMARK INTER:                  -7.716
REMARK INTRA:                  -0.783
REMARK UNBOUND:                -0.655
REMARK SMILES CC(=O)CCC=C(C)CCC=C(C)CCC=C(C)C
REMARK SMILES IDX 10 1 11 2 12 3 13 4 14 5 15 6 16 7 18 8 17 9 19 10 9 11 7 12
REMARK SMILES IDX 6 13 8 14 5 15 4 16 2 17 3 18 1 19
REMARK H PARENT
REMARK Flexibility Score: inf
ROOT
ATOM      1  C   UNL     1     109.870  46.063  63.387  1.00  0.00     0.032 C 
ENDROOT
BRANCH   1   2
ATOM      2  C   UNL     1     109.077  46.620  62.229  1.00  0.00    -0.028 C 
ATOM      3  C   UNL     1     109.366  47.768  61.573  1.00  0.00    -0.077 C 
ATOM      4  C   UNL     1     110.595  48.585  61.890  1.00  0.00     0.039 C 
BRANCH   3   5
ATOM      5  C   UNL     1     108.455  48.230  60.456  1.00  0.00     0.034 C 
BRANCH   5   6
ATOM      6  C   UNL     1     107.732  49.535  60.816  1.00  0.00     0.032 C 
BRANCH   6   7
ATOM      7  C   UNL     1     108.659  50.728  60.777  1.00  0.00    -0.028 C 
ATOM      8  C   UNL     1     106.808  52.392  61.065  1.00  0.00     0.039 C 
ATOM      9  C   UNL     1     108.253  52.016  60.845  1.00  0.00    -0.080 C 
ATOM     10  C   UNL     1     109.269  53.125  60.766  1.00  0.00     0.039 C 
ENDBRANCH   6   7
ENDBRANCH   5   6
ENDBRANCH   3   5
ENDBRANCH   1   2
BRANCH   1  11
ATOM     11  C   UNL     1     109.027  46.034  64.668  1.00  0.00     0.034 C 
BRANCH  11  12
ATOM     12  C   UNL     1     108.816  47.424  65.232  1.00  0.00    -0.077 C 
ATOM     13  C   UNL     1     107.820  48.189  64.733  1.00  0.00    -0.028 C 
ATOM     14  C   UNL     1     109.700  47.898  66.361  1.00  0.00     0.039 C 
BRANCH  13  15
ATOM     15  C   UNL     1     107.509  49.596  65.186  1.00  0.00     0.035 C 
BRANCH  15  16
ATOM     16  C   UNL     1     107.540  50.589  64.017  1.00  0.00     0.079 C 
BRANCH  16  17
ATOM     17  C   UNL     1     108.777  51.451  64.054  1.00  0.00     0.130 C 
ATOM     18  O   UNL     1     108.663  52.666  64.084  1.00  0.00    -0.300 OA
ATOM     19  C   UNL     1     110.149  50.844  64.055  1.00  0.00     0.087 C 
ENDBRANCH  16  17
ENDBRANCH  15  16
ENDBRANCH  13  15
ENDBRANCH  11  12
ENDBRANCH   1  11
TORSDOF 9
ENDMDL
MODEL 6
REMARK VINA RESULT:    -4.813     16.625     18.107
REMARK INTER + INTRA:          -8.001
REMARK INTER:                  -7.182
REMARK INTRA:                  -0.819
REMARK UNBOUND:                -0.655
REMARK SMILES CC(=O)CCC=C(C)CCC=C(C)CCC=C(C)C
REMARK SMILES IDX 10 1 11 2 12 3 13 4 14 5 15 6 16 7 18 8 17 9 19 10 9 11 7 12
REMARK SMILES IDX 6 13 8 14 5 15 4 16 2 17 3 18 1 19
REMARK H PARENT
REMARK Flexibility Score: inf
ROOT
ATOM      1  C   UNL     1     109.857  46.981  61.977  1.00  0.00     0.032 C 
ENDROOT
BRANCH   1   2
ATOM      2  C   UNL     1     109.847  47.237  63.466  1.00  0.00    -0.028 C 
ATOM      3  C   UNL     1     109.476  46.335  64.404  1.00  0.00    -0.077 C 
ATOM      4  C   UNL     1     109.108  44.914  64.051  1.00  0.00     0.039 C 
BRANCH   3   5
ATOM      5  C   UNL     1     109.472  46.744  65.862  1.00  0.00     0.034 C 
BRANCH   5   6
ATOM      6  C   UNL     1     109.432  48.270  66.023  1.00  0.00     0.032 C 
BRANCH   6   7
ATOM      7  C   UNL     1     108.190  48.874  65.410  1.00  0.00    -0.028 C 
ATOM      8  C   UNL     1     109.460  50.612  64.129  1.00  0.00     0.039 C 
ATOM      9  C   UNL     1     108.186  49.951  64.593  1.00  0.00    -0.080 C 
ATOM     10  C   UNL     1     106.879  50.484  64.065  1.00  0.00     0.039 C 
ENDBRANCH   6   7
ENDBRANCH   5   6
ENDBRANCH   3   5
ENDBRANCH   1   2
BRANCH   1  11
ATOM     11  C   UNL     1     109.886  48.298  61.193  1.00  0.00     0.034 C 
BRANCH  11  12
ATOM     12  C   UNL     1     108.509  48.920  61.089  1.00  0.00    -0.077 C 
ATOM     13  C   UNL     1     108.406  50.260  60.945  1.00  0.00    -0.028 C 
ATOM     14  C   UNL     1     107.296  48.022  61.112  1.00  0.00     0.039 C 
BRANCH  13  15
ATOM     15  C   UNL     1     107.101  51.015  60.849  1.00  0.00     0.035 C 
BRANCH  15  16
ATOM     16  C   UNL     1     107.327  52.528  60.738  1.00  0.00     0.079 C 
BRANCH  16  17
ATOM     17  C   UNL     1     108.650  52.937  61.335  1.00  0.00     0.130 C 
ATOM     18  O   UNL     1     108.735  53.125  62.539  1.00  0.00    -0.300 OA
ATOM     19  C   UNL     1     109.869  53.116  60.478  1.00  0.00     0.087 C 
ENDBRANCH  16  17
ENDBRANCH  15  16
ENDBRANCH  13  15
ENDBRANCH  11  12
ENDBRANCH   1  11
TORSDOF 9
ENDMDL
MODEL 7
REMARK VINA RESULT:    -4.791      4.689      9.190
REMARK INTER + INTRA:          -7.967
REMARK INTER:                  -7.474
REMARK INTRA:                  -0.493
REMARK UNBOUND:                -0.655
REMARK SMILES CC(=O)CCC=C(C)CCC=C(C)CCC=C(C)C
REMARK SMILES IDX 10 1 11 2 12 3 13 4 14 5 15 6 16 7 18 8 17 9 19 10 9 11 7 12
REMARK SMILES IDX 6 13 8 14 5 15 4 16 2 17 3 18 1 19
REMARK H PARENT
REMARK Flexibility Score: inf
ROOT
ATOM      1  C   UNL     1     108.931  32.875  56.803  1.00  0.00     0.032 C 
ENDROOT
BRANCH   1   2
ATOM      2  C   UNL     1     108.134  32.884  58.087  1.00  0.00    -0.028 C 
ATOM      3  C   UNL     1     106.839  33.263  58.191  1.00  0.00    -0.077 C 
ATOM      4  C   UNL     1     106.015  33.646  56.986  1.00  0.00     0.039 C 
BRANCH   3   5
ATOM      5  C   UNL     1     106.177  33.264  59.553  1.00  0.00     0.034 C 
BRANCH   5   6
ATOM      6  C   UNL     1     104.695  32.875  59.465  1.00  0.00     0.032 C 
BRANCH   6   7
ATOM      7  C   UNL     1     103.858  33.590  60.499  1.00  0.00    -0.028 C 
ATOM      8  C   UNL     1     101.716  33.258  59.245  1.00  0.00     0.039 C 
ATOM      9  C   UNL     1     102.527  33.805  60.392  1.00  0.00    -0.080 C 
ATOM     10  C   UNL     1     101.802  34.560  61.476  1.00  0.00     0.039 C 
ENDBRANCH   6   7
ENDBRANCH   5   6
ENDBRANCH   3   5
ENDBRANCH   1   2
BRANCH   1  11
ATOM     11  C   UNL     1     110.180  33.756  56.926  1.00  0.00     0.034 C 
BRANCH  11  12
ATOM     12  C   UNL     1     111.159  33.503  55.798  1.00  0.00    -0.077 C 
ATOM     13  C   UNL     1     110.681  33.174  54.578  1.00  0.00    -0.028 C 
ATOM     14  C   UNL     1     112.637  33.664  56.062  1.00  0.00     0.039 C 
BRANCH  13  15
ATOM     15  C   UNL     1     111.540  32.876  53.371  1.00  0.00     0.035 C 
BRANCH  15  16
ATOM     16  C   UNL     1     112.104  34.157  52.746  1.00  0.00     0.079 C 
BRANCH  16  17
ATOM     17  C   UNL     1     113.607  34.210  52.851  1.00  0.00     0.130 C 
ATOM     18  O   UNL     1     114.223  33.213  53.197  1.00  0.00    -0.300 OA
ATOM     19  C   UNL     1     114.366  35.466  52.538  1.00  0.00     0.087 C 
ENDBRANCH  16  17
ENDBRANCH  15  16
ENDBRANCH  13  15
ENDBRANCH  11  12
ENDBRANCH   1  11
TORSDOF 9
ENDMDL
MODEL 8
REMARK VINA RESULT:    -4.781      3.835     11.537
REMARK INTER + INTRA:          -7.952
REMARK INTER:                  -7.651
REMARK INTRA:                  -0.301
REMARK UNBOUND:                -0.655
REMARK SMILES CC(=O)CCC=C(C)CCC=C(C)CCC=C(C)C
REMARK SMILES IDX 10 1 11 2 12 3 13 4 14 5 15 6 16 7 18 8 17 9 19 10 9 11 7 12
REMARK SMILES IDX 6 13 8 14 5 15 4 16 2 17 3 18 1 19
REMARK H PARENT
REMARK Flexibility Score: inf
ROOT
ATOM      1  C   UNL     1     105.879  34.620  58.150  1.00  0.00     0.032 C 
ENDROOT
BRANCH   1   2
ATOM      2  C   UNL     1     107.309  34.130  58.129  1.00  0.00    -0.028 C 
ATOM      3  C   UNL     1     107.838  33.325  57.180  1.00  0.00    -0.077 C 
ATOM      4  C   UNL     1     107.052  32.893  55.965  1.00  0.00     0.039 C 
BRANCH   3   5
ATOM      5  C   UNL     1     109.278  32.875  57.311  1.00  0.00     0.034 C 
BRANCH   5   6
ATOM      6  C   UNL     1     109.999  32.876  55.956  1.00  0.00     0.032 C 
BRANCH   6   7
ATOM      7  C   UNL     1     111.455  33.257  56.088  1.00  0.00    -0.028 C 
ATOM      8  C   UNL     1     111.665  33.961  53.693  1.00  0.00     0.039 C 
ATOM      9  C   UNL     1     112.225  33.705  55.070  1.00  0.00    -0.080 C 
ATOM     10  C   UNL     1     113.676  34.026  55.316  1.00  0.00     0.039 C 
ENDBRANCH   6   7
ENDBRANCH   5   6
ENDBRANCH   3   5
ENDBRANCH   1   2
BRANCH   1  11
ATOM     11  C   UNL     1     104.898  33.459  57.948  1.00  0.00     0.034 C 
BRANCH  11  12
ATOM     12  C   UNL     1     104.050  33.220  59.180  1.00  0.00    -0.077 C 
ATOM     13  C   UNL     1     102.711  33.096  59.039  1.00  0.00    -0.028 C 
ATOM     14  C   UNL     1     104.730  33.088  60.522  1.00  0.00     0.039 C 
BRANCH  13  15
ATOM     15  C   UNL     1     101.745  32.875  60.180  1.00  0.00     0.035 C 
BRANCH  15  16
ATOM     16  C   UNL     1     100.860  34.104  60.419  1.00  0.00     0.079 C 
BRANCH  16  17
ATOM     17  C   UNL     1     100.576  34.305  61.886  1.00  0.00     0.130 C 
ATOM     18  O   UNL     1      99.426  34.481  62.259  1.00  0.00    -0.300 OA
ATOM     19  C   UNL     1     101.680  34.293  62.902  1.00  0.00     0.087 C 
ENDBRANCH  16  17
ENDBRANCH  15  16
ENDBRANCH  13  15
ENDBRANCH  11  12
ENDBRANCH   1  11
TORSDOF 9
ENDMDL
MODEL 9
REMARK VINA RESULT:    -4.482      6.202     14.485
REMARK INTER + INTRA:          -7.496
REMARK INTER:                  -6.943
REMARK INTRA:                  -0.553
REMARK UNBOUND:                -0.655
REMARK SMILES CC(=O)CCC=C(C)CCC=C(C)CCC=C(C)C
REMARK SMILES IDX 10 1 11 2 12 3 13 4 14 5 15 6 16 7 18 8 17 9 19 10 9 11 7 12
REMARK SMILES IDX 6 13 8 14 5 15 4 16 2 17 3 18 1 19
REMARK H PARENT
REMARK Flexibility Score: inf
ROOT
ATOM      1  C   UNL     1     110.529  33.079  56.438  1.00  0.00     0.032 C 
ENDROOT
BRANCH   1   2
ATOM      2  C   UNL     1     111.224  34.207  55.712  1.00  0.00    -0.028 C 
ATOM      3  C   UNL     1     112.493  34.161  55.243  1.00  0.00    -0.077 C 
ATOM      4  C   UNL     1     113.334  32.910  55.327  1.00  0.00     0.039 C 
BRANCH   3   5
ATOM      5  C   UNL     1     113.078  35.386  54.573  1.00  0.00     0.034 C 
BRANCH   5   6
ATOM      6  C   UNL     1     113.792  35.029  53.262  1.00  0.00     0.032 C 
BRANCH   6   7
ATOM      7  C   UNL     1     114.037  36.246  52.400  1.00  0.00    -0.028 C 
ATOM      8  C   UNL     1     115.125  34.937  50.562  1.00  0.00     0.039 C 
ATOM      9  C   UNL     1     114.672  36.224  51.206  1.00  0.00    -0.080 C 
ATOM     10  C   UNL     1     114.885  37.508  50.449  1.00  0.00     0.039 C 
ENDBRANCH   6   7
ENDBRANCH   5   6
ENDBRANCH   3   5
ENDBRANCH   1   2
BRANCH   1  11
ATOM     11  C   UNL     1     109.708  33.609  57.619  1.00  0.00     0.034 C 
BRANCH  11  12
ATOM     12  C   UNL     1     108.231  33.316  57.453  1.00  0.00    -0.077 C 
ATOM     13  C   UNL     1     107.407  33.489  58.511  1.00  0.00    -0.028 C 
ATOM     14  C   UNL     1     107.719  32.875  56.103  1.00  0.00     0.039 C 
BRANCH  13  15
ATOM     15  C   UNL     1     105.921  33.216  58.494  1.00  0.00     0.035 C 
BRANCH  15  16
ATOM     16  C   UNL     1     105.341  33.145  59.912  1.00  0.00     0.079 C 
BRANCH  16  17
ATOM     17  C   UNL     1     103.834  33.200  59.898  1.00  0.00     0.130 C 
ATOM     18  O   UNL     1     103.251  33.480  58.862  1.00  0.00    -0.300 OA
ATOM     19  C   UNL     1     103.034  32.916  61.135  1.00  0.00     0.087 C 
ENDBRANCH  16  17
ENDBRANCH  15  16
ENDBRANCH  13  15
ENDBRANCH  11  12
ENDBRANCH   1  11
TORSDOF 9
ENDMDL
