MODEL 1
REMARK VINA RESULT:    -4.078      0.000      0.000
REMARK INTER + INTRA:          -6.110
REMARK INTER:                  -5.508
REMARK INTRA:                  -0.602
REMARK UNBOUND:                -0.602
REMARK SMILES O=C[C@H](O)[C@@H](O)[C@@H](O)CO
REMARK SMILES IDX 7 1 9 2 10 3 5 5 3 6 2 7 1 8 4 9 6 11 8 13
REMARK H PARENT 10 4 4 10 6 12 8 14
REMARK Flexibility Score: inf
ROOT
ATOM      1  C   UNL     1      25.215  25.182  23.079  1.00  0.00     0.171 C 
ENDROOT
BRANCH   1   2
ATOM      2  C   UNL     1      24.640  24.935  24.489  1.00  0.00     0.190 C 
BRANCH   2   3
ATOM      3  O   UNL     1      24.048  26.106  24.984  1.00  0.00    -0.394 OA
ATOM      4  H   UNL     1      23.069  26.015  24.842  1.00  0.00     0.210 HD
ENDBRANCH   2   3
ENDBRANCH   1   2
BRANCH   1   5
ATOM      5  C   UNL     1      26.377  26.219  23.037  1.00  0.00     0.181 C 
BRANCH   5   6
ATOM      6  C   UNL     1      27.490  25.899  22.000  1.00  0.00     0.209 C 
BRANCH   6   7
ATOM      7  C   UNL     1      28.760  26.644  22.301  1.00  0.00     0.258 C 
ATOM      8  O   UNL     1      28.824  27.407  23.253  1.00  0.00    -0.300 OA
ENDBRANCH   6   7
BRANCH   6   9
ATOM      9  O   UNL     1      27.060  26.259  20.713  1.00  0.00    -0.383 OA
ATOM     10  H   UNL     1      27.865  26.542  20.206  1.00  0.00     0.211 HD
ENDBRANCH   6   9
ENDBRANCH   5   6
BRANCH   5  11
ATOM     11  O   UNL     1      25.880  27.523  22.852  1.00  0.00    -0.387 OA
ATOM     12  H   UNL     1      25.068  27.623  23.414  1.00  0.00     0.211 HD
ENDBRANCH   5  11
ENDBRANCH   1   5
BRANCH   1  13
ATOM     13  O   UNL     1      25.633  23.971  22.498  1.00  0.00    -0.388 OA
ATOM     14  H   UNL     1      26.523  23.746  22.875  1.00  0.00     0.211 HD
ENDBRANCH   1  13
TORSDOF 8
ENDMDL
MODEL 2
REMARK VINA RESULT:    -3.787      1.392      1.680
REMARK INTER + INTRA:          -5.717
REMARK INTER:                  -5.123
REMARK INTRA:                  -0.595
REMARK UNBOUND:                -0.602
REMARK SMILES O=C[C@H](O)[C@@H](O)[C@@H](O)CO
REMARK SMILES IDX 7 1 9 2 10 3 5 5 3 6 2 7 1 8 4 9 6 11 8 13
REMARK H PARENT 10 4 4 10 6 12 8 14
REMARK Flexibility Score: inf
ROOT
ATOM      1  C   UNL     1      26.144  26.032  22.539  1.00  0.00     0.171 C 
ENDROOT
BRANCH   1   2
ATOM      2  C   UNL     1      25.267  26.727  23.601  1.00  0.00     0.190 C 
BRANCH   2   3
ATOM      3  O   UNL     1      24.977  28.041  23.206  1.00  0.00    -0.394 OA
ATOM      4  H   UNL     1      24.176  28.326  23.721  1.00  0.00     0.210 HD
ENDBRANCH   2   3
ENDBRANCH   1   2
BRANCH   1   5
ATOM      5  C   UNL     1      27.671  26.298  22.699  1.00  0.00     0.181 C 
BRANCH   5   6
ATOM      6  C   UNL     1      28.496  26.127  21.392  1.00  0.00     0.209 C 
BRANCH   6   7
ATOM      7  C   UNL     1      29.550  27.189  21.259  1.00  0.00     0.258 C 
ATOM      8  O   UNL     1      30.366  27.373  22.149  1.00  0.00    -0.300 OA
ENDBRANCH   6   7
BRANCH   6   9
ATOM      9  O   UNL     1      27.645  26.206  20.278  1.00  0.00    -0.383 OA
ATOM     10  H   UNL     1      27.811  25.398  19.726  1.00  0.00     0.211 HD
ENDBRANCH   6   9
ENDBRANCH   5   6
BRANCH   5  11
ATOM     11  O   UNL     1      27.903  27.559  23.278  1.00  0.00    -0.387 OA
ATOM     12  H   UNL     1      27.363  28.228  22.782  1.00  0.00     0.211 HD
ENDBRANCH   5  11
ENDBRANCH   1   5
BRANCH   1  13
ATOM     13  O   UNL     1      25.897  24.647  22.526  1.00  0.00    -0.388 OA
ATOM     14  H   UNL     1      26.018  24.310  23.451  1.00  0.00     0.211 HD
ENDBRANCH   1  13
TORSDOF 8
ENDMDL
MODEL 3
REMARK VINA RESULT:    -3.733      1.380      2.549
REMARK INTER + INTRA:          -5.645
REMARK INTER:                  -4.998
REMARK INTRA:                  -0.647
REMARK UNBOUND:                -0.602
REMARK SMILES O=C[C@H](O)[C@@H](O)[C@@H](O)CO
REMARK SMILES IDX 7 1 9 2 10 3 5 5 3 6 2 7 1 8 4 9 6 11 8 13
REMARK H PARENT 10 4 4 10 6 12 8 14
REMARK Flexibility Score: inf
ROOT
ATOM      1  C   UNL     1      26.381  26.560  23.243  1.00  0.00     0.171 C 
ENDROOT
BRANCH   1   2
ATOM      2  C   UNL     1      25.368  25.456  23.612  1.00  0.00     0.190 C 
BRANCH   2   3
ATOM      3  O   UNL     1      24.594  25.114  22.494  1.00  0.00    -0.394 OA
ATOM      4  H   UNL     1      23.791  25.699  22.511  1.00  0.00     0.210 HD
ENDBRANCH   2   3
ENDBRANCH   1   2
BRANCH   1   5
ATOM      5  C   UNL     1      27.273  26.221  22.012  1.00  0.00     0.181 C 
BRANCH   5   6
ATOM      6  C   UNL     1      28.723  26.776  22.094  1.00  0.00     0.209 C 
BRANCH   6   7
ATOM      7  C   UNL     1      29.710  25.701  22.453  1.00  0.00     0.258 C 
ATOM      8  O   UNL     1      29.985  24.816  21.657  1.00  0.00    -0.300 OA
ENDBRANCH   6   7
BRANCH   6   9
ATOM      9  O   UNL     1      28.793  27.784  23.068  1.00  0.00    -0.383 OA
ATOM     10  H   UNL     1      27.987  27.693  23.640  1.00  0.00     0.211 HD
ENDBRANCH   6   9
ENDBRANCH   5   6
BRANCH   5  11
ATOM     11  O   UNL     1      27.279  24.836  21.762  1.00  0.00    -0.387 OA
ATOM     12  H   UNL     1      27.853  24.404  22.447  1.00  0.00     0.211 HD
ENDBRANCH   5  11
ENDBRANCH   1   5
BRANCH   1  13
ATOM     13  O   UNL     1      25.720  27.784  23.034  1.00  0.00    -0.388 OA
ATOM     14  H   UNL     1      25.884  28.060  22.095  1.00  0.00     0.211 HD
ENDBRANCH   1  13
TORSDOF 8
ENDMDL
MODEL 4
REMARK VINA RESULT:    -3.685      5.075      6.596
REMARK INTER + INTRA:          -5.579
REMARK INTER:                  -5.507
REMARK INTRA:                  -0.072
REMARK UNBOUND:                -0.602
REMARK SMILES O=C[C@H](O)[C@@H](O)[C@@H](O)CO
REMARK SMILES IDX 7 1 9 2 10 3 5 5 3 6 2 7 1 8 4 9 6 11 8 13
REMARK H PARENT 10 4 4 10 6 12 8 14
REMARK Flexibility Score: inf
ROOT
ATOM      1  C   UNL     1      21.841  21.932  21.784  1.00  0.00     0.171 C 
ENDROOT
BRANCH   1   2
ATOM      2  C   UNL     1      21.298  20.797  22.678  1.00  0.00     0.190 C 
BRANCH   2   3
ATOM      3  O   UNL     1      20.472  19.945  21.931  1.00  0.00    -0.394 OA
ATOM      4  H   UNL     1      20.796  19.019  22.088  1.00  0.00     0.210 HD
ENDBRANCH   2   3
ENDBRANCH   1   2
BRANCH   1   5
ATOM      5  C   UNL     1      21.845  23.333  22.464  1.00  0.00     0.181 C 
BRANCH   5   6
ATOM      6  C   UNL     1      21.583  23.307  23.997  1.00  0.00     0.209 C 
BRANCH   6   7
ATOM      7  C   UNL     1      20.212  23.821  24.335  1.00  0.00     0.258 C 
ATOM      8  O   UNL     1      20.062  24.948  24.782  1.00  0.00    -0.300 OA
ENDBRANCH   6   7
BRANCH   6   9
ATOM      9  O   UNL     1      22.531  24.107  24.655  1.00  0.00    -0.383 OA
ATOM     10  H   UNL     1      23.420  23.694  24.500  1.00  0.00     0.211 HD
ENDBRANCH   6   9
ENDBRANCH   5   6
BRANCH   5  11
ATOM     11  O   UNL     1      23.031  24.032  22.170  1.00  0.00    -0.387 OA
ATOM     12  H   UNL     1      22.780  24.913  21.790  1.00  0.00     0.211 HD
ENDBRANCH   5  11
ENDBRANCH   1   5
BRANCH   1  13
ATOM     13  O   UNL     1      23.133  21.620  21.323  1.00  0.00    -0.388 OA
ATOM     14  H   UNL     1      23.722  21.525  22.115  1.00  0.00     0.211 HD
ENDBRANCH   1  13
TORSDOF 8
ENDMDL
MODEL 5
REMARK VINA RESULT:    -3.667      1.818      2.950
REMARK INTER + INTRA:          -5.555
REMARK INTER:                  -5.078
REMARK INTRA:                  -0.477
REMARK UNBOUND:                -0.602
REMARK SMILES O=C[C@H](O)[C@@H](O)[C@@H](O)CO
REMARK SMILES IDX 7 1 9 2 10 3 5 5 3 6 2 7 1 8 4 9 6 11 8 13
REMARK H PARENT 10 4 4 10 6 12 8 14
REMARK Flexibility Score: inf
ROOT
ATOM      1  C   UNL     1      24.948  24.989  22.947  1.00  0.00     0.171 C 
ENDROOT
BRANCH   1   2
ATOM      2  C   UNL     1      23.971  23.820  23.190  1.00  0.00     0.190 C 
BRANCH   2   3
ATOM      3  O   UNL     1      23.928  22.982  22.066  1.00  0.00    -0.394 OA
ATOM      4  H   UNL     1      23.085  22.461  22.128  1.00  0.00     0.210 HD
ENDBRANCH   2   3
ENDBRANCH   1   2
BRANCH   1   5
ATOM      5  C   UNL     1      25.244  25.847  24.213  1.00  0.00     0.181 C 
BRANCH   5   6
ATOM      6  C   UNL     1      26.076  27.132  23.941  1.00  0.00     0.209 C 
BRANCH   6   7
ATOM      7  C   UNL     1      25.342  28.370  24.376  1.00  0.00     0.258 C 
ATOM      8  O   UNL     1      24.463  28.851  23.677  1.00  0.00    -0.300 OA
ENDBRANCH   6   7
BRANCH   6   9
ATOM      9  O   UNL     1      26.351  27.240  22.569  1.00  0.00    -0.383 OA
ATOM     10  H   UNL     1      25.572  26.863  22.084  1.00  0.00     0.211 HD
ENDBRANCH   6   9
ENDBRANCH   5   6
BRANCH   5  11
ATOM     11  O   UNL     1      24.055  26.154  24.901  1.00  0.00    -0.387 OA
ATOM     12  H   UNL     1      23.412  26.529  24.246  1.00  0.00     0.211 HD
ENDBRANCH   5  11
ENDBRANCH   1   5
BRANCH   1  13
ATOM     13  O   UNL     1      26.153  24.516  22.395  1.00  0.00    -0.388 OA
ATOM     14  H   UNL     1      26.867  25.167  22.625  1.00  0.00     0.211 HD
ENDBRANCH   1  13
TORSDOF 8
ENDMDL
MODEL 6
REMARK VINA RESULT:    -3.661      1.459      3.715
REMARK INTER + INTRA:          -5.547
REMARK INTER:                  -5.425
REMARK INTRA:                  -0.122
REMARK UNBOUND:                -0.602
REMARK SMILES O=C[C@H](O)[C@@H](O)[C@@H](O)CO
REMARK SMILES IDX 7 1 9 2 10 3 5 5 3 6 2 7 1 8 4 9 6 11 8 13
REMARK H PARENT 10 4 4 10 6 12 8 14
REMARK Flexibility Score: inf
ROOT
ATOM      1  C   UNL     1      26.233  27.087  24.111  1.00  0.00     0.171 C 
ENDROOT
BRANCH   1   2
ATOM      2  C   UNL     1      24.937  27.924  24.165  1.00  0.00     0.190 C 
BRANCH   2   3
ATOM      3  O   UNL     1      24.826  28.720  23.015  1.00  0.00    -0.394 OA
ATOM      4  H   UNL     1      23.944  29.173  23.063  1.00  0.00     0.210 HD
ENDBRANCH   2   3
ENDBRANCH   1   2
BRANCH   1   5
ATOM      5  C   UNL     1      26.188  25.906  23.097  1.00  0.00     0.181 C 
BRANCH   5   6
ATOM      6  C   UNL     1      24.959  24.968  23.253  1.00  0.00     0.209 C 
BRANCH   6   7
ATOM      7  C   UNL     1      24.645  24.700  24.698  1.00  0.00     0.258 C 
ATOM      8  O   UNL     1      23.495  24.505  25.061  1.00  0.00    -0.300 OA
ENDBRANCH   6   7
BRANCH   6   9
ATOM      9  O   UNL     1      25.213  23.740  22.621  1.00  0.00    -0.383 OA
ATOM     10  H   UNL     1      25.216  23.044  23.327  1.00  0.00     0.211 HD
ENDBRANCH   6   9
ENDBRANCH   5   6
BRANCH   5  11
ATOM     11  O   UNL     1      26.296  26.375  21.774  1.00  0.00    -0.387 OA
ATOM     12  H   UNL     1      26.997  25.842  21.317  1.00  0.00     0.211 HD
ENDBRANCH   5  11
ENDBRANCH   1   5
BRANCH   1  13
ATOM     13  O   UNL     1      27.340  27.912  23.838  1.00  0.00    -0.388 OA
ATOM     14  H   UNL     1      27.630  27.731  22.906  1.00  0.00     0.211 HD
ENDBRANCH   1  13
TORSDOF 8
ENDMDL
MODEL 7
REMARK VINA RESULT:    -3.645      1.776      2.488
REMARK INTER + INTRA:          -5.525
REMARK INTER:                  -5.074
REMARK INTRA:                  -0.451
REMARK UNBOUND:                -0.602
REMARK SMILES O=C[C@H](O)[C@@H](O)[C@@H](O)CO
REMARK SMILES IDX 7 1 9 2 10 3 5 5 3 6 2 7 1 8 4 9 6 11 8 13
REMARK H PARENT 10 4 4 10 6 12 8 14
REMARK Flexibility Score: inf
ROOT
ATOM      1  C   UNL     1      25.027  27.448  23.840  1.00  0.00     0.171 C 
ENDROOT
BRANCH   1   2
ATOM      2  C   UNL     1      24.599  28.912  24.069  1.00  0.00     0.190 C 
BRANCH   2   3
ATOM      3  O   UNL     1      24.475  29.578  22.841  1.00  0.00    -0.394 OA
ATOM      4  H   UNL     1      25.121  29.154  22.217  1.00  0.00     0.210 HD
ENDBRANCH   2   3
ENDBRANCH   1   2
BRANCH   1   5
ATOM      5  C   UNL     1      26.561  27.206  23.958  1.00  0.00     0.181 C 
BRANCH   5   6
ATOM      6  C   UNL     1      27.157  26.289  22.853  1.00  0.00     0.209 C 
BRANCH   6   7
ATOM      7  C   UNL     1      28.539  26.724  22.456  1.00  0.00     0.258 C 
ATOM      8  O   UNL     1      29.498  26.486  23.175  1.00  0.00    -0.300 OA
ENDBRANCH   6   7
BRANCH   6   9
ATOM      9  O   UNL     1      26.338  26.325  21.712  1.00  0.00    -0.383 OA
ATOM     10  H   UNL     1      26.822  25.848  20.990  1.00  0.00     0.211 HD
ENDBRANCH   6   9
ENDBRANCH   5   6
BRANCH   5  11
ATOM     11  O   UNL     1      27.258  28.427  24.027  1.00  0.00    -0.387 OA
ATOM     12  H   UNL     1      27.613  28.525  24.949  1.00  0.00     0.211 HD
ENDBRANCH   5  11
ENDBRANCH   1   5
BRANCH   1  13
ATOM     13  O   UNL     1      24.338  26.591  24.718  1.00  0.00    -0.388 OA
ATOM     14  H   UNL     1      24.528  25.657  24.441  1.00  0.00     0.211 HD
ENDBRANCH   1  13
TORSDOF 8
ENDMDL
MODEL 8
REMARK VINA RESULT:    -3.605      1.744      4.026
REMARK INTER + INTRA:          -5.472
REMARK INTER:                  -4.769
REMARK INTRA:                  -0.703
REMARK UNBOUND:                -0.602
REMARK SMILES O=C[C@H](O)[C@@H](O)[C@@H](O)CO
REMARK SMILES IDX 7 1 9 2 10 3 5 5 3 6 2 7 1 8 4 9 6 11 8 13
REMARK H PARENT 10 4 4 10 6 12 8 14
REMARK Flexibility Score: inf
ROOT
ATOM      1  C   UNL     1      28.421  26.350  21.868  1.00  0.00     0.171 C 
ENDROOT
BRANCH   1   2
ATOM      2  C   UNL     1      28.666  25.490  20.610  1.00  0.00     0.190 C 
BRANCH   2   3
ATOM      3  O   UNL     1      27.856  25.933  19.554  1.00  0.00    -0.394 OA
ATOM      4  H   UNL     1      27.072  26.385  19.964  1.00  0.00     0.210 HD
ENDBRANCH   2   3
ENDBRANCH   1   2
BRANCH   1   5
ATOM      5  C   UNL     1      27.086  26.033  22.606  1.00  0.00     0.181 C 
BRANCH   5   6
ATOM      6  C   UNL     1      26.827  26.900  23.870  1.00  0.00     0.209 C 
BRANCH   6   7
ATOM      7  C   UNL     1      25.365  27.199  24.047  1.00  0.00     0.258 C 
ATOM      8  O   UNL     1      24.864  28.191  23.539  1.00  0.00    -0.300 OA
ENDBRANCH   6   7
BRANCH   6   9
ATOM      9  O   UNL     1      27.517  28.118  23.761  1.00  0.00    -0.383 OA
ATOM     10  H   UNL     1      27.915  28.148  22.853  1.00  0.00     0.211 HD
ENDBRANCH   6   9
ENDBRANCH   5   6
BRANCH   5  11
ATOM     11  O   UNL     1      25.994  26.098  21.720  1.00  0.00    -0.387 OA
ATOM     12  H   UNL     1      25.257  25.555  22.103  1.00  0.00     0.211 HD
ENDBRANCH   5  11
ENDBRANCH   1   5
BRANCH   1  13
ATOM     13  O   UNL     1      29.502  26.235  22.761  1.00  0.00    -0.388 OA
ATOM     14  H   UNL     1      29.163  26.435  23.672  1.00  0.00     0.211 HD
ENDBRANCH   1  13
TORSDOF 8
ENDMDL
MODEL 9
REMARK VINA RESULT:    -3.522      1.837      3.148
REMARK INTER + INTRA:          -5.360
REMARK INTER:                  -4.744
REMARK INTRA:                  -0.616
REMARK UNBOUND:                -0.602
REMARK SMILES O=C[C@H](O)[C@@H](O)[C@@H](O)CO
REMARK SMILES IDX 7 1 9 2 10 3 5 5 3 6 2 7 1 8 4 9 6 11 8 13
REMARK H PARENT 10 4 4 10 6 12 8 14
REMARK Flexibility Score: inf
ROOT
ATOM      1  C   UNL     1      27.522  26.973  23.643  1.00  0.00     0.171 C 
ENDROOT
BRANCH   1   2
ATOM      2  C   UNL     1      26.109  27.360  24.127  1.00  0.00     0.190 C 
BRANCH   2   3
ATOM      3  O   UNL     1      25.330  27.799  23.045  1.00  0.00    -0.394 OA
ATOM      4  H   UNL     1      24.460  28.098  23.420  1.00  0.00     0.210 HD
ENDBRANCH   2   3
ENDBRANCH   1   2
BRANCH   1   5
ATOM      5  C   UNL     1      27.562  26.366  22.210  1.00  0.00     0.181 C 
BRANCH   5   6
ATOM      6  C   UNL     1      28.992  26.154  21.638  1.00  0.00     0.209 C 
BRANCH   6   7
ATOM      7  C   UNL     1      29.025  25.047  20.622  1.00  0.00     0.258 C 
ATOM      8  O   UNL     1      28.597  25.226  19.492  1.00  0.00    -0.300 OA
ENDBRANCH   6   7
BRANCH   6   9
ATOM      9  O   UNL     1      29.876  25.825  22.679  1.00  0.00    -0.383 OA
ATOM     10  H   UNL     1      30.183  26.679  23.081  1.00  0.00     0.211 HD
ENDBRANCH   6   9
ENDBRANCH   5   6
BRANCH   5  11
ATOM     11  O   UNL     1      26.815  25.175  22.147  1.00  0.00    -0.387 OA
ATOM     12  H   UNL     1      27.384  24.438  22.491  1.00  0.00     0.211 HD
ENDBRANCH   5  11
ENDBRANCH   1   5
BRANCH   1  13
ATOM     13  O   UNL     1      28.389  28.078  23.721  1.00  0.00    -0.388 OA
ATOM     14  H   UNL     1      28.124  28.616  24.511  1.00  0.00     0.211 HD
ENDBRANCH   1  13
TORSDOF 8
ENDMDL
