MODEL 1
REMARK VINA RESULT:    -3.531      0.000      0.000
REMARK INTER + INTRA:          -5.074
REMARK INTER:                  -4.563
REMARK INTRA:                  -0.511
REMARK UNBOUND:                -0.511
REMARK SMILES C=CC(=O)CCCCC
REMARK SMILES IDX 6 1 7 2 8 3 9 4 5 5 3 6 4 7 2 8 1 9
REMARK H PARENT
REMARK Flexibility Score: inf
ROOT
ATOM      1  C   UNL     1      15.169   3.001   2.896  1.00  0.00     0.008 C 
ENDROOT
BRANCH   1   2
ATOM      2  C   UNL     1      13.839   2.804   2.155  1.00  0.00     0.000 C 
BRANCH   2   3
ATOM      3  C   UNL     1      12.663   3.332   2.985  1.00  0.00    -0.003 C 
ATOM      4  C   UNL     1      11.895   4.412   2.229  1.00  0.00     0.004 C 
ENDBRANCH   2   3
ENDBRANCH   1   2
BRANCH   1   5
ATOM      5  C   UNL     1      16.213   3.731   2.039  1.00  0.00     0.080 C 
BRANCH   5   6
ATOM      6  C   UNL     1      16.605   5.051   2.639  1.00  0.00     0.155 C 
ATOM      7  O   UNL     1      17.706   5.573   2.309  1.00  0.00    -0.295 OA
BRANCH   6   8
ATOM      8  C   UNL     1      15.727   5.711   3.624  1.00  0.00     0.039 C 
ATOM      9  C   UNL     1      14.816   6.618   3.275  1.00  0.00     0.012 C 
ENDBRANCH   6   8
ENDBRANCH   5   6
ENDBRANCH   1   5
TORSDOF 5
ENDMDL
MODEL 2
REMARK VINA RESULT:    -3.316      1.721      3.798
REMARK INTER + INTRA:          -4.796
REMARK INTER:                  -4.267
REMARK INTRA:                  -0.529
REMARK UNBOUND:                -0.511
REMARK SMILES C=CC(=O)CCCCC
REMARK SMILES IDX 6 1 7 2 8 3 9 4 5 5 3 6 4 7 2 8 1 9
REMARK H PARENT
REMARK Flexibility Score: inf
ROOT
ATOM      1  C   UNL     1      15.124   4.994   3.882  1.00  0.00     0.008 C 
ENDROOT
BRANCH   1   2
ATOM      2  C   UNL     1      14.403   6.221   3.307  1.00  0.00     0.000 C 
BRANCH   2   3
ATOM      3  C   UNL     1      15.000   6.627   1.955  1.00  0.00    -0.003 C 
ATOM      4  C   UNL     1      16.481   6.267   1.877  1.00  0.00     0.004 C 
ENDBRANCH   2   3
ENDBRANCH   1   2
BRANCH   1   5
ATOM      5  C   UNL     1      14.230   3.746   3.901  1.00  0.00     0.080 C 
BRANCH   5   6
ATOM      6  C   UNL     1      14.089   3.138   2.534  1.00  0.00     0.155 C 
ATOM      7  O   UNL     1      15.121   2.732   1.933  1.00  0.00    -0.295 OA
BRANCH   6   8
ATOM      8  C   UNL     1      12.764   3.049   1.893  1.00  0.00     0.039 C 
ATOM      9  C   UNL     1      11.732   3.800   2.275  1.00  0.00     0.012 C 
ENDBRANCH   6   8
ENDBRANCH   5   6
ENDBRANCH   1   5
TORSDOF 5
ENDMDL
MODEL 3
REMARK VINA RESULT:    -3.303      1.636      2.061
REMARK INTER + INTRA:          -4.779
REMARK INTER:                  -4.609
REMARK INTRA:                  -0.171
REMARK UNBOUND:                -0.511
REMARK SMILES C=CC(=O)CCCCC
REMARK SMILES IDX 6 1 7 2 8 3 9 4 5 5 3 6 4 7 2 8 1 9
REMARK H PARENT
REMARK Flexibility Score: inf
ROOT
ATOM      1  C   UNL     1      13.592   3.778   3.644  1.00  0.00     0.008 C 
ENDROOT
BRANCH   1   2
ATOM      2  C   UNL     1      13.700   3.025   2.310  1.00  0.00     0.000 C 
BRANCH   2   3
ATOM      3  C   UNL     1      12.341   2.451   1.891  1.00  0.00    -0.003 C 
ATOM      4  C   UNL     1      11.266   3.534   1.877  1.00  0.00     0.004 C 
ENDBRANCH   2   3
ENDBRANCH   1   2
BRANCH   1   5
ATOM      5  C   UNL     1      13.879   5.278   3.492  1.00  0.00     0.080 C 
BRANCH   5   6
ATOM      6  C   UNL     1      15.344   5.583   3.620  1.00  0.00     0.155 C 
ATOM      7  O   UNL     1      15.939   5.301   4.697  1.00  0.00    -0.295 OA
BRANCH   6   8
ATOM      8  C   UNL     1      16.069   6.233   2.512  1.00  0.00     0.039 C 
ATOM      9  C   UNL     1      17.366   6.030   2.289  1.00  0.00     0.012 C 
ENDBRANCH   6   8
ENDBRANCH   5   6
ENDBRANCH   1   5
TORSDOF 5
ENDMDL
MODEL 4
REMARK VINA RESULT:    -3.295     17.606     18.841
REMARK INTER + INTRA:          -4.769
REMARK INTER:                  -4.210
REMARK INTRA:                  -0.559
REMARK UNBOUND:                -0.511
REMARK SMILES C=CC(=O)CCCCC
REMARK SMILES IDX 6 1 7 2 8 3 9 4 5 5 3 6 4 7 2 8 1 9
REMARK H PARENT
REMARK Flexibility Score: inf
ROOT
ATOM      1  C   UNL     1      24.239  -9.723   6.369  1.00  0.00     0.008 C 
ENDROOT
BRANCH   1   2
ATOM      2  C   UNL     1      24.119 -10.845   5.327  1.00  0.00     0.000 C 
BRANCH   2   3
ATOM      3  C   UNL     1      23.259 -11.998   5.857  1.00  0.00    -0.003 C 
ATOM      4  C   UNL     1      22.447 -11.565   7.075  1.00  0.00     0.004 C 
ENDBRANCH   2   3
ENDBRANCH   1   2
BRANCH   1   5
ATOM      5  C   UNL     1      25.698  -9.413   6.728  1.00  0.00     0.080 C 
BRANCH   5   6
ATOM      6  C   UNL     1      26.043  -9.873   8.116  1.00  0.00     0.155 C 
ATOM      7  O   UNL     1      25.804  -9.111   9.093  1.00  0.00    -0.295 OA
BRANCH   6   8
ATOM      8  C   UNL     1      26.681 -11.186   8.328  1.00  0.00     0.039 C 
ATOM      9  C   UNL     1      25.979 -12.312   8.440  1.00  0.00     0.012 C 
ENDBRANCH   6   8
ENDBRANCH   5   6
ENDBRANCH   1   5
TORSDOF 5
ENDMDL
MODEL 5
REMARK VINA RESULT:    -3.062     17.899     19.156
REMARK INTER + INTRA:          -4.467
REMARK INTER:                  -3.866
REMARK INTRA:                  -0.601
REMARK UNBOUND:                -0.511
REMARK SMILES C=CC(=O)CCCCC
REMARK SMILES IDX 6 1 7 2 8 3 9 4 5 5 3 6 4 7 2 8 1 9
REMARK H PARENT
REMARK Flexibility Score: inf
ROOT
ATOM      1  C   UNL     1      25.478 -11.431   7.869  1.00  0.00     0.008 C 
ENDROOT
BRANCH   1   2
ATOM      2  C   UNL     1      26.522 -11.122   6.787  1.00  0.00     0.000 C 
BRANCH   2   3
ATOM      3  C   UNL     1      26.350  -9.697   6.248  1.00  0.00    -0.003 C 
ATOM      4  C   UNL     1      25.470  -8.861   7.173  1.00  0.00     0.004 C 
ENDBRANCH   2   3
ENDBRANCH   1   2
BRANCH   1   5
ATOM      5  C   UNL     1      24.519 -12.555   7.451  1.00  0.00     0.080 C 
BRANCH   5   6
ATOM      6  C   UNL     1      23.119 -12.050   7.248  1.00  0.00     0.155 C 
ATOM      7  O   UNL     1      22.208 -12.429   8.035  1.00  0.00    -0.295 OA
BRANCH   6   8
ATOM      8  C   UNL     1      22.809 -11.146   6.124  1.00  0.00     0.039 C 
ATOM      9  C   UNL     1      23.242 -11.372   4.885  1.00  0.00     0.012 C 
ENDBRANCH   6   8
ENDBRANCH   5   6
ENDBRANCH   1   5
TORSDOF 5
ENDMDL
MODEL 6
REMARK VINA RESULT:    -2.998     17.929     19.107
REMARK INTER + INTRA:          -4.384
REMARK INTER:                  -3.790
REMARK INTRA:                  -0.595
REMARK UNBOUND:                -0.511
REMARK SMILES C=CC(=O)CCCCC
REMARK SMILES IDX 6 1 7 2 8 3 9 4 5 5 3 6 4 7 2 8 1 9
REMARK H PARENT
REMARK Flexibility Score: inf
ROOT
ATOM      1  C   UNL     1      25.207 -12.408   7.264  1.00  0.00     0.008 C 
ENDROOT
BRANCH   1   2
ATOM      2  C   UNL     1      23.767 -12.575   7.772  1.00  0.00     0.000 C 
BRANCH   2   3
ATOM      3  C   UNL     1      22.831 -11.554   7.116  1.00  0.00    -0.003 C 
ATOM      4  C   UNL     1      23.112 -11.430   5.621  1.00  0.00     0.004 C 
ENDBRANCH   2   3
ENDBRANCH   1   2
BRANCH   1   5
ATOM      5  C   UNL     1      26.160 -11.916   8.362  1.00  0.00     0.080 C 
BRANCH   5   6
ATOM      6  C   UNL     1      26.335 -10.424   8.324  1.00  0.00     0.155 C 
ATOM      7  O   UNL     1      26.599  -9.809   9.394  1.00  0.00    -0.295 OA
BRANCH   6   8
ATOM      8  C   UNL     1      26.169  -9.688   7.057  1.00  0.00     0.039 C 
ATOM      9  C   UNL     1      25.326  -8.665   6.930  1.00  0.00     0.012 C 
ENDBRANCH   6   8
ENDBRANCH   5   6
ENDBRANCH   1   5
TORSDOF 5
ENDMDL
MODEL 7
REMARK VINA RESULT:    -2.959     17.749     19.225
REMARK INTER + INTRA:          -4.335
REMARK INTER:                  -3.769
REMARK INTRA:                  -0.565
REMARK UNBOUND:                -0.511
REMARK SMILES C=CC(=O)CCCCC
REMARK SMILES IDX 6 1 7 2 8 3 9 4 5 5 3 6 4 7 2 8 1 9
REMARK H PARENT
REMARK Flexibility Score: inf
ROOT
ATOM      1  C   UNL     1      24.787  -9.419   6.763  1.00  0.00     0.008 C 
ENDROOT
BRANCH   1   2
ATOM      2  C   UNL     1      26.286  -9.369   6.433  1.00  0.00     0.000 C 
BRANCH   2   3
ATOM      3  C   UNL     1      27.125  -9.885   7.608  1.00  0.00    -0.003 C 
ATOM      4  C   UNL     1      26.350  -9.795   8.920  1.00  0.00     0.004 C 
ENDBRANCH   2   3
ENDBRANCH   1   2
BRANCH   1   5
ATOM      5  C   UNL     1      24.064 -10.555   6.026  1.00  0.00     0.080 C 
BRANCH   5   6
ATOM      6  C   UNL     1      23.387 -11.499   6.978  1.00  0.00     0.155 C 
ATOM      7  O   UNL     1      22.179 -11.302   7.284  1.00  0.00    -0.295 OA
BRANCH   6   8
ATOM      8  C   UNL     1      24.137 -12.622   7.571  1.00  0.00     0.039 C 
ATOM      9  C   UNL     1      25.332 -13.000   7.122  1.00  0.00     0.012 C 
ENDBRANCH   6   8
ENDBRANCH   5   6
ENDBRANCH   1   5
TORSDOF 5
ENDMDL
MODEL 8
REMARK VINA RESULT:    -2.936     17.697     18.407
REMARK INTER + INTRA:          -4.305
REMARK INTER:                  -3.732
REMARK INTRA:                  -0.572
REMARK UNBOUND:                -0.511
REMARK SMILES C=CC(=O)CCCCC
REMARK SMILES IDX 6 1 7 2 8 3 9 4 5 5 3 6 4 7 2 8 1 9
REMARK H PARENT
REMARK Flexibility Score: inf
ROOT
ATOM      1  C   UNL     1      23.603 -11.238   7.122  1.00  0.00     0.008 C 
ENDROOT
BRANCH   1   2
ATOM      2  C   UNL     1      23.124 -10.783   5.736  1.00  0.00     0.000 C 
BRANCH   2   3
ATOM      3  C   UNL     1      23.587 -11.758   4.648  1.00  0.00    -0.003 C 
ATOM      4  C   UNL     1      23.868 -11.029   3.337  1.00  0.00     0.004 C 
ENDBRANCH   2   3
ENDBRANCH   1   2
BRANCH   1   5
ATOM      5  C   UNL     1      25.133 -11.217   7.247  1.00  0.00     0.080 C 
BRANCH   5   6
ATOM      6  C   UNL     1      25.671  -9.816   7.304  1.00  0.00     0.155 C 
ATOM      7  O   UNL     1      25.231  -9.023   8.182  1.00  0.00    -0.295 OA
BRANCH   6   8
ATOM      8  C   UNL     1      26.678  -9.365   6.324  1.00  0.00     0.039 C 
ATOM      9  C   UNL     1      26.921 -10.026   5.194  1.00  0.00     0.012 C 
ENDBRANCH   6   8
ENDBRANCH   5   6
ENDBRANCH   1   5
TORSDOF 5
ENDMDL
MODEL 9
REMARK VINA RESULT:    -2.934     17.814     19.266
REMARK INTER + INTRA:          -4.303
REMARK INTER:                  -3.810
REMARK INTRA:                  -0.493
REMARK UNBOUND:                -0.511
REMARK SMILES C=CC(=O)CCCCC
REMARK SMILES IDX 6 1 7 2 8 3 9 4 5 5 3 6 4 7 2 8 1 9
REMARK H PARENT
REMARK Flexibility Score: inf
ROOT
ATOM      1  C   UNL     1      25.691  -9.951   7.876  1.00  0.00     0.008 C 
ENDROOT
BRANCH   1   2
ATOM      2  C   UNL     1      26.757 -10.963   7.431  1.00  0.00     0.000 C 
BRANCH   2   3
ATOM      3  C   UNL     1      26.757 -12.197   8.340  1.00  0.00    -0.003 C 
ATOM      4  C   UNL     1      25.420 -12.930   8.273  1.00  0.00     0.004 C 
ENDBRANCH   2   3
ENDBRANCH   1   2
BRANCH   1   5
ATOM      5  C   UNL     1      24.871  -9.410   6.696  1.00  0.00     0.080 C 
BRANCH   5   6
ATOM      6  C   UNL     1      23.778 -10.359   6.292  1.00  0.00     0.155 C 
ATOM      7  O   UNL     1      22.904 -10.687   7.141  1.00  0.00    -0.295 OA
BRANCH   6   8
ATOM      8  C   UNL     1      23.749 -10.924   4.930  1.00  0.00     0.039 C 
ATOM      9  C   UNL     1      23.652 -12.232   4.699  1.00  0.00     0.012 C 
ENDBRANCH   6   8
ENDBRANCH   5   6
ENDBRANCH   1   5
TORSDOF 5
ENDMDL
