MODEL 1
REMARK VINA RESULT:    -3.493      0.000      0.000
REMARK INTER + INTRA:          -5.428
REMARK INTER:                  -5.127
REMARK INTRA:                  -0.302
REMARK UNBOUND:                -0.302
REMARK SMILES O=C([O-])CCCCCCCC(=O)[O-]
REMARK SMILES IDX 7 1 6 2 5 3 4 4 2 5 1 6 3 7 8 8 9 9 10 10 11 11 12 12 13 13
REMARK H PARENT
REMARK Flexibility Score: inf
ROOT
ATOM      1  C   UNL     1      49.142  46.001  55.920  1.00  0.00     0.000 C 
ENDROOT
BRANCH   1   2
ATOM      2  C   UNL     1      48.179  44.919  56.422  1.00  0.00     0.000 C 
BRANCH   2   3
ATOM      3  C   UNL     1      48.151  44.875  57.954  1.00  0.00     0.006 C 
BRANCH   3   4
ATOM      4  C   UNL     1      47.223  45.956  58.518  1.00  0.00     0.053 C 
BRANCH   4   5
ATOM      5  C   UNL     1      47.975  46.863  59.439  1.00  0.00     0.041 C 
ATOM      6  O   UNL     1      47.819  46.773  60.685  1.00  0.00    -0.550 OA
ATOM      7  O   UNL     1      48.813  47.842  58.920  1.00  0.00    -0.550 OA
ENDBRANCH   4   5
ENDBRANCH   3   4
ENDBRANCH   2   3
ENDBRANCH   1   2
BRANCH   1   8
ATOM      8  C   UNL     1      50.136  45.425  54.904  1.00  0.00     0.000 C 
BRANCH   8   9
ATOM      9  C   UNL     1      51.532  46.031  55.095  1.00  0.00     0.006 C 
BRANCH   9  10
ATOM     10  C   UNL     1      52.490  45.014  55.722  1.00  0.00     0.053 C 
BRANCH  10  11
ATOM     11  C   UNL     1      52.634  45.265  57.190  1.00  0.00     0.041 C 
ATOM     12  O   UNL     1      53.684  44.920  57.793  1.00  0.00    -0.550 OA
ATOM     13  O   UNL     1      51.587  45.835  57.904  1.00  0.00    -0.550 OA
ENDBRANCH  10  11
ENDBRANCH   9  10
ENDBRANCH   8   9
ENDBRANCH   1   8
TORSDOF 8
ENDMDL
MODEL 2
REMARK VINA RESULT:    -3.486     13.595     15.524
REMARK INTER + INTRA:          -5.418
REMARK INTER:                  -5.237
REMARK INTRA:                  -0.181
REMARK UNBOUND:                -0.302
REMARK SMILES O=C([O-])CCCCCCCC(=O)[O-]
REMARK SMILES IDX 7 1 6 2 5 3 4 4 2 5 1 6 3 7 8 8 9 9 10 10 11 11 12 12 13 13
REMARK H PARENT
REMARK Flexibility Score: inf
ROOT
ATOM      1  C   UNL     1      47.665  46.722  42.425  1.00  0.00     0.000 C 
ENDROOT
BRANCH   1   2
ATOM      2  C   UNL     1      49.102  47.205  42.655  1.00  0.00     0.000 C 
BRANCH   2   3
ATOM      3  C   UNL     1      49.888  46.204  43.509  1.00  0.00     0.006 C 
BRANCH   3   4
ATOM      4  C   UNL     1      49.847  46.594  44.990  1.00  0.00     0.053 C 
BRANCH   4   5
ATOM      5  C   UNL     1      51.233  46.759  45.527  1.00  0.00     0.041 C 
ATOM      6  O   UNL     1      52.207  46.213  44.945  1.00  0.00    -0.550 OA
ATOM      7  O   UNL     1      51.445  47.473  46.699  1.00  0.00    -0.550 OA
ENDBRANCH   4   5
ENDBRANCH   3   4
ENDBRANCH   2   3
ENDBRANCH   1   2
BRANCH   1   8
ATOM      8  C   UNL     1      46.963  47.571  41.359  1.00  0.00     0.000 C 
BRANCH   8   9
ATOM      9  C   UNL     1      45.438  47.484  41.501  1.00  0.00     0.006 C 
BRANCH   9  10
ATOM     10  C   UNL     1      44.779  48.829  41.181  1.00  0.00     0.053 C 
BRANCH  10  11
ATOM     11  C   UNL     1      43.605  49.064  42.079  1.00  0.00     0.041 C 
ATOM     12  O   UNL     1      43.705  49.846  43.061  1.00  0.00    -0.550 OA
ATOM     13  O   UNL     1      42.415  48.381  41.862  1.00  0.00    -0.550 OA
ENDBRANCH  10  11
ENDBRANCH   9  10
ENDBRANCH   8   9
ENDBRANCH   1   8
TORSDOF 8
ENDMDL
MODEL 3
REMARK VINA RESULT:    -3.463     13.672     14.948
REMARK INTER + INTRA:          -5.384
REMARK INTER:                  -5.170
REMARK INTRA:                  -0.213
REMARK UNBOUND:                -0.302
REMARK SMILES O=C([O-])CCCCCCCC(=O)[O-]
REMARK SMILES IDX 7 1 6 2 5 3 4 4 2 5 1 6 3 7 8 8 9 9 10 10 11 11 12 12 13 13
REMARK H PARENT
REMARK Flexibility Score: inf
ROOT
ATOM      1  C   UNL     1      47.909  47.113  42.757  1.00  0.00     0.000 C 
ENDROOT
BRANCH   1   2
ATOM      2  C   UNL     1      47.012  46.756  41.566  1.00  0.00     0.000 C 
BRANCH   2   3
ATOM      3  C   UNL     1      45.944  47.833  41.340  1.00  0.00     0.006 C 
BRANCH   3   4
ATOM      4  C   UNL     1      44.543  47.286  41.631  1.00  0.00     0.053 C 
BRANCH   4   5
ATOM      5  C   UNL     1      43.577  48.408  41.844  1.00  0.00     0.041 C 
ATOM      6  O   UNL     1      43.964  49.487  42.365  1.00  0.00    -0.550 OA
ATOM      7  O   UNL     1      42.238  48.246  41.513  1.00  0.00    -0.550 OA
ENDBRANCH   4   5
ENDBRANCH   3   4
ENDBRANCH   2   3
ENDBRANCH   1   2
BRANCH   1   8
ATOM      8  C   UNL     1      49.329  47.458  42.294  1.00  0.00     0.000 C 
BRANCH   8   9
ATOM      9  C   UNL     1      50.379  46.763  43.170  1.00  0.00     0.006 C 
BRANCH   9  10
ATOM     10  C   UNL     1      50.005  46.857  44.653  1.00  0.00     0.053 C 
BRANCH  10  11
ATOM     11  C   UNL     1      51.235  46.826  45.505  1.00  0.00     0.041 C 
ATOM     12  O   UNL     1      51.242  47.397  46.628  1.00  0.00    -0.550 OA
ATOM     13  O   UNL     1      52.389  46.209  45.040  1.00  0.00    -0.550 OA
ENDBRANCH  10  11
ENDBRANCH   9  10
ENDBRANCH   8   9
ENDBRANCH   1   8
TORSDOF 8
ENDMDL
MODEL 4
REMARK VINA RESULT:    -3.343      0.486      4.812
REMARK INTER + INTRA:          -5.208
REMARK INTER:                  -4.805
REMARK INTRA:                  -0.403
REMARK UNBOUND:                -0.302
REMARK SMILES O=C([O-])CCCCCCCC(=O)[O-]
REMARK SMILES IDX 7 1 6 2 5 3 4 4 2 5 1 6 3 7 8 8 9 9 10 10 11 11 12 12 13 13
REMARK H PARENT
REMARK Flexibility Score: inf
ROOT
ATOM      1  C   UNL     1      49.144  45.862  55.646  1.00  0.00     0.000 C 
ENDROOT
BRANCH   1   2
ATOM      2  C   UNL     1      50.268  45.332  54.748  1.00  0.00     0.000 C 
BRANCH   2   3
ATOM      3  C   UNL     1      51.617  45.948  55.135  1.00  0.00     0.006 C 
BRANCH   3   4
ATOM      4  C   UNL     1      52.500  44.925  55.858  1.00  0.00     0.053 C 
BRANCH   4   5
ATOM      5  C   UNL     1      52.715  45.331  57.281  1.00  0.00     0.041 C 
ATOM      6  O   UNL     1      53.839  45.167  57.824  1.00  0.00    -0.550 OA
ATOM      7  O   UNL     1      51.661  45.846  58.024  1.00  0.00    -0.550 OA
ENDBRANCH   4   5
ENDBRANCH   3   4
ENDBRANCH   2   3
ENDBRANCH   1   2
BRANCH   1   8
ATOM      8  C   UNL     1      48.834  44.877  56.779  1.00  0.00     0.000 C 
BRANCH   8   9
ATOM      9  C   UNL     1      47.614  45.334  57.588  1.00  0.00     0.006 C 
BRANCH   9  10
ATOM     10  C   UNL     1      47.929  45.362  59.087  1.00  0.00     0.053 C 
BRANCH  10  11
ATOM     11  C   UNL     1      48.156  46.768  59.549  1.00  0.00     0.041 C 
ATOM     12  O   UNL     1      48.023  47.064  60.765  1.00  0.00    -0.550 OA
ATOM     13  O   UNL     1      48.465  47.761  58.628  1.00  0.00    -0.550 OA
ENDBRANCH  10  11
ENDBRANCH   9  10
ENDBRANCH   8   9
ENDBRANCH   1   8
TORSDOF 8
ENDMDL
MODEL 5
REMARK VINA RESULT:    -3.265      2.594      2.843
REMARK INTER + INTRA:          -5.094
REMARK INTER:                  -4.799
REMARK INTRA:                  -0.295
REMARK UNBOUND:                -0.302
REMARK SMILES O=C([O-])CCCCCCCC(=O)[O-]
REMARK SMILES IDX 7 1 6 2 5 3 4 4 2 5 1 6 3 7 8 8 9 9 10 10 11 11 12 12 13 13
REMARK H PARENT
REMARK Flexibility Score: inf
ROOT
ATOM      1  C   UNL     1      49.868  46.209  55.142  1.00  0.00     0.000 C 
ENDROOT
BRANCH   1   2
ATOM      2  C   UNL     1      49.214  44.942  55.706  1.00  0.00     0.000 C 
BRANCH   2   3
ATOM      3  C   UNL     1      49.185  44.973  57.238  1.00  0.00     0.006 C 
BRANCH   3   4
ATOM      4  C   UNL     1      47.857  45.539  57.751  1.00  0.00     0.053 C 
BRANCH   4   5
ATOM      5  C   UNL     1      48.064  46.281  59.032  1.00  0.00     0.041 C 
ATOM      6  O   UNL     1      47.946  45.687  60.136  1.00  0.00    -0.550 OA
ATOM      7  O   UNL     1      48.340  47.642  59.010  1.00  0.00    -0.550 OA
ENDBRANCH   4   5
ENDBRANCH   3   4
ENDBRANCH   2   3
ENDBRANCH   1   2
BRANCH   1   8
ATOM      8  C   UNL     1      51.397  46.098  55.166  1.00  0.00     0.000 C 
BRANCH   8   9
ATOM      9  C   UNL     1      51.879  44.931  54.296  1.00  0.00     0.006 C 
BRANCH   9  10
ATOM     10  C   UNL     1      53.409  44.876  54.250  1.00  0.00     0.053 C 
BRANCH  10  11
ATOM     11  C   UNL     1      53.891  44.876  52.833  1.00  0.00     0.041 C 
ATOM     12  O   UNL     1      55.124  44.907  52.583  1.00  0.00    -0.550 OA
ATOM     13  O   UNL     1      52.976  44.891  51.787  1.00  0.00    -0.550 OA
ENDBRANCH  10  11
ENDBRANCH   9  10
ENDBRANCH   8   9
ENDBRANCH   1   8
TORSDOF 8
ENDMDL
MODEL 6
REMARK VINA RESULT:    -3.239     13.664     15.201
REMARK INTER + INTRA:          -5.056
REMARK INTER:                  -4.282
REMARK INTRA:                  -0.773
REMARK UNBOUND:                -0.302
REMARK SMILES O=C([O-])CCCCCCCC(=O)[O-]
REMARK SMILES IDX 7 1 6 2 5 3 4 4 2 5 1 6 3 7 8 8 9 9 10 10 11 11 12 12 13 13
REMARK H PARENT
REMARK Flexibility Score: inf
ROOT
ATOM      1  C   UNL     1      50.500  46.645  45.265  1.00  0.00     0.000 C 
ENDROOT
BRANCH   1   2
ATOM      2  C   UNL     1      52.025  46.499  45.319  1.00  0.00     0.000 C 
BRANCH   2   3
ATOM      3  C   UNL     1      52.509  45.417  44.347  1.00  0.00     0.006 C 
BRANCH   3   4
ATOM      4  C   UNL     1      53.283  46.035  43.178  1.00  0.00     0.053 C 
BRANCH   4   5
ATOM      5  C   UNL     1      52.347  46.422  42.077  1.00  0.00     0.041 C 
ATOM      6  O   UNL     1      52.216  47.631  41.752  1.00  0.00    -0.550 OA
ATOM      7  O   UNL     1      51.581  45.452  41.443  1.00  0.00    -0.550 OA
ENDBRANCH   4   5
ENDBRANCH   3   4
ENDBRANCH   2   3
ENDBRANCH   1   2
BRANCH   1   8
ATOM      8  C   UNL     1      49.825  45.295  45.000  1.00  0.00     0.000 C 
BRANCH   8   9
ATOM      9  C   UNL     1      48.976  45.343  43.725  1.00  0.00     0.006 C 
BRANCH   9  10
ATOM     10  C   UNL     1      48.705  46.789  43.300  1.00  0.00     0.053 C 
BRANCH  10  11
ATOM     11  C   UNL     1      47.909  46.823  42.033  1.00  0.00     0.041 C 
ATOM     12  O   UNL     1      48.431  46.456  40.947  1.00  0.00    -0.550 OA
ATOM     13  O   UNL     1      46.607  47.306  42.042  1.00  0.00    -0.550 OA
ENDBRANCH  10  11
ENDBRANCH   9  10
ENDBRANCH   8   9
ENDBRANCH   1   8
TORSDOF 8
ENDMDL
MODEL 7
REMARK VINA RESULT:    -3.188     12.757     14.444
REMARK INTER + INTRA:          -4.981
REMARK INTER:                  -4.334
REMARK INTRA:                  -0.647
REMARK UNBOUND:                -0.302
REMARK SMILES O=C([O-])CCCCCCCC(=O)[O-]
REMARK SMILES IDX 7 1 6 2 5 3 4 4 2 5 1 6 3 7 8 8 9 9 10 10 11 11 12 12 13 13
REMARK H PARENT
REMARK Flexibility Score: inf
ROOT
ATOM      1  C   UNL     1      52.718  46.166  41.776  1.00  0.00     0.000 C 
ENDROOT
BRANCH   1   2
ATOM      2  C   UNL     1      51.770  47.370  41.741  1.00  0.00     0.000 C 
BRANCH   2   3
ATOM      3  C   UNL     1      50.336  46.932  41.425  1.00  0.00     0.006 C 
BRANCH   3   4
ATOM      4  C   UNL     1      49.358  47.445  42.487  1.00  0.00     0.053 C 
BRANCH   4   5
ATOM      5  C   UNL     1      48.085  46.660  42.450  1.00  0.00     0.041 C 
ATOM      6  O   UNL     1      46.987  47.242  42.247  1.00  0.00    -0.550 OA
ATOM      7  O   UNL     1      48.105  45.292  42.689  1.00  0.00    -0.550 OA
ENDBRANCH   4   5
ENDBRANCH   3   4
ENDBRANCH   2   3
ENDBRANCH   1   2
BRANCH   1   8
ATOM      8  C   UNL     1      53.304  45.966  43.178  1.00  0.00     0.000 C 
BRANCH   8   9
ATOM      9  C   UNL     1      52.263  45.367  44.131  1.00  0.00     0.006 C 
BRANCH   9  10
ATOM     10  C   UNL     1      51.945  46.335  45.275  1.00  0.00     0.053 C 
BRANCH  10  11
ATOM     11  C   UNL     1      50.535  46.148  45.742  1.00  0.00     0.041 C 
ATOM     12  O   UNL     1      49.892  45.115  45.418  1.00  0.00    -0.550 OA
ATOM     13  O   UNL     1      49.914  47.138  46.494  1.00  0.00    -0.550 OA
ENDBRANCH  10  11
ENDBRANCH   9  10
ENDBRANCH   8   9
ENDBRANCH   1   8
TORSDOF 8
ENDMDL
MODEL 8
REMARK VINA RESULT:    -3.033     13.574     14.813
REMARK INTER + INTRA:          -4.753
REMARK INTER:                  -4.172
REMARK INTRA:                  -0.581
REMARK UNBOUND:                -0.302
REMARK SMILES O=C([O-])CCCCCCCC(=O)[O-]
REMARK SMILES IDX 7 1 6 2 5 3 4 4 2 5 1 6 3 7 8 8 9 9 10 10 11 11 12 12 13 13
REMARK H PARENT
REMARK Flexibility Score: inf
ROOT
ATOM      1  C   UNL     1      50.413  47.061  45.417  1.00  0.00     0.000 C 
ENDROOT
BRANCH   1   2
ATOM      2  C   UNL     1      49.522  46.176  44.537  1.00  0.00     0.000 C 
BRANCH   2   3
ATOM      3  C   UNL     1      48.774  47.014  43.494  1.00  0.00     0.006 C 
BRANCH   3   4
ATOM      4  C   UNL     1      48.228  46.130  42.368  1.00  0.00     0.053 C 
BRANCH   4   5
ATOM      5  C   UNL     1      47.208  46.873  41.566  1.00  0.00     0.041 C 
ATOM      6  O   UNL     1      47.547  47.870  40.876  1.00  0.00    -0.550 OA
ATOM      7  O   UNL     1      45.872  46.497  41.619  1.00  0.00    -0.550 OA
ENDBRANCH   4   5
ENDBRANCH   3   4
ENDBRANCH   2   3
ENDBRANCH   1   2
BRANCH   1   8
ATOM      8  C   UNL     1      51.747  46.371  45.720  1.00  0.00     0.000 C 
BRANCH   8   9
ATOM      9  C   UNL     1      52.113  45.368  44.619  1.00  0.00     0.006 C 
BRANCH   9  10
ATOM     10  C   UNL     1      53.080  45.992  43.608  1.00  0.00     0.053 C 
BRANCH  10  11
ATOM     11  C   UNL     1      52.390  46.233  42.302  1.00  0.00     0.041 C 
ATOM     12  O   UNL     1      52.058  45.262  41.573  1.00  0.00    -0.550 OA
ATOM     13  O   UNL     1      52.159  47.531  41.866  1.00  0.00    -0.550 OA
ENDBRANCH  10  11
ENDBRANCH   9  10
ENDBRANCH   8   9
ENDBRANCH   1   8
TORSDOF 8
ENDMDL
MODEL 9
REMARK VINA RESULT:    -3.023     14.278     16.209
REMARK INTER + INTRA:          -4.739
REMARK INTER:                  -4.514
REMARK INTRA:                  -0.224
REMARK UNBOUND:                -0.302
REMARK SMILES O=C([O-])CCCCCCCC(=O)[O-]
REMARK SMILES IDX 7 1 6 2 5 3 4 4 2 5 1 6 3 7 8 8 9 9 10 10 11 11 12 12 13 13
REMARK H PARENT
REMARK Flexibility Score: inf
ROOT
ATOM      1  C   UNL     1      47.202  47.118  41.392  1.00  0.00     0.000 C 
ENDROOT
BRANCH   1   2
ATOM      2  C   UNL     1      47.827  47.186  42.791  1.00  0.00     0.000 C 
BRANCH   2   3
ATOM      3  C   UNL     1      49.024  46.235  42.906  1.00  0.00     0.006 C 
BRANCH   3   4
ATOM      4  C   UNL     1      49.930  46.631  44.076  1.00  0.00     0.053 C 
BRANCH   4   5
ATOM      5  C   UNL     1      51.363  46.641  43.648  1.00  0.00     0.041 C 
ATOM      6  O   UNL     1      52.253  46.170  44.403  1.00  0.00    -0.550 OA
ATOM      7  O   UNL     1      51.723  47.216  42.436  1.00  0.00    -0.550 OA
ENDBRANCH   4   5
ENDBRANCH   3   4
ENDBRANCH   2   3
ENDBRANCH   1   2
BRANCH   1   8
ATOM      8  C   UNL     1      46.096  46.059  41.333  1.00  0.00     0.000 C 
BRANCH   8   9
ATOM      9  C   UNL     1      44.713  46.712  41.228  1.00  0.00     0.006 C 
BRANCH   9  10
ATOM     10  C   UNL     1      44.821  48.239  41.271  1.00  0.00     0.053 C 
BRANCH  10  11
ATOM     11  C   UNL     1      43.655  48.827  42.002  1.00  0.00     0.041 C 
ATOM     12  O   UNL     1      43.827  49.782  42.805  1.00  0.00    -0.550 OA
ATOM     13  O   UNL     1      42.386  48.288  41.835  1.00  0.00    -0.550 OA
ENDBRANCH  10  11
ENDBRANCH   9  10
ENDBRANCH   8   9
ENDBRANCH   1   8
TORSDOF 8
ENDMDL
