MODEL 1
REMARK VINA RESULT:    -5.921      0.000      0.000
REMARK INTER + INTRA:          -9.466
REMARK INTER:                  -8.172
REMARK INTRA:                  -1.294
REMARK UNBOUND:                -1.294
REMARK SMILES CC[C@@H](CC[C@H](C)[C@@H]1CC[C@@H]2[C@@H]3CC=C4C[C@H](O)CC[C@@]4(C)[C@@H]3CC[C@@]21C)C(C)C
REMARK SMILES IDX 5 1 4 2 3 3 2 4 1 5 28 6 29 7 30 8 6 9 7 10 8 11 9 12 26 13
REMARK SMILES IDX 10 14 11 15 25 16 27 17 12 18 24 19 23 20 13 21 21 22 14 23
REMARK SMILES IDX 15 24 20 25 22 26 16 27 19 28 17 29 18 30
REMARK H PARENT 18 31
REMARK Flexibility Score: inf
ROOT
ATOM      1  C   UNL     1      21.019  -7.854  12.757  1.00  0.00     0.004 C 
ENDROOT
BRANCH   1   2
ATOM      2  C   UNL     1      19.801  -8.378  11.954  1.00  0.00     0.004 C 
BRANCH   2   3
ATOM      3  C   UNL     1      18.932  -7.258  11.296  1.00  0.00    -0.009 C 
BRANCH   3   4
ATOM      4  C   UNL     1      18.516  -7.605   9.833  1.00  0.00     0.000 C 
ATOM      5  C   UNL     1      18.632  -9.089   9.478  1.00  0.00     0.004 C 
ENDBRANCH   3   4
BRANCH   3   6
ATOM      6  C   UNL     1      19.587  -5.834  11.386  1.00  0.00    -0.014 C 
ATOM      7  C   UNL     1      19.896  -5.243   9.996  1.00  0.00     0.007 C 
ATOM      8  C   UNL     1      18.695  -4.839  12.150  1.00  0.00     0.007 C 
ENDBRANCH   3   6
ENDBRANCH   2   3
ENDBRANCH   1   2
BRANCH   1   9
ATOM      9  C   UNL     1      21.379  -8.598  14.095  1.00  0.00    -0.011 C 
ATOM     10  C   UNL     1      21.211 -10.125  14.051  1.00  0.00     0.008 C 
BRANCH   9  11
ATOM     11  C   UNL     1      20.827  -7.866  15.376  1.00  0.00    -0.002 C 
ATOM     12  C   UNL     1      19.584  -7.000  15.134  1.00  0.00     0.005 C 
ATOM     13  C   UNL     1      21.718  -6.991  16.315  1.00  0.00    -0.026 C 
ATOM     14  C   UNL     1      19.425  -6.147  16.404  1.00  0.00     0.005 C 
ATOM     15  C   UNL     1      20.636  -6.482  17.297  1.00  0.00    -0.001 C 
ATOM     16  C   UNL     1      22.423  -5.789  15.584  1.00  0.00     0.007 C 
ATOM     17  C   UNL     1      22.760  -7.849  17.056  1.00  0.00     0.012 C 
ATOM     18  C   UNL     1      21.114  -5.386  18.298  1.00  0.00     0.000 C 
ATOM     19  C   UNL     1      22.230  -4.396  16.212  1.00  0.00     0.005 C 
ATOM     20  C   UNL     1      22.206  -4.413  17.749  1.00  0.00     0.003 C 
ATOM     21  C   UNL     1      19.945  -4.663  18.978  1.00  0.00     0.031 C 
ATOM     22  C   UNL     1      22.203  -2.954  18.402  1.00  0.00    -0.008 C 
ATOM     23  C   UNL     1      20.475  -3.739  20.029  1.00  0.00    -0.027 C 
ATOM     24  C   UNL     1      21.557  -2.970  19.798  1.00  0.00    -0.065 C 
ATOM     25  C   UNL     1      23.686  -2.466  18.506  1.00  0.00     0.014 C 
ATOM     26  C   UNL     1      21.403  -1.929  17.547  1.00  0.00     0.016 C 
ATOM     27  C   UNL     1      21.896  -1.903  20.825  1.00  0.00     0.063 C 
ATOM     28  C   UNL     1      23.872  -1.234  19.396  1.00  0.00     0.033 C 
ATOM     29  C   UNL     1      23.386  -1.539  20.818  1.00  0.00     0.118 C 
BRANCH  29  30
ATOM     30  O   UNL     1      23.631  -0.449  21.674  1.00  0.00    -0.393 OA
ATOM     31  H   UNL     1      24.614  -0.351  21.763  1.00  0.00     0.210 HD
ENDBRANCH  29  30
ENDBRANCH   9  11
ENDBRANCH   1   9
TORSDOF 7
ENDMDL
MODEL 2
REMARK VINA RESULT:    -5.623      2.967      5.184
REMARK INTER + INTRA:          -9.053
REMARK INTER:                  -7.566
REMARK INTRA:                  -1.488
REMARK UNBOUND:                -1.294
REMARK SMILES CC[C@@H](CC[C@H](C)[C@@H]1CC[C@@H]2[C@@H]3CC=C4C[C@H](O)CC[C@@]4(C)[C@@H]3CC[C@@]21C)C(C)C
REMARK SMILES IDX 5 1 4 2 3 3 2 4 1 5 28 6 29 7 30 8 6 9 7 10 8 11 9 12 26 13
REMARK SMILES IDX 10 14 11 15 25 16 27 17 12 18 24 19 23 20 13 21 21 22 14 23
REMARK SMILES IDX 15 24 20 25 22 26 16 27 19 28 17 29 18 30
REMARK H PARENT 18 31
REMARK Flexibility Score: inf
ROOT
ATOM      1  C   UNL     1      19.315  -6.463  17.526  1.00  0.00     0.004 C 
ENDROOT
BRANCH   1   2
ATOM      2  C   UNL     1      20.222  -7.350  16.636  1.00  0.00     0.004 C 
BRANCH   2   3
ATOM      3  C   UNL     1      21.696  -7.477  17.140  1.00  0.00    -0.009 C 
BRANCH   3   4
ATOM      4  C   UNL     1      22.739  -7.280  15.998  1.00  0.00     0.000 C 
ATOM      5  C   UNL     1      22.184  -6.599  14.745  1.00  0.00     0.004 C 
ENDBRANCH   3   4
BRANCH   3   6
ATOM      6  C   UNL     1      21.963  -8.801  17.941  1.00  0.00    -0.014 C 
ATOM      7  C   UNL     1      23.439  -9.241  17.869  1.00  0.00     0.007 C 
ATOM      8  C   UNL     1      21.566  -8.666  19.422  1.00  0.00     0.007 C 
ENDBRANCH   3   6
ENDBRANCH   2   3
ENDBRANCH   1   2
BRANCH   1   9
ATOM      9  C   UNL     1      18.859  -5.076  16.943  1.00  0.00    -0.011 C 
ATOM     10  C   UNL     1      18.936  -4.962  15.413  1.00  0.00     0.008 C 
BRANCH   9  11
ATOM     11  C   UNL     1      19.405  -3.850  17.768  1.00  0.00    -0.002 C 
ATOM     12  C   UNL     1      19.115  -2.478  17.145  1.00  0.00     0.005 C 
ATOM     13  C   UNL     1      20.884  -3.736  18.257  1.00  0.00    -0.026 C 
ATOM     14  C   UNL     1      19.997  -1.483  17.917  1.00  0.00     0.005 C 
ATOM     15  C   UNL     1      20.837  -2.327  18.895  1.00  0.00    -0.001 C 
ATOM     16  C   UNL     1      21.944  -3.790  17.095  1.00  0.00     0.007 C 
ATOM     17  C   UNL     1      21.206  -4.801  19.321  1.00  0.00     0.012 C 
ATOM     18  C   UNL     1      22.219  -1.753  19.335  1.00  0.00     0.000 C 
ATOM     19  C   UNL     1      22.975  -2.646  17.054  1.00  0.00     0.005 C 
ATOM     20  C   UNL     1      23.430  -2.179  18.445  1.00  0.00     0.003 C 
ATOM     21  C   UNL     1      22.167  -0.245  19.607  1.00  0.00     0.031 C 
ATOM     22  C   UNL     1      24.639  -1.133  18.403  1.00  0.00    -0.008 C 
ATOM     23  C   UNL     1      23.480   0.205  20.168  1.00  0.00    -0.027 C 
ATOM     24  C   UNL     1      24.644  -0.236  19.653  1.00  0.00    -0.065 C 
ATOM     25  C   UNL     1      25.976  -1.942  18.321  1.00  0.00     0.014 C 
ATOM     26  C   UNL     1      24.555  -0.188  17.170  1.00  0.00     0.016 C 
ATOM     27  C   UNL     1      25.923   0.434  20.124  1.00  0.00     0.063 C 
ATOM     28  C   UNL     1      27.227  -1.101  18.595  1.00  0.00     0.033 C 
ATOM     29  C   UNL     1      27.145  -0.484  19.996  1.00  0.00     0.118 C 
BRANCH  29  30
ATOM     30  O   UNL     1      28.324   0.218  20.302  1.00  0.00    -0.393 OA
ATOM     31  H   UNL     1      29.014  -0.447  20.562  1.00  0.00     0.210 HD
ENDBRANCH  29  30
ENDBRANCH   9  11
ENDBRANCH   1   9
TORSDOF 7
ENDMDL
MODEL 3
REMARK VINA RESULT:    -5.495      3.213      8.453
REMARK INTER + INTRA:          -8.878
REMARK INTER:                  -7.045
REMARK INTRA:                  -1.833
REMARK UNBOUND:                -1.294
REMARK SMILES CC[C@@H](CC[C@H](C)[C@@H]1CC[C@@H]2[C@@H]3CC=C4C[C@H](O)CC[C@@]4(C)[C@@H]3CC[C@@]21C)C(C)C
REMARK SMILES IDX 5 1 4 2 3 3 2 4 1 5 28 6 29 7 30 8 6 9 7 10 8 11 9 12 26 13
REMARK SMILES IDX 10 14 11 15 25 16 27 17 12 18 24 19 23 20 13 21 21 22 14 23
REMARK SMILES IDX 15 24 20 25 22 26 16 27 19 28 17 29 18 30
REMARK H PARENT 18 31
REMARK Flexibility Score: inf
ROOT
ATOM      1  C   UNL     1      23.333  -2.028  20.384  1.00  0.00     0.004 C 
ENDROOT
BRANCH   1   2
ATOM      2  C   UNL     1      24.745  -2.221  19.774  1.00  0.00     0.004 C 
BRANCH   2   3
ATOM      3  C   UNL     1      25.041  -1.320  18.531  1.00  0.00    -0.009 C 
BRANCH   3   4
ATOM      4  C   UNL     1      25.239  -2.149  17.225  1.00  0.00     0.000 C 
ATOM      5  C   UNL     1      24.849  -1.412  15.943  1.00  0.00     0.004 C 
ENDBRANCH   3   4
BRANCH   3   6
ATOM      6  C   UNL     1      26.227  -0.318  18.762  1.00  0.00    -0.014 C 
ATOM      7  C   UNL     1      25.868   0.793  19.768  1.00  0.00     0.007 C 
ATOM      8  C   UNL     1      27.495  -1.035  19.261  1.00  0.00     0.007 C 
ENDBRANCH   3   6
ENDBRANCH   2   3
ENDBRANCH   1   2
BRANCH   1   9
ATOM      9  C   UNL     1      22.229  -1.388  19.465  1.00  0.00    -0.011 C 
ATOM     10  C   UNL     1      21.703  -0.025  19.940  1.00  0.00     0.008 C 
BRANCH   9  11
ATOM     11  C   UNL     1      21.149  -2.429  18.983  1.00  0.00    -0.002 C 
ATOM     12  C   UNL     1      20.814  -3.525  20.003  1.00  0.00     0.005 C 
ATOM     13  C   UNL     1      21.244  -3.197  17.625  1.00  0.00    -0.026 C 
ATOM     14  C   UNL     1      20.016  -4.582  19.222  1.00  0.00     0.005 C 
ATOM     15  C   UNL     1      20.000  -4.107  17.755  1.00  0.00    -0.001 C 
ATOM     16  C   UNL     1      22.554  -4.055  17.469  1.00  0.00     0.007 C 
ATOM     17  C   UNL     1      21.090  -2.239  16.429  1.00  0.00     0.012 C 
ATOM     18  C   UNL     1      19.858  -5.197  16.649  1.00  0.00     0.000 C 
ATOM     19  C   UNL     1      22.363  -5.534  17.087  1.00  0.00     0.005 C 
ATOM     20  C   UNL     1      21.205  -5.770  16.104  1.00  0.00     0.003 C 
ATOM     21  C   UNL     1      18.845  -6.285  17.024  1.00  0.00     0.031 C 
ATOM     22  C   UNL     1      21.130  -7.270  15.556  1.00  0.00    -0.008 C 
ATOM     23  C   UNL     1      18.650  -7.206  15.861  1.00  0.00    -0.027 C 
ATOM     24  C   UNL     1      19.698  -7.638  15.132  1.00  0.00    -0.065 C 
ATOM     25  C   UNL     1      22.096  -7.388  14.330  1.00  0.00     0.014 C 
ATOM     26  C   UNL     1      21.564  -8.310  16.629  1.00  0.00     0.016 C 
ATOM     27  C   UNL     1      19.445  -8.739  14.117  1.00  0.00     0.063 C 
ATOM     28  C   UNL     1      21.897  -8.663  13.504  1.00  0.00     0.033 C 
ATOM     29  C   UNL     1      20.462  -8.719  12.968  1.00  0.00     0.118 C 
BRANCH  29  30
ATOM     30  O   UNL     1      20.284  -9.837  12.133  1.00  0.00    -0.393 OA
ATOM     31  H   UNL     1      20.320  -9.520  11.193  1.00  0.00     0.210 HD
ENDBRANCH  29  30
ENDBRANCH   9  11
ENDBRANCH   1   9
TORSDOF 7
ENDMDL
MODEL 4
REMARK VINA RESULT:    -5.347      2.584      4.775
REMARK INTER + INTRA:          -8.673
REMARK INTER:                  -7.214
REMARK INTRA:                  -1.460
REMARK UNBOUND:                -1.294
REMARK SMILES CC[C@@H](CC[C@H](C)[C@@H]1CC[C@@H]2[C@@H]3CC=C4C[C@H](O)CC[C@@]4(C)[C@@H]3CC[C@@]21C)C(C)C
REMARK SMILES IDX 5 1 4 2 3 3 2 4 1 5 28 6 29 7 30 8 6 9 7 10 8 11 9 12 26 13
REMARK SMILES IDX 10 14 11 15 25 16 27 17 12 18 24 19 23 20 13 21 21 22 14 23
REMARK SMILES IDX 15 24 20 25 22 26 16 27 19 28 17 29 18 30
REMARK H PARENT 18 31
REMARK Flexibility Score: inf
ROOT
ATOM      1  C   UNL     1      19.291  -6.473  17.529  1.00  0.00     0.004 C 
ENDROOT
BRANCH   1   2
ATOM      2  C   UNL     1      19.357  -7.666  16.542  1.00  0.00     0.004 C 
BRANCH   2   3
ATOM      3  C   UNL     1      20.805  -8.096  16.144  1.00  0.00    -0.009 C 
BRANCH   3   4
ATOM      4  C   UNL     1      21.878  -7.600  17.163  1.00  0.00     0.000 C 
ATOM      5  C   UNL     1      22.971  -8.624  17.478  1.00  0.00     0.004 C 
ENDBRANCH   3   4
BRANCH   3   6
ATOM      6  C   UNL     1      21.185  -7.702  14.673  1.00  0.00    -0.014 C 
ATOM      7  C   UNL     1      22.133  -6.488  14.617  1.00  0.00     0.007 C 
ATOM      8  C   UNL     1      21.845  -8.871  13.918  1.00  0.00     0.007 C 
ENDBRANCH   3   6
ENDBRANCH   2   3
ENDBRANCH   1   2
BRANCH   1   9
ATOM      9  C   UNL     1      18.792  -5.092  16.966  1.00  0.00    -0.011 C 
ATOM     10  C   UNL     1      18.813  -4.974  15.434  1.00  0.00     0.008 C 
BRANCH   9  11
ATOM     11  C   UNL     1      19.347  -3.859  17.774  1.00  0.00    -0.002 C 
ATOM     12  C   UNL     1      19.068  -2.493  17.133  1.00  0.00     0.005 C 
ATOM     13  C   UNL     1      20.828  -3.749  18.261  1.00  0.00    -0.026 C 
ATOM     14  C   UNL     1      19.957  -1.494  17.891  1.00  0.00     0.005 C 
ATOM     15  C   UNL     1      20.792  -2.331  18.880  1.00  0.00    -0.001 C 
ATOM     16  C   UNL     1      21.887  -3.826  17.100  1.00  0.00     0.007 C 
ATOM     17  C   UNL     1      21.142  -4.802  19.340  1.00  0.00     0.012 C 
ATOM     18  C   UNL     1      22.177  -1.761  19.312  1.00  0.00     0.000 C 
ATOM     19  C   UNL     1      22.927  -2.692  17.043  1.00  0.00     0.005 C 
ATOM     20  C   UNL     1      23.385  -2.208  18.428  1.00  0.00     0.003 C 
ATOM     21  C   UNL     1      22.137  -0.250  19.564  1.00  0.00     0.031 C 
ATOM     22  C   UNL     1      24.602  -1.173  18.371  1.00  0.00    -0.008 C 
ATOM     23  C   UNL     1      23.453   0.199  20.118  1.00  0.00    -0.027 C 
ATOM     24  C   UNL     1      24.614  -0.259  19.609  1.00  0.00    -0.065 C 
ATOM     25  C   UNL     1      25.933  -1.992  18.301  1.00  0.00     0.014 C 
ATOM     26  C   UNL     1      24.525  -0.244  17.126  1.00  0.00     0.016 C 
ATOM     27  C   UNL     1      25.898   0.408  20.071  1.00  0.00     0.063 C 
ATOM     28  C   UNL     1      27.190  -1.157  18.562  1.00  0.00     0.033 C 
ATOM     29  C   UNL     1      27.113  -0.521  19.956  1.00  0.00     0.118 C 
BRANCH  29  30
ATOM     30  O   UNL     1      28.298   0.177  20.252  1.00  0.00    -0.393 OA
ATOM     31  H   UNL     1      28.974  -0.072  19.570  1.00  0.00     0.210 HD
ENDBRANCH  29  30
ENDBRANCH   9  11
ENDBRANCH   1   9
TORSDOF 7
ENDMDL
MODEL 5
REMARK VINA RESULT:    -5.330      1.575      2.455
REMARK INTER + INTRA:          -8.650
REMARK INTER:                  -6.898
REMARK INTRA:                  -1.751
REMARK UNBOUND:                -1.294
REMARK SMILES CC[C@@H](CC[C@H](C)[C@@H]1CC[C@@H]2[C@@H]3CC=C4C[C@H](O)CC[C@@]4(C)[C@@H]3CC[C@@]21C)C(C)C
REMARK SMILES IDX 5 1 4 2 3 3 2 4 1 5 28 6 29 7 30 8 6 9 7 10 8 11 9 12 26 13
REMARK SMILES IDX 10 14 11 15 25 16 27 17 12 18 24 19 23 20 13 21 21 22 14 23
REMARK SMILES IDX 15 24 20 25 22 26 16 27 19 28 17 29 18 30
REMARK H PARENT 18 31
REMARK Flexibility Score: inf
ROOT
ATOM      1  C   UNL     1      18.528  -8.057  14.753  1.00  0.00     0.004 C 
ENDROOT
BRANCH   1   2
ATOM      2  C   UNL     1      19.130  -8.575  13.422  1.00  0.00     0.004 C 
BRANCH   2   3
ATOM      3  C   UNL     1      19.462  -7.454  12.384  1.00  0.00    -0.009 C 
BRANCH   3   4
ATOM      4  C   UNL     1      20.823  -6.751  12.677  1.00  0.00     0.000 C 
ATOM      5  C   UNL     1      21.868  -7.647  13.344  1.00  0.00     0.004 C 
ENDBRANCH   3   4
BRANCH   3   6
ATOM      6  C   UNL     1      18.302  -6.412  12.207  1.00  0.00    -0.014 C 
ATOM      7  C   UNL     1      18.823  -4.964  12.118  1.00  0.00     0.007 C 
ATOM      8  C   UNL     1      17.455  -6.702  10.955  1.00  0.00     0.007 C 
ENDBRANCH   3   6
ENDBRANCH   2   3
ENDBRANCH   1   2
BRANCH   1   9
ATOM      9  C   UNL     1      19.482  -7.983  16.000  1.00  0.00    -0.011 C 
ATOM     10  C   UNL     1      19.437  -9.212  16.921  1.00  0.00     0.008 C 
BRANCH   9  11
ATOM     11  C   UNL     1      19.469  -6.575  16.705  1.00  0.00    -0.002 C 
ATOM     12  C   UNL     1      18.941  -5.427  15.835  1.00  0.00     0.005 C 
ATOM     13  C   UNL     1      20.716  -5.961  17.419  1.00  0.00    -0.026 C 
ATOM     14  C   UNL     1      19.319  -4.138  16.583  1.00  0.00     0.005 C 
ATOM     15  C   UNL     1      20.137  -4.581  17.811  1.00  0.00    -0.001 C 
ATOM     16  C   UNL     1      21.970  -5.797  16.481  1.00  0.00     0.007 C 
ATOM     17  C   UNL     1      21.095  -6.766  18.676  1.00  0.00     0.012 C 
ATOM     18  C   UNL     1      21.172  -3.568  18.389  1.00  0.00     0.000 C 
ATOM     19  C   UNL     1      22.617  -4.400  16.440  1.00  0.00     0.005 C 
ATOM     20  C   UNL     1      22.614  -3.682  17.799  1.00  0.00     0.003 C 
ATOM     21  C   UNL     1      20.638  -2.131  18.409  1.00  0.00     0.031 C 
ATOM     22  C   UNL     1      23.457  -2.323  17.804  1.00  0.00    -0.008 C 
ATOM     23  C   UNL     1      21.618  -1.245  19.110  1.00  0.00    -0.027 C 
ATOM     24  C   UNL     1      22.942  -1.352  18.880  1.00  0.00    -0.065 C 
ATOM     25  C   UNL     1      24.954  -2.682  18.082  1.00  0.00     0.014 C 
ATOM     26  C   UNL     1      23.371  -1.575  16.443  1.00  0.00     0.016 C 
ATOM     27  C   UNL     1      23.847  -0.277  19.455  1.00  0.00     0.063 C 
ATOM     28  C   UNL     1      25.827  -1.473  18.433  1.00  0.00     0.033 C 
ATOM     29  C   UNL     1      25.278  -0.779  19.686  1.00  0.00     0.118 C 
BRANCH  29  30
ATOM     30  O   UNL     1      26.116   0.280  20.078  1.00  0.00    -0.393 OA
ATOM     31  H   UNL     1      26.478   0.699  19.254  1.00  0.00     0.210 HD
ENDBRANCH  29  30
ENDBRANCH   9  11
ENDBRANCH   1   9
TORSDOF 7
ENDMDL
MODEL 6
REMARK VINA RESULT:    -5.301      4.587      7.500
REMARK INTER + INTRA:          -8.609
REMARK INTER:                  -7.874
REMARK INTRA:                  -0.735
REMARK UNBOUND:                -1.294
REMARK SMILES CC[C@@H](CC[C@H](C)[C@@H]1CC[C@@H]2[C@@H]3CC=C4C[C@H](O)CC[C@@]4(C)[C@@H]3CC[C@@]21C)C(C)C
REMARK SMILES IDX 5 1 4 2 3 3 2 4 1 5 28 6 29 7 30 8 6 9 7 10 8 11 9 12 26 13
REMARK SMILES IDX 10 14 11 15 25 16 27 17 12 18 24 19 23 20 13 21 21 22 14 23
REMARK SMILES IDX 15 24 20 25 22 26 16 27 19 28 17 29 18 30
REMARK H PARENT 18 31
REMARK Flexibility Score: inf
ROOT
ATOM      1  C   UNL     1      25.414  -0.531  15.630  1.00  0.00     0.004 C 
ENDROOT
BRANCH   1   2
ATOM      2  C   UNL     1      24.871   0.613  14.737  1.00  0.00     0.004 C 
BRANCH   2   3
ATOM      3  C   UNL     1      25.428   0.613  13.277  1.00  0.00    -0.009 C 
BRANCH   3   4
ATOM      4  C   UNL     1      26.913   0.140  13.203  1.00  0.00     0.000 C 
ATOM      5  C   UNL     1      27.925   1.267  12.988  1.00  0.00     0.004 C 
ENDBRANCH   3   4
BRANCH   3   6
ATOM      6  C   UNL     1      25.223   1.982  12.537  1.00  0.00    -0.014 C 
ATOM      7  C   UNL     1      24.417   1.828  11.232  1.00  0.00     0.007 C 
ATOM      8  C   UNL     1      24.511   3.016  13.429  1.00  0.00     0.007 C 
ENDBRANCH   3   6
ENDBRANCH   2   3
ENDBRANCH   1   2
BRANCH   1   9
ATOM      9  C   UNL     1      24.770  -0.708  17.053  1.00  0.00    -0.011 C 
ATOM     10  C   UNL     1      25.616  -0.171  18.218  1.00  0.00     0.008 C 
BRANCH   9  11
ATOM     11  C   UNL     1      24.108  -2.123  17.259  1.00  0.00    -0.002 C 
ATOM     12  C   UNL     1      23.567  -2.770  15.977  1.00  0.00     0.005 C 
ATOM     13  C   UNL     1      22.996  -2.404  18.320  1.00  0.00    -0.026 C 
ATOM     14  C   UNL     1      22.698  -3.949  16.448  1.00  0.00     0.005 C 
ATOM     15  C   UNL     1      22.690  -3.884  17.988  1.00  0.00    -0.001 C 
ATOM     16  C   UNL     1      21.710  -1.513  18.145  1.00  0.00     0.007 C 
ATOM     17  C   UNL     1      23.543  -2.273  19.753  1.00  0.00     0.012 C 
ATOM     18  C   UNL     1      21.455  -4.487  18.725  1.00  0.00     0.000 C 
ATOM     19  C   UNL     1      20.364  -2.257  18.079  1.00  0.00     0.005 C 
ATOM     20  C   UNL     1      20.292  -3.482  19.005  1.00  0.00     0.003 C 
ATOM     21  C   UNL     1      20.980  -5.802  18.096  1.00  0.00     0.031 C 
ATOM     22  C   UNL     1      18.836  -4.136  19.085  1.00  0.00    -0.008 C 
ATOM     23  C   UNL     1      19.897  -6.396  18.940  1.00  0.00    -0.027 C 
ATOM     24  C   UNL     1      18.915  -5.628  19.453  1.00  0.00    -0.065 C 
ATOM     25  C   UNL     1      18.015  -3.363  20.169  1.00  0.00     0.014 C 
ATOM     26  C   UNL     1      18.076  -4.046  17.730  1.00  0.00     0.016 C 
ATOM     27  C   UNL     1      17.738  -6.332  20.106  1.00  0.00     0.063 C 
ATOM     28  C   UNL     1      16.720  -4.067  20.587  1.00  0.00     0.033 C 
ATOM     29  C   UNL     1      17.042  -5.455  21.154  1.00  0.00     0.118 C 
BRANCH  29  30
ATOM     30  O   UNL     1      15.875  -6.083  21.627  1.00  0.00    -0.393 OA
ATOM     31  H   UNL     1      16.152  -6.882  22.147  1.00  0.00     0.210 HD
ENDBRANCH  29  30
ENDBRANCH   9  11
ENDBRANCH   1   9
TORSDOF 7
ENDMDL
MODEL 7
REMARK VINA RESULT:    -5.210      3.182      8.481
REMARK INTER + INTRA:          -8.484
REMARK INTER:                  -6.911
REMARK INTRA:                  -1.573
REMARK UNBOUND:                -1.294
REMARK SMILES CC[C@@H](CC[C@H](C)[C@@H]1CC[C@@H]2[C@@H]3CC=C4C[C@H](O)CC[C@@]4(C)[C@@H]3CC[C@@]21C)C(C)C
REMARK SMILES IDX 5 1 4 2 3 3 2 4 1 5 28 6 29 7 30 8 6 9 7 10 8 11 9 12 26 13
REMARK SMILES IDX 10 14 11 15 25 16 27 17 12 18 24 19 23 20 13 21 21 22 14 23
REMARK SMILES IDX 15 24 20 25 22 26 16 27 19 28 17 29 18 30
REMARK H PARENT 18 31
REMARK Flexibility Score: inf
ROOT
ATOM      1  C   UNL     1      20.751  -3.346  19.902  1.00  0.00     0.004 C 
ENDROOT
BRANCH   1   2
ATOM      2  C   UNL     1      21.423  -2.335  18.938  1.00  0.00     0.004 C 
BRANCH   2   3
ATOM      3  C   UNL     1      22.949  -2.581  18.705  1.00  0.00    -0.009 C 
BRANCH   3   4
ATOM      4  C   UNL     1      23.846  -1.690  19.619  1.00  0.00     0.000 C 
ATOM      5  C   UNL     1      23.338  -0.259  19.801  1.00  0.00     0.004 C 
ENDBRANCH   3   4
BRANCH   3   6
ATOM      6  C   UNL     1      23.370  -2.466  17.197  1.00  0.00    -0.014 C 
ATOM      7  C   UNL     1      24.887  -2.249  17.027  1.00  0.00     0.007 C 
ATOM      8  C   UNL     1      22.963  -3.712  16.390  1.00  0.00     0.007 C 
ENDBRANCH   3   6
ENDBRANCH   2   3
ENDBRANCH   1   2
BRANCH   1   9
ATOM      9  C   UNL     1      19.410  -4.016  19.429  1.00  0.00    -0.011 C 
ATOM     10  C   UNL     1      18.258  -3.942  20.443  1.00  0.00     0.008 C 
BRANCH   9  11
ATOM     11  C   UNL     1      19.632  -5.404  18.717  1.00  0.00    -0.002 C 
ATOM     12  C   UNL     1      21.098  -5.844  18.611  1.00  0.00     0.005 C 
ATOM     13  C   UNL     1      19.032  -5.756  17.318  1.00  0.00    -0.026 C 
ATOM     14  C   UNL     1      21.103  -7.020  17.621  1.00  0.00     0.005 C 
ATOM     15  C   UNL     1      19.653  -7.158  17.116  1.00  0.00    -0.001 C 
ATOM     16  C   UNL     1      19.477  -4.775  16.170  1.00  0.00     0.007 C 
ATOM     17  C   UNL     1      17.496  -5.848  17.374  1.00  0.00     0.012 C 
ATOM     18  C   UNL     1      19.443  -7.778  15.700  1.00  0.00     0.000 C 
ATOM     19  C   UNL     1      20.075  -5.423  14.908  1.00  0.00     0.005 C 
ATOM     20  C   UNL     1      19.406  -6.752  14.524  1.00  0.00     0.003 C 
ATOM     21  C   UNL     1      20.373  -8.969  15.437  1.00  0.00     0.031 C 
ATOM     22  C   UNL     1      19.889  -7.324  13.111  1.00  0.00    -0.008 C 
ATOM     23  C   UNL     1      20.012  -9.603  14.131  1.00  0.00    -0.027 C 
ATOM     24  C   UNL     1      19.733  -8.853  13.046  1.00  0.00    -0.065 C 
ATOM     25  C   UNL     1      19.024  -6.652  11.994  1.00  0.00     0.014 C 
ATOM     26  C   UNL     1      21.388  -7.011  12.833  1.00  0.00     0.016 C 
ATOM     27  C   UNL     1      19.598  -9.566  11.712  1.00  0.00     0.063 C 
ATOM     28  C   UNL     1      19.146  -7.328  10.625  1.00  0.00     0.033 C 
ATOM     29  C   UNL     1      18.711  -8.795  10.726  1.00  0.00     0.118 C 
BRANCH  29  30
ATOM     30  O   UNL     1      18.730  -9.409   9.461  1.00  0.00    -0.393 OA
ATOM     31  H   UNL     1      17.804  -9.701   9.252  1.00  0.00     0.210 HD
ENDBRANCH  29  30
ENDBRANCH   9  11
ENDBRANCH   1   9
TORSDOF 7
ENDMDL
MODEL 8
REMARK VINA RESULT:    -5.190      1.578      2.557
REMARK INTER + INTRA:          -8.457
REMARK INTER:                  -6.230
REMARK INTRA:                  -2.226
REMARK UNBOUND:                -1.294
REMARK SMILES CC[C@@H](CC[C@H](C)[C@@H]1CC[C@@H]2[C@@H]3CC=C4C[C@H](O)CC[C@@]4(C)[C@@H]3CC[C@@]21C)C(C)C
REMARK SMILES IDX 5 1 4 2 3 3 2 4 1 5 28 6 29 7 30 8 6 9 7 10 8 11 9 12 26 13
REMARK SMILES IDX 10 14 11 15 25 16 27 17 12 18 24 19 23 20 13 21 21 22 14 23
REMARK SMILES IDX 15 24 20 25 22 26 16 27 19 28 17 29 18 30
REMARK H PARENT 18 31
REMARK Flexibility Score: inf
ROOT
ATOM      1  C   UNL     1      17.525  -8.058  14.757  1.00  0.00     0.004 C 
ENDROOT
BRANCH   1   2
ATOM      2  C   UNL     1      17.683  -7.273  13.430  1.00  0.00     0.004 C 
BRANCH   2   3
ATOM      3  C   UNL     1      18.957  -6.371  13.361  1.00  0.00    -0.009 C 
BRANCH   3   4
ATOM      4  C   UNL     1      18.628  -4.898  12.965  1.00  0.00     0.000 C 
ATOM      5  C   UNL     1      17.676  -4.183  13.925  1.00  0.00     0.004 C 
ENDBRANCH   3   4
BRANCH   3   6
ATOM      6  C   UNL     1      20.091  -6.970  12.455  1.00  0.00    -0.014 C 
ATOM      7  C   UNL     1      21.439  -7.073  13.195  1.00  0.00     0.007 C 
ATOM      8  C   UNL     1      19.720  -8.366  11.921  1.00  0.00     0.007 C 
ENDBRANCH   3   6
ENDBRANCH   2   3
ENDBRANCH   1   2
BRANCH   1   9
ATOM      9  C   UNL     1      18.802  -8.216  15.662  1.00  0.00    -0.011 C 
ATOM     10  C   UNL     1      19.310  -9.657  15.816  1.00  0.00     0.008 C 
BRANCH   9  11
ATOM     11  C   UNL     1      18.738  -7.348  16.975  1.00  0.00    -0.002 C 
ATOM     12  C   UNL     1      17.590  -6.331  17.017  1.00  0.00     0.005 C 
ATOM     13  C   UNL     1      19.961  -6.558  17.541  1.00  0.00    -0.026 C 
ATOM     14  C   UNL     1      17.910  -5.399  18.197  1.00  0.00     0.005 C 
ATOM     15  C   UNL     1      19.281  -5.852  18.738  1.00  0.00    -0.001 C 
ATOM     16  C   UNL     1      20.559  -5.506  16.535  1.00  0.00     0.007 C 
ATOM     17  C   UNL     1      21.065  -7.512  18.032  1.00  0.00     0.012 C 
ATOM     18  C   UNL     1      20.156  -4.782  19.461  1.00  0.00     0.000 C 
ATOM     19  C   UNL     1      20.724  -4.069  17.064  1.00  0.00     0.005 C 
ATOM     20  C   UNL     1      21.147  -4.001  18.539  1.00  0.00     0.003 C 
ATOM     21  C   UNL     1      19.331  -3.869  20.374  1.00  0.00     0.031 C 
ATOM     22  C   UNL     1      21.508  -2.524  19.032  1.00  0.00    -0.008 C 
ATOM     23  C   UNL     1      20.249  -2.974  21.145  1.00  0.00    -0.027 C 
ATOM     24  C   UNL     1      21.300  -2.376  20.550  1.00  0.00    -0.065 C 
ATOM     25  C   UNL     1      23.003  -2.243  18.669  1.00  0.00     0.014 C 
ATOM     26  C   UNL     1      20.620  -1.444  18.349  1.00  0.00     0.016 C 
ATOM     27  C   UNL     1      22.048  -1.315  21.338  1.00  0.00     0.063 C 
ATOM     28  C   UNL     1      23.586  -1.003  19.355  1.00  0.00     0.033 C 
ATOM     29  C   UNL     1      23.503  -1.162  20.878  1.00  0.00     0.118 C 
BRANCH  29  30
ATOM     30  O   UNL     1      24.114  -0.074  21.527  1.00  0.00    -0.393 OA
ATOM     31  H   UNL     1      25.037   0.009  21.173  1.00  0.00     0.210 HD
ENDBRANCH  29  30
ENDBRANCH   9  11
ENDBRANCH   1   9
TORSDOF 7
ENDMDL
MODEL 9
REMARK VINA RESULT:    -5.093      1.627      3.409
REMARK INTER + INTRA:          -8.323
REMARK INTER:                  -6.792
REMARK INTRA:                  -1.530
REMARK UNBOUND:                -1.294
REMARK SMILES CC[C@@H](CC[C@H](C)[C@@H]1CC[C@@H]2[C@@H]3CC=C4C[C@H](O)CC[C@@]4(C)[C@@H]3CC[C@@]21C)C(C)C
REMARK SMILES IDX 5 1 4 2 3 3 2 4 1 5 28 6 29 7 30 8 6 9 7 10 8 11 9 12 26 13
REMARK SMILES IDX 10 14 11 15 25 16 27 17 12 18 24 19 23 20 13 21 21 22 14 23
REMARK SMILES IDX 15 24 20 25 22 26 16 27 19 28 17 29 18 30
REMARK H PARENT 18 31
REMARK Flexibility Score: inf
ROOT
ATOM      1  C   UNL     1      19.102  -6.306  14.748  1.00  0.00     0.004 C 
ENDROOT
BRANCH   1   2
ATOM      2  C   UNL     1      20.410  -6.113  13.940  1.00  0.00     0.004 C 
BRANCH   2   3
ATOM      3  C   UNL     1      20.812  -7.340  13.059  1.00  0.00    -0.009 C 
BRANCH   3   4
ATOM      4  C   UNL     1      19.575  -8.119  12.517  1.00  0.00     0.000 C 
ATOM      5  C   UNL     1      19.087  -7.655  11.143  1.00  0.00     0.004 C 
ENDBRANCH   3   4
BRANCH   3   6
ATOM      6  C   UNL     1      21.832  -8.301  13.768  1.00  0.00    -0.014 C 
ATOM      7  C   UNL     1      22.542  -7.628  14.958  1.00  0.00     0.007 C 
ATOM      8  C   UNL     1      21.152  -9.588  14.271  1.00  0.00     0.007 C 
ENDBRANCH   3   6
ENDBRANCH   2   3
ENDBRANCH   1   2
BRANCH   1   9
ATOM      9  C   UNL     1      19.235  -6.525  16.300  1.00  0.00    -0.011 C 
ATOM     10  C   UNL     1      18.228  -7.517  16.901  1.00  0.00     0.008 C 
BRANCH   9  11
ATOM     11  C   UNL     1      19.461  -5.183  17.095  1.00  0.00    -0.002 C 
ATOM     12  C   UNL     1      19.054  -3.912  16.338  1.00  0.00     0.005 C 
ATOM     13  C   UNL     1      20.820  -4.802  17.765  1.00  0.00    -0.026 C 
ATOM     14  C   UNL     1      19.652  -2.746  17.142  1.00  0.00     0.005 C 
ATOM     15  C   UNL     1      20.465  -3.388  18.284  1.00  0.00    -0.001 C 
ATOM     16  C   UNL     1      22.030  -4.744  16.761  1.00  0.00     0.007 C 
ATOM     17  C   UNL     1      21.148  -5.742  18.940  1.00  0.00     0.012 C 
ATOM     18  C   UNL     1      21.664  -2.573  18.858  1.00  0.00     0.000 C 
ATOM     19  C   UNL     1      22.867  -3.451  16.771  1.00  0.00     0.005 C 
ATOM     20  C   UNL     1      23.041  -2.842  18.171  1.00  0.00     0.003 C 
ATOM     21  C   UNL     1      21.342  -1.082  19.006  1.00  0.00     0.031 C 
ATOM     22  C   UNL     1      24.067  -1.617  18.210  1.00  0.00    -0.008 C 
ATOM     23  C   UNL     1      22.475  -0.393  19.700  1.00  0.00    -0.027 C 
ATOM     24  C   UNL     1      23.755  -0.665  19.378  1.00  0.00    -0.065 C 
ATOM     25  C   UNL     1      25.511  -2.198  18.367  1.00  0.00     0.014 C 
ATOM     26  C   UNL     1      24.015  -0.765  16.909  1.00  0.00     0.016 C 
ATOM     27  C   UNL     1      24.834   0.229  19.963  1.00  0.00     0.063 C 
ATOM     28  C   UNL     1      26.565  -1.151  18.739  1.00  0.00     0.033 C 
ATOM     29  C   UNL     1      26.189  -0.482  20.067  1.00  0.00     0.118 C 
BRANCH  29  30
ATOM     30  O   UNL     1      27.190   0.419  20.473  1.00  0.00    -0.393 OA
ATOM     31  H   UNL     1      27.985  -0.111  20.739  1.00  0.00     0.210 HD
ENDBRANCH  29  30
ENDBRANCH   9  11
ENDBRANCH   1   9
TORSDOF 7
ENDMDL
