MODEL 1
REMARK VINA RESULT:    -4.568      0.000      0.000
REMARK INTER + INTRA:          -7.063
REMARK INTER:                  -6.972
REMARK INTRA:                  -0.091
REMARK UNBOUND:                -0.091
REMARK SMILES CC1=CCC[C@H](C)C(=O)C[C@@H](C(C)C)C(=O)C1
REMARK SMILES IDX 8 1 9 2 6 3 7 4 5 5 4 6 3 7 2 8 1 9 10 11 11 12 15 13 16 14
REMARK SMILES IDX 17 15 12 17 13 18 14 19
REMARK H PARENT
REMARK Flexibility Score: 70.00
ROOT
ATOM      1  C   UNL     1     255.230 260.608 247.481  1.00  0.00     0.136 C 
ATOM      2  O   UNL     1     254.145 261.126 247.705  1.00  0.00    -0.299 OA
ENDROOT
BRANCH   1   3
ATOM      3  C   UNL     1     255.687 260.431 246.044  1.00  0.00     0.053 C 
ATOM      4  C   UNL     1     254.474 260.287 245.115  1.00  0.00     0.016 C 
BRANCH   3   5
ATOM      5  C   UNL     1     256.577 261.619 245.610  1.00  0.00     0.015 C 
BRANCH   5   6
ATOM      6  C   UNL     1     258.073 261.250 245.651  1.00  0.00     0.028 C 
BRANCH   6   7
ATOM      7  C   UNL     1     258.919 262.255 246.396  1.00  0.00    -0.028 C 
ATOM      8  C   UNL     1     259.253 262.187 247.709  1.00  0.00    -0.070 CG0
ATOM      9  C   UNL     1     260.197 263.236 248.243  1.00  0.00     0.039 C 
ATOM     10  G   UNL     1     258.694 261.149 248.674  1.00  0.00     0.000 G0
ENDBRANCH   6   7
ENDBRANCH   5   6
ENDBRANCH   3   5
ENDBRANCH   1   3
BRANCH   1  11
ATOM     11  C   UNL     1     256.071 260.137 248.646  1.00  0.00     0.087 C 
BRANCH  11  12
ATOM     12  C   UNL     1     256.269 261.253 249.709  1.00  0.00     0.066 C 
BRANCH  12  13
ATOM     13  C   UNL     1     257.730 261.679 249.726  1.00  0.00     0.140 C 
ATOM     14  O   UNL     1     258.117 262.502 250.546  1.00  0.00    -0.299 OA
BRANCH  13  15
ATOM     15  C   UNL     1     258.692 261.127 248.704  1.00  0.00     0.106 CG0
ATOM     16  G   UNL     1     259.231 262.168 247.730  1.00  0.00     0.000 G0
ENDBRANCH  13  15
ENDBRANCH  12  13
BRANCH  12  17
ATOM     17  C   UNL     1     255.785 260.835 251.137  1.00  0.00    -0.006 C 
ATOM     18  C   UNL     1     254.732 261.826 251.673  1.00  0.00     0.008 C 
ATOM     19  C   UNL     1     255.183 259.417 251.166  1.00  0.00     0.008 C 
ENDBRANCH  12  17
ENDBRANCH  11  12
ENDBRANCH   1  11
TORSDOF 1
ENDMDL
MODEL 2
REMARK VINA RESULT:    -4.299      6.163      8.305
REMARK INTER + INTRA:          -6.651
REMARK INTER:                  -6.483
REMARK INTRA:                  -0.169
REMARK UNBOUND:                -0.091
REMARK SMILES CC1=CCC[C@H](C)C(=O)C[C@@H](C(C)C)C(=O)C1
REMARK SMILES IDX 8 1 9 2 6 3 7 4 5 5 4 6 3 7 2 8 1 9 10 11 11 12 15 13 16 14
REMARK SMILES IDX 17 15 12 17 13 18 14 19
REMARK H PARENT
REMARK Flexibility Score: 70.00
ROOT
ATOM      1  C   UNL     1     250.706 257.620 247.265  1.00  0.00     0.136 C 
ATOM      2  O   UNL     1     250.440 258.763 246.920  1.00  0.00    -0.299 OA
ENDROOT
BRANCH   1   3
ATOM      3  C   UNL     1     249.707 256.509 246.996  1.00  0.00     0.053 C 
ATOM      4  C   UNL     1     248.290 256.970 247.360  1.00  0.00     0.016 C 
BRANCH   3   5
ATOM      5  C   UNL     1     249.780 256.064 245.517  1.00  0.00     0.015 C 
BRANCH   5   6
ATOM      6  C   UNL     1     250.375 254.649 245.380  1.00  0.00     0.028 C 
BRANCH   6   7
ATOM      7  C   UNL     1     250.644 253.980 246.706  1.00  0.00    -0.028 C 
ATOM      8  C   UNL     1     251.845 253.923 247.334  1.00  0.00    -0.070 CG0
ATOM      9  C   UNL     1     251.886 253.298 248.706  1.00  0.00     0.039 C 
ATOM     10  G   UNL     1     253.150 254.405 246.712  1.00  0.00     0.000 G0
ENDBRANCH   6   7
ENDBRANCH   5   6
ENDBRANCH   3   5
ENDBRANCH   1   3
BRANCH   1  11
ATOM     11  C   UNL     1     252.017 257.356 247.973  1.00  0.00     0.087 C 
BRANCH  11  12
ATOM     12  C   UNL     1     253.158 257.013 246.975  1.00  0.00     0.066 C 
BRANCH  12  13
ATOM     13  C   UNL     1     253.735 255.647 247.319  1.00  0.00     0.140 C 
ATOM     14  O   UNL     1     254.697 255.561 248.071  1.00  0.00    -0.299 OA
BRANCH  13  15
ATOM     15  C   UNL     1     253.153 254.401 246.696  1.00  0.00     0.106 CG0
ATOM     16  G   UNL     1     251.864 253.922 247.351  1.00  0.00     0.000 G0
ENDBRANCH  13  15
ENDBRANCH  12  13
BRANCH  12  17
ATOM     17  C   UNL     1     254.279 258.104 246.924  1.00  0.00    -0.006 C 
ATOM     18  C   UNL     1     254.041 259.083 245.757  1.00  0.00     0.008 C 
ATOM     19  C   UNL     1     254.376 258.913 248.231  1.00  0.00     0.008 C 
ENDBRANCH  12  17
ENDBRANCH  11  12
ENDBRANCH   1  11
TORSDOF 1
ENDMDL
MODEL 3
REMARK VINA RESULT:    -4.047      5.445      7.269
REMARK INTER + INTRA:          -6.268
REMARK INTER:                  -5.915
REMARK INTRA:                  -0.353
REMARK UNBOUND:                -0.091
REMARK SMILES CC1=CCC[C@H](C)C(=O)C[C@@H](C(C)C)C(=O)C1
REMARK SMILES IDX 8 1 9 2 6 3 7 4 5 5 4 6 3 7 2 8 1 9 10 11 11 12 15 13 16 14
REMARK SMILES IDX 17 15 12 17 13 18 14 19
REMARK H PARENT
REMARK Flexibility Score: 70.00
ROOT
ATOM      1  C   UNL     1     252.786 257.708 246.783  1.00  0.00     0.136 C 
ATOM      2  O   UNL     1     251.753 258.311 247.039  1.00  0.00    -0.299 OA
ENDROOT
BRANCH   1   3
ATOM      3  C   UNL     1     254.111 258.447 246.830  1.00  0.00     0.053 C 
ATOM      4  C   UNL     1     254.074 259.664 245.896  1.00  0.00     0.016 C 
BRANCH   3   5
ATOM      5  C   UNL     1     254.440 258.874 248.280  1.00  0.00     0.015 C 
BRANCH   5   6
ATOM      6  C   UNL     1     254.564 257.655 249.214  1.00  0.00     0.028 C 
BRANCH   6   7
ATOM      7  C   UNL     1     255.608 256.660 248.768  1.00  0.00    -0.028 C 
ATOM      8  C   UNL     1     255.418 255.324 248.627  1.00  0.00    -0.070 CG0
ATOM      9  C   UNL     1     256.560 254.512 248.068  1.00  0.00     0.039 C 
ATOM     10  G   UNL     1     254.145 254.600 249.047  1.00  0.00     0.000 G0
ENDBRANCH   6   7
ENDBRANCH   5   6
ENDBRANCH   3   5
ENDBRANCH   1   3
BRANCH   1  11
ATOM     11  C   UNL     1     252.704 256.247 246.402  1.00  0.00     0.087 C 
BRANCH  11  12
ATOM     12  C   UNL     1     252.124 255.377 247.552  1.00  0.00     0.066 C 
BRANCH  12  13
ATOM     13  C   UNL     1     253.145 254.322 247.950  1.00  0.00     0.140 C 
ATOM     14  O   UNL     1     253.144 253.230 247.397  1.00  0.00    -0.299 OA
BRANCH  13  15
ATOM     15  C   UNL     1     254.129 254.600 249.060  1.00  0.00     0.106 CG0
ATOM     16  G   UNL     1     255.399 255.307 248.604  1.00  0.00     0.000 G0
ENDBRANCH  13  15
ENDBRANCH  12  13
BRANCH  12  17
ATOM     17  C   UNL     1     250.746 254.726 247.196  1.00  0.00    -0.006 C 
ATOM     18  C   UNL     1     249.608 255.363 248.016  1.00  0.00     0.008 C 
ATOM     19  C   UNL     1     250.403 254.851 245.700  1.00  0.00     0.008 C 
ENDBRANCH  12  17
ENDBRANCH  11  12
ENDBRANCH   1  11
TORSDOF 1
ENDMDL
MODEL 4
REMARK VINA RESULT:    -4.033      2.186      4.701
REMARK INTER + INTRA:          -6.245
REMARK INTER:                  -6.098
REMARK INTRA:                  -0.148
REMARK UNBOUND:                -0.091
REMARK SMILES CC1=CCC[C@H](C)C(=O)C[C@@H](C(C)C)C(=O)C1
REMARK SMILES IDX 8 1 9 2 6 3 7 4 5 5 4 6 3 7 2 8 1 9 10 11 11 12 15 13 16 14
REMARK SMILES IDX 17 15 12 17 13 18 14 19
REMARK H PARENT
REMARK Flexibility Score: 70.00
ROOT
ATOM      1  C   UNL     1     257.802 261.242 247.904  1.00  0.00     0.136 C 
ATOM      2  O   UNL     1     257.757 261.891 246.867  1.00  0.00    -0.299 OA
ENDROOT
BRANCH   1   3
ATOM      3  C   UNL     1     258.796 261.632 248.983  1.00  0.00     0.053 C 
ATOM      4  C   UNL     1     260.146 262.002 248.354  1.00  0.00     0.016 C 
BRANCH   3   5
ATOM      5  C   UNL     1     258.242 262.802 249.829  1.00  0.00     0.015 C 
BRANCH   5   6
ATOM      6  C   UNL     1     258.060 262.397 251.305  1.00  0.00     0.028 C 
BRANCH   6   7
ATOM      7  C   UNL     1     256.627 262.473 251.777  1.00  0.00    -0.028 C 
ATOM      8  C   UNL     1     255.728 261.459 251.739  1.00  0.00    -0.070 CG0
ATOM      9  C   UNL     1     254.373 261.705 252.356  1.00  0.00     0.039 C 
ATOM     10  G   UNL     1     255.991 260.117 251.068  1.00  0.00     0.000 G0
ENDBRANCH   6   7
ENDBRANCH   5   6
ENDBRANCH   3   5
ENDBRANCH   1   3
BRANCH   1  11
ATOM     11  C   UNL     1     256.880 260.054 248.064  1.00  0.00     0.087 C 
BRANCH  11  12
ATOM     12  C   UNL     1     255.459 260.480 248.527  1.00  0.00     0.066 C 
BRANCH  12  13
ATOM     13  C   UNL     1     255.145 259.819 249.861  1.00  0.00     0.140 C 
ATOM     14  O   UNL     1     254.177 259.076 249.963  1.00  0.00    -0.299 OA
BRANCH  13  15
ATOM     15  C   UNL     1     255.995 260.116 251.072  1.00  0.00     0.106 CG0
ATOM     16  G   UNL     1     255.696 261.457 251.729  1.00  0.00     0.000 G0
ENDBRANCH  13  15
ENDBRANCH  12  13
BRANCH  12  17
ATOM     17  C   UNL     1     254.348 260.173 247.468  1.00  0.00    -0.006 C 
ATOM     18  C   UNL     1     253.184 261.177 247.584  1.00  0.00     0.008 C 
ATOM     19  C   UNL     1     254.883 260.207 246.024  1.00  0.00     0.008 C 
ENDBRANCH  12  17
ENDBRANCH  11  12
ENDBRANCH   1  11
TORSDOF 1
ENDMDL
MODEL 5
REMARK VINA RESULT:    -3.992      3.270      5.115
REMARK INTER + INTRA:          -6.184
REMARK INTER:                  -6.356
REMARK INTRA:                   0.172
REMARK UNBOUND:                -0.091
REMARK SMILES CC1=CCC[C@H](C)C(=O)C[C@@H](C(C)C)C(=O)C1
REMARK SMILES IDX 8 1 9 2 6 3 7 4 5 5 4 6 3 7 2 8 1 9 10 11 11 12 15 13 16 14
REMARK SMILES IDX 17 15 12 17 13 18 14 19
REMARK H PARENT
REMARK Flexibility Score: 70.00
ROOT
ATOM      1  C   UNL     1     255.845 260.372 247.842  1.00  0.00     0.136 C 
ATOM      2  O   UNL     1     257.008 259.996 247.909  1.00  0.00    -0.299 OA
ENDROOT
BRANCH   1   3
ATOM      3  C   UNL     1     255.303 260.879 246.518  1.00  0.00     0.053 C 
ATOM      4  C   UNL     1     256.412 261.580 245.723  1.00  0.00     0.016 C 
BRANCH   3   5
ATOM      5  C   UNL     1     254.691 259.716 245.704  1.00  0.00     0.015 C 
BRANCH   5   6
ATOM      6  C   UNL     1     253.403 259.181 246.361  1.00  0.00     0.028 C 
BRANCH   6   7
ATOM      7  C   UNL     1     253.373 257.677 246.487  1.00  0.00    -0.028 C 
ATOM      8  C   UNL     1     253.378 256.981 247.651  1.00  0.00    -0.070 CG0
ATOM      9  C   UNL     1     253.237 255.481 247.567  1.00  0.00     0.039 C 
ATOM     10  G   UNL     1     253.565 257.621 249.020  1.00  0.00     0.000 G0
ENDBRANCH   6   7
ENDBRANCH   5   6
ENDBRANCH   3   5
ENDBRANCH   1   3
BRANCH   1  11
ATOM     11  C   UNL     1     254.993 260.341 249.091  1.00  0.00     0.087 C 
BRANCH  11  12
ATOM     12  C   UNL     1     255.399 259.182 250.043  1.00  0.00     0.066 C 
BRANCH  12  13
ATOM     13  C   UNL     1     254.994 257.853 249.422  1.00  0.00     0.140 C 
ATOM     14  O   UNL     1     255.839 256.995 249.207  1.00  0.00    -0.299 OA
BRANCH  13  15
ATOM     15  C   UNL     1     253.558 257.610 249.025  1.00  0.00     0.106 CG0
ATOM     16  G   UNL     1     253.392 256.988 247.644  1.00  0.00     0.000 G0
ENDBRANCH  13  15
ENDBRANCH  12  13
BRANCH  12  17
ATOM     17  C   UNL     1     254.810 259.336 251.485  1.00  0.00    -0.006 C 
ATOM     18  C   UNL     1     255.323 258.215 252.411  1.00  0.00     0.008 C 
ATOM     19  C   UNL     1     255.155 260.695 252.122  1.00  0.00     0.008 C 
ENDBRANCH  12  17
ENDBRANCH  11  12
ENDBRANCH   1  11
TORSDOF 1
ENDMDL
MODEL 6
REMARK VINA RESULT:    -3.898      5.698      7.883
REMARK INTER + INTRA:          -6.040
REMARK INTER:                  -5.705
REMARK INTRA:                  -0.335
REMARK UNBOUND:                -0.091
REMARK SMILES CC1=CCC[C@H](C)C(=O)C[C@@H](C(C)C)C(=O)C1
REMARK SMILES IDX 8 1 9 2 6 3 7 4 5 5 4 6 3 7 2 8 1 9 10 11 11 12 15 13 16 14
REMARK SMILES IDX 17 15 12 17 13 18 14 19
REMARK H PARENT
REMARK Flexibility Score: 70.00
ROOT
ATOM      1  C   UNL     1     254.461 256.671 248.958  1.00  0.00     0.136 C 
ATOM      2  O   UNL     1     255.544 256.187 248.660  1.00  0.00    -0.299 OA
ENDROOT
BRANCH   1   3
ATOM      3  C   UNL     1     254.306 258.180 248.998  1.00  0.00     0.053 C 
ATOM      4  C   UNL     1     255.196 258.777 250.096  1.00  0.00     0.016 C 
BRANCH   3   5
ATOM      5  C   UNL     1     254.644 258.794 247.619  1.00  0.00     0.015 C 
BRANCH   5   6
ATOM      6  C   UNL     1     253.684 258.289 246.524  1.00  0.00     0.028 C 
BRANCH   6   7
ATOM      7  C   UNL     1     252.228 258.540 246.839  1.00  0.00    -0.028 C 
ATOM      8  C   UNL     1     251.254 257.597 246.876  1.00  0.00    -0.070 CG0
ATOM      9  C   UNL     1     249.878 258.033 247.315  1.00  0.00     0.039 C 
ATOM     10  G   UNL     1     251.460 256.148 246.453  1.00  0.00     0.000 G0
ENDBRANCH   6   7
ENDBRANCH   5   6
ENDBRANCH   3   5
ENDBRANCH   1   3
BRANCH   1  11
ATOM     11  C   UNL     1     253.316 255.745 249.303  1.00  0.00     0.087 C 
BRANCH  11  12
ATOM     12  C   UNL     1     252.962 254.795 248.125  1.00  0.00     0.066 C 
BRANCH  12  13
ATOM     13  C   UNL     1     251.591 255.162 247.576  1.00  0.00     0.140 C 
ATOM     14  O   UNL     1     250.587 254.627 248.029  1.00  0.00    -0.299 OA
BRANCH  13  15
ATOM     15  C   UNL     1     251.469 256.149 246.441  1.00  0.00     0.106 CG0
ATOM     16  G   UNL     1     251.238 257.586 246.888  1.00  0.00     0.000 G0
ENDBRANCH  13  15
ENDBRANCH  12  13
BRANCH  12  17
ATOM     17  C   UNL     1     253.028 253.280 248.515  1.00  0.00    -0.006 C 
ATOM     18  C   UNL     1     253.367 252.411 247.288  1.00  0.00     0.008 C 
ATOM     19  C   UNL     1     254.067 252.999 249.617  1.00  0.00     0.008 C 
ENDBRANCH  12  17
ENDBRANCH  11  12
ENDBRANCH   1  11
TORSDOF 1
ENDMDL
MODEL 7
REMARK VINA RESULT:    -3.864      4.276      6.616
REMARK INTER + INTRA:          -5.989
REMARK INTER:                  -6.158
REMARK INTRA:                   0.169
REMARK UNBOUND:                -0.091
REMARK SMILES CC1=CCC[C@H](C)C(=O)C[C@@H](C(C)C)C(=O)C1
REMARK SMILES IDX 8 1 9 2 6 3 7 4 5 5 4 6 3 7 2 8 1 9 10 11 11 12 15 13 16 14
REMARK SMILES IDX 17 15 12 17 13 18 14 19
REMARK H PARENT
REMARK Flexibility Score: 70.00
ROOT
ATOM      1  C   UNL     1     253.855 260.226 247.059  1.00  0.00     0.136 C 
ATOM      2  O   UNL     1     253.311 261.281 246.768  1.00  0.00    -0.299 OA
ENDROOT
BRANCH   1   3
ATOM      3  C   UNL     1     255.072 260.242 247.966  1.00  0.00     0.053 C 
ATOM      4  C   UNL     1     254.719 260.873 249.319  1.00  0.00     0.016 C 
BRANCH   3   5
ATOM      5  C   UNL     1     255.626 258.810 248.152  1.00  0.00     0.015 C 
BRANCH   5   6
ATOM      6  C   UNL     1     255.134 258.179 249.470  1.00  0.00     0.028 C 
BRANCH   6   7
ATOM      7  C   UNL     1     255.216 256.672 249.481  1.00  0.00    -0.028 C 
ATOM      8  C   UNL     1     254.198 255.822 249.197  1.00  0.00    -0.070 CG0
ATOM      9  C   UNL     1     254.509 254.347 249.160  1.00  0.00     0.039 C 
ATOM     10  G   UNL     1     252.760 256.271 248.966  1.00  0.00     0.000 G0
ENDBRANCH   6   7
ENDBRANCH   5   6
ENDBRANCH   3   5
ENDBRANCH   1   3
BRANCH   1  11
ATOM     11  C   UNL     1     253.310 258.938 246.484  1.00  0.00     0.087 C 
BRANCH  11  12
ATOM     12  C   UNL     1     252.218 258.310 247.394  1.00  0.00     0.066 C 
BRANCH  12  13
ATOM     13  C   UNL     1     252.504 256.826 247.574  1.00  0.00     0.140 C 
ATOM     14  O   UNL     1     252.488 256.078 246.605  1.00  0.00    -0.299 OA
BRANCH  13  15
ATOM     15  C   UNL     1     252.760 256.266 248.952  1.00  0.00     0.106 CG0
ATOM     16  G   UNL     1     254.198 255.820 249.185  1.00  0.00     0.000 G0
ENDBRANCH  13  15
ENDBRANCH  12  13
BRANCH  12  17
ATOM     17  C   UNL     1     250.765 258.546 246.865  1.00  0.00    -0.006 C 
ATOM     18  C   UNL     1     249.761 257.619 247.578  1.00  0.00     0.008 C 
ATOM     19  C   UNL     1     250.300 260.003 247.046  1.00  0.00     0.008 C 
ENDBRANCH  12  17
ENDBRANCH  11  12
ENDBRANCH   1  11
TORSDOF 1
ENDMDL
MODEL 8
REMARK VINA RESULT:    -3.816      6.850      9.042
REMARK INTER + INTRA:          -5.916
REMARK INTER:                  -5.679
REMARK INTRA:                  -0.237
REMARK UNBOUND:                -0.091
REMARK SMILES CC1=CCC[C@H](C)C(=O)C[C@@H](C(C)C)C(=O)C1
REMARK SMILES IDX 8 1 9 2 6 3 7 4 5 5 4 6 3 7 2 8 1 9 10 11 11 12 15 13 16 14
REMARK SMILES IDX 17 15 12 17 13 18 14 19
REMARK H PARENT
REMARK Flexibility Score: 70.00
ROOT
ATOM      1  C   UNL     1     251.210 257.550 247.029  1.00  0.00     0.136 C 
ATOM      2  O   UNL     1     250.433 258.123 247.779  1.00  0.00    -0.299 OA
ENDROOT
BRANCH   1   3
ATOM      3  C   UNL     1     252.651 258.021 246.948  1.00  0.00     0.053 C 
ATOM      4  C   UNL     1     252.709 259.554 246.938  1.00  0.00     0.016 C 
BRANCH   3   5
ATOM      5  C   UNL     1     253.474 257.445 248.124  1.00  0.00     0.015 C 
BRANCH   5   6
ATOM      6  C   UNL     1     254.022 256.042 247.798  1.00  0.00     0.028 C 
BRANCH   6   7
ATOM      7  C   UNL     1     253.455 254.956 248.681  1.00  0.00    -0.028 C 
ATOM      8  C   UNL     1     252.688 253.918 248.263  1.00  0.00    -0.070 CG0
ATOM      9  C   UNL     1     252.306 252.877 249.286  1.00  0.00     0.039 C 
ATOM     10  G   UNL     1     252.155 253.775 246.843  1.00  0.00     0.000 G0
ENDBRANCH   6   7
ENDBRANCH   5   6
ENDBRANCH   3   5
ENDBRANCH   1   3
BRANCH   1  11
ATOM     11  C   UNL     1     250.701 256.402 246.186  1.00  0.00     0.087 C 
BRANCH  11  12
ATOM     12  C   UNL     1     250.013 255.307 247.048  1.00  0.00     0.066 C 
BRANCH  12  13
ATOM     13  C   UNL     1     250.641 253.955 246.740  1.00  0.00     0.140 C 
ATOM     14  O   UNL     1     249.930 253.003 246.448  1.00  0.00    -0.299 OA
BRANCH  13  15
ATOM     15  C   UNL     1     252.136 253.774 246.842  1.00  0.00     0.106 CG0
ATOM     16  G   UNL     1     252.687 253.934 248.253  1.00  0.00     0.000 G0
ENDBRANCH  13  15
ENDBRANCH  12  13
BRANCH  12  17
ATOM     17  C   UNL     1     248.460 255.264 246.864  1.00  0.00    -0.006 C 
ATOM     18  C   UNL     1     247.743 255.274 248.229  1.00  0.00     0.008 C 
ATOM     19  C   UNL     1     247.932 256.443 246.024  1.00  0.00     0.008 C 
ENDBRANCH  12  17
ENDBRANCH  11  12
ENDBRANCH   1  11
TORSDOF 1
ENDMDL
MODEL 9
REMARK VINA RESULT:    -3.778      7.254      8.779
REMARK INTER + INTRA:          -5.857
REMARK INTER:                  -5.509
REMARK INTRA:                  -0.348
REMARK UNBOUND:                -0.091
REMARK SMILES CC1=CCC[C@H](C)C(=O)C[C@@H](C(C)C)C(=O)C1
REMARK SMILES IDX 8 1 9 2 6 3 7 4 5 5 4 6 3 7 2 8 1 9 10 11 11 12 15 13 16 14
REMARK SMILES IDX 17 15 12 17 13 18 14 19
REMARK H PARENT
REMARK Flexibility Score: 70.00
ROOT
ATOM      1  C   UNL     1     250.402 254.523 247.492  1.00  0.00     0.136 C 
ATOM      2  O   UNL     1     249.721 254.848 248.455  1.00  0.00    -0.299 OA
ENDROOT
BRANCH   1   3
ATOM      3  C   UNL     1     250.465 255.438 246.283  1.00  0.00     0.053 C 
ATOM      4  C   UNL     1     249.065 255.960 245.938  1.00  0.00     0.016 C 
BRANCH   3   5
ATOM      5  C   UNL     1     251.442 256.608 246.543  1.00  0.00     0.015 C 
BRANCH   5   6
ATOM      6  C   UNL     1     252.885 256.241 246.146  1.00  0.00     0.028 C 
BRANCH   6   7
ATOM      7  C   UNL     1     253.839 256.200 247.316  1.00  0.00    -0.028 C 
ATOM      8  C   UNL     1     254.431 255.086 247.815  1.00  0.00    -0.070 CG0
ATOM      9  C   UNL     1     255.437 255.269 248.924  1.00  0.00     0.039 C 
ATOM     10  G   UNL     1     254.100 253.672 247.355  1.00  0.00     0.000 G0
ENDBRANCH   6   7
ENDBRANCH   5   6
ENDBRANCH   3   5
ENDBRANCH   1   3
BRANCH   1  11
ATOM     11  C   UNL     1     251.139 253.203 247.530  1.00  0.00     0.087 C 
BRANCH  11  12
ATOM     12  C   UNL     1     252.002 253.055 248.814  1.00  0.00     0.066 C 
BRANCH  12  13
ATOM     13  C   UNL     1     253.452 252.807 248.421  1.00  0.00     0.140 C 
ATOM     14  O   UNL     1     254.099 251.937 248.988  1.00  0.00    -0.299 OA
BRANCH  13  15
ATOM     15  C   UNL     1     254.108 253.665 247.367  1.00  0.00     0.106 CG0
ATOM     16  G   UNL     1     254.428 255.081 247.828  1.00  0.00     0.000 G0
ENDBRANCH  13  15
ENDBRANCH  12  13
BRANCH  12  17
ATOM     17  C   UNL     1     251.480 251.942 249.782  1.00  0.00    -0.006 C 
ATOM     18  C   UNL     1     251.000 252.553 251.114  1.00  0.00     0.008 C 
ATOM     19  C   UNL     1     250.326 251.124 249.174  1.00  0.00     0.008 C 
ENDBRANCH  12  17
ENDBRANCH  11  12
ENDBRANCH   1  11
TORSDOF 1
ENDMDL
