MODEL 1
REMARK VINA RESULT:    -4.134      0.000      0.000
REMARK INTER + INTRA:          -5.767
REMARK INTER:                  -5.584
REMARK INTRA:                  -0.183
REMARK UNBOUND:                -0.183
REMARK SMILES CCCCCCCC(=O)[O-]
REMARK SMILES IDX 5 1 6 2 7 3 8 4 9 5 10 6 4 7 3 8 2 9 1 10
REMARK H PARENT
REMARK Flexibility Score: inf
ROOT
ATOM      1  C   UNL     1      12.803 -31.027  21.885  1.00  0.00     0.000 C 
ENDROOT
BRANCH   1   2
ATOM      2  C   UNL     1      13.717 -31.962  21.069  1.00  0.00     0.006 C 
BRANCH   2   3
ATOM      3  C   UNL     1      14.592 -32.889  21.931  1.00  0.00     0.053 C 
BRANCH   3   4
ATOM      4  C   UNL     1      15.224 -33.988  21.132  1.00  0.00     0.041 C 
ATOM      5  O   UNL     1      14.896 -34.167  19.928  1.00  0.00    -0.550 OA
ATOM      6  O   UNL     1      16.149 -34.839  21.724  1.00  0.00    -0.550 OA
ENDBRANCH   3   4
ENDBRANCH   2   3
ENDBRANCH   1   2
BRANCH   1   7
ATOM      7  C   UNL     1      13.404 -30.504  23.203  1.00  0.00     0.000 C 
BRANCH   7   8
ATOM      8  C   UNL     1      13.948 -29.062  23.151  1.00  0.00    -0.000 C 
BRANCH   8   9
ATOM      9  C   UNL     1      13.124 -28.030  23.942  1.00  0.00    -0.003 C 
ATOM     10  C   UNL     1      11.630 -28.346  23.955  1.00  0.00     0.004 C 
ENDBRANCH   8   9
ENDBRANCH   7   8
ENDBRANCH   1   7
TORSDOF 6
ENDMDL
MODEL 2
REMARK VINA RESULT:    -4.110      1.279      1.634
REMARK INTER + INTRA:          -5.734
REMARK INTER:                  -5.546
REMARK INTRA:                  -0.189
REMARK UNBOUND:                -0.183
REMARK SMILES CCCCCCCC(=O)[O-]
REMARK SMILES IDX 5 1 6 2 7 3 8 4 9 5 10 6 4 7 3 8 2 9 1 10
REMARK H PARENT
REMARK Flexibility Score: inf
ROOT
ATOM      1  C   UNL     1      13.940 -32.237  24.047  1.00  0.00     0.000 C 
ENDROOT
BRANCH   1   2
ATOM      2  C   UNL     1      15.285 -32.579  23.378  1.00  0.00     0.006 C 
BRANCH   2   3
ATOM      3  C   UNL     1      15.369 -34.021  22.845  1.00  0.00     0.053 C 
BRANCH   3   4
ATOM      4  C   UNL     1      15.181 -34.095  21.360  1.00  0.00     0.041 C 
ATOM      5  O   UNL     1      14.424 -33.276  20.774  1.00  0.00    -0.550 OA
ATOM      6  O   UNL     1      15.814 -35.090  20.626  1.00  0.00    -0.550 OA
ENDBRANCH   3   4
ENDBRANCH   2   3
ENDBRANCH   1   2
BRANCH   1   7
ATOM      7  C   UNL     1      13.100 -31.166  23.325  1.00  0.00     0.000 C 
BRANCH   7   8
ATOM      8  C   UNL     1      13.587 -29.714  23.507  1.00  0.00    -0.000 C 
BRANCH   8   9
ATOM      9  C   UNL     1      12.524 -28.735  24.035  1.00  0.00    -0.003 C 
ATOM     10  C   UNL     1      13.031 -27.297  24.123  1.00  0.00     0.004 C 
ENDBRANCH   8   9
ENDBRANCH   7   8
ENDBRANCH   1   7
TORSDOF 6
ENDMDL
MODEL 3
REMARK VINA RESULT:    -4.099      1.259      1.645
REMARK INTER + INTRA:          -5.720
REMARK INTER:                  -5.310
REMARK INTRA:                  -0.409
REMARK UNBOUND:                -0.183
REMARK SMILES CCCCCCCC(=O)[O-]
REMARK SMILES IDX 5 1 6 2 7 3 8 4 9 5 10 6 4 7 3 8 2 9 1 10
REMARK H PARENT
REMARK Flexibility Score: inf
ROOT
ATOM      1  C   UNL     1      14.724 -30.394  21.610  1.00  0.00     0.000 C 
ENDROOT
BRANCH   1   2
ATOM      2  C   UNL     1      13.672 -31.464  21.256  1.00  0.00     0.006 C 
BRANCH   2   3
ATOM      3  C   UNL     1      14.268 -32.852  20.961  1.00  0.00     0.053 C 
BRANCH   3   4
ATOM      4  C   UNL     1      15.181 -33.327  22.050  1.00  0.00     0.041 C 
ATOM      5  O   UNL     1      16.381 -33.612  21.793  1.00  0.00    -0.550 OA
ATOM      6  O   UNL     1      14.699 -33.490  23.342  1.00  0.00    -0.550 OA
ENDBRANCH   3   4
ENDBRANCH   2   3
ENDBRANCH   1   2
BRANCH   1   7
ATOM      7  C   UNL     1      14.441 -29.594  22.895  1.00  0.00     0.000 C 
BRANCH   7   8
ATOM      8  C   UNL     1      13.156 -29.990  23.648  1.00  0.00    -0.000 C 
BRANCH   8   9
ATOM      9  C   UNL     1      12.263 -28.811  24.074  1.00  0.00    -0.003 C 
ATOM     10  C   UNL     1      13.001 -27.473  24.066  1.00  0.00     0.004 C 
ENDBRANCH   8   9
ENDBRANCH   7   8
ENDBRANCH   1   7
TORSDOF 6
ENDMDL
MODEL 4
REMARK VINA RESULT:    -4.090      1.505      2.178
REMARK INTER + INTRA:          -5.708
REMARK INTER:                  -5.389
REMARK INTRA:                  -0.319
REMARK UNBOUND:                -0.183
REMARK SMILES CCCCCCCC(=O)[O-]
REMARK SMILES IDX 5 1 6 2 7 3 8 4 9 5 10 6 4 7 3 8 2 9 1 10
REMARK H PARENT
REMARK Flexibility Score: inf
ROOT
ATOM      1  C   UNL     1      14.423 -30.549  23.645  1.00  0.00     0.000 C 
ENDROOT
BRANCH   1   2
ATOM      2  C   UNL     1      13.669 -31.893  23.665  1.00  0.00     0.006 C 
BRANCH   2   3
ATOM      3  C   UNL     1      14.569 -33.112  23.935  1.00  0.00     0.053 C 
BRANCH   3   4
ATOM      4  C   UNL     1      15.084 -33.735  22.674  1.00  0.00     0.041 C 
ATOM      5  O   UNL     1      16.051 -34.542  22.713  1.00  0.00    -0.550 OA
ATOM      6  O   UNL     1      14.522 -33.398  21.449  1.00  0.00    -0.550 OA
ENDBRANCH   3   4
ENDBRANCH   2   3
ENDBRANCH   1   2
BRANCH   1   7
ATOM      7  C   UNL     1      13.631 -29.360  23.072  1.00  0.00     0.000 C 
BRANCH   7   8
ATOM      8  C   UNL     1      12.520 -28.806  23.987  1.00  0.00    -0.000 C 
BRANCH   8   9
ATOM      9  C   UNL     1      11.146 -28.644  23.313  1.00  0.00    -0.003 C 
ATOM     10  C   UNL     1      10.875 -29.708  22.251  1.00  0.00     0.004 C 
ENDBRANCH   8   9
ENDBRANCH   7   8
ENDBRANCH   1   7
TORSDOF 6
ENDMDL
MODEL 5
REMARK VINA RESULT:    -4.071      1.241      1.540
REMARK INTER + INTRA:          -5.682
REMARK INTER:                  -5.423
REMARK INTRA:                  -0.259
REMARK UNBOUND:                -0.183
REMARK SMILES CCCCCCCC(=O)[O-]
REMARK SMILES IDX 5 1 6 2 7 3 8 4 9 5 10 6 4 7 3 8 2 9 1 10
REMARK H PARENT
REMARK Flexibility Score: inf
ROOT
ATOM      1  C   UNL     1      14.967 -30.337  23.079  1.00  0.00     0.000 C 
ENDROOT
BRANCH   1   2
ATOM      2  C   UNL     1      15.130 -30.812  21.621  1.00  0.00     0.006 C 
BRANCH   2   3
ATOM      3  C   UNL     1      15.865 -32.156  21.479  1.00  0.00     0.053 C 
BRANCH   3   4
ATOM      4  C   UNL     1      14.950 -33.269  21.066  1.00  0.00     0.041 C 
ATOM      5  O   UNL     1      13.942 -33.029  20.349  1.00  0.00    -0.550 OA
ATOM      6  O   UNL     1      15.189 -34.566  21.502  1.00  0.00    -0.550 OA
ENDBRANCH   3   4
ENDBRANCH   2   3
ENDBRANCH   1   2
BRANCH   1   7
ATOM      7  C   UNL     1      13.557 -30.507  23.672  1.00  0.00     0.000 C 
BRANCH   7   8
ATOM      8  C   UNL     1      12.481 -29.567  23.093  1.00  0.00    -0.000 C 
BRANCH   8   9
ATOM      9  C   UNL     1      12.028 -28.439  24.037  1.00  0.00    -0.003 C 
ATOM     10  C   UNL     1      13.025 -27.283  24.104  1.00  0.00     0.004 C 
ENDBRANCH   8   9
ENDBRANCH   7   8
ENDBRANCH   1   7
TORSDOF 6
ENDMDL
MODEL 6
REMARK VINA RESULT:    -4.057      3.507      5.320
REMARK INTER + INTRA:          -5.663
REMARK INTER:                  -5.144
REMARK INTRA:                  -0.519
REMARK UNBOUND:                -0.183
REMARK SMILES CCCCCCCC(=O)[O-]
REMARK SMILES IDX 5 1 6 2 7 3 8 4 9 5 10 6 4 7 3 8 2 9 1 10
REMARK H PARENT
REMARK Flexibility Score: inf
ROOT
ATOM      1  C   UNL     1      14.562 -30.637  21.472  1.00  0.00     0.000 C 
ENDROOT
BRANCH   1   2
ATOM      2  C   UNL     1      14.664 -30.027  22.883  1.00  0.00     0.006 C 
BRANCH   2   3
ATOM      3  C   UNL     1      13.434 -30.294  23.770  1.00  0.00     0.053 C 
BRANCH   3   4
ATOM      4  C   UNL     1      12.496 -29.127  23.816  1.00  0.00     0.041 C 
ATOM      5  O   UNL     1      11.513 -29.070  23.030  1.00  0.00    -0.550 OA
ATOM      6  O   UNL     1      12.726 -28.081  24.702  1.00  0.00    -0.550 OA
ENDBRANCH   3   4
ENDBRANCH   2   3
ENDBRANCH   1   2
BRANCH   1   7
ATOM      7  C   UNL     1      13.735 -31.932  21.373  1.00  0.00     0.000 C 
BRANCH   7   8
ATOM      8  C   UNL     1      14.541 -33.203  21.034  1.00  0.00    -0.000 C 
BRANCH   8   9
ATOM      9  C   UNL     1      15.575 -33.618  22.096  1.00  0.00    -0.003 C 
ATOM     10  C   UNL     1      14.973 -33.746  23.494  1.00  0.00     0.004 C 
ENDBRANCH   8   9
ENDBRANCH   7   8
ENDBRANCH   1   7
TORSDOF 6
ENDMDL
MODEL 7
REMARK VINA RESULT:    -4.020      1.305      1.983
REMARK INTER + INTRA:          -5.612
REMARK INTER:                  -5.325
REMARK INTRA:                  -0.287
REMARK UNBOUND:                -0.183
REMARK SMILES CCCCCCCC(=O)[O-]
REMARK SMILES IDX 5 1 6 2 7 3 8 4 9 5 10 6 4 7 3 8 2 9 1 10
REMARK H PARENT
REMARK Flexibility Score: inf
ROOT
ATOM      1  C   UNL     1      14.972 -30.587  23.280  1.00  0.00     0.000 C 
ENDROOT
BRANCH   1   2
ATOM      2  C   UNL     1      15.833 -31.846  23.500  1.00  0.00     0.006 C 
BRANCH   2   3
ATOM      3  C   UNL     1      15.044 -33.165  23.424  1.00  0.00     0.053 C 
BRANCH   3   4
ATOM      4  C   UNL     1      15.104 -33.791  22.064  1.00  0.00     0.041 C 
ATOM      5  O   UNL     1      15.861 -34.775  21.850  1.00  0.00    -0.550 OA
ATOM      6  O   UNL     1      14.352 -33.266  21.020  1.00  0.00    -0.550 OA
ENDBRANCH   3   4
ENDBRANCH   2   3
ENDBRANCH   1   2
BRANCH   1   7
ATOM      7  C   UNL     1      13.499 -30.715  23.709  1.00  0.00     0.000 C 
BRANCH   7   8
ATOM      8  C   UNL     1      12.486 -29.967  22.819  1.00  0.00    -0.000 C 
BRANCH   8   9
ATOM      9  C   UNL     1      11.763 -28.793  23.504  1.00  0.00    -0.003 C 
ATOM     10  C   UNL     1      12.670 -28.006  24.449  1.00  0.00     0.004 C 
ENDBRANCH   8   9
ENDBRANCH   7   8
ENDBRANCH   1   7
TORSDOF 6
ENDMDL
MODEL 8
REMARK VINA RESULT:    -3.848      2.375      3.692
REMARK INTER + INTRA:          -5.380
REMARK INTER:                  -5.254
REMARK INTRA:                  -0.126
REMARK UNBOUND:                -0.183
REMARK SMILES CCCCCCCC(=O)[O-]
REMARK SMILES IDX 5 1 6 2 7 3 8 4 9 5 10 6 4 7 3 8 2 9 1 10
REMARK H PARENT
REMARK Flexibility Score: inf
ROOT
ATOM      1  C   UNL     1      14.999 -33.896  20.490  1.00  0.00     0.000 C 
ENDROOT
BRANCH   1   2
ATOM      2  C   UNL     1      16.144 -34.850  20.885  1.00  0.00     0.006 C 
BRANCH   2   3
ATOM      3  C   UNL     1      16.461 -35.919  19.824  1.00  0.00     0.053 C 
BRANCH   3   4
ATOM      4  C   UNL     1      17.512 -36.885  20.280  1.00  0.00     0.041 C 
ATOM      5  O   UNL     1      17.905 -37.805  19.514  1.00  0.00    -0.550 OA
ATOM      6  O   UNL     1      18.034 -36.793  21.565  1.00  0.00    -0.550 OA
ENDBRANCH   3   4
ENDBRANCH   2   3
ENDBRANCH   1   2
BRANCH   1   7
ATOM      7  C   UNL     1      14.567 -32.900  21.581  1.00  0.00     0.000 C 
BRANCH   7   8
ATOM      8  C   UNL     1      13.596 -31.796  21.118  1.00  0.00    -0.000 C 
BRANCH   8   9
ATOM      9  C   UNL     1      12.893 -31.031  22.253  1.00  0.00    -0.003 C 
ATOM     10  C   UNL     1      13.517 -31.294  23.623  1.00  0.00     0.004 C 
ENDBRANCH   8   9
ENDBRANCH   7   8
ENDBRANCH   1   7
TORSDOF 6
ENDMDL
MODEL 9
REMARK VINA RESULT:    -3.842      1.743      2.857
REMARK INTER + INTRA:          -5.373
REMARK INTER:                  -4.772
REMARK INTRA:                  -0.601
REMARK UNBOUND:                -0.183
REMARK SMILES CCCCCCCC(=O)[O-]
REMARK SMILES IDX 5 1 6 2 7 3 8 4 9 5 10 6 4 7 3 8 2 9 1 10
REMARK H PARENT
REMARK Flexibility Score: inf
ROOT
ATOM      1  C   UNL     1      16.325 -30.223  23.168  1.00  0.00     0.000 C 
ENDROOT
BRANCH   1   2
ATOM      2  C   UNL     1      16.400 -31.692  23.627  1.00  0.00     0.006 C 
BRANCH   2   3
ATOM      3  C   UNL     1      16.557 -32.700  22.474  1.00  0.00     0.053 C 
BRANCH   3   4
ATOM      4  C   UNL     1      15.599 -33.847  22.580  1.00  0.00     0.041 C 
ATOM      5  O   UNL     1      15.527 -34.702  21.658  1.00  0.00    -0.550 OA
ATOM      6  O   UNL     1      14.757 -33.953  23.681  1.00  0.00    -0.550 OA
ENDBRANCH   3   4
ENDBRANCH   2   3
ENDBRANCH   1   2
BRANCH   1   7
ATOM      7  C   UNL     1      14.906 -29.688  22.905  1.00  0.00     0.000 C 
BRANCH   7   8
ATOM      8  C   UNL     1      13.760 -30.555  23.466  1.00  0.00    -0.000 C 
BRANCH   8   9
ATOM      9  C   UNL     1      12.663 -30.916  22.450  1.00  0.00    -0.003 C 
ATOM     10  C   UNL     1      13.222 -31.488  21.149  1.00  0.00     0.004 C 
ENDBRANCH   8   9
ENDBRANCH   7   8
ENDBRANCH   1   7
TORSDOF 6
ENDMDL
