MODEL 1
REMARK VINA RESULT:    -3.668      0.000      0.000
REMARK INTER + INTRA:          -8.582
REMARK INTER:                  -6.670
REMARK INTRA:                  -1.912
REMARK UNBOUND:                -1.912
REMARK SMILES CCCCCCCCCCCCCCCC(=O)[O-]
REMARK SMILES IDX 9 1 10 2 11 3 12 4 13 5 14 6 15 7 16 8 17 9 18 10 8 11 7 12
REMARK SMILES IDX 6 13 5 14 4 15 3 16 2 17 1 18
REMARK H PARENT
REMARK Flexibility Score: inf
ROOT
ATOM      1  C   UNL     1      -7.671 -62.879   0.136  1.00  0.00     0.000 C 
ENDROOT
BRANCH   1   2
ATOM      2  C   UNL     1      -6.453 -62.856  -0.803  1.00  0.00     0.000 C 
BRANCH   2   3
ATOM      3  C   UNL     1      -6.367 -64.110  -1.688  1.00  0.00     0.000 C 
BRANCH   3   4
ATOM      4  C   UNL     1      -4.967 -64.747  -1.672  1.00  0.00     0.000 C 
BRANCH   4   5
ATOM      5  C   UNL     1      -4.978 -66.184  -1.125  1.00  0.00     0.000 C 
BRANCH   5   6
ATOM      6  C   UNL     1      -4.967 -67.240  -2.239  1.00  0.00     0.006 C 
BRANCH   6   7
ATOM      7  C   UNL     1      -4.222 -66.723  -3.474  1.00  0.00     0.053 C 
BRANCH   7   8
ATOM      8  C   UNL     1      -4.354 -67.690  -4.608  1.00  0.00     0.041 C 
ATOM      9  O   UNL     1      -4.946 -68.789  -4.439  1.00  0.00    -0.550 OA
ATOM     10  O   UNL     1      -3.783 -67.399  -5.841  1.00  0.00    -0.550 OA
ENDBRANCH   7   8
ENDBRANCH   6   7
ENDBRANCH   5   6
ENDBRANCH   4   5
ENDBRANCH   3   4
ENDBRANCH   2   3
ENDBRANCH   1   2
BRANCH   1  11
ATOM     11  C   UNL     1      -7.282 -62.734   1.616  1.00  0.00     0.000 C 
BRANCH  11  12
ATOM     12  C   UNL     1      -6.037 -63.561   1.984  1.00  0.00    -0.000 C 
BRANCH  12  13
ATOM     13  C   UNL     1      -6.338 -65.067   2.075  1.00  0.00    -0.000 C 
BRANCH  13  14
ATOM     14  C   UNL     1      -7.722 -65.354   2.682  1.00  0.00    -0.000 C 
BRANCH  14  15
ATOM     15  C   UNL     1      -8.433 -66.545   2.013  1.00  0.00    -0.000 C 
BRANCH  15  16
ATOM     16  C   UNL     1      -9.089 -66.237   0.652  1.00  0.00    -0.000 C 
BRANCH  16  17
ATOM     17  C   UNL     1      -8.478 -66.980  -0.548  1.00  0.00    -0.003 C 
ATOM     18  C   UNL     1      -9.309 -68.184  -0.991  1.00  0.00     0.004 C 
ENDBRANCH  16  17
ENDBRANCH  15  16
ENDBRANCH  14  15
ENDBRANCH  13  14
ENDBRANCH  12  13
ENDBRANCH  11  12
ENDBRANCH   1  11
TORSDOF 14
ENDMDL
MODEL 2
REMARK VINA RESULT:    -3.551      3.418      6.265
REMARK INTER + INTRA:          -8.369
REMARK INTER:                  -6.891
REMARK INTRA:                  -1.478
REMARK UNBOUND:                -1.912
REMARK SMILES CCCCCCCCCCCCCCCC(=O)[O-]
REMARK SMILES IDX 9 1 10 2 11 3 12 4 13 5 14 6 15 7 16 8 17 9 18 10 8 11 7 12
REMARK SMILES IDX 6 13 5 14 4 15 3 16 2 17 1 18
REMARK H PARENT
REMARK Flexibility Score: inf
ROOT
ATOM      1  C   UNL     1      -5.323 -63.485  -2.066  1.00  0.00     0.000 C 
ENDROOT
BRANCH   1   2
ATOM      2  C   UNL     1      -6.512 -63.442  -1.091  1.00  0.00     0.000 C 
BRANCH   2   3
ATOM      3  C   UNL     1      -7.818 -63.938  -1.732  1.00  0.00     0.000 C 
BRANCH   3   4
ATOM      4  C   UNL     1      -8.741 -64.638  -0.720  1.00  0.00     0.000 C 
BRANCH   4   5
ATOM      5  C   UNL     1      -8.607 -66.169  -0.757  1.00  0.00     0.000 C 
BRANCH   5   6
ATOM      6  C   UNL     1      -8.436 -66.781   0.642  1.00  0.00     0.006 C 
BRANCH   6   7
ATOM      7  C   UNL     1      -7.698 -65.814   1.573  1.00  0.00     0.053 C 
BRANCH   7   8
ATOM      8  C   UNL     1      -7.838 -66.250   2.997  1.00  0.00     0.041 C 
ATOM      9  O   UNL     1      -8.374 -67.356   3.273  1.00  0.00    -0.550 OA
ATOM     10  O   UNL     1      -7.417 -65.415   4.026  1.00  0.00    -0.550 OA
ENDBRANCH   7   8
ENDBRANCH   6   7
ENDBRANCH   5   6
ENDBRANCH   4   5
ENDBRANCH   3   4
ENDBRANCH   2   3
ENDBRANCH   1   2
BRANCH   1  11
ATOM     11  C   UNL     1      -4.245 -64.497  -1.646  1.00  0.00     0.000 C 
BRANCH  11  12
ATOM     12  C   UNL     1      -4.842 -65.763  -1.006  1.00  0.00    -0.000 C 
BRANCH  12  13
ATOM     13  C   UNL     1      -5.160 -66.852  -2.044  1.00  0.00    -0.000 C 
BRANCH  13  14
ATOM     14  C   UNL     1      -4.368 -66.668  -3.350  1.00  0.00    -0.000 C 
BRANCH  14  15
ATOM     15  C   UNL     1      -4.478 -67.883  -4.292  1.00  0.00    -0.000 C 
BRANCH  15  16
ATOM     16  C   UNL     1      -4.138 -67.600  -5.770  1.00  0.00    -0.000 C 
BRANCH  16  17
ATOM     17  C   UNL     1      -4.528 -66.199  -6.270  1.00  0.00    -0.003 C 
ATOM     18  C   UNL     1      -5.309 -66.231  -7.583  1.00  0.00     0.004 C 
ENDBRANCH  16  17
ENDBRANCH  15  16
ENDBRANCH  14  15
ENDBRANCH  13  14
ENDBRANCH  12  13
ENDBRANCH  11  12
ENDBRANCH   1  11
TORSDOF 14
ENDMDL
MODEL 3
REMARK VINA RESULT:    -3.486      1.568      2.770
REMARK INTER + INTRA:          -8.251
REMARK INTER:                  -6.368
REMARK INTRA:                  -1.883
REMARK UNBOUND:                -1.912
REMARK SMILES CCCCCCCCCCCCCCCC(=O)[O-]
REMARK SMILES IDX 9 1 10 2 11 3 12 4 13 5 14 6 15 7 16 8 17 9 18 10 8 11 7 12
REMARK SMILES IDX 6 13 5 14 4 15 3 16 2 17 1 18
REMARK H PARENT
REMARK Flexibility Score: inf
ROOT
ATOM      1  C   UNL     1      -5.446 -62.717  -1.668  1.00  0.00     0.000 C 
ENDROOT
BRANCH   1   2
ATOM      2  C   UNL     1      -4.887 -63.543  -0.496  1.00  0.00     0.000 C 
BRANCH   2   3
ATOM      3  C   UNL     1      -3.980 -64.692  -0.966  1.00  0.00     0.000 C 
BRANCH   3   4
ATOM      4  C   UNL     1      -4.576 -66.076  -0.658  1.00  0.00     0.000 C 
BRANCH   4   5
ATOM      5  C   UNL     1      -5.267 -66.707  -1.878  1.00  0.00     0.000 C 
BRANCH   5   6
ATOM      6  C   UNL     1      -4.585 -66.332  -3.202  1.00  0.00     0.006 C 
BRANCH   6   7
ATOM      7  C   UNL     1      -4.314 -67.580  -4.048  1.00  0.00     0.053 C 
BRANCH   7   8
ATOM      8  C   UNL     1      -4.000 -67.198  -5.460  1.00  0.00     0.041 C 
ATOM      9  O   UNL     1      -3.509 -66.066  -5.716  1.00  0.00    -0.550 OA
ATOM     10  O   UNL     1      -4.290 -68.073  -6.500  1.00  0.00    -0.550 OA
ENDBRANCH   7   8
ENDBRANCH   6   7
ENDBRANCH   5   6
ENDBRANCH   4   5
ENDBRANCH   3   4
ENDBRANCH   2   3
ENDBRANCH   1   2
BRANCH   1  11
ATOM     11  C   UNL     1      -6.974 -62.565  -1.613  1.00  0.00     0.000 C 
BRANCH  11  12
ATOM     12  C   UNL     1      -7.710 -63.868  -1.975  1.00  0.00    -0.000 C 
BRANCH  12  13
ATOM     13  C   UNL     1      -8.543 -64.417  -0.805  1.00  0.00    -0.000 C 
BRANCH  13  14
ATOM     14  C   UNL     1      -8.649 -65.952  -0.829  1.00  0.00    -0.000 C 
BRANCH  14  15
ATOM     15  C   UNL     1      -8.481 -66.585   0.566  1.00  0.00    -0.000 C 
BRANCH  15  16
ATOM     16  C   UNL     1      -7.578 -65.799   1.538  1.00  0.00    -0.000 C 
BRANCH  16  17
ATOM     17  C   UNL     1      -8.136 -65.644   2.963  1.00  0.00    -0.003 C 
ATOM     18  C   UNL     1      -8.310 -66.980   3.684  1.00  0.00     0.004 C 
ENDBRANCH  16  17
ENDBRANCH  15  16
ENDBRANCH  14  15
ENDBRANCH  13  14
ENDBRANCH  12  13
ENDBRANCH  11  12
ENDBRANCH   1  11
TORSDOF 14
ENDMDL
MODEL 4
REMARK VINA RESULT:    -3.482      5.083      7.245
REMARK INTER + INTRA:          -8.244
REMARK INTER:                  -7.072
REMARK INTRA:                  -1.172
REMARK UNBOUND:                -1.912
REMARK SMILES CCCCCCCCCCCCCCCC(=O)[O-]
REMARK SMILES IDX 9 1 10 2 11 3 12 4 13 5 14 6 15 7 16 8 17 9 18 10 8 11 7 12
REMARK SMILES IDX 6 13 5 14 4 15 3 16 2 17 1 18
REMARK H PARENT
REMARK Flexibility Score: inf
ROOT
ATOM      1  C   UNL     1      -8.037 -67.896   4.049  1.00  0.00     0.000 C 
ENDROOT
BRANCH   1   2
ATOM      2  C   UNL     1      -7.317 -67.552   5.364  1.00  0.00     0.000 C 
BRANCH   2   3
ATOM      3  C   UNL     1      -5.982 -68.300   5.517  1.00  0.00     0.000 C 
BRANCH   3   4
ATOM      4  C   UNL     1      -6.176 -69.783   5.878  1.00  0.00     0.000 C 
BRANCH   4   5
ATOM      5  C   UNL     1      -5.808 -70.726   4.721  1.00  0.00     0.000 C 
BRANCH   5   6
ATOM      6  C   UNL     1      -6.651 -72.010   4.714  1.00  0.00     0.006 C 
BRANCH   6   7
ATOM      7  C   UNL     1      -8.019 -71.761   4.073  1.00  0.00     0.053 C 
BRANCH   7   8
ATOM      8  C   UNL     1      -8.889 -72.970   4.209  1.00  0.00     0.041 C 
ATOM      9  O   UNL     1     -10.103 -72.847   4.525  1.00  0.00    -0.550 OA
ATOM     10  O   UNL     1      -8.352 -74.239   4.030  1.00  0.00    -0.550 OA
ENDBRANCH   7   8
ENDBRANCH   6   7
ENDBRANCH   5   6
ENDBRANCH   4   5
ENDBRANCH   3   4
ENDBRANCH   2   3
ENDBRANCH   1   2
BRANCH   1  11
ATOM     11  C   UNL     1      -8.509 -66.648   3.286  1.00  0.00     0.000 C 
BRANCH  11  12
ATOM     12  C   UNL     1      -7.357 -65.674   2.979  1.00  0.00    -0.000 C 
BRANCH  12  13
ATOM     13  C   UNL     1      -7.697 -64.702   1.837  1.00  0.00    -0.000 C 
BRANCH  13  14
ATOM     14  C   UNL     1      -6.695 -64.789   0.673  1.00  0.00    -0.000 C 
BRANCH  14  15
ATOM     15  C   UNL     1      -7.343 -65.267  -0.640  1.00  0.00    -0.000 C 
BRANCH  15  16
ATOM     16  C   UNL     1      -7.598 -66.786  -0.731  1.00  0.00    -0.000 C 
BRANCH  16  17
ATOM     17  C   UNL     1      -9.061 -67.213  -0.526  1.00  0.00    -0.003 C 
ATOM     18  C   UNL     1      -9.358 -68.609  -1.072  1.00  0.00     0.004 C 
ENDBRANCH  16  17
ENDBRANCH  15  16
ENDBRANCH  14  15
ENDBRANCH  13  14
ENDBRANCH  12  13
ENDBRANCH  11  12
ENDBRANCH   1  11
TORSDOF 14
ENDMDL
MODEL 5
REMARK VINA RESULT:    -3.468      1.236      3.247
REMARK INTER + INTRA:          -8.219
REMARK INTER:                  -5.875
REMARK INTRA:                  -2.344
REMARK UNBOUND:                -1.912
REMARK SMILES CCCCCCCCCCCCCCCC(=O)[O-]
REMARK SMILES IDX 9 1 10 2 11 3 12 4 13 5 14 6 15 7 16 8 17 9 18 10 8 11 7 12
REMARK SMILES IDX 6 13 5 14 4 15 3 16 2 17 1 18
REMARK H PARENT
REMARK Flexibility Score: inf
ROOT
ATOM      1  C   UNL     1      -8.701 -65.573  -0.610  1.00  0.00     0.000 C 
ENDROOT
BRANCH   1   2
ATOM      2  C   UNL     1      -7.516 -66.539  -0.782  1.00  0.00     0.000 C 
BRANCH   2   3
ATOM      3  C   UNL     1      -6.175 -65.803  -0.936  1.00  0.00     0.000 C 
BRANCH   3   4
ATOM      4  C   UNL     1      -6.269 -64.600  -1.891  1.00  0.00     0.000 C 
BRANCH   4   5
ATOM      5  C   UNL     1      -4.891 -64.019  -2.247  1.00  0.00     0.000 C 
BRANCH   5   6
ATOM      6  C   UNL     1      -3.838 -65.108  -2.499  1.00  0.00     0.006 C 
BRANCH   6   7
ATOM      7  C   UNL     1      -3.707 -65.403  -3.996  1.00  0.00     0.053 C 
BRANCH   7   8
ATOM      8  C   UNL     1      -4.020 -66.839  -4.276  1.00  0.00     0.041 C 
ATOM      9  O   UNL     1      -4.481 -67.577  -3.365  1.00  0.00    -0.550 OA
ATOM     10  O   UNL     1      -3.760 -67.377  -5.531  1.00  0.00    -0.550 OA
ENDBRANCH   7   8
ENDBRANCH   6   7
ENDBRANCH   5   6
ENDBRANCH   4   5
ENDBRANCH   3   4
ENDBRANCH   2   3
ENDBRANCH   1   2
BRANCH   1  11
ATOM     11  C   UNL     1      -9.182 -65.476   0.847  1.00  0.00     0.000 C 
BRANCH  11  12
ATOM     12  C   UNL     1      -8.585 -66.579   1.740  1.00  0.00    -0.000 C 
BRANCH  12  13
ATOM     13  C   UNL     1      -7.724 -66.012   2.880  1.00  0.00    -0.000 C 
BRANCH  13  14
ATOM     14  C   UNL     1      -7.559 -64.485   2.788  1.00  0.00    -0.000 C 
BRANCH  14  15
ATOM     15  C   UNL     1      -6.105 -64.057   2.512  1.00  0.00    -0.000 C 
BRANCH  15  16
ATOM     16  C   UNL     1      -5.934 -62.977   1.424  1.00  0.00    -0.000 C 
BRANCH  16  17
ATOM     17  C   UNL     1      -7.238 -62.298   0.972  1.00  0.00    -0.003 C 
ATOM     18  C   UNL     1      -7.037 -61.345  -0.206  1.00  0.00     0.004 C 
ENDBRANCH  16  17
ENDBRANCH  15  16
ENDBRANCH  14  15
ENDBRANCH  13  14
ENDBRANCH  12  13
ENDBRANCH  11  12
ENDBRANCH   1  11
TORSDOF 14
ENDMDL
MODEL 6
REMARK VINA RESULT:    -3.440      4.886      8.043
REMARK INTER + INTRA:          -8.168
REMARK INTER:                  -6.692
REMARK INTRA:                  -1.476
REMARK UNBOUND:                -1.912
REMARK SMILES CCCCCCCCCCCCCCCC(=O)[O-]
REMARK SMILES IDX 9 1 10 2 11 3 12 4 13 5 14 6 15 7 16 8 17 9 18 10 8 11 7 12
REMARK SMILES IDX 6 13 5 14 4 15 3 16 2 17 1 18
REMARK H PARENT
REMARK Flexibility Score: inf
ROOT
ATOM      1  C   UNL     1      -8.510 -66.798   3.905  1.00  0.00     0.000 C 
ENDROOT
BRANCH   1   2
ATOM      2  C   UNL     1      -9.803 -66.134   4.411  1.00  0.00     0.000 C 
BRANCH   2   3
ATOM      3  C   UNL     1      -9.666 -65.593   5.843  1.00  0.00     0.000 C 
BRANCH   3   4
ATOM      4  C   UNL     1      -9.918 -66.674   6.908  1.00  0.00     0.000 C 
BRANCH   4   5
ATOM      5  C   UNL     1     -11.200 -67.479   6.641  1.00  0.00     0.000 C 
BRANCH   5   6
ATOM      6  C   UNL     1     -11.027 -68.978   6.929  1.00  0.00     0.006 C 
BRANCH   6   7
ATOM      7  C   UNL     1      -9.557 -69.391   6.807  1.00  0.00     0.053 C 
BRANCH   7   8
ATOM      8  C   UNL     1      -9.400 -70.476   5.790  1.00  0.00     0.041 C 
ATOM      9  O   UNL     1     -10.052 -71.549   5.902  1.00  0.00    -0.550 OA
ATOM     10  O   UNL     1      -8.501 -70.324   4.742  1.00  0.00    -0.550 OA
ENDBRANCH   7   8
ENDBRANCH   6   7
ENDBRANCH   5   6
ENDBRANCH   4   5
ENDBRANCH   3   4
ENDBRANCH   2   3
ENDBRANCH   1   2
BRANCH   1  11
ATOM     11  C   UNL     1      -8.134 -66.357   2.481  1.00  0.00     0.000 C 
BRANCH  11  12
ATOM     12  C   UNL     1      -9.336 -65.798   1.699  1.00  0.00    -0.000 C 
BRANCH  12  13
ATOM     13  C   UNL     1      -9.037 -65.633   0.200  1.00  0.00    -0.000 C 
BRANCH  13  14
ATOM     14  C   UNL     1      -8.575 -66.946  -0.455  1.00  0.00    -0.000 C 
BRANCH  14  15
ATOM     15  C   UNL     1      -7.124 -66.880  -0.968  1.00  0.00    -0.000 C 
BRANCH  15  16
ATOM     16  C   UNL     1      -6.494 -65.472  -0.976  1.00  0.00    -0.000 C 
BRANCH  16  17
ATOM     17  C   UNL     1      -5.298 -65.289  -0.027  1.00  0.00    -0.003 C 
ATOM     18  C   UNL     1      -5.534 -64.208   1.028  1.00  0.00     0.004 C 
ENDBRANCH  16  17
ENDBRANCH  15  16
ENDBRANCH  14  15
ENDBRANCH  13  14
ENDBRANCH  12  13
ENDBRANCH  11  12
ENDBRANCH   1  11
TORSDOF 14
ENDMDL
MODEL 7
REMARK VINA RESULT:    -3.414      3.342      6.997
REMARK INTER + INTRA:          -8.121
REMARK INTER:                  -6.511
REMARK INTRA:                  -1.610
REMARK UNBOUND:                -1.912
REMARK SMILES CCCCCCCCCCCCCCCC(=O)[O-]
REMARK SMILES IDX 9 1 10 2 11 3 12 4 13 5 14 6 15 7 16 8 17 9 18 10 8 11 7 12
REMARK SMILES IDX 6 13 5 14 4 15 3 16 2 17 1 18
REMARK H PARENT
REMARK Flexibility Score: inf
ROOT
ATOM      1  C   UNL     1      -4.160 -65.641  -3.887  1.00  0.00     0.000 C 
ENDROOT
BRANCH   1   2
ATOM      2  C   UNL     1      -4.677 -64.816  -2.696  1.00  0.00     0.000 C 
BRANCH   2   3
ATOM      3  C   UNL     1      -5.271 -63.466  -3.129  1.00  0.00     0.000 C 
BRANCH   3   4
ATOM      4  C   UNL     1      -6.780 -63.368  -2.843  1.00  0.00     0.000 C 
BRANCH   4   5
ATOM      5  C   UNL     1      -7.124 -63.663  -1.374  1.00  0.00     0.000 C 
BRANCH   5   6
ATOM      6  C   UNL     1      -8.255 -64.692  -1.228  1.00  0.00     0.006 C 
BRANCH   6   7
ATOM      7  C   UNL     1      -7.697 -66.067  -0.850  1.00  0.00     0.053 C 
BRANCH   7   8
ATOM      8  C   UNL     1      -8.717 -66.856  -0.093  1.00  0.00     0.041 C 
ATOM      9  O   UNL     1      -8.850 -66.694   1.150  1.00  0.00    -0.550 OA
ATOM     10  O   UNL     1      -9.492 -67.805  -0.749  1.00  0.00    -0.550 OA
ENDBRANCH   7   8
ENDBRANCH   6   7
ENDBRANCH   5   6
ENDBRANCH   4   5
ENDBRANCH   3   4
ENDBRANCH   2   3
ENDBRANCH   1   2
BRANCH   1  11
ATOM     11  C   UNL     1      -4.422 -67.147  -3.725  1.00  0.00     0.000 C 
BRANCH  11  12
ATOM     12  C   UNL     1      -4.311 -67.912  -5.056  1.00  0.00    -0.000 C 
BRANCH  12  13
ATOM     13  C   UNL     1      -3.826 -67.018  -6.209  1.00  0.00    -0.000 C 
BRANCH  13  14
ATOM     14  C   UNL     1      -4.878 -66.872  -7.322  1.00  0.00    -0.000 C 
BRANCH  14  15
ATOM     15  C   UNL     1      -4.752 -65.544  -8.093  1.00  0.00    -0.000 C 
BRANCH  15  16
ATOM     16  C   UNL     1      -5.077 -64.277  -7.275  1.00  0.00    -0.000 C 
BRANCH  16  17
ATOM     17  C   UNL     1      -6.441 -64.294  -6.566  1.00  0.00    -0.003 C 
ATOM     18  C   UNL     1      -7.617 -64.128  -7.529  1.00  0.00     0.004 C 
ENDBRANCH  16  17
ENDBRANCH  15  16
ENDBRANCH  14  15
ENDBRANCH  13  14
ENDBRANCH  12  13
ENDBRANCH  11  12
ENDBRANCH   1  11
TORSDOF 14
ENDMDL
MODEL 8
REMARK VINA RESULT:    -3.412      4.036      6.673
REMARK INTER + INTRA:          -8.117
REMARK INTER:                  -6.028
REMARK INTRA:                  -2.089
REMARK UNBOUND:                -1.912
REMARK SMILES CCCCCCCCCCCCCCCC(=O)[O-]
REMARK SMILES IDX 9 1 10 2 11 3 12 4 13 5 14 6 15 7 16 8 17 9 18 10 8 11 7 12
REMARK SMILES IDX 6 13 5 14 4 15 3 16 2 17 1 18
REMARK H PARENT
REMARK Flexibility Score: inf
ROOT
ATOM      1  C   UNL     1      -9.083 -66.397   0.021  1.00  0.00     0.000 C 
ENDROOT
BRANCH   1   2
ATOM      2  C   UNL     1      -8.506 -66.704   1.414  1.00  0.00     0.000 C 
BRANCH   2   3
ATOM      3  C   UNL     1      -8.364 -65.444   2.283  1.00  0.00     0.000 C 
BRANCH   3   4
ATOM      4  C   UNL     1      -6.896 -65.038   2.496  1.00  0.00     0.000 C 
BRANCH   4   5
ATOM      5  C   UNL     1      -6.639 -63.557   2.172  1.00  0.00     0.000 C 
BRANCH   5   6
ATOM      6  C   UNL     1      -7.815 -62.901   1.434  1.00  0.00     0.006 C 
BRANCH   6   7
ATOM      7  C   UNL     1      -7.447 -61.490   0.965  1.00  0.00     0.053 C 
BRANCH   7   8
ATOM      8  C   UNL     1      -8.087 -60.463   1.845  1.00  0.00     0.041 C 
ATOM      9  O   UNL     1      -9.326 -60.502   2.067  1.00  0.00    -0.550 OA
ATOM     10  O   UNL     1      -7.324 -59.435   2.384  1.00  0.00    -0.550 OA
ENDBRANCH   7   8
ENDBRANCH   6   7
ENDBRANCH   5   6
ENDBRANCH   4   5
ENDBRANCH   3   4
ENDBRANCH   2   3
ENDBRANCH   1   2
BRANCH   1  11
ATOM     11  C   UNL     1      -8.055 -65.744  -0.917  1.00  0.00     0.000 C 
BRANCH  11  12
ATOM     12  C   UNL     1      -6.723 -66.514  -0.962  1.00  0.00    -0.000 C 
BRANCH  12  13
ATOM     13  C   UNL     1      -5.502 -65.585  -0.865  1.00  0.00    -0.000 C 
BRANCH  13  14
ATOM     14  C   UNL     1      -5.742 -64.226  -1.546  1.00  0.00    -0.000 C 
BRANCH  14  15
ATOM     15  C   UNL     1      -5.011 -64.096  -2.895  1.00  0.00    -0.000 C 
BRANCH  15  16
ATOM     16  C   UNL     1      -3.835 -65.072  -3.101  1.00  0.00    -0.000 C 
BRANCH  16  17
ATOM     17  C   UNL     1      -3.976 -66.016  -4.307  1.00  0.00    -0.003 C 
ATOM     18  C   UNL     1      -4.364 -67.439  -3.909  1.00  0.00     0.004 C 
ENDBRANCH  16  17
ENDBRANCH  15  16
ENDBRANCH  14  15
ENDBRANCH  13  14
ENDBRANCH  12  13
ENDBRANCH  11  12
ENDBRANCH   1  11
TORSDOF 14
ENDMDL
MODEL 9
REMARK VINA RESULT:    -3.404      6.054      8.352
REMARK INTER + INTRA:          -8.102
REMARK INTER:                  -7.034
REMARK INTRA:                  -1.068
REMARK UNBOUND:                -1.912
REMARK SMILES CCCCCCCCCCCCCCCC(=O)[O-]
REMARK SMILES IDX 9 1 10 2 11 3 12 4 13 5 14 6 15 7 16 8 17 9 18 10 8 11 7 12
REMARK SMILES IDX 6 13 5 14 4 15 3 16 2 17 1 18
REMARK H PARENT
REMARK Flexibility Score: inf
ROOT
ATOM      1  C   UNL     1      -8.086 -69.020   4.510  1.00  0.00     0.000 C 
ENDROOT
BRANCH   1   2
ATOM      2  C   UNL     1      -7.235 -69.959   5.383  1.00  0.00     0.000 C 
BRANCH   2   3
ATOM      3  C   UNL     1      -6.408 -70.950   4.548  1.00  0.00     0.000 C 
BRANCH   3   4
ATOM      4  C   UNL     1      -5.873 -72.124   5.386  1.00  0.00     0.000 C 
BRANCH   4   5
ATOM      5  C   UNL     1      -6.818 -72.507   6.537  1.00  0.00     0.000 C 
BRANCH   5   6
ATOM      6  C   UNL     1      -7.409 -73.915   6.372  1.00  0.00     0.006 C 
BRANCH   6   7
ATOM      7  C   UNL     1      -8.113 -74.056   5.019  1.00  0.00     0.053 C 
BRANCH   7   8
ATOM      8  C   UNL     1      -9.402 -73.297   5.019  1.00  0.00     0.041 C 
ATOM      9  O   UNL     1      -9.670 -72.502   4.078  1.00  0.00    -0.550 OA
ATOM     10  O   UNL     1     -10.290 -73.431   6.079  1.00  0.00    -0.550 OA
ENDBRANCH   7   8
ENDBRANCH   6   7
ENDBRANCH   5   6
ENDBRANCH   4   5
ENDBRANCH   3   4
ENDBRANCH   2   3
ENDBRANCH   1   2
BRANCH   1  11
ATOM     11  C   UNL     1      -8.029 -67.558   4.980  1.00  0.00     0.000 C 
BRANCH  11  12
ATOM     12  C   UNL     1      -8.814 -66.610   4.056  1.00  0.00    -0.000 C 
BRANCH  12  13
ATOM     13  C   UNL     1      -8.450 -66.799   2.574  1.00  0.00    -0.000 C 
BRANCH  13  14
ATOM     14  C   UNL     1      -7.801 -65.544   1.964  1.00  0.00    -0.000 C 
BRANCH  14  15
ATOM     15  C   UNL     1      -7.260 -65.783   0.542  1.00  0.00    -0.000 C 
BRANCH  15  16
ATOM     16  C   UNL     1      -8.330 -66.093  -0.525  1.00  0.00    -0.000 C 
BRANCH  16  17
ATOM     17  C   UNL     1      -8.261 -67.508  -1.124  1.00  0.00    -0.003 C 
ATOM     18  C   UNL     1      -9.488 -68.356  -0.793  1.00  0.00     0.004 C 
ENDBRANCH  16  17
ENDBRANCH  15  16
ENDBRANCH  14  15
ENDBRANCH  13  14
ENDBRANCH  12  13
ENDBRANCH  11  12
ENDBRANCH   1  11
TORSDOF 14
ENDMDL
