MODEL 1
REMARK VINA RESULT:    -4.145      0.000      0.000
REMARK INTER + INTRA:          -5.479
REMARK INTER:                  -4.872
REMARK INTRA:                  -0.607
REMARK UNBOUND:                -0.607
REMARK SMILES C=C(C)[C@H]1CC[C@]2(C(=O)[O-])CC[C@]3(C)[C@H](CC[C@H]4[C@@]5(C)C[C@H](O)[C@H](O)C(C)(C)[C@H]5CC[C@]43C)[C@H]12
REMARK SMILES IDX 7 1 6 2 34 3 11 4 5 5 15 6 4 7 12 8 16 9 13 10 17 11 32 12
REMARK SMILES IDX 14 13 18 14 31 15 33 16 19 17 30 18 29 19 21 20 20 21 26 22
REMARK SMILES IDX 22 23 24 24 27 25 28 26 8 27 9 28 10 29 2 30 3 31 1 32 23 33
REMARK SMILES IDX 25 35
REMARK H PARENT 23 34 25 36
REMARK Flexibility Score: inf
ROOT
ATOM      1  C   UNL     1      -6.829   6.372   1.361  1.00  0.00     0.014 C 
ATOM      2  C   UNL     1      -7.436   6.407   2.779  1.00  0.00     0.014 C 
ATOM      3  C   UNL     1      -7.916   5.685   0.477  1.00  0.00     0.012 C 
ATOM      4  C   UNL     1      -6.482   7.816   0.844  1.00  0.00     0.014 C 
ATOM      5  C   UNL     1      -8.946   6.271   2.661  1.00  0.00     0.009 C 
ATOM      6  C   UNL     1      -7.835   6.177  -1.003  1.00  0.00     0.000 C 
ATOM      7  C   UNL     1      -9.267   5.873   1.216  1.00  0.00     0.018 C 
ATOM      8  C   UNL     1      -7.598   8.503   0.029  1.00  0.00     0.008 C 
ATOM      9  C   UNL     1      -8.568   5.293  -2.024  1.00  0.00     0.005 C 
ATOM     10  C   UNL     1      -8.083   7.710  -1.245  1.00  0.00    -0.024 C 
ATOM     11  C   UNL     1      -8.642   5.946  -3.427  1.00  0.00     0.005 C 
ATOM     12  C   UNL     1      -7.305   8.124  -2.606  1.00  0.00    -0.024 C 
ATOM     13  C   UNL     1      -9.632   8.009  -1.416  1.00  0.00     0.012 C 
ATOM     14  C   UNL     1      -7.502   6.983  -3.737  1.00  0.00     0.002 C 
ATOM     15  C   UNL     1      -7.750   9.564  -3.061  1.00  0.00     0.008 C 
ATOM     16  C   UNL     1      -5.758   8.239  -2.367  1.00  0.00     0.012 C 
ATOM     17  C   UNL     1      -7.393   7.429  -5.303  1.00  0.00    -0.023 C 
ATOM     18  C   UNL     1      -8.304   9.637  -4.474  1.00  0.00     0.005 C 
ATOM     19  C   UNL     1      -7.299   9.002  -5.468  1.00  0.00     0.004 C 
ATOM     20  C   UNL     1      -8.623   6.907  -6.135  1.00  0.00     0.042 C 
ATOM     21  C   UNL     1      -6.105   6.745  -5.849  1.00  0.00     0.012 C 
ATOM     22  C   UNL     1      -7.435   9.570  -6.955  1.00  0.00    -0.003 C 
ATOM     23  C   UNL     1      -8.774   7.429  -7.574  1.00  0.00     0.144 C 
ATOM     24  C   UNL     1      -8.685   8.964  -7.656  1.00  0.00     0.149 C 
ATOM     25  C   UNL     1      -7.607  11.122  -6.947  1.00  0.00     0.014 C 
ATOM     26  C   UNL     1      -6.134   9.321  -7.786  1.00  0.00     0.014 C 
ENDROOT
BRANCH   1  27
ATOM     27  C   UNL     1      -5.533   5.562   1.424  1.00  0.00     0.048 C 
ATOM     28  O   UNL     1      -5.064   5.208   2.540  1.00  0.00    -0.550 OA
ATOM     29  O   UNL     1      -4.900   5.112   0.267  1.00  0.00    -0.550 OA
ENDBRANCH   1  27
BRANCH   7  30
ATOM     30  C   UNL     1     -10.172   4.644   1.142  1.00  0.00    -0.077 C 
ATOM     31  C   UNL     1     -11.665   4.787   1.285  1.00  0.00     0.039 C 
ATOM     32  C   UNL     1      -9.657   3.417   0.962  1.00  0.00     0.008 C 
ENDBRANCH   7  30
BRANCH  23  33
ATOM     33  O   UNL     1      -7.866   6.788  -8.431  1.00  0.00    -0.390 OA
ATOM     34  H   UNL     1      -8.229   5.884  -8.626  1.00  0.00     0.211 HD
ENDBRANCH  23  33
BRANCH  24  35
ATOM     35  O   UNL     1      -8.734   9.363  -9.006  1.00  0.00    -0.390 OA
ATOM     36  H   UNL     1      -9.410   8.793  -9.463  1.00  0.00     0.211 HD
ENDBRANCH  24  35
TORSDOF 4
ENDMDL
MODEL 2
REMARK VINA RESULT:    -4.105      1.348      1.606
REMARK INTER + INTRA:          -5.432
REMARK INTER:                  -4.784
REMARK INTRA:                  -0.648
REMARK UNBOUND:                -0.607
REMARK SMILES C=C(C)[C@H]1CC[C@]2(C(=O)[O-])CC[C@]3(C)[C@H](CC[C@H]4[C@@]5(C)C[C@H](O)[C@H](O)C(C)(C)[C@H]5CC[C@]43C)[C@H]12
REMARK SMILES IDX 7 1 6 2 34 3 11 4 5 5 15 6 4 7 12 8 16 9 13 10 17 11 32 12
REMARK SMILES IDX 14 13 18 14 31 15 33 16 19 17 30 18 29 19 21 20 20 21 26 22
REMARK SMILES IDX 22 23 24 24 27 25 28 26 8 27 9 28 10 29 2 30 3 31 1 32 23 33
REMARK SMILES IDX 25 35
REMARK H PARENT 23 34 25 36
REMARK Flexibility Score: inf
ROOT
ATOM      1  C   UNL     1      -8.206   6.622   0.882  1.00  0.00     0.014 C 
ATOM      2  C   UNL     1      -8.941   6.921   2.206  1.00  0.00     0.014 C 
ATOM      3  C   UNL     1      -9.340   6.393  -0.164  1.00  0.00     0.012 C 
ATOM      4  C   UNL     1      -7.259   7.808   0.467  1.00  0.00     0.014 C 
ATOM      5  C   UNL     1     -10.354   7.378   1.879  1.00  0.00     0.009 C 
ATOM      6  C   UNL     1      -8.872   6.783  -1.602  1.00  0.00     0.000 C 
ATOM      7  C   UNL     1     -10.601   7.106   0.391  1.00  0.00     0.018 C 
ATOM      8  C   UNL     1      -7.898   8.856  -0.468  1.00  0.00     0.008 C 
ATOM      9  C   UNL     1      -9.741   6.232  -2.743  1.00  0.00     0.005 C 
ATOM     10  C   UNL     1      -8.471   8.287  -1.822  1.00  0.00    -0.024 C 
ATOM     11  C   UNL     1      -9.362   6.832  -4.119  1.00  0.00     0.005 C 
ATOM     12  C   UNL     1      -7.413   8.337  -3.050  1.00  0.00    -0.024 C 
ATOM     13  C   UNL     1      -9.743   9.159  -2.192  1.00  0.00     0.012 C 
ATOM     14  C   UNL     1      -7.878   7.338  -4.236  1.00  0.00     0.002 C 
ATOM     15  C   UNL     1      -7.199   9.827  -3.512  1.00  0.00     0.008 C 
ATOM     16  C   UNL     1      -5.992   7.848  -2.600  1.00  0.00     0.012 C 
ATOM     17  C   UNL     1      -7.390   7.674  -5.757  1.00  0.00    -0.023 C 
ATOM     18  C   UNL     1      -7.480  10.079  -4.983  1.00  0.00     0.005 C 
ATOM     19  C   UNL     1      -6.672   9.083  -5.853  1.00  0.00     0.004 C 
ATOM     20  C   UNL     1      -8.598   7.653  -6.765  1.00  0.00     0.042 C 
ATOM     21  C   UNL     1      -6.405   6.532  -6.146  1.00  0.00     0.012 C 
ATOM     22  C   UNL     1      -6.371   9.628  -7.325  1.00  0.00    -0.003 C 
ATOM     23  C   UNL     1      -8.335   8.161  -8.192  1.00  0.00     0.144 C 
ATOM     24  C   UNL     1      -7.648   9.540  -8.209  1.00  0.00     0.149 C 
ATOM     25  C   UNL     1      -5.928  11.125  -7.287  1.00  0.00     0.014 C 
ATOM     26  C   UNL     1      -5.167   8.876  -7.979  1.00  0.00     0.014 C 
ENDROOT
BRANCH   1  27
ATOM     27  C   UNL     1      -7.347   5.375   1.092  1.00  0.00     0.048 C 
ATOM     28  O   UNL     1      -7.760   4.250   0.700  1.00  0.00    -0.550 OA
ATOM     29  O   UNL     1      -6.060   5.460   1.622  1.00  0.00    -0.550 OA
ENDBRANCH   1  27
BRANCH   7  30
ATOM     30  C   UNL     1     -11.892   6.323   0.153  1.00  0.00    -0.077 C 
ATOM     31  C   UNL     1     -12.774   6.647  -1.025  1.00  0.00     0.039 C 
ATOM     32  C   UNL     1     -12.270   5.343   0.990  1.00  0.00     0.008 C 
ENDBRANCH   7  30
BRANCH  23  33
ATOM     33  O   UNL     1      -7.637   7.200  -8.940  1.00  0.00    -0.390 OA
ATOM     34  H   UNL     1      -6.682   7.252  -8.671  1.00  0.00     0.211 HD
ENDBRANCH  23  33
BRANCH  24  35
ATOM     35  O   UNL     1      -7.352   9.897  -9.538  1.00  0.00    -0.390 OA
ATOM     36  H   UNL     1      -6.368   9.814  -9.661  1.00  0.00     0.211 HD
ENDBRANCH  24  35
TORSDOF 4
ENDMDL
MODEL 3
REMARK VINA RESULT:    -3.897      2.816      9.373
REMARK INTER + INTRA:          -5.188
REMARK INTER:                  -4.466
REMARK INTRA:                  -0.722
REMARK UNBOUND:                -0.607
REMARK SMILES C=C(C)[C@H]1CC[C@]2(C(=O)[O-])CC[C@]3(C)[C@H](CC[C@H]4[C@@]5(C)C[C@H](O)[C@H](O)C(C)(C)[C@H]5CC[C@]43C)[C@H]12
REMARK SMILES IDX 7 1 6 2 34 3 11 4 5 5 15 6 4 7 12 8 16 9 13 10 17 11 32 12
REMARK SMILES IDX 14 13 18 14 31 15 33 16 19 17 30 18 29 19 21 20 20 21 26 22
REMARK SMILES IDX 22 23 24 24 27 25 28 26 8 27 9 28 10 29 2 30 3 31 1 32 23 33
REMARK SMILES IDX 25 35
REMARK H PARENT 23 34 25 36
REMARK Flexibility Score: inf
ROOT
ATOM      1  C   UNL     1      -7.274   9.423 -10.937  1.00  0.00     0.014 C 
ATOM      2  C   UNL     1      -6.464   9.999 -12.118  1.00  0.00     0.014 C 
ATOM      3  C   UNL     1      -6.308   8.413 -10.243  1.00  0.00     0.012 C 
ATOM      4  C   UNL     1      -7.741  10.555  -9.950  1.00  0.00     0.014 C 
ATOM      5  C   UNL     1      -4.984   9.784 -11.838  1.00  0.00     0.009 C 
ATOM      6  C   UNL     1      -6.625   8.282  -8.720  1.00  0.00     0.000 C 
ATOM      7  C   UNL     1      -4.869   8.839 -10.637  1.00  0.00     0.018 C 
ATOM      8  C   UNL     1      -6.782  10.832  -8.773  1.00  0.00     0.008 C 
ATOM      9  C   UNL     1      -6.023   7.046  -8.034  1.00  0.00     0.005 C 
ATOM     10  C   UNL     1      -6.467   9.587  -7.859  1.00  0.00    -0.024 C 
ATOM     11  C   UNL     1      -6.180   7.088  -6.494  1.00  0.00     0.005 C 
ATOM     12  C   UNL     1      -7.453   9.451  -6.578  1.00  0.00    -0.024 C 
ATOM     13  C   UNL     1      -4.972   9.748  -7.353  1.00  0.00     0.012 C 
ATOM     14  C   UNL     1      -7.388   7.950  -5.974  1.00  0.00     0.002 C 
ATOM     15  C   UNL     1      -7.128  10.580  -5.530  1.00  0.00     0.008 C 
ATOM     16  C   UNL     1      -8.949   9.695  -6.981  1.00  0.00     0.012 C 
ATOM     17  C   UNL     1      -7.744   7.744  -4.394  1.00  0.00    -0.023 C 
ATOM     18  C   UNL     1      -6.793  10.073  -4.138  1.00  0.00     0.005 C 
ATOM     19  C   UNL     1      -7.914   9.126  -3.638  1.00  0.00     0.004 C 
ATOM     20  C   UNL     1      -6.635   6.901  -3.662  1.00  0.00     0.042 C 
ATOM     21  C   UNL     1      -9.076   6.937  -4.363  1.00  0.00     0.012 C 
ATOM     22  C   UNL     1      -8.019   9.056  -2.045  1.00  0.00    -0.003 C 
ATOM     23  C   UNL     1      -6.718   6.807  -2.129  1.00  0.00     0.144 C 
ATOM     24  C   UNL     1      -6.869   8.187  -1.462  1.00  0.00     0.149 C 
ATOM     25  C   UNL     1      -7.900  10.480  -1.414  1.00  0.00     0.014 C 
ATOM     26  C   UNL     1      -9.420   8.537  -1.586  1.00  0.00     0.014 C 
ENDROOT
BRANCH   1  27
ATOM     27  C   UNL     1      -8.518   8.742 -11.508  1.00  0.00     0.048 C 
ATOM     28  O   UNL     1      -8.417   7.625 -12.085  1.00  0.00    -0.550 OA
ATOM     29  O   UNL     1      -9.790   9.278 -11.320  1.00  0.00    -0.550 OA
ENDBRANCH   1  27
BRANCH   7  30
ATOM     30  C   UNL     1      -3.945   7.654 -10.920  1.00  0.00    -0.077 C 
ATOM     31  C   UNL     1      -4.468   6.432 -11.631  1.00  0.00     0.039 C 
ATOM     32  C   UNL     1      -2.659   7.673 -10.532  1.00  0.00     0.008 C 
ENDBRANCH   7  30
BRANCH  23  33
ATOM     33  O   UNL     1      -7.721   5.906  -1.741  1.00  0.00    -0.390 OA
ATOM     34  H   UNL     1      -8.238   6.335  -1.009  1.00  0.00     0.211 HD
ENDBRANCH  23  33
BRANCH  24  35
ATOM     35  O   UNL     1      -7.034   8.018  -0.074  1.00  0.00    -0.390 OA
ATOM     36  H   UNL     1      -6.128   7.940   0.330  1.00  0.00     0.211 HD
ENDBRANCH  24  35
TORSDOF 4
ENDMDL
MODEL 4
REMARK VINA RESULT:    -3.414      1.953      8.512
REMARK INTER + INTRA:          -4.619
REMARK INTER:                  -4.402
REMARK INTRA:                  -0.218
REMARK UNBOUND:                -0.607
REMARK SMILES C=C(C)[C@H]1CC[C@]2(C(=O)[O-])CC[C@]3(C)[C@H](CC[C@H]4[C@@]5(C)C[C@H](O)[C@H](O)C(C)(C)[C@H]5CC[C@]43C)[C@H]12
REMARK SMILES IDX 7 1 6 2 34 3 11 4 5 5 15 6 4 7 12 8 16 9 13 10 17 11 32 12
REMARK SMILES IDX 14 13 18 14 31 15 33 16 19 17 30 18 29 19 21 20 20 21 26 22
REMARK SMILES IDX 22 23 24 24 27 25 28 26 8 27 9 28 10 29 2 30 3 31 1 32 23 33
REMARK SMILES IDX 25 35
REMARK H PARENT 23 34 25 36
REMARK Flexibility Score: inf
ROOT
ATOM      1  C   UNL     1      -7.689  10.069  -8.581  1.00  0.00     0.014 C 
ATOM      2  C   UNL     1      -6.798  10.313  -9.817  1.00  0.00     0.014 C 
ATOM      3  C   UNL     1      -7.739   8.517  -8.422  1.00  0.00     0.012 C 
ATOM      4  C   UNL     1      -7.103  10.768  -7.299  1.00  0.00     0.014 C 
ATOM      5  C   UNL     1      -5.944   9.076 -10.048  1.00  0.00     0.009 C 
ATOM      6  C   UNL     1      -7.947   8.107  -6.930  1.00  0.00     0.000 C 
ATOM      7  C   UNL     1      -6.483   7.961  -9.145  1.00  0.00     0.018 C 
ATOM      8  C   UNL     1      -6.176   9.883  -6.440  1.00  0.00     0.008 C 
ATOM      9  C   UNL     1      -8.408   6.658  -6.711  1.00  0.00     0.005 C 
ATOM     10  C   UNL     1      -6.821   8.541  -5.923  1.00  0.00    -0.024 C 
ATOM     11  C   UNL     1      -8.380   6.247  -5.219  1.00  0.00     0.005 C 
ATOM     12  C   UNL     1      -7.499   8.665  -4.455  1.00  0.00    -0.024 C 
ATOM     13  C   UNL     1      -5.663   7.457  -5.875  1.00  0.00     0.012 C 
ATOM     14  C   UNL     1      -8.522   7.436  -4.200  1.00  0.00     0.002 C 
ATOM     15  C   UNL     1      -6.378   8.806  -3.357  1.00  0.00     0.008 C 
ATOM     16  C   UNL     1      -8.352   9.976  -4.329  1.00  0.00     0.012 C 
ATOM     17  C   UNL     1      -8.808   6.984  -2.658  1.00  0.00    -0.023 C 
ATOM     18  C   UNL     1      -6.435   7.759  -2.258  1.00  0.00     0.005 C 
ATOM     19  C   UNL     1      -7.853   7.726  -1.634  1.00  0.00     0.004 C 
ATOM     20  C   UNL     1      -8.635   5.431  -2.475  1.00  0.00     0.042 C 
ATOM     21  C   UNL     1     -10.296   7.349  -2.380  1.00  0.00     0.012 C 
ATOM     22  C   UNL     1      -7.869   7.188  -0.130  1.00  0.00    -0.003 C 
ATOM     23  C   UNL     1      -8.658   4.883  -1.038  1.00  0.00     0.144 C 
ATOM     24  C   UNL     1      -7.698   5.642  -0.103  1.00  0.00     0.149 C 
ATOM     25  C   UNL     1      -6.698   7.806   0.698  1.00  0.00     0.014 C 
ATOM     26  C   UNL     1      -9.164   7.635   0.624  1.00  0.00     0.014 C 
ENDROOT
BRANCH   1  27
ATOM     27  C   UNL     1      -9.066  10.670  -8.867  1.00  0.00     0.048 C 
ATOM     28  O   UNL     1      -9.885  10.847  -7.924  1.00  0.00    -0.550 OA
ATOM     29  O   UNL     1      -9.409  11.125 -10.138  1.00  0.00    -0.550 OA
ENDBRANCH   1  27
BRANCH   7  30
ATOM     30  C   UNL     1      -6.754   6.671  -9.918  1.00  0.00    -0.077 C 
ATOM     31  C   UNL     1      -5.738   6.142 -10.898  1.00  0.00     0.039 C 
ATOM     32  C   UNL     1      -7.901   5.992  -9.750  1.00  0.00     0.008 C 
ENDBRANCH   7  30
BRANCH  23  33
ATOM     33  O   UNL     1      -9.971   4.839  -0.545  1.00  0.00    -0.390 OA
ATOM     34  H   UNL     1     -10.397   5.712  -0.758  1.00  0.00     0.211 HD
ENDBRANCH  23  33
BRANCH  24  35
ATOM     35  O   UNL     1      -7.841   5.153   1.210  1.00  0.00    -0.390 OA
ATOM     36  H   UNL     1      -7.059   4.569   1.401  1.00  0.00     0.211 HD
ENDBRANCH  24  35
TORSDOF 4
ENDMDL
MODEL 5
REMARK VINA RESULT:    -3.327      2.473      4.552
REMARK INTER + INTRA:          -4.518
REMARK INTER:                  -3.829
REMARK INTRA:                  -0.689
REMARK UNBOUND:                -0.607
REMARK SMILES C=C(C)[C@H]1CC[C@]2(C(=O)[O-])CC[C@]3(C)[C@H](CC[C@H]4[C@@]5(C)C[C@H](O)[C@H](O)C(C)(C)[C@H]5CC[C@]43C)[C@H]12
REMARK SMILES IDX 7 1 6 2 34 3 11 4 5 5 15 6 4 7 12 8 16 9 13 10 17 11 32 12
REMARK SMILES IDX 14 13 18 14 31 15 33 16 19 17 30 18 29 19 21 20 20 21 26 22
REMARK SMILES IDX 22 23 24 24 27 25 28 26 8 27 9 28 10 29 2 30 3 31 1 32 23 33
REMARK SMILES IDX 25 35
REMARK H PARENT 23 34 25 36
REMARK Flexibility Score: inf
ROOT
ATOM      1  C   UNL     1      -8.914   6.906  -1.317  1.00  0.00     0.014 C 
ATOM      2  C   UNL     1      -8.446   6.748   0.145  1.00  0.00     0.014 C 
ATOM      3  C   UNL     1      -8.686   8.414  -1.650  1.00  0.00     0.012 C 
ATOM      4  C   UNL     1      -8.108   5.966  -2.287  1.00  0.00     0.014 C 
ATOM      5  C   UNL     1      -7.514   7.902   0.481  1.00  0.00     0.009 C 
ATOM      6  C   UNL     1      -8.411   8.621  -3.172  1.00  0.00     0.000 C 
ATOM      7  C   UNL     1      -7.611   8.926  -0.655  1.00  0.00     0.018 C 
ATOM      8  C   UNL     1      -6.858   6.606  -2.927  1.00  0.00     0.008 C 
ATOM      9  C   UNL     1      -8.572  10.066  -3.672  1.00  0.00     0.005 C 
ATOM     10  C   UNL     1      -7.128   7.922  -3.753  1.00  0.00    -0.024 C 
ATOM     11  C   UNL     1      -8.072  10.248  -5.126  1.00  0.00     0.005 C 
ATOM     12  C   UNL     1      -7.385   7.661  -5.332  1.00  0.00    -0.024 C 
ATOM     13  C   UNL     1      -5.854   8.851  -3.576  1.00  0.00     0.012 C 
ATOM     14  C   UNL     1      -8.102   8.946  -6.007  1.00  0.00     0.002 C 
ATOM     15  C   UNL     1      -6.039   7.236  -6.031  1.00  0.00     0.008 C 
ATOM     16  C   UNL     1      -8.355   6.449  -5.560  1.00  0.00     0.012 C 
ATOM     17  C   UNL     1      -7.881   9.196  -7.604  1.00  0.00    -0.023 C 
ATOM     18  C   UNL     1      -5.633   8.111  -7.204  1.00  0.00     0.005 C 
ATOM     19  C   UNL     1      -6.802   8.211  -8.217  1.00  0.00     0.004 C 
ATOM     20  C   UNL     1      -7.435  10.677  -7.896  1.00  0.00     0.042 C 
ATOM     21  C   UNL     1      -9.271   8.963  -8.266  1.00  0.00     0.012 C 
ATOM     22  C   UNL     1      -6.322   8.521  -9.709  1.00  0.00    -0.003 C 
ATOM     23  C   UNL     1      -6.978  11.008  -9.327  1.00  0.00     0.144 C 
ATOM     24  C   UNL     1      -5.921  10.017  -9.851  1.00  0.00     0.149 C 
ATOM     25  C   UNL     1      -5.073   7.662 -10.085  1.00  0.00     0.014 C 
ATOM     26  C   UNL     1      -7.409   8.116 -10.757  1.00  0.00     0.014 C 
ENDROOT
BRANCH   1  27
ATOM     27  C   UNL     1     -10.390   6.511  -1.384  1.00  0.00     0.048 C 
ATOM     28  O   UNL     1     -10.833   5.893  -2.390  1.00  0.00    -0.550 OA
ATOM     29  O   UNL     1     -11.249   6.728  -0.309  1.00  0.00    -0.550 OA
ENDBRANCH   1  27
BRANCH   7  30
ATOM     30  C   UNL     1      -7.889  10.337  -0.140  1.00  0.00    -0.077 C 
ATOM     31  C   UNL     1      -9.294  10.884  -0.136  1.00  0.00     0.039 C 
ATOM     32  C   UNL     1      -6.893  11.119   0.306  1.00  0.00     0.008 C 
ENDBRANCH   7  30
BRANCH  23  33
ATOM     33  O   UNL     1      -8.082  11.125 -10.185  1.00  0.00    -0.390 OA
ATOM     34  H   UNL     1      -7.736  11.383 -11.080  1.00  0.00     0.211 HD
ENDBRANCH  23  33
BRANCH  24  35
ATOM     35  O   UNL     1      -5.622  10.322 -11.193  1.00  0.00    -0.390 OA
ATOM     36  H   UNL     1      -6.027  11.207 -11.398  1.00  0.00     0.211 HD
ENDBRANCH  24  35
TORSDOF 4
ENDMDL
MODEL 6
REMARK VINA RESULT:    -3.298      2.199      3.729
REMARK INTER + INTRA:          -4.483
REMARK INTER:                  -3.757
REMARK INTRA:                  -0.727
REMARK UNBOUND:                -0.607
REMARK SMILES C=C(C)[C@H]1CC[C@]2(C(=O)[O-])CC[C@]3(C)[C@H](CC[C@H]4[C@@]5(C)C[C@H](O)[C@H](O)C(C)(C)[C@H]5CC[C@]43C)[C@H]12
REMARK SMILES IDX 7 1 6 2 34 3 11 4 5 5 15 6 4 7 12 8 16 9 13 10 17 11 32 12
REMARK SMILES IDX 14 13 18 14 31 15 33 16 19 17 30 18 29 19 21 20 20 21 26 22
REMARK SMILES IDX 22 23 24 24 27 25 28 26 8 27 9 28 10 29 2 30 3 31 1 32 23 33
REMARK SMILES IDX 25 35
REMARK H PARENT 23 34 25 36
REMARK Flexibility Score: inf
ROOT
ATOM      1  C   UNL     1      -9.969   6.556   1.199  1.00  0.00     0.014 C 
ATOM      2  C   UNL     1      -9.976   5.413   2.236  1.00  0.00     0.014 C 
ATOM      3  C   UNL     1      -8.460   6.866   0.954  1.00  0.00     0.012 C 
ATOM      4  C   UNL     1     -10.702   6.135  -0.129  1.00  0.00     0.014 C 
ATOM      5  C   UNL     1      -8.621   4.724   2.204  1.00  0.00     0.009 C 
ATOM      6  C   UNL     1      -8.223   7.422  -0.485  1.00  0.00     0.000 C 
ATOM      7  C   UNL     1      -7.677   5.590   1.362  1.00  0.00     0.018 C 
ATOM      8  C   UNL     1      -9.786   5.538  -1.218  1.00  0.00     0.008 C 
ATOM      9  C   UNL     1      -6.874   8.128  -0.697  1.00  0.00     0.005 C 
ATOM     10  C   UNL     1      -8.595   6.464  -1.675  1.00  0.00    -0.024 C 
ATOM     11  C   UNL     1      -6.604   8.455  -2.187  1.00  0.00     0.005 C 
ATOM     12  C   UNL     1      -8.945   7.391  -2.959  1.00  0.00    -0.024 C 
ATOM     13  C   UNL     1      -7.377   5.513  -2.032  1.00  0.00     0.012 C 
ATOM     14  C   UNL     1      -7.892   8.615  -3.075  1.00  0.00     0.002 C 
ATOM     15  C   UNL     1      -9.038   6.499  -4.254  1.00  0.00     0.008 C 
ATOM     16  C   UNL     1     -10.364   8.047  -2.820  1.00  0.00     0.012 C 
ATOM     17  C   UNL     1      -7.628   9.262  -4.549  1.00  0.00    -0.023 C 
ATOM     18  C   UNL     1      -8.115   6.926  -5.382  1.00  0.00     0.005 C 
ATOM     19  C   UNL     1      -8.329   8.428  -5.699  1.00  0.00     0.004 C 
ATOM     20  C   UNL     1      -6.089   9.362  -4.865  1.00  0.00     0.042 C 
ATOM     21  C   UNL     1      -8.212  10.705  -4.488  1.00  0.00     0.012 C 
ATOM     22  C   UNL     1      -7.941   8.819  -7.199  1.00  0.00    -0.003 C 
ATOM     23  C   UNL     1      -5.686   9.748  -6.297  1.00  0.00     0.144 C 
ATOM     24  C   UNL     1      -6.396   8.888  -7.360  1.00  0.00     0.149 C 
ATOM     25  C   UNL     1      -8.473   7.754  -8.210  1.00  0.00     0.014 C 
ATOM     26  C   UNL     1      -8.624  10.155  -7.637  1.00  0.00     0.014 C 
ENDROOT
BRANCH   1  27
ATOM     27  C   UNL     1     -10.718   7.744   1.802  1.00  0.00     0.048 C 
ATOM     28  O   UNL     1     -11.107   7.702   3.002  1.00  0.00    -0.550 OA
ATOM     29  O   UNL     1     -10.899   8.928   1.089  1.00  0.00    -0.550 OA
ENDBRANCH   1  27
BRANCH   7  30
ATOM     30  C   UNL     1      -6.368   5.893   2.090  1.00  0.00    -0.077 C 
ATOM     31  C   UNL     1      -6.380   6.608   3.417  1.00  0.00     0.039 C 
ATOM     32  C   UNL     1      -5.185   5.541   1.560  1.00  0.00     0.008 C 
ENDBRANCH   7  30
BRANCH  23  33
ATOM     33  O   UNL     1      -5.864  11.124  -6.509  1.00  0.00    -0.390 OA
ATOM     34  H   UNL     1      -4.981  11.561  -6.376  1.00  0.00     0.211 HD
ENDBRANCH  23  33
BRANCH  24  35
ATOM     35  O   UNL     1      -6.055   9.358  -8.643  1.00  0.00    -0.390 OA
ATOM     36  H   UNL     1      -6.390   8.695  -9.306  1.00  0.00     0.211 HD
ENDBRANCH  24  35
TORSDOF 4
ENDMDL
MODEL 7
REMARK VINA RESULT:    -2.632      2.041      8.792
REMARK INTER + INTRA:          -3.701
REMARK INTER:                  -3.015
REMARK INTRA:                  -0.685
REMARK UNBOUND:                -0.607
REMARK SMILES C=C(C)[C@H]1CC[C@]2(C(=O)[O-])CC[C@]3(C)[C@H](CC[C@H]4[C@@]5(C)C[C@H](O)[C@H](O)C(C)(C)[C@H]5CC[C@]43C)[C@H]12
REMARK SMILES IDX 7 1 6 2 34 3 11 4 5 5 15 6 4 7 12 8 16 9 13 10 17 11 32 12
REMARK SMILES IDX 14 13 18 14 31 15 33 16 19 17 30 18 29 19 21 20 20 21 26 22
REMARK SMILES IDX 22 23 24 24 27 25 28 26 8 27 9 28 10 29 2 30 3 31 1 32 23 33
REMARK SMILES IDX 25 35
REMARK H PARENT 23 34 25 36
REMARK Flexibility Score: inf
ROOT
ATOM      1  C   UNL     1      -7.375   7.976  -9.796  1.00  0.00     0.014 C 
ATOM      2  C   UNL     1      -6.905   8.874 -10.960  1.00  0.00     0.014 C 
ATOM      3  C   UNL     1      -6.104   7.761  -8.917  1.00  0.00     0.012 C 
ATOM      4  C   UNL     1      -8.541   8.649  -8.981  1.00  0.00     0.014 C 
ATOM      5  C   UNL     1      -5.631   9.587 -10.535  1.00  0.00     0.009 C 
ATOM      6  C   UNL     1      -6.483   7.527  -7.421  1.00  0.00     0.000 C 
ATOM      7  C   UNL     1      -5.147   8.941  -9.233  1.00  0.00     0.018 C 
ATOM      8  C   UNL     1      -8.089   9.485  -7.766  1.00  0.00     0.008 C 
ATOM      9  C   UNL     1      -5.371   6.915  -6.555  1.00  0.00     0.005 C 
ATOM     10  C   UNL     1      -7.232   8.704  -6.697  1.00  0.00    -0.024 C 
ATOM     11  C   UNL     1      -5.726   6.915  -5.048  1.00  0.00     0.005 C 
ATOM     12  C   UNL     1      -8.112   8.060  -5.497  1.00  0.00    -0.024 C 
ATOM     13  C   UNL     1      -6.195   9.739  -6.088  1.00  0.00     0.012 C 
ATOM     14  C   UNL     1      -7.266   6.914  -4.729  1.00  0.00     0.002 C 
ATOM     15  C   UNL     1      -8.650   9.202  -4.555  1.00  0.00     0.008 C 
ATOM     16  C   UNL     1      -9.401   7.356  -6.049  1.00  0.00     0.012 C 
ATOM     17  C   UNL     1      -7.640   6.599  -3.172  1.00  0.00    -0.023 C 
ATOM     18  C   UNL     1      -8.270   9.046  -3.092  1.00  0.00     0.005 C 
ATOM     19  C   UNL     1      -8.682   7.640  -2.588  1.00  0.00     0.004 C 
ATOM     20  C   UNL     1      -6.357   6.605  -2.261  1.00  0.00     0.042 C 
ATOM     21  C   UNL     1      -8.241   5.162  -3.164  1.00  0.00     0.012 C 
ATOM     22  C   UNL     1      -8.937   7.583  -1.012  1.00  0.00    -0.003 C 
ATOM     23  C   UNL     1      -6.571   6.539  -0.740  1.00  0.00     0.144 C 
ATOM     24  C   UNL     1      -7.585   7.587  -0.243  1.00  0.00     0.149 C 
ATOM     25  C   UNL     1      -9.755   8.823  -0.532  1.00  0.00     0.014 C 
ATOM     26  C   UNL     1      -9.818   6.352  -0.618  1.00  0.00     0.014 C 
ENDROOT
BRANCH   1  27
ATOM     27  C   UNL     1      -7.900   6.669 -10.392  1.00  0.00     0.048 C 
ATOM     28  O   UNL     1      -8.809   6.694 -11.265  1.00  0.00    -0.550 OA
ATOM     29  O   UNL     1      -7.326   5.441 -10.067  1.00  0.00    -0.550 OA
ENDBRANCH   1  27
BRANCH   7  30
ATOM     30  C   UNL     1      -3.678   8.524  -9.305  1.00  0.00    -0.077 C 
ATOM     31  C   UNL     1      -2.731   8.871  -8.186  1.00  0.00     0.039 C 
ATOM     32  C   UNL     1      -3.202   7.853 -10.367  1.00  0.00     0.008 C 
ENDBRANCH   7  30
BRANCH  23  33
ATOM     33  O   UNL     1      -6.901   5.235  -0.341  1.00  0.00    -0.390 OA
ATOM     34  H   UNL     1      -7.875   5.223  -0.141  1.00  0.00     0.211 HD
ENDBRANCH  23  33
BRANCH  24  35
ATOM     35  O   UNL     1      -7.803   7.406   1.137  1.00  0.00    -0.390 OA
ATOM     36  H   UNL     1      -8.689   6.967   1.247  1.00  0.00     0.211 HD
ENDBRANCH  24  35
TORSDOF 4
ENDMDL
MODEL 8
REMARK VINA RESULT:    -1.770      1.519      2.003
REMARK INTER + INTRA:          -2.688
REMARK INTER:                  -1.965
REMARK INTRA:                  -0.722
REMARK UNBOUND:                -0.607
REMARK SMILES C=C(C)[C@H]1CC[C@]2(C(=O)[O-])CC[C@]3(C)[C@H](CC[C@H]4[C@@]5(C)C[C@H](O)[C@H](O)C(C)(C)[C@H]5CC[C@]43C)[C@H]12
REMARK SMILES IDX 7 1 6 2 34 3 11 4 5 5 15 6 4 7 12 8 16 9 13 10 17 11 32 12
REMARK SMILES IDX 14 13 18 14 31 15 33 16 19 17 30 18 29 19 21 20 20 21 26 22
REMARK SMILES IDX 22 23 24 24 27 25 28 26 8 27 9 28 10 29 2 30 3 31 1 32 23 33
REMARK SMILES IDX 25 35
REMARK H PARENT 23 34 25 36
REMARK Flexibility Score: inf
ROOT
ATOM      1  C   UNL     1      -7.019   6.743  -0.431  1.00  0.00     0.014 C 
ATOM      2  C   UNL     1      -7.432   7.043   1.026  1.00  0.00     0.014 C 
ATOM      3  C   UNL     1      -8.357   6.434  -1.172  1.00  0.00     0.012 C 
ATOM      4  C   UNL     1      -6.261   7.960  -1.079  1.00  0.00     0.014 C 
ATOM      5  C   UNL     1      -8.904   7.426   1.040  1.00  0.00     0.009 C 
ATOM      6  C   UNL     1      -8.266   6.807  -2.685  1.00  0.00     0.000 C 
ATOM      7  C   UNL     1      -9.484   7.103  -0.341  1.00  0.00     0.018 C 
ATOM      8  C   UNL     1      -7.157   8.952  -1.849  1.00  0.00     0.008 C 
ATOM      9  C   UNL     1      -9.353   6.185  -3.576  1.00  0.00     0.005 C 
ATOM     10  C   UNL     1      -8.006   8.321  -3.018  1.00  0.00    -0.024 C 
ATOM     11  C   UNL     1      -9.344   6.765  -5.012  1.00  0.00     0.005 C 
ATOM     12  C   UNL     1      -7.276   8.386  -4.464  1.00  0.00    -0.024 C 
ATOM     13  C   UNL     1      -9.373   9.123  -3.085  1.00  0.00     0.012 C 
ATOM     14  C   UNL     1      -7.959   7.336  -5.489  1.00  0.00     0.002 C 
ATOM     15  C   UNL     1      -7.254   9.872  -4.986  1.00  0.00     0.008 C 
ATOM     16  C   UNL     1      -5.765   7.976  -4.360  1.00  0.00     0.012 C 
ATOM     17  C   UNL     1      -7.865   7.653  -7.087  1.00  0.00    -0.023 C 
ATOM     18  C   UNL     1      -7.891  10.071  -6.351  1.00  0.00     0.005 C 
ATOM     19  C   UNL     1      -7.264   9.090  -7.374  1.00  0.00     0.004 C 
ATOM     20  C   UNL     1      -9.276   7.549  -7.776  1.00  0.00     0.042 C 
ATOM     21  C   UNL     1      -6.944   6.547  -7.684  1.00  0.00     0.012 C 
ATOM     22  C   UNL     1      -7.351   9.609  -8.883  1.00  0.00    -0.003 C 
ATOM     23  C   UNL     1      -9.388   8.030  -9.232  1.00  0.00     0.144 C 
ATOM     24  C   UNL     1      -8.796   9.438  -9.433  1.00  0.00     0.149 C 
ATOM     25  C   UNL     1      -6.988  11.125  -8.975  1.00  0.00     0.014 C 
ATOM     26  C   UNL     1      -6.301   8.896  -9.795  1.00  0.00     0.014 C 
ENDROOT
BRANCH   1  27
ATOM     27  C   UNL     1      -6.072   5.543  -0.414  1.00  0.00     0.048 C 
ATOM     28  O   UNL     1      -6.307   4.564   0.347  1.00  0.00    -0.550 OA
ATOM     29  O   UNL     1      -4.998   5.452  -1.297  1.00  0.00    -0.550 OA
ENDBRANCH   1  27
BRANCH   7  30
ATOM     30  C   UNL     1     -10.752   6.255  -0.251  1.00  0.00    -0.077 C 
ATOM     31  C   UNL     1     -11.947   6.576  -1.113  1.00  0.00     0.039 C 
ATOM     32  C   UNL     1     -10.833   5.220   0.601  1.00  0.00     0.008 C 
ENDBRANCH   7  30
BRANCH  23  33
ATOM     33  O   UNL     1      -8.840   7.083 -10.111  1.00  0.00    -0.390 OA
ATOM     34  H   UNL     1      -7.858   7.069  -9.958  1.00  0.00     0.211 HD
ENDBRANCH  23  33
BRANCH  24  35
ATOM     35  O   UNL     1      -8.844   9.773 -10.801  1.00  0.00    -0.390 OA
ATOM     36  H   UNL     1      -7.965   9.534 -11.201  1.00  0.00     0.211 HD
ENDBRANCH  24  35
TORSDOF 4
ENDMDL
