MODEL 1
REMARK VINA RESULT:    -3.552      0.000      0.000
REMARK INTER + INTRA:          -5.629
REMARK INTER:                  -5.420
REMARK INTRA:                  -0.208
REMARK UNBOUND:                -0.208
REMARK SMILES CC1=CCC[C@H](C)C(=O)C[C@H](C(C)C)C(=O)C1
REMARK SMILES IDX 8 1 9 2 6 3 7 4 5 5 4 6 3 7 2 8 1 9 10 11 11 12 15 13 16 14
REMARK SMILES IDX 17 15 12 17 13 18 14 19
REMARK H PARENT
REMARK Flexibility Score: 70.00
ROOT
ATOM      1  C   UNL     1      16.487   9.829  24.899  1.00  0.00     0.136 C 
ATOM      2  O   UNL     1      16.998  10.444  23.973  1.00  0.00    -0.299 OA
ENDROOT
BRANCH   1   3
ATOM      3  C   UNL     1      16.436   8.314  24.808  1.00  0.00     0.053 C 
ATOM      4  C   UNL     1      16.927   7.591  26.075  1.00  0.00     0.016 C 
BRANCH   3   5
ATOM      5  C   UNL     1      15.041   7.818  24.369  1.00  0.00     0.015 C 
BRANCH   5   6
ATOM      6  C   UNL     1      14.016   7.686  25.519  1.00  0.00     0.028 C 
BRANCH   6   7
ATOM      7  C   UNL     1      12.749   8.456  25.222  1.00  0.00    -0.028 C 
ATOM      8  C   UNL     1      12.331   9.608  25.801  1.00  0.00    -0.070 CG0
ATOM      9  C   UNL     1      10.996  10.160  25.363  1.00  0.00     0.039 C 
ATOM     10  G   UNL     1      13.115  10.388  26.843  1.00  0.00     0.000 G0
ENDBRANCH   6   7
ENDBRANCH   5   6
ENDBRANCH   3   5
ENDBRANCH   1   3
BRANCH   1  11
ATOM     11  C   UNL     1      16.001  10.584  26.122  1.00  0.00     0.087 C 
BRANCH  11  12
ATOM     12  C   UNL     1      15.111  11.807  25.781  1.00  0.00     0.066 C 
BRANCH  12  13
ATOM     13  C   UNL     1      13.678  11.672  26.278  1.00  0.00     0.140 C 
ATOM     14  O   UNL     1      12.969  12.669  26.267  1.00  0.00    -0.299 OA
BRANCH  13  15
ATOM     15  C   UNL     1      13.113  10.395  26.861  1.00  0.00     0.106 CG0
ATOM     16  G   UNL     1      12.327   9.616  25.819  1.00  0.00     0.000 G0
ENDBRANCH  13  15
ENDBRANCH  12  13
BRANCH  12  17
ATOM     17  C   UNL     1      15.723  13.181  26.200  1.00  0.00    -0.006 C 
ATOM     18  C   UNL     1      16.788  13.664  25.202  1.00  0.00     0.008 C 
ATOM     19  C   UNL     1      16.293  13.206  27.627  1.00  0.00     0.008 C 
ENDBRANCH  12  17
ENDBRANCH  11  12
ENDBRANCH   1  11
TORSDOF 1
ENDMDL
MODEL 2
REMARK VINA RESULT:    -3.512      2.058      4.248
REMARK INTER + INTRA:          -5.567
REMARK INTER:                  -5.170
REMARK INTRA:                  -0.397
REMARK UNBOUND:                -0.208
REMARK SMILES CC1=CCC[C@H](C)C(=O)C[C@H](C(C)C)C(=O)C1
REMARK SMILES IDX 8 1 9 2 6 3 7 4 5 5 4 6 3 7 2 8 1 9 10 11 11 12 15 13 16 14
REMARK SMILES IDX 17 15 12 17 13 18 14 19
REMARK H PARENT
REMARK Flexibility Score: 70.00
ROOT
ATOM      1  C   UNL     1      14.740   9.347  25.525  1.00  0.00     0.136 C 
ATOM      2  O   UNL     1      14.373   8.289  25.033  1.00  0.00    -0.299 OA
ENDROOT
BRANCH   1   3
ATOM      3  C   UNL     1      16.232   9.612  25.618  1.00  0.00     0.053 C 
ATOM      4  C   UNL     1      17.077   8.358  25.909  1.00  0.00     0.016 C 
BRANCH   3   5
ATOM      5  C   UNL     1      16.751  10.379  24.383  1.00  0.00     0.015 C 
BRANCH   5   6
ATOM      6  C   UNL     1      16.498  11.903  24.422  1.00  0.00     0.028 C 
BRANCH   6   7
ATOM      7  C   UNL     1      16.936  12.504  25.740  1.00  0.00    -0.028 C 
ATOM      8  C   UNL     1      16.153  13.092  26.677  1.00  0.00    -0.070 CG0
ATOM      9  C   UNL     1      16.839  13.661  27.895  1.00  0.00     0.039 C 
ATOM     10  G   UNL     1      14.640  13.205  26.596  1.00  0.00     0.000 G0
ENDBRANCH   6   7
ENDBRANCH   5   6
ENDBRANCH   3   5
ENDBRANCH   1   3
BRANCH   1  11
ATOM     11  C   UNL     1      13.707  10.376  25.946  1.00  0.00     0.087 C 
BRANCH  11  12
ATOM     12  C   UNL     1      13.826  10.799  27.433  1.00  0.00     0.066 C 
BRANCH  12  13
ATOM     13  C   UNL     1      13.958  12.303  27.626  1.00  0.00     0.140 C 
ATOM     14  O   UNL     1      13.438  12.805  28.613  1.00  0.00    -0.299 OA
BRANCH  13  15
ATOM     15  C   UNL     1      14.624  13.220  26.622  1.00  0.00     0.106 CG0
ATOM     16  G   UNL     1      16.137  13.081  26.671  1.00  0.00     0.000 G0
ENDBRANCH  13  15
ENDBRANCH  12  13
BRANCH  12  17
ATOM     17  C   UNL     1      12.715  10.210  28.357  1.00  0.00    -0.006 C 
ATOM     18  C   UNL     1      13.302   9.352  29.489  1.00  0.00     0.008 C 
ATOM     19  C   UNL     1      11.630   9.418  27.610  1.00  0.00     0.008 C 
ENDBRANCH  12  17
ENDBRANCH  11  12
ENDBRANCH   1  11
TORSDOF 1
ENDMDL
MODEL 3
REMARK VINA RESULT:    -3.287      8.923     11.007
REMARK INTER + INTRA:          -5.224
REMARK INTER:                  -4.871
REMARK INTRA:                  -0.353
REMARK UNBOUND:                -0.208
REMARK SMILES CC1=CCC[C@H](C)C(=O)C[C@H](C(C)C)C(=O)C1
REMARK SMILES IDX 8 1 9 2 6 3 7 4 5 5 4 6 3 7 2 8 1 9 10 11 11 12 15 13 16 14
REMARK SMILES IDX 17 15 12 17 13 18 14 19
REMARK H PARENT
REMARK Flexibility Score: 70.00
ROOT
ATOM      1  C   UNL     1      16.578   1.814  18.899  1.00  0.00     0.136 C 
ATOM      2  O   UNL     1      17.400   1.670  19.793  1.00  0.00    -0.299 OA
ENDROOT
BRANCH   1   3
ATOM      3  C   UNL     1      16.921   2.759  17.760  1.00  0.00     0.053 C 
ATOM      4  C   UNL     1      16.433   2.283  16.380  1.00  0.00     0.016 C 
BRANCH   3   5
ATOM      5  C   UNL     1      16.465   4.203  18.063  1.00  0.00     0.015 C 
BRANCH   5   6
ATOM      6  C   UNL     1      15.065   4.561  17.516  1.00  0.00     0.028 C 
BRANCH   6   7
ATOM      7  C   UNL     1      14.125   4.973  18.628  1.00  0.00    -0.028 C 
ATOM      8  C   UNL     1      13.148   4.227  19.199  1.00  0.00    -0.070 CG0
ATOM      9  C   UNL     1      12.307   4.884  20.266  1.00  0.00     0.039 C 
ATOM     10  G   UNL     1      12.852   2.776  18.854  1.00  0.00     0.000 G0
ENDBRANCH   6   7
ENDBRANCH   5   6
ENDBRANCH   3   5
ENDBRANCH   1   3
BRANCH   1  11
ATOM     11  C   UNL     1      15.300   0.996  18.917  1.00  0.00     0.087 C 
BRANCH  11  12
ATOM     12  C   UNL     1      14.482   1.156  20.224  1.00  0.00     0.066 C 
BRANCH  12  13
ATOM     13  C   UNL     1      13.136   1.838  20.017  1.00  0.00     0.140 C 
ATOM     14  O   UNL     1      12.229   1.566  20.791  1.00  0.00    -0.299 OA
BRANCH  13  15
ATOM     15  C   UNL     1      12.839   2.766  18.859  1.00  0.00     0.106 CG0
ATOM     16  G   UNL     1      13.161   4.208  19.214  1.00  0.00     0.000 G0
ENDBRANCH  13  15
ENDBRANCH  12  13
BRANCH  12  17
ATOM     17  C   UNL     1      14.323  -0.161  21.045  1.00  0.00    -0.006 C 
ATOM     18  C   UNL     1      15.533  -0.420  21.958  1.00  0.00     0.008 C 
ATOM     19  C   UNL     1      14.039  -1.406  20.188  1.00  0.00     0.008 C 
ENDBRANCH  12  17
ENDBRANCH  11  12
ENDBRANCH   1  11
TORSDOF 1
ENDMDL
MODEL 4
REMARK VINA RESULT:    -3.253      1.896      4.504
REMARK INTER + INTRA:          -5.173
REMARK INTER:                  -4.830
REMARK INTRA:                  -0.344
REMARK UNBOUND:                -0.208
REMARK SMILES CC1=CCC[C@H](C)C(=O)C[C@H](C(C)C)C(=O)C1
REMARK SMILES IDX 8 1 9 2 6 3 7 4 5 5 4 6 3 7 2 8 1 9 10 11 11 12 15 13 16 14
REMARK SMILES IDX 17 15 12 17 13 18 14 19
REMARK H PARENT
REMARK Flexibility Score: 70.00
ROOT
ATOM      1  C   UNL     1      16.275  10.621  25.576  1.00  0.00     0.136 C 
ATOM      2  O   UNL     1      17.110   9.749  25.769  1.00  0.00    -0.299 OA
ENDROOT
BRANCH   1   3
ATOM      3  C   UNL     1      16.764  12.041  25.351  1.00  0.00     0.053 C 
ATOM      4  C   UNL     1      15.940  12.835  24.322  1.00  0.00     0.016 C 
BRANCH   3   5
ATOM      5  C   UNL     1      16.912  12.808  26.682  1.00  0.00     0.015 C 
BRANCH   5   6
ATOM      6  C   UNL     1      15.584  13.335  27.270  1.00  0.00     0.028 C 
BRANCH   6   7
ATOM      7  C   UNL     1      15.243  12.644  28.573  1.00  0.00    -0.028 C 
ATOM      8  C   UNL     1      14.181  11.840  28.825  1.00  0.00    -0.070 CG0
ATOM      9  C   UNL     1      14.034  11.306  30.228  1.00  0.00     0.039 C 
ATOM     10  G   UNL     1      13.142  11.428  27.795  1.00  0.00     0.000 G0
ENDBRANCH   6   7
ENDBRANCH   5   6
ENDBRANCH   3   5
ENDBRANCH   1   3
BRANCH   1  11
ATOM     11  C   UNL     1      14.807  10.247  25.489  1.00  0.00     0.087 C 
BRANCH  11  12
ATOM     12  C   UNL     1      14.334   9.327  26.644  1.00  0.00     0.066 C 
BRANCH  12  13
ATOM     13  C   UNL     1      13.224   9.937  27.489  1.00  0.00     0.140 C 
ATOM     14  O   UNL     1      12.326   9.201  27.877  1.00  0.00    -0.299 OA
BRANCH  13  15
ATOM     15  C   UNL     1      13.127  11.414  27.801  1.00  0.00     0.106 CG0
ATOM     16  G   UNL     1      14.182  11.832  28.812  1.00  0.00     0.000 G0
ENDBRANCH  13  15
ENDBRANCH  12  13
BRANCH  12  17
ATOM     17  C   UNL     1      13.968   7.876  26.198  1.00  0.00    -0.006 C 
ATOM     18  C   UNL     1      15.179   6.932  26.260  1.00  0.00     0.008 C 
ATOM     19  C   UNL     1      13.309   7.793  24.812  1.00  0.00     0.008 C 
ENDBRANCH  12  17
ENDBRANCH  11  12
ENDBRANCH   1  11
TORSDOF 1
ENDMDL
MODEL 5
REMARK VINA RESULT:    -3.158      9.619     11.006
REMARK INTER + INTRA:          -5.028
REMARK INTER:                  -4.630
REMARK INTRA:                  -0.398
REMARK UNBOUND:                -0.208
REMARK SMILES CC1=CCC[C@H](C)C(=O)C[C@H](C(C)C)C(=O)C1
REMARK SMILES IDX 8 1 9 2 6 3 7 4 5 5 4 6 3 7 2 8 1 9 10 11 11 12 15 13 16 14
REMARK SMILES IDX 17 15 12 17 13 18 14 19
REMARK H PARENT
REMARK Flexibility Score: 70.00
ROOT
ATOM      1  C   UNL     1      16.803   1.430  18.347  1.00  0.00     0.136 C 
ATOM      2  O   UNL     1      17.544   1.491  17.376  1.00  0.00    -0.299 OA
ENDROOT
BRANCH   1   3
ATOM      3  C   UNL     1      16.505   0.061  18.933  1.00  0.00     0.053 C 
ATOM      4  C   UNL     1      16.370   0.048  20.466  1.00  0.00     0.016 C 
BRANCH   3   5
ATOM      5  C   UNL     1      15.290  -0.599  18.245  1.00  0.00     0.015 C 
BRANCH   5   6
ATOM      6  C   UNL     1      14.065  -0.802  19.164  1.00  0.00     0.028 C 
BRANCH   6   7
ATOM      7  C   UNL     1      12.869  -0.016  18.673  1.00  0.00    -0.028 C 
ATOM      8  C   UNL     1      12.454   1.202  19.098  1.00  0.00    -0.070 CG0
ATOM      9  C   UNL     1      11.195   1.760  18.482  1.00  0.00     0.039 C 
ATOM     10  G   UNL     1      13.174   2.050  20.134  1.00  0.00     0.000 G0
ENDBRANCH   6   7
ENDBRANCH   5   6
ENDBRANCH   3   5
ENDBRANCH   1   3
BRANCH   1  11
ATOM     11  C   UNL     1      16.279   2.710  18.973  1.00  0.00     0.087 C 
BRANCH  11  12
ATOM     12  C   UNL     1      14.904   3.155  18.411  1.00  0.00     0.066 C 
BRANCH  12  13
ATOM     13  C   UNL     1      13.820   3.262  19.475  1.00  0.00     0.140 C 
ATOM     14  O   UNL     1      13.511   4.377  19.870  1.00  0.00    -0.299 OA
BRANCH  13  15
ATOM     15  C   UNL     1      13.169   2.062  20.127  1.00  0.00     0.106 CG0
ATOM     16  G   UNL     1      12.449   1.202  19.101  1.00  0.00     0.000 G0
ENDBRANCH  13  15
ENDBRANCH  12  13
BRANCH  12  17
ATOM     17  C   UNL     1      14.958   4.445  17.533  1.00  0.00    -0.006 C 
ATOM     18  C   UNL     1      14.873   4.124  16.032  1.00  0.00     0.008 C 
ATOM     19  C   UNL     1      16.176   5.341  17.808  1.00  0.00     0.008 C 
ENDBRANCH  12  17
ENDBRANCH  11  12
ENDBRANCH   1  11
TORSDOF 1
ENDMDL
MODEL 6
REMARK VINA RESULT:    -3.140      2.176      4.459
REMARK INTER + INTRA:          -5.000
REMARK INTER:                  -4.641
REMARK INTRA:                  -0.359
REMARK UNBOUND:                -0.208
REMARK SMILES CC1=CCC[C@H](C)C(=O)C[C@H](C(C)C)C(=O)C1
REMARK SMILES IDX 8 1 9 2 6 3 7 4 5 5 4 6 3 7 2 8 1 9 10 11 11 12 15 13 16 14
REMARK SMILES IDX 17 15 12 17 13 18 14 19
REMARK H PARENT
REMARK Flexibility Score: 70.00
ROOT
ATOM      1  C   UNL     1      16.074  12.958  28.066  1.00  0.00     0.136 C 
ATOM      2  O   UNL     1      16.897  13.421  28.843  1.00  0.00    -0.299 OA
ENDROOT
BRANCH   1   3
ATOM      3  C   UNL     1      15.962  13.586  26.687  1.00  0.00     0.053 C 
ATOM      4  C   UNL     1      16.099  15.119  26.681  1.00  0.00     0.016 C 
BRANCH   3   5
ATOM      5  C   UNL     1      16.924  12.920  25.679  1.00  0.00     0.015 C 
BRANCH   5   6
ATOM      6  C   UNL     1      16.251  11.911  24.722  1.00  0.00     0.028 C 
BRANCH   6   7
ATOM      7  C   UNL     1      16.671  10.490  25.030  1.00  0.00    -0.028 C 
ATOM      8  C   UNL     1      15.883   9.470  25.447  1.00  0.00    -0.070 CG0
ATOM      9  C   UNL     1      16.552   8.149  25.736  1.00  0.00     0.039 C 
ATOM     10  G   UNL     1      14.376   9.558  25.629  1.00  0.00     0.000 G0
ENDBRANCH   6   7
ENDBRANCH   5   6
ENDBRANCH   3   5
ENDBRANCH   1   3
BRANCH   1  11
ATOM     11  C   UNL     1      15.262  11.742  28.470  1.00  0.00     0.087 C 
BRANCH  11  12
ATOM     12  C   UNL     1      14.072  11.449  27.520  1.00  0.00     0.066 C 
BRANCH  12  13
ATOM     13  C   UNL     1      14.015  10.002  27.048  1.00  0.00     0.140 C 
ATOM     14  O   UNL     1      13.737   9.140  27.870  1.00  0.00    -0.299 OA
BRANCH  13  15
ATOM     15  C   UNL     1      14.367   9.567  25.642  1.00  0.00     0.106 CG0
ATOM     16  G   UNL     1      15.872   9.471  25.457  1.00  0.00     0.000 G0
ENDBRANCH  13  15
ENDBRANCH  12  13
BRANCH  12  17
ATOM     17  C   UNL     1      12.687  11.916  28.067  1.00  0.00    -0.006 C 
ATOM     18  C   UNL     1      11.564  11.717  27.036  1.00  0.00     0.008 C 
ATOM     19  C   UNL     1      12.671  13.363  28.584  1.00  0.00     0.008 C 
ENDBRANCH  12  17
ENDBRANCH  11  12
ENDBRANCH   1  11
TORSDOF 1
ENDMDL
MODEL 7
REMARK VINA RESULT:    -3.091      2.414      4.421
REMARK INTER + INTRA:          -4.925
REMARK INTER:                  -4.618
REMARK INTRA:                  -0.307
REMARK UNBOUND:                -0.208
REMARK SMILES CC1=CCC[C@H](C)C(=O)C[C@H](C(C)C)C(=O)C1
REMARK SMILES IDX 8 1 9 2 6 3 7 4 5 5 4 6 3 7 2 8 1 9 10 11 11 12 15 13 16 14
REMARK SMILES IDX 17 15 12 17 13 18 14 19
REMARK H PARENT
REMARK Flexibility Score: 70.00
ROOT
ATOM      1  C   UNL     1      12.568  12.956  24.272  1.00  0.00     0.136 C 
ATOM      2  O   UNL     1      11.738  12.930  23.373  1.00  0.00    -0.299 OA
ENDROOT
BRANCH   1   3
ATOM      3  C   UNL     1      12.241  12.234  25.567  1.00  0.00     0.053 C 
ATOM      4  C   UNL     1      10.943  12.713  26.243  1.00  0.00     0.016 C 
BRANCH   3   5
ATOM      5  C   UNL     1      12.260  10.701  25.384  1.00  0.00     0.015 C 
BRANCH   5   6
ATOM      6  C   UNL     1      13.572  10.019  25.832  1.00  0.00     0.028 C 
BRANCH   6   7
ATOM      7  C   UNL     1      14.173  10.712  27.035  1.00  0.00    -0.028 C 
ATOM      8  C   UNL     1      15.299  11.465  27.074  1.00  0.00    -0.070 CG0
ATOM      9  C   UNL     1      15.721  12.013  28.415  1.00  0.00     0.039 C 
ATOM     10  G   UNL     1      16.154  11.809  25.865  1.00  0.00     0.000 G0
ENDBRANCH   6   7
ENDBRANCH   5   6
ENDBRANCH   3   5
ENDBRANCH   1   3
BRANCH   1  11
ATOM     11  C   UNL     1      13.907  13.630  24.036  1.00  0.00     0.087 C 
BRANCH  11  12
ATOM     12  C   UNL     1      14.664  13.977  25.344  1.00  0.00     0.066 C 
BRANCH  12  13
ATOM     13  C   UNL     1      16.006  13.271  25.473  1.00  0.00     0.140 C 
ATOM     14  O   UNL     1      17.016  13.898  25.185  1.00  0.00    -0.299 OA
BRANCH  13  15
ATOM     15  C   UNL     1      16.151  11.814  25.856  1.00  0.00     0.106 CG0
ATOM     16  G   UNL     1      15.314  11.483  27.082  1.00  0.00     0.000 G0
ENDBRANCH  13  15
ENDBRANCH  12  13
BRANCH  12  17
ATOM     17  C   UNL     1      14.806  15.508  25.615  1.00  0.00    -0.006 C 
ATOM     18  C   UNL     1      14.458  15.870  27.068  1.00  0.00     0.008 C 
ATOM     19  C   UNL     1      14.004  16.394  24.648  1.00  0.00     0.008 C 
ENDBRANCH  12  17
ENDBRANCH  11  12
ENDBRANCH   1  11
TORSDOF 1
ENDMDL
MODEL 8
REMARK VINA RESULT:    -3.018      7.760     10.159
REMARK INTER + INTRA:          -4.815
REMARK INTER:                  -4.351
REMARK INTRA:                  -0.464
REMARK UNBOUND:                -0.208
REMARK SMILES CC1=CCC[C@H](C)C(=O)C[C@H](C(C)C)C(=O)C1
REMARK SMILES IDX 8 1 9 2 6 3 7 4 5 5 4 6 3 7 2 8 1 9 10 11 11 12 15 13 16 14
REMARK SMILES IDX 17 15 12 17 13 18 14 19
REMARK H PARENT
REMARK Flexibility Score: 70.00
ROOT
ATOM      1  C   UNL     1      14.750   3.544  16.839  1.00  0.00     0.136 C 
ATOM      2  O   UNL     1      15.171   3.455  15.694  1.00  0.00    -0.299 OA
ENDROOT
BRANCH   1   3
ATOM      3  C   UNL     1      15.656   4.168  17.886  1.00  0.00     0.053 C 
ATOM      4  C   UNL     1      16.950   3.377  18.151  1.00  0.00     0.016 C 
BRANCH   3   5
ATOM      5  C   UNL     1      15.945   5.653  17.575  1.00  0.00     0.015 C 
BRANCH   5   6
ATOM      6  C   UNL     1      14.737   6.596  17.773  1.00  0.00     0.028 C 
BRANCH   6   7
ATOM      7  C   UNL     1      14.263   6.595  19.210  1.00  0.00    -0.028 C 
ATOM      8  C   UNL     1      13.039   6.240  19.673  1.00  0.00    -0.070 CG0
ATOM      9  C   UNL     1      12.794   6.371  21.156  1.00  0.00     0.039 C 
ATOM     10  G   UNL     1      11.908   5.706  18.810  1.00  0.00     0.000 G0
ENDBRANCH   6   7
ENDBRANCH   5   6
ENDBRANCH   3   5
ENDBRANCH   1   3
BRANCH   1  11
ATOM     11  C   UNL     1      13.331   3.109  17.152  1.00  0.00     0.087 C 
BRANCH  11  12
ATOM     12  C   UNL     1      12.957   3.247  18.650  1.00  0.00     0.066 C 
BRANCH  12  13
ATOM     13  C   UNL     1      11.790   4.191  18.900  1.00  0.00     0.140 C 
ATOM     14  O   UNL     1      10.690   3.702  19.116  1.00  0.00    -0.299 OA
BRANCH  13  15
ATOM     15  C   UNL     1      11.900   5.698  18.811  1.00  0.00     0.106 CG0
ATOM     16  G   UNL     1      13.045   6.216  19.665  1.00  0.00     0.000 G0
ENDBRANCH  13  15
ENDBRANCH  12  13
BRANCH  12  17
ATOM     17  C   UNL     1      12.746   1.886  19.385  1.00  0.00    -0.006 C 
ATOM     18  C   UNL     1      13.210   1.944  20.849  1.00  0.00     0.008 C 
ATOM     19  C   UNL     1      13.391   0.683  18.678  1.00  0.00     0.008 C 
ENDBRANCH  12  17
ENDBRANCH  11  12
ENDBRANCH   1  11
TORSDOF 1
ENDMDL
MODEL 9
REMARK VINA RESULT:    -2.980      8.136     10.221
REMARK INTER + INTRA:          -4.755
REMARK INTER:                  -4.318
REMARK INTRA:                  -0.438
REMARK UNBOUND:                -0.208
REMARK SMILES CC1=CCC[C@H](C)C(=O)C[C@H](C(C)C)C(=O)C1
REMARK SMILES IDX 8 1 9 2 6 3 7 4 5 5 4 6 3 7 2 8 1 9 10 11 11 12 15 13 16 14
REMARK SMILES IDX 17 15 12 17 13 18 14 19
REMARK H PARENT
REMARK Flexibility Score: 70.00
ROOT
ATOM      1  C   UNL     1      14.188   6.222  18.125  1.00  0.00     0.136 C 
ATOM      2  O   UNL     1      13.768   7.343  17.876  1.00  0.00    -0.299 OA
ENDROOT
BRANCH   1   3
ATOM      3  C   UNL     1      15.248   5.636  17.209  1.00  0.00     0.053 C 
ATOM      4  C   UNL     1      16.590   5.347  17.904  1.00  0.00     0.016 C 
BRANCH   3   5
ATOM      5  C   UNL     1      14.720   4.403  16.444  1.00  0.00     0.015 C 
BRANCH   5   6
ATOM      6  C   UNL     1      15.258   3.050  16.962  1.00  0.00     0.028 C 
BRANCH   6   7
ATOM      7  C   UNL     1      14.161   2.010  17.036  1.00  0.00    -0.028 C 
ATOM      8  C   UNL     1      13.424   1.667  18.121  1.00  0.00    -0.070 CG0
ATOM      9  C   UNL     1      12.415   0.558  17.951  1.00  0.00     0.039 C 
ATOM     10  G   UNL     1      13.530   2.328  19.485  1.00  0.00     0.000 G0
ENDBRANCH   6   7
ENDBRANCH   5   6
ENDBRANCH   3   5
ENDBRANCH   1   3
BRANCH   1  11
ATOM     11  C   UNL     1      13.701   5.498  19.367  1.00  0.00     0.087 C 
BRANCH  11  12
ATOM     12  C   UNL     1      12.382   4.712  19.147  1.00  0.00     0.066 C 
BRANCH  12  13
ATOM     13  C   UNL     1      12.408   3.308  19.737  1.00  0.00     0.140 C 
ATOM     14  O   UNL     1      11.508   2.989  20.501  1.00  0.00    -0.299 OA
BRANCH  13  15
ATOM     15  C   UNL     1      13.529   2.321  19.495  1.00  0.00     0.106 CG0
ATOM     16  G   UNL     1      13.414   1.687  18.119  1.00  0.00     0.000 G0
ENDBRANCH  13  15
ENDBRANCH  12  13
BRANCH  12  17
ATOM     17  C   UNL     1      11.098   5.482  19.586  1.00  0.00    -0.006 C 
ATOM     18  C   UNL     1      10.344   6.075  18.385  1.00  0.00     0.008 C 
ATOM     19  C   UNL     1      11.348   6.574  20.638  1.00  0.00     0.008 C 
ENDBRANCH  12  17
ENDBRANCH  11  12
ENDBRANCH   1  11
TORSDOF 1
ENDMDL
