MODEL 1
REMARK VINA RESULT:    -3.921      0.000      0.000
REMARK INTER + INTRA:          -4.715
REMARK INTER:                  -4.609
REMARK INTRA:                  -0.106
REMARK UNBOUND:                -0.106
REMARK SMILES O=C([O-])CCC(=O)[O-]
REMARK SMILES IDX 4 1 2 2 1 3 3 4 5 5 6 6 7 7 8 8
REMARK H PARENT
REMARK Flexibility Score: inf
ROOT
ATOM      1  C   UNL     1      -1.415 -17.149  -2.241  1.00  0.00     0.059 C 
ENDROOT
BRANCH   1   2
ATOM      2  C   UNL     1      -2.214 -18.410  -2.112  1.00  0.00     0.042 C 
ATOM      3  O   UNL     1      -2.490 -18.871  -0.973  1.00  0.00    -0.550 OA
ATOM      4  O   UNL     1      -2.688 -19.053  -3.247  1.00  0.00    -0.550 OA
ENDBRANCH   1   2
BRANCH   1   5
ATOM      5  C   UNL     1       0.068 -17.387  -1.943  1.00  0.00     0.059 C 
BRANCH   5   6
ATOM      6  C   UNL     1       0.795 -17.919  -3.141  1.00  0.00     0.042 C 
ATOM      7  O   UNL     1       1.414 -17.133  -3.905  1.00  0.00    -0.550 OA
ATOM      8  O   UNL     1       0.824 -19.285  -3.387  1.00  0.00    -0.550 OA
ENDBRANCH   5   6
ENDBRANCH   1   5
TORSDOF 3
ENDMDL
MODEL 2
REMARK VINA RESULT:    -3.893      0.074      3.602
REMARK INTER + INTRA:          -4.683
REMARK INTER:                  -4.576
REMARK INTRA:                  -0.106
REMARK UNBOUND:                -0.106
REMARK SMILES O=C([O-])CCC(=O)[O-]
REMARK SMILES IDX 4 1 2 2 1 3 3 4 5 5 6 6 7 7 8 8
REMARK H PARENT
REMARK Flexibility Score: inf
ROOT
ATOM      1  C   UNL     1       0.047 -17.303  -1.914  1.00  0.00     0.059 C 
ENDROOT
BRANCH   1   2
ATOM      2  C   UNL     1       0.790 -17.834  -3.102  1.00  0.00     0.042 C 
ATOM      3  O   UNL     1       1.395 -17.045  -3.876  1.00  0.00    -0.550 OA
ATOM      4  O   UNL     1       0.850 -19.202  -3.331  1.00  0.00    -0.550 OA
ENDBRANCH   1   2
BRANCH   1   5
ATOM      5  C   UNL     1      -1.439 -17.096  -2.224  1.00  0.00     0.059 C 
BRANCH   5   6
ATOM      6  C   UNL     1      -2.212 -18.374  -2.104  1.00  0.00     0.042 C 
ATOM      7  O   UNL     1      -2.490 -18.842  -0.969  1.00  0.00    -0.550 OA
ATOM      8  O   UNL     1      -2.662 -19.024  -3.246  1.00  0.00    -0.550 OA
ENDBRANCH   5   6
ENDBRANCH   1   5
TORSDOF 3
ENDMDL
MODEL 3
REMARK VINA RESULT:    -3.890      1.189      1.560
REMARK INTER + INTRA:          -4.678
REMARK INTER:                  -4.603
REMARK INTRA:                  -0.076
REMARK UNBOUND:                -0.106
REMARK SMILES O=C([O-])CCC(=O)[O-]
REMARK SMILES IDX 4 1 2 2 1 3 3 4 5 5 6 6 7 7 8 8
REMARK H PARENT
REMARK Flexibility Score: inf
ROOT
ATOM      1  C   UNL     1      -0.104 -17.893  -0.854  1.00  0.00     0.059 C 
ENDROOT
BRANCH   1   2
ATOM      2  C   UNL     1      -1.218 -18.751  -0.334  1.00  0.00     0.042 C 
ATOM      3  O   UNL     1      -1.038 -19.475   0.680  1.00  0.00    -0.550 OA
ATOM      4  O   UNL     1      -2.464 -18.719  -0.945  1.00  0.00    -0.550 OA
ENDBRANCH   1   2
BRANCH   1   5
ATOM      5  C   UNL     1      -0.369 -17.432  -2.290  1.00  0.00     0.059 C 
BRANCH   5   6
ATOM      6  C   UNL     1       0.673 -17.945  -3.238  1.00  0.00     0.042 C 
ATOM      7  O   UNL     1       1.419 -17.140  -3.854  1.00  0.00    -0.550 OA
ATOM      8  O   UNL     1       0.847 -19.312  -3.406  1.00  0.00    -0.550 OA
ENDBRANCH   5   6
ENDBRANCH   1   5
TORSDOF 3
ENDMDL
MODEL 4
REMARK VINA RESULT:    -3.889      1.198      3.775
REMARK INTER + INTRA:          -4.678
REMARK INTER:                  -4.601
REMARK INTRA:                  -0.077
REMARK UNBOUND:                -0.106
REMARK SMILES O=C([O-])CCC(=O)[O-]
REMARK SMILES IDX 4 1 2 2 1 3 3 4 5 5 6 6 7 7 8 8
REMARK H PARENT
REMARK Flexibility Score: inf
ROOT
ATOM      1  C   UNL     1      -0.334 -17.429  -2.265  1.00  0.00     0.059 C 
ENDROOT
BRANCH   1   2
ATOM      2  C   UNL     1       0.689 -17.949  -3.229  1.00  0.00     0.042 C 
ATOM      3  O   UNL     1       1.444 -17.149  -3.843  1.00  0.00    -0.550 OA
ATOM      4  O   UNL     1       0.836 -19.317  -3.418  1.00  0.00    -0.550 OA
ENDBRANCH   1   2
BRANCH   1   5
ATOM      5  C   UNL     1      -0.068 -17.922  -0.839  1.00  0.00     0.059 C 
BRANCH   5   6
ATOM      6  C   UNL     1      -1.195 -18.766  -0.326  1.00  0.00     0.042 C 
ATOM      7  O   UNL     1      -1.031 -19.490   0.692  1.00  0.00    -0.550 OA
ATOM      8  O   UNL     1      -2.437 -18.720  -0.945  1.00  0.00    -0.550 OA
ENDBRANCH   5   6
ENDBRANCH   1   5
TORSDOF 3
ENDMDL
MODEL 5
REMARK VINA RESULT:    -3.873      1.204      3.784
REMARK INTER + INTRA:          -4.658
REMARK INTER:                  -4.588
REMARK INTRA:                  -0.070
REMARK UNBOUND:                -0.106
REMARK SMILES O=C([O-])CCC(=O)[O-]
REMARK SMILES IDX 4 1 2 2 1 3 3 4 5 5 6 6 7 7 8 8
REMARK H PARENT
REMARK Flexibility Score: inf
ROOT
ATOM      1  C   UNL     1      -0.453 -17.529  -2.313  1.00  0.00     0.059 C 
ENDROOT
BRANCH   1   2
ATOM      2  C   UNL     1       0.645 -18.011  -3.211  1.00  0.00     0.042 C 
ATOM      3  O   UNL     1       0.834 -19.246  -3.373  1.00  0.00    -0.550 OA
ATOM      4  O   UNL     1       1.431 -17.099  -3.902  1.00  0.00    -0.550 OA
ENDBRANCH   1   2
BRANCH   1   5
ATOM      5  C   UNL     1      -0.189 -17.899  -0.850  1.00  0.00     0.059 C 
BRANCH   5   6
ATOM      6  C   UNL     1      -1.281 -18.759  -0.290  1.00  0.00     0.042 C 
ATOM      7  O   UNL     1      -1.064 -19.481   0.718  1.00  0.00    -0.550 OA
ATOM      8  O   UNL     1      -2.548 -18.731  -0.858  1.00  0.00    -0.550 OA
ENDBRANCH   5   6
ENDBRANCH   1   5
TORSDOF 3
ENDMDL
MODEL 6
REMARK VINA RESULT:    -3.819      1.284      1.938
REMARK INTER + INTRA:          -4.596
REMARK INTER:                  -4.479
REMARK INTRA:                  -0.117
REMARK UNBOUND:                -0.106
REMARK SMILES O=C([O-])CCC(=O)[O-]
REMARK SMILES IDX 4 1 2 2 1 3 3 4 5 5 6 6 7 7 8 8
REMARK H PARENT
REMARK Flexibility Score: inf
ROOT
ATOM      1  C   UNL     1      -1.697 -18.119  -2.116  1.00  0.00     0.059 C 
ENDROOT
BRANCH   1   2
ATOM      2  C   UNL     1      -1.747 -18.588  -0.693  1.00  0.00     0.042 C 
ATOM      3  O   UNL     1      -2.846 -18.628  -0.079  1.00  0.00    -0.550 OA
ATOM      4  O   UNL     1      -0.589 -19.018  -0.060  1.00  0.00    -0.550 OA
ENDBRANCH   1   2
BRANCH   1   5
ATOM      5  C   UNL     1      -0.527 -17.160  -2.353  1.00  0.00     0.059 C 
BRANCH   5   6
ATOM      6  C   UNL     1       0.546 -17.791  -3.189  1.00  0.00     0.042 C 
ATOM      7  O   UNL     1       0.592 -19.042  -3.320  1.00  0.00    -0.550 OA
ATOM      8  O   UNL     1       1.466 -16.994  -3.857  1.00  0.00    -0.550 OA
ENDBRANCH   5   6
ENDBRANCH   1   5
TORSDOF 3
ENDMDL
MODEL 7
REMARK VINA RESULT:    -3.595      1.263      3.949
REMARK INTER + INTRA:          -4.332
REMARK INTER:                  -4.296
REMARK INTRA:                  -0.037
REMARK UNBOUND:                -0.106
REMARK SMILES O=C([O-])CCC(=O)[O-]
REMARK SMILES IDX 4 1 2 2 1 3 3 4 5 5 6 6 7 7 8 8
REMARK H PARENT
REMARK Flexibility Score: inf
ROOT
ATOM      1  C   UNL     1      -0.391 -16.577  -2.521  1.00  0.00     0.059 C 
ENDROOT
BRANCH   1   2
ATOM      2  C   UNL     1       0.868 -16.251  -3.263  1.00  0.00     0.042 C 
ATOM      3  O   UNL     1       1.361 -15.094  -3.196  1.00  0.00    -0.550 OA
ATOM      4  O   UNL     1       1.519 -17.234  -3.996  1.00  0.00    -0.550 OA
ENDBRANCH   1   2
BRANCH   1   5
ATOM      5  C   UNL     1      -0.705 -18.076  -2.571  1.00  0.00     0.059 C 
BRANCH   5   6
ATOM      6  C   UNL     1      -2.181 -18.333  -2.571  1.00  0.00     0.042 C 
ATOM      7  O   UNL     1      -2.678 -19.173  -3.367  1.00  0.00    -0.550 OA
ATOM      8  O   UNL     1      -3.002 -17.676  -1.663  1.00  0.00    -0.550 OA
ENDBRANCH   5   6
ENDBRANCH   1   5
TORSDOF 3
ENDMDL
MODEL 8
REMARK VINA RESULT:    -3.580      1.671      3.456
REMARK INTER + INTRA:          -4.314
REMARK INTER:                  -4.166
REMARK INTRA:                  -0.148
REMARK UNBOUND:                -0.106
REMARK SMILES O=C([O-])CCC(=O)[O-]
REMARK SMILES IDX 4 1 2 2 1 3 3 4 5 5 6 6 7 7 8 8
REMARK H PARENT
REMARK Flexibility Score: inf
ROOT
ATOM      1  C   UNL     1      -1.673 -17.597  -2.163  1.00  0.00     0.059 C 
ENDROOT
BRANCH   1   2
ATOM      2  C   UNL     1      -1.647 -18.803  -3.052  1.00  0.00     0.042 C 
ATOM      3  O   UNL     1      -2.724 -19.309  -3.463  1.00  0.00    -0.550 OA
ATOM      4  O   UNL     1      -0.434 -19.343  -3.458  1.00  0.00    -0.550 OA
ENDBRANCH   1   2
BRANCH   1   5
ATOM      5  C   UNL     1      -0.899 -17.836  -0.863  1.00  0.00     0.059 C 
BRANCH   5   6
ATOM      6  C   UNL     1      -1.675 -18.690   0.093  1.00  0.00     0.042 C 
ATOM      7  O   UNL     1      -1.079 -19.537   0.811  1.00  0.00    -0.550 OA
ATOM      8  O   UNL     1      -3.047 -18.522   0.221  1.00  0.00    -0.550 OA
ENDBRANCH   5   6
ENDBRANCH   1   5
TORSDOF 3
ENDMDL
MODEL 9
REMARK VINA RESULT:    -3.495      1.372      2.074
REMARK INTER + INTRA:          -4.214
REMARK INTER:                  -4.134
REMARK INTRA:                  -0.080
REMARK UNBOUND:                -0.106
REMARK SMILES O=C([O-])CCC(=O)[O-]
REMARK SMILES IDX 4 1 2 2 1 3 3 4 5 5 6 6 7 7 8 8
REMARK H PARENT
REMARK Flexibility Score: inf
ROOT
ATOM      1  C   UNL     1      -0.856 -17.644  -1.845  1.00  0.00     0.059 C 
ENDROOT
BRANCH   1   2
ATOM      2  C   UNL     1      -1.240 -18.698  -2.839  1.00  0.00     0.042 C 
ATOM      3  O   UNL     1      -0.354 -19.412  -3.378  1.00  0.00    -0.550 OA
ATOM      4  O   UNL     1      -2.578 -18.918  -3.138  1.00  0.00    -0.550 OA
ENDBRANCH   1   2
BRANCH   1   5
ATOM      5  C   UNL     1      -0.434 -16.344  -2.535  1.00  0.00     0.059 C 
BRANCH   5   6
ATOM      6  C   UNL     1       1.047 -16.291  -2.758  1.00  0.00     0.042 C 
ATOM      7  O   UNL     1       1.549 -16.803  -3.793  1.00  0.00    -0.550 OA
ATOM      8  O   UNL     1       1.866 -15.639  -1.845  1.00  0.00    -0.550 OA
ENDBRANCH   5   6
ENDBRANCH   1   5
TORSDOF 3
ENDMDL
