MODEL 1
REMARK VINA RESULT:    -8.671      0.000      0.000
REMARK INTER + INTRA:         -12.147
REMARK INTER:                 -11.712
REMARK INTRA:                  -0.435
REMARK UNBOUND:                -0.435
REMARK SMILES O=c1c(-c2ccc(O)cc2)coc2c([C@H]3O[C@H](CO)[C@@H](O)[C@H](O)[C@H]3O)c(O)ccc12
REMARK SMILES IDX 3 1 11 2 12 3 13 4 30 5 2 6 1 7 29 8 28 9 26 10 14 11 4 12
REMARK SMILES IDX 5 13 6 14 7 15 10 16 9 17 8 18 15 20 24 21 16 22 22 23 17 24
REMARK SMILES IDX 20 25 25 26 23 28 18 30 19 31 21 33 27 35
REMARK H PARENT 8 19 25 27 23 29 19 32 21 34 27 36
REMARK Flexibility Score: inf
ROOT
ATOM      1  C   UNL     1      -1.521 -25.832  30.704  1.00  0.00     0.065 A 
ATOM      2  C   UNL     1      -1.872 -25.418  31.995  1.00  0.00     0.208 A 
ATOM      3  O   UNL     1      -2.922 -24.634  32.198  1.00  0.00    -0.463 OA
ATOM      4  C   UNL     1      -3.708 -24.193  31.219  1.00  0.00     0.147 A 
ATOM      5  C   UNL     1      -3.403 -24.534  29.880  1.00  0.00     0.066 A 
ATOM      6  C   UNL     1      -2.309 -25.384  29.630  1.00  0.00     0.200 A 
ATOM      7  O   UNL     1      -2.043 -25.749  28.451  1.00  0.00    -0.288 OA
ATOM      8  C   UNL     1      -4.175 -24.007  28.839  1.00  0.00     0.020 A 
ATOM      9  C   UNL     1      -5.175 -23.082  29.115  1.00  0.00     0.047 A 
ATOM     10  C   UNL     1      -5.468 -22.712  30.434  1.00  0.00     0.125 A 
ATOM     11  C   UNL     1      -4.830 -23.371  31.522  1.00  0.00     0.069 A 
ENDROOT
BRANCH   1  12
ATOM     12  C   UNL     1      -0.344 -26.715  30.503  1.00  0.00    -0.011 A 
ATOM     13  C   UNL     1       0.803 -26.241  29.842  1.00  0.00     0.013 A 
ATOM     14  C   UNL     1       1.912 -27.074  29.665  1.00  0.00     0.047 A 
ATOM     15  C   UNL     1       1.889 -28.389  30.148  1.00  0.00     0.115 A 
ATOM     16  C   UNL     1      -0.356 -28.033  30.992  1.00  0.00     0.013 A 
ATOM     17  C   UNL     1       0.754 -28.864  30.812  1.00  0.00     0.047 A 
BRANCH  15  18
ATOM     18  O   UNL     1       2.987 -29.229  29.976  1.00  0.00    -0.508 OA
ATOM     19  H   UNL     1       2.882 -30.169  29.614  1.00  0.00     0.293 HD
ENDBRANCH  15  18
ENDBRANCH   1  12
BRANCH  11  20
ATOM     20  C   UNL     1      -5.192 -23.123  33.005  1.00  0.00     0.188 C 
ATOM     21  C   UNL     1      -6.672 -23.436  33.448  1.00  0.00     0.179 C 
ATOM     22  O   UNL     1      -4.695 -21.895  33.535  1.00  0.00    -0.362 OA
ATOM     23  C   UNL     1      -7.596 -22.206  33.435  1.00  0.00     0.177 C 
ATOM     24  C   UNL     1      -5.578 -20.787  33.396  1.00  0.00     0.176 C 
ATOM     25  C   UNL     1      -6.907 -21.035  34.129  1.00  0.00     0.177 C 
BRANCH  21  26
ATOM     26  O   UNL     1      -7.261 -24.489  32.729  1.00  0.00    -0.387 OA
ATOM     27  H   UNL     1      -6.564 -24.888  32.146  1.00  0.00     0.211 HD
ENDBRANCH  21  26
BRANCH  23  28
ATOM     28  O   UNL     1      -8.830 -22.498  34.042  1.00  0.00    -0.387 OA
ATOM     29  H   UNL     1      -8.750 -22.295  35.011  1.00  0.00     0.211 HD
ENDBRANCH  23  28
BRANCH  24  30
ATOM     30  C   UNL     1      -4.853 -19.543  33.938  1.00  0.00     0.191 C 
BRANCH  30  31
ATOM     31  O   UNL     1      -4.887 -19.502  35.340  1.00  0.00    -0.394 OA
ATOM     32  H   UNL     1      -5.103 -20.420  35.646  1.00  0.00     0.210 HD
ENDBRANCH  30  31
ENDBRANCH  24  30
BRANCH  25  33
ATOM     33  O   UNL     1      -7.743 -19.908  34.046  1.00  0.00    -0.388 OA
ATOM     34  H   UNL     1      -8.079 -19.860  33.112  1.00  0.00     0.211 HD
ENDBRANCH  25  33
ENDBRANCH  11  20
BRANCH  10  35
ATOM     35  O   UNL     1      -6.345 -21.649  30.635  1.00  0.00    -0.507 OA
ATOM     36  H   UNL     1      -6.201 -20.963  31.367  1.00  0.00     0.293 HD
ENDBRANCH  10  35
TORSDOF 9
ENDMDL
MODEL 2
REMARK VINA RESULT:    -8.220      1.162      1.229
REMARK INTER + INTRA:         -11.538
REMARK INTER:                 -11.429
REMARK INTRA:                  -0.110
REMARK UNBOUND:                -0.435
REMARK SMILES O=c1c(-c2ccc(O)cc2)coc2c([C@H]3O[C@H](CO)[C@@H](O)[C@H](O)[C@H]3O)c(O)ccc12
REMARK SMILES IDX 3 1 11 2 12 3 13 4 30 5 2 6 1 7 29 8 28 9 26 10 14 11 4 12
REMARK SMILES IDX 5 13 6 14 7 15 10 16 9 17 8 18 15 20 24 21 16 22 22 23 17 24
REMARK SMILES IDX 20 25 25 26 23 28 18 30 19 31 21 33 27 35
REMARK H PARENT 8 19 25 27 23 29 19 32 21 34 27 36
REMARK Flexibility Score: inf
ROOT
ATOM      1  C   UNL     1      -2.374 -25.395  30.122  1.00  0.00     0.065 A 
ATOM      2  C   UNL     1      -2.535 -25.206  31.501  1.00  0.00     0.208 A 
ATOM      3  O   UNL     1      -3.445 -24.364  31.972  1.00  0.00    -0.463 OA
ATOM      4  C   UNL     1      -4.260 -23.654  31.195  1.00  0.00     0.147 A 
ATOM      5  C   UNL     1      -4.139 -23.757  29.789  1.00  0.00     0.066 A 
ATOM      6  C   UNL     1      -3.199 -24.659  29.254  1.00  0.00     0.200 A 
ATOM      7  O   UNL     1      -3.104 -24.812  28.005  1.00  0.00    -0.288 OA
ATOM      8  C   UNL     1      -4.934 -22.952  28.966  1.00  0.00     0.020 A 
ATOM      9  C   UNL     1      -5.768 -21.994  29.528  1.00  0.00     0.047 A 
ATOM     10  C   UNL     1      -5.875 -21.860  30.919  1.00  0.00     0.125 A 
ATOM     11  C   UNL     1      -5.225 -22.788  31.781  1.00  0.00     0.069 A 
ENDROOT
BRANCH   1  12
ATOM     12  C   UNL     1      -1.352 -26.347  29.619  1.00  0.00    -0.011 A 
ATOM     13  C   UNL     1      -0.440 -25.959  28.622  1.00  0.00     0.013 A 
ATOM     14  C   UNL     1       0.526 -26.857  28.159  1.00  0.00     0.047 A 
ATOM     15  C   UNL     1       0.596 -28.152  28.689  1.00  0.00     0.115 A 
ATOM     16  C   UNL     1      -1.271 -27.645  30.152  1.00  0.00     0.013 A 
ATOM     17  C   UNL     1      -0.305 -28.542  29.686  1.00  0.00     0.047 A 
BRANCH  15  18
ATOM     18  O   UNL     1       1.553 -29.056  28.235  1.00  0.00    -0.508 OA
ATOM     19  H   UNL     1       2.339 -29.329  28.814  1.00  0.00     0.293 HD
ENDBRANCH  15  18
ENDBRANCH   1  12
BRANCH  11  20
ATOM     20  C   UNL     1      -5.400 -22.797  33.317  1.00  0.00     0.188 C 
ATOM     21  C   UNL     1      -6.773 -23.323  33.884  1.00  0.00     0.179 C 
ATOM     22  O   UNL     1      -4.939 -21.614  33.969  1.00  0.00    -0.362 OA
ATOM     23  C   UNL     1      -7.790 -22.207  34.178  1.00  0.00     0.177 C 
ATOM     24  C   UNL     1      -5.924 -20.595  34.116  1.00  0.00     0.176 C 
ATOM     25  C   UNL     1      -7.113 -21.084  34.958  1.00  0.00     0.177 C 
BRANCH  21  26
ATOM     26  O   UNL     1      -7.365 -24.316  33.085  1.00  0.00    -0.387 OA
ATOM     27  H   UNL     1      -7.029 -25.197  33.394  1.00  0.00     0.211 HD
ENDBRANCH  21  26
BRANCH  23  28
ATOM     28  O   UNL     1      -8.901 -22.711  34.879  1.00  0.00    -0.387 OA
ATOM     29  H   UNL     1      -9.319 -23.418  34.321  1.00  0.00     0.211 HD
ENDBRANCH  23  28
BRANCH  24  30
ATOM     30  C   UNL     1      -5.238 -19.375  34.755  1.00  0.00     0.191 C 
BRANCH  30  31
ATOM     31  O   UNL     1      -4.125 -18.964  34.006  1.00  0.00    -0.394 OA
ATOM     32  H   UNL     1      -4.476 -18.577  33.163  1.00  0.00     0.210 HD
ENDBRANCH  30  31
ENDBRANCH  24  30
BRANCH  25  33
ATOM     33  O   UNL     1      -8.044 -20.050  35.157  1.00  0.00    -0.388 OA
ATOM     34  H   UNL     1      -7.788 -19.304  34.553  1.00  0.00     0.211 HD
ENDBRANCH  25  33
ENDBRANCH  11  20
BRANCH  10  35
ATOM     35  O   UNL     1      -6.577 -20.765  31.417  1.00  0.00    -0.507 OA
ATOM     36  H   UNL     1      -7.539 -20.579  31.157  1.00  0.00     0.293 HD
ENDBRANCH  10  35
TORSDOF 9
ENDMDL
MODEL 3
REMARK VINA RESULT:    -7.876      1.989      3.119
REMARK INTER + INTRA:         -11.073
REMARK INTER:                 -10.649
REMARK INTRA:                  -0.424
REMARK UNBOUND:                -0.435
REMARK SMILES O=c1c(-c2ccc(O)cc2)coc2c([C@H]3O[C@H](CO)[C@@H](O)[C@H](O)[C@H]3O)c(O)ccc12
REMARK SMILES IDX 3 1 11 2 12 3 13 4 30 5 2 6 1 7 29 8 28 9 26 10 14 11 4 12
REMARK SMILES IDX 5 13 6 14 7 15 10 16 9 17 8 18 15 20 24 21 16 22 22 23 17 24
REMARK SMILES IDX 20 25 25 26 23 28 18 30 19 31 21 33 27 35
REMARK H PARENT 8 19 25 27 23 29 19 32 21 34 27 36
REMARK Flexibility Score: inf
ROOT
ATOM      1  C   UNL     1      -3.540 -24.133  31.157  1.00  0.00     0.065 A 
ATOM      2  C   UNL     1      -3.375 -23.633  32.456  1.00  0.00     0.208 A 
ATOM      3  O   UNL     1      -4.112 -22.622  32.895  1.00  0.00    -0.463 OA
ATOM      4  C   UNL     1      -5.044 -22.019  32.160  1.00  0.00     0.147 A 
ATOM      5  C   UNL     1      -5.249 -22.438  30.824  1.00  0.00     0.066 A 
ATOM      6  C   UNL     1      -4.501 -23.524  30.332  1.00  0.00     0.200 A 
ATOM      7  O   UNL     1      -4.698 -23.955  29.162  1.00  0.00    -0.288 OA
ATOM      8  C   UNL     1      -6.167 -21.755  30.019  1.00  0.00     0.020 A 
ATOM      9  C   UNL     1      -6.803 -20.618  30.501  1.00  0.00     0.047 A 
ATOM     10  C   UNL     1      -6.586 -20.174  31.812  1.00  0.00     0.125 A 
ATOM     11  C   UNL     1      -5.806 -20.953  32.713  1.00  0.00     0.069 A 
ENDROOT
BRANCH   1  12
ATOM     12  C   UNL     1      -2.708 -25.271  30.690  1.00  0.00    -0.011 A 
ATOM     13  C   UNL     1      -3.154 -26.595  30.840  1.00  0.00     0.013 A 
ATOM     14  C   UNL     1      -2.368 -27.661  30.389  1.00  0.00     0.047 A 
ATOM     15  C   UNL     1      -1.131 -27.416  29.780  1.00  0.00     0.115 A 
ATOM     16  C   UNL     1      -1.468 -25.032  30.071  1.00  0.00     0.013 A 
ATOM     17  C   UNL     1      -0.685 -26.100  29.622  1.00  0.00     0.047 A 
BRANCH  15  18
ATOM     18  O   UNL     1      -0.339 -28.470  29.328  1.00  0.00    -0.508 OA
ATOM     19  H   UNL     1      -0.063 -28.544  28.356  1.00  0.00     0.293 HD
ENDBRANCH  15  18
ENDBRANCH   1  12
BRANCH  11  20
ATOM     20  C   UNL     1      -5.630 -20.609  34.210  1.00  0.00     0.188 C 
ATOM     21  C   UNL     1      -6.828 -20.952  35.175  1.00  0.00     0.179 C 
ATOM     22  O   UNL     1      -5.061 -19.324  34.456  1.00  0.00    -0.362 OA
ATOM     23  C   UNL     1      -7.777 -19.768  35.429  1.00  0.00     0.177 C 
ATOM     24  C   UNL     1      -6.009 -18.269  34.586  1.00  0.00     0.176 C 
ATOM     25  C   UNL     1      -6.967 -18.519  35.762  1.00  0.00     0.177 C 
BRANCH  21  26
ATOM     26  O   UNL     1      -7.563 -22.081  34.776  1.00  0.00    -0.387 OA
ATOM     27  H   UNL     1      -6.962 -22.870  34.828  1.00  0.00     0.211 HD
ENDBRANCH  21  26
BRANCH  23  28
ATOM     28  O   UNL     1      -8.690 -20.067  36.457  1.00  0.00    -0.387 OA
ATOM     29  H   UNL     1      -8.458 -19.508  37.244  1.00  0.00     0.211 HD
ENDBRANCH  23  28
BRANCH  24  30
ATOM     30  C   UNL     1      -5.223 -16.957  34.760  1.00  0.00     0.191 C 
BRANCH  30  31
ATOM     31  O   UNL     1      -4.113 -16.908  33.904  1.00  0.00    -0.394 OA
ATOM     32  H   UNL     1      -4.057 -17.793  33.459  1.00  0.00     0.210 HD
ENDBRANCH  30  31
ENDBRANCH  24  30
BRANCH  25  33
ATOM     33  O   UNL     1      -7.852 -17.439  35.925  1.00  0.00    -0.388 OA
ATOM     34  H   UNL     1      -7.826 -17.180  36.883  1.00  0.00     0.211 HD
ENDBRANCH  25  33
ENDBRANCH  11  20
BRANCH  10  35
ATOM     35  O   UNL     1      -7.101 -18.932  32.175  1.00  0.00    -0.507 OA
ATOM     36  H   UNL     1      -7.802 -18.457  31.618  1.00  0.00     0.293 HD
ENDBRANCH  10  35
TORSDOF 9
ENDMDL
MODEL 4
REMARK VINA RESULT:    -7.657      2.097      4.059
REMARK INTER + INTRA:         -10.777
REMARK INTER:                 -10.127
REMARK INTRA:                  -0.650
REMARK UNBOUND:                -0.435
REMARK SMILES O=c1c(-c2ccc(O)cc2)coc2c([C@H]3O[C@H](CO)[C@@H](O)[C@H](O)[C@H]3O)c(O)ccc12
REMARK SMILES IDX 3 1 11 2 12 3 13 4 30 5 2 6 1 7 29 8 28 9 26 10 14 11 4 12
REMARK SMILES IDX 5 13 6 14 7 15 10 16 9 17 8 18 15 20 24 21 16 22 22 23 17 24
REMARK SMILES IDX 20 25 25 26 23 28 18 30 19 31 21 33 27 35
REMARK H PARENT 8 19 25 27 23 29 19 32 21 34 27 36
REMARK Flexibility Score: inf
ROOT
ATOM      1  C   UNL     1      -3.655 -24.625  30.999  1.00  0.00     0.065 A 
ATOM      2  C   UNL     1      -4.863 -24.333  30.352  1.00  0.00     0.208 A 
ATOM      3  O   UNL     1      -5.754 -23.521  30.906  1.00  0.00    -0.463 OA
ATOM      4  C   UNL     1      -5.576 -22.933  32.087  1.00  0.00     0.147 A 
ATOM      5  C   UNL     1      -4.399 -23.204  32.825  1.00  0.00     0.066 A 
ATOM      6  C   UNL     1      -3.421 -24.041  32.256  1.00  0.00     0.200 A 
ATOM      7  O   UNL     1      -2.338 -24.260  32.866  1.00  0.00    -0.288 OA
ATOM      8  C   UNL     1      -4.242 -22.655  34.102  1.00  0.00     0.020 A 
ATOM      9  C   UNL     1      -5.276 -21.926  34.677  1.00  0.00     0.047 A 
ATOM     10  C   UNL     1      -6.460 -21.676  33.970  1.00  0.00     0.125 A 
ATOM     11  C   UNL     1      -6.573 -22.058  32.603  1.00  0.00     0.069 A 
ENDROOT
BRANCH   1  12
ATOM     12  C   UNL     1      -2.671 -25.532  30.356  1.00  0.00    -0.011 A 
ATOM     13  C   UNL     1      -1.709 -25.028  29.463  1.00  0.00     0.013 A 
ATOM     14  C   UNL     1      -0.779 -25.887  28.868  1.00  0.00     0.047 A 
ATOM     15  C   UNL     1      -0.797 -27.257  29.161  1.00  0.00     0.115 A 
ATOM     16  C   UNL     1      -2.678 -26.907  30.651  1.00  0.00     0.013 A 
ATOM     17  C   UNL     1      -1.748 -27.762  30.053  1.00  0.00     0.047 A 
BRANCH  15  18
ATOM     18  O   UNL     1       0.123 -28.122  28.573  1.00  0.00    -0.508 OA
ATOM     19  H   UNL     1       1.121 -27.958  28.641  1.00  0.00     0.293 HD
ENDBRANCH  15  18
ENDBRANCH   1  12
BRANCH  11  20
ATOM     20  C   UNL     1      -7.784 -21.700  31.712  1.00  0.00     0.188 C 
ATOM     21  C   UNL     1      -8.003 -20.177  31.368  1.00  0.00     0.179 C 
ATOM     22  O   UNL     1      -8.992 -22.376  32.061  1.00  0.00    -0.362 OA
ATOM     23  C   UNL     1      -8.994 -19.467  32.306  1.00  0.00     0.177 C 
ATOM     24  C   UNL     1      -9.805 -21.688  33.006  1.00  0.00     0.176 C 
ATOM     25  C   UNL     1     -10.250 -20.318  32.470  1.00  0.00     0.177 C 
BRANCH  21  26
ATOM     26  O   UNL     1      -6.807 -19.445  31.287  1.00  0.00    -0.387 OA
ATOM     27  H   UNL     1      -7.005 -18.585  30.833  1.00  0.00     0.211 HD
ENDBRANCH  21  26
BRANCH  23  28
ATOM     28  O   UNL     1      -9.312 -18.185  31.822  1.00  0.00    -0.387 OA
ATOM     29  H   UNL     1      -8.467 -17.670  31.742  1.00  0.00     0.211 HD
ENDBRANCH  23  28
BRANCH  24  30
ATOM     30  C   UNL     1     -11.010 -22.591  33.327  1.00  0.00     0.191 C 
BRANCH  30  31
ATOM     31  O   UNL     1     -11.518 -22.330  34.608  1.00  0.00    -0.394 OA
ATOM     32  H   UNL     1     -11.476 -21.347  34.736  1.00  0.00     0.210 HD
ENDBRANCH  30  31
ENDBRANCH  24  30
BRANCH  25  33
ATOM     33  O   UNL     1     -11.110 -19.679  33.380  1.00  0.00    -0.388 OA
ATOM     34  H   UNL     1     -11.893 -19.352  32.864  1.00  0.00     0.211 HD
ENDBRANCH  25  33
ENDBRANCH  11  20
BRANCH  10  35
ATOM     35  O   UNL     1      -7.526 -21.107  34.662  1.00  0.00    -0.507 OA
ATOM     36  H   UNL     1      -7.455 -20.844  35.638  1.00  0.00     0.293 HD
ENDBRANCH  10  35
TORSDOF 9
ENDMDL
MODEL 5
REMARK VINA RESULT:    -7.045      2.424      4.750
REMARK INTER + INTRA:          -9.951
REMARK INTER:                  -9.889
REMARK INTRA:                  -0.061
REMARK UNBOUND:                -0.435
REMARK SMILES O=c1c(-c2ccc(O)cc2)coc2c([C@H]3O[C@H](CO)[C@@H](O)[C@H](O)[C@H]3O)c(O)ccc12
REMARK SMILES IDX 3 1 11 2 12 3 13 4 30 5 2 6 1 7 29 8 28 9 26 10 14 11 4 12
REMARK SMILES IDX 5 13 6 14 7 15 10 16 9 17 8 18 15 20 24 21 16 22 22 23 17 24
REMARK SMILES IDX 20 25 25 26 23 28 18 30 19 31 21 33 27 35
REMARK H PARENT 8 19 25 27 23 29 19 32 21 34 27 36
REMARK Flexibility Score: inf
ROOT
ATOM      1  C   UNL     1      -4.044 -24.028  31.851  1.00  0.00     0.065 A 
ATOM      2  C   UNL     1      -5.223 -24.058  31.094  1.00  0.00     0.208 A 
ATOM      3  O   UNL     1      -6.284 -23.349  31.456  1.00  0.00    -0.463 OA
ATOM      4  C   UNL     1      -6.312 -22.572  32.537  1.00  0.00     0.147 A 
ATOM      5  C   UNL     1      -5.176 -22.514  33.378  1.00  0.00     0.066 A 
ATOM      6  C   UNL     1      -4.024 -23.234  33.010  1.00  0.00     0.200 A 
ATOM      7  O   UNL     1      -2.976 -23.161  33.712  1.00  0.00    -0.288 OA
ATOM      8  C   UNL     1      -5.227 -21.765  34.559  1.00  0.00     0.020 A 
ATOM      9  C   UNL     1      -6.417 -21.161  34.946  1.00  0.00     0.047 A 
ATOM     10  C   UNL     1      -7.559 -21.236  34.138  1.00  0.00     0.125 A 
ATOM     11  C   UNL     1      -7.485 -21.827  32.846  1.00  0.00     0.069 A 
ENDROOT
BRANCH   1  12
ATOM     12  C   UNL     1      -2.867 -24.825  31.421  1.00  0.00    -0.011 A 
ATOM     13  C   UNL     1      -2.000 -25.393  32.370  1.00  0.00     0.013 A 
ATOM     14  C   UNL     1      -0.899 -26.150  31.958  1.00  0.00     0.047 A 
ATOM     15  C   UNL     1      -0.654 -26.353  30.594  1.00  0.00     0.115 A 
ATOM     16  C   UNL     1      -2.619 -25.039  30.053  1.00  0.00     0.013 A 
ATOM     17  C   UNL     1      -1.517 -25.796  29.645  1.00  0.00     0.047 A 
BRANCH  15  18
ATOM     18  O   UNL     1       0.440 -27.104  30.172  1.00  0.00    -0.508 OA
ATOM     19  H   UNL     1       0.351 -28.089  29.949  1.00  0.00     0.293 HD
ENDBRANCH  15  18
ENDBRANCH   1  12
BRANCH  11  20
ATOM     20  C   UNL     1      -8.657 -21.830  31.837  1.00  0.00     0.188 C 
ATOM     21  C   UNL     1      -8.939 -20.490  31.055  1.00  0.00     0.179 C 
ATOM     22  O   UNL     1      -9.844 -22.461  32.315  1.00  0.00    -0.362 OA
ATOM     23  C   UNL     1     -10.025 -19.613  31.701  1.00  0.00     0.177 C 
ATOM     24  C   UNL     1     -10.752 -21.591  32.983  1.00  0.00     0.176 C 
ATOM     25  C   UNL     1     -11.238 -20.469  32.051  1.00  0.00     0.177 C 
BRANCH  21  26
ATOM     26  O   UNL     1      -7.783 -19.728  30.816  1.00  0.00    -0.387 OA
ATOM     27  H   UNL     1      -7.692 -19.071  31.554  1.00  0.00     0.211 HD
ENDBRANCH  21  26
BRANCH  23  28
ATOM     28  O   UNL     1     -10.384 -18.551  30.851  1.00  0.00    -0.387 OA
ATOM     29  H   UNL     1     -10.203 -17.701  31.330  1.00  0.00     0.211 HD
ENDBRANCH  23  28
BRANCH  24  30
ATOM     30  C   UNL     1     -11.921 -22.448  33.500  1.00  0.00     0.191 C 
BRANCH  30  31
ATOM     31  O   UNL     1     -12.510 -21.876  34.638  1.00  0.00    -0.394 OA
ATOM     32  H   UNL     1     -12.819 -22.627  35.207  1.00  0.00     0.210 HD
ENDBRANCH  30  31
ENDBRANCH  24  30
BRANCH  25  33
ATOM     33  O   UNL     1     -12.188 -19.659  32.698  1.00  0.00    -0.388 OA
ATOM     34  H   UNL     1     -12.171 -18.772  32.250  1.00  0.00     0.211 HD
ENDBRANCH  25  33
ENDBRANCH  11  20
BRANCH  10  35
ATOM     35  O   UNL     1      -8.763 -20.774  34.665  1.00  0.00    -0.507 OA
ATOM     36  H   UNL     1      -9.326 -21.336  35.293  1.00  0.00     0.293 HD
ENDBRANCH  10  35
TORSDOF 9
ENDMDL
MODEL 6
REMARK VINA RESULT:    -6.900      2.434      8.787
REMARK INTER + INTRA:          -9.756
REMARK INTER:                  -9.563
REMARK INTRA:                  -0.193
REMARK UNBOUND:                -0.435
REMARK SMILES O=c1c(-c2ccc(O)cc2)coc2c([C@H]3O[C@H](CO)[C@@H](O)[C@H](O)[C@H]3O)c(O)ccc12
REMARK SMILES IDX 3 1 11 2 12 3 13 4 30 5 2 6 1 7 29 8 28 9 26 10 14 11 4 12
REMARK SMILES IDX 5 13 6 14 7 15 10 16 9 17 8 18 15 20 24 21 16 22 22 23 17 24
REMARK SMILES IDX 20 25 25 26 23 28 18 30 19 31 21 33 27 35
REMARK H PARENT 8 19 25 27 23 29 19 32 21 34 27 36
REMARK Flexibility Score: inf
ROOT
ATOM      1  C   UNL     1      -5.761 -22.177  30.624  1.00  0.00     0.065 A 
ATOM      2  C   UNL     1      -5.192 -22.801  29.506  1.00  0.00     0.208 A 
ATOM      3  O   UNL     1      -4.195 -23.665  29.642  1.00  0.00    -0.463 OA
ATOM      4  C   UNL     1      -3.671 -24.001  30.819  1.00  0.00     0.147 A 
ATOM      5  C   UNL     1      -4.163 -23.388  31.996  1.00  0.00     0.066 A 
ATOM      6  C   UNL     1      -5.237 -22.484  31.891  1.00  0.00     0.200 A 
ATOM      7  O   UNL     1      -5.732 -21.961  32.927  1.00  0.00    -0.288 OA
ATOM      8  C   UNL     1      -3.562 -23.674  33.227  1.00  0.00     0.020 A 
ATOM      9  C   UNL     1      -2.433 -24.481  33.278  1.00  0.00     0.047 A 
ATOM     10  C   UNL     1      -1.917 -25.071  32.116  1.00  0.00     0.125 A 
ATOM     11  C   UNL     1      -2.615 -24.953  30.881  1.00  0.00     0.069 A 
ENDROOT
BRANCH   1  12
ATOM     12  C   UNL     1      -6.881 -21.217  30.446  1.00  0.00    -0.011 A 
ATOM     13  C   UNL     1      -6.797 -20.184  29.496  1.00  0.00     0.013 A 
ATOM     14  C   UNL     1      -7.859 -19.290  29.328  1.00  0.00     0.047 A 
ATOM     15  C   UNL     1      -9.018 -19.420  30.103  1.00  0.00     0.115 A 
ATOM     16  C   UNL     1      -8.051 -21.346  31.215  1.00  0.00     0.013 A 
ATOM     17  C   UNL     1      -9.111 -20.449  31.045  1.00  0.00     0.047 A 
BRANCH  15  18
ATOM     18  O   UNL     1     -10.082 -18.534  29.945  1.00  0.00    -0.508 OA
ATOM     19  H   UNL     1     -10.295 -17.834  30.645  1.00  0.00     0.293 HD
ENDBRANCH  15  18
ENDBRANCH   1  12
BRANCH  11  20
ATOM     20  C   UNL     1      -2.193 -25.683  29.585  1.00  0.00     0.188 C 
ATOM     21  C   UNL     1      -2.118 -27.257  29.635  1.00  0.00     0.179 C 
ATOM     22  O   UNL     1      -1.084 -25.089  28.910  1.00  0.00    -0.362 OA
ATOM     23  C   UNL     1      -0.708 -27.801  29.924  1.00  0.00     0.177 C 
ATOM     24  C   UNL     1       0.189 -25.588  29.307  1.00  0.00     0.176 C 
ATOM     25  C   UNL     1       0.310 -27.096  29.033  1.00  0.00     0.177 C 
BRANCH  21  26
ATOM     26  O   UNL     1      -3.047 -27.833  30.517  1.00  0.00    -0.387 OA
ATOM     27  H   UNL     1      -3.850 -27.250  30.539  1.00  0.00     0.211 HD
ENDBRANCH  21  26
BRANCH  23  28
ATOM     28  O   UNL     1      -0.661 -29.195  29.740  1.00  0.00    -0.387 OA
ATOM     29  H   UNL     1       0.101 -29.398  29.137  1.00  0.00     0.211 HD
ENDBRANCH  23  28
BRANCH  24  30
ATOM     30  C   UNL     1       1.260 -24.784  28.547  1.00  0.00     0.191 C 
BRANCH  30  31
ATOM     31  O   UNL     1       1.733 -25.490  27.431  1.00  0.00    -0.394 OA
ATOM     32  H   UNL     1       2.702 -25.640  27.579  1.00  0.00     0.210 HD
ENDBRANCH  30  31
ENDBRANCH  24  30
BRANCH  25  33
ATOM     33  O   UNL     1       1.595 -27.563  29.361  1.00  0.00    -0.388 OA
ATOM     34  H   UNL     1       1.714 -27.432  30.338  1.00  0.00     0.211 HD
ENDBRANCH  25  33
ENDBRANCH  11  20
BRANCH  10  35
ATOM     35  O   UNL     1      -0.683 -25.712  32.201  1.00  0.00    -0.507 OA
ATOM     36  H   UNL     1       0.189 -25.225  32.029  1.00  0.00     0.293 HD
ENDBRANCH  10  35
TORSDOF 9
ENDMDL
MODEL 7
REMARK VINA RESULT:    -6.709      2.342      4.003
REMARK INTER + INTRA:          -9.497
REMARK INTER:                  -9.484
REMARK INTRA:                  -0.012
REMARK UNBOUND:                -0.435
REMARK SMILES O=c1c(-c2ccc(O)cc2)coc2c([C@H]3O[C@H](CO)[C@@H](O)[C@H](O)[C@H]3O)c(O)ccc12
REMARK SMILES IDX 3 1 11 2 12 3 13 4 30 5 2 6 1 7 29 8 28 9 26 10 14 11 4 12
REMARK SMILES IDX 5 13 6 14 7 15 10 16 9 17 8 18 15 20 24 21 16 22 22 23 17 24
REMARK SMILES IDX 20 25 25 26 23 28 18 30 19 31 21 33 27 35
REMARK H PARENT 8 19 25 27 23 29 19 32 21 34 27 36
REMARK Flexibility Score: inf
ROOT
ATOM      1  C   UNL     1      -4.652 -23.637  30.826  1.00  0.00     0.065 A 
ATOM      2  C   UNL     1      -5.111 -23.935  32.116  1.00  0.00     0.208 A 
ATOM      3  O   UNL     1      -6.105 -23.246  32.661  1.00  0.00    -0.463 OA
ATOM      4  C   UNL     1      -6.732 -22.248  32.043  1.00  0.00     0.147 A 
ATOM      5  C   UNL     1      -6.305 -21.858  30.751  1.00  0.00     0.066 A 
ATOM      6  C   UNL     1      -5.269 -22.581  30.132  1.00  0.00     0.200 A 
ATOM      7  O   UNL     1      -4.901 -22.292  28.960  1.00  0.00    -0.288 OA
ATOM      8  C   UNL     1      -6.903 -20.756  30.129  1.00  0.00     0.020 A 
ATOM      9  C   UNL     1      -7.843 -19.997  30.816  1.00  0.00     0.047 A 
ATOM     10  C   UNL     1      -8.252 -20.353  32.107  1.00  0.00     0.125 A 
ATOM     11  C   UNL     1      -7.804 -21.572  32.690  1.00  0.00     0.069 A 
ENDROOT
BRANCH   1  12
ATOM     12  C   UNL     1      -3.541 -24.426  30.235  1.00  0.00    -0.011 A 
ATOM     13  C   UNL     1      -3.457 -24.616  28.844  1.00  0.00     0.013 A 
ATOM     14  C   UNL     1      -2.403 -25.351  28.294  1.00  0.00     0.047 A 
ATOM     15  C   UNL     1      -1.419 -25.903  29.125  1.00  0.00     0.115 A 
ATOM     16  C   UNL     1      -2.546 -24.975  31.062  1.00  0.00     0.013 A 
ATOM     17  C   UNL     1      -1.494 -25.711  30.508  1.00  0.00     0.047 A 
BRANCH  15  18
ATOM     18  O   UNL     1      -0.366 -26.639  28.587  1.00  0.00    -0.508 OA
ATOM     19  H   UNL     1      -0.096 -27.535  28.975  1.00  0.00     0.293 HD
ENDBRANCH  15  18
ENDBRANCH   1  12
BRANCH  11  20
ATOM     20  C   UNL     1      -8.311 -22.109  34.048  1.00  0.00     0.188 C 
ATOM     21  C   UNL     1      -9.765 -22.718  34.086  1.00  0.00     0.179 C 
ATOM     22  O   UNL     1      -8.030 -21.259  35.159  1.00  0.00    -0.362 OA
ATOM     23  C   UNL     1     -10.844 -21.718  34.534  1.00  0.00     0.177 C 
ATOM     24  C   UNL     1      -9.043 -20.300  35.446  1.00  0.00     0.176 C 
ATOM     25  C   UNL     1     -10.378 -20.983  35.787  1.00  0.00     0.177 C 
BRANCH  21  26
ATOM     26  O   UNL     1     -10.146 -23.331  32.881  1.00  0.00    -0.387 OA
ATOM     27  H   UNL     1      -9.624 -22.914  32.147  1.00  0.00     0.211 HD
ENDBRANCH  21  26
BRANCH  23  28
ATOM     28  O   UNL     1     -12.071 -22.370  34.758  1.00  0.00    -0.387 OA
ATOM     29  H   UNL     1     -12.135 -23.128  34.120  1.00  0.00     0.211 HD
ENDBRANCH  23  28
BRANCH  24  30
ATOM     30  C   UNL     1      -8.539 -19.424  36.606  1.00  0.00     0.191 C 
BRANCH  30  31
ATOM     31  O   UNL     1      -9.144 -18.158  36.591  1.00  0.00    -0.394 OA
ATOM     32  H   UNL     1     -10.103 -18.298  36.805  1.00  0.00     0.210 HD
ENDBRANCH  30  31
ENDBRANCH  24  30
BRANCH  25  33
ATOM     33  O   UNL     1     -11.351 -20.030  36.137  1.00  0.00    -0.388 OA
ATOM     34  H   UNL     1     -11.666 -20.255  37.052  1.00  0.00     0.211 HD
ENDBRANCH  25  33
ENDBRANCH  11  20
BRANCH  10  35
ATOM     35  O   UNL     1      -9.050 -19.455  32.811  1.00  0.00    -0.507 OA
ATOM     36  H   UNL     1      -8.701 -18.556  33.124  1.00  0.00     0.293 HD
ENDBRANCH  10  35
TORSDOF 9
ENDMDL
MODEL 8
REMARK VINA RESULT:    -6.480      3.017      6.256
REMARK INTER + INTRA:          -9.187
REMARK INTER:                  -9.238
REMARK INTRA:                   0.051
REMARK UNBOUND:                -0.435
REMARK SMILES O=c1c(-c2ccc(O)cc2)coc2c([C@H]3O[C@H](CO)[C@@H](O)[C@H](O)[C@H]3O)c(O)ccc12
REMARK SMILES IDX 3 1 11 2 12 3 13 4 30 5 2 6 1 7 29 8 28 9 26 10 14 11 4 12
REMARK SMILES IDX 5 13 6 14 7 15 10 16 9 17 8 18 15 20 24 21 16 22 22 23 17 24
REMARK SMILES IDX 20 25 25 26 23 28 18 30 19 31 21 33 27 35
REMARK H PARENT 8 19 25 27 23 29 19 32 21 34 27 36
REMARK Flexibility Score: inf
ROOT
ATOM      1  C   UNL     1      -5.550 -22.032  33.114  1.00  0.00     0.065 A 
ATOM      2  C   UNL     1      -6.832 -22.401  33.540  1.00  0.00     0.208 A 
ATOM      3  O   UNL     1      -7.557 -21.591  34.301  1.00  0.00    -0.463 OA
ATOM      4  C   UNL     1      -7.137 -20.395  34.706  1.00  0.00     0.147 A 
ATOM      5  C   UNL     1      -5.838 -19.960  34.351  1.00  0.00     0.066 A 
ATOM      6  C   UNL     1      -5.051 -20.784  33.525  1.00  0.00     0.200 A 
ATOM      7  O   UNL     1      -3.908 -20.401  33.147  1.00  0.00    -0.288 OA
ATOM      8  C   UNL     1      -5.359 -18.741  34.842  1.00  0.00     0.020 A 
ATOM      9  C   UNL     1      -6.119 -18.009  35.746  1.00  0.00     0.047 A 
ATOM     10  C   UNL     1      -7.395 -18.443  36.130  1.00  0.00     0.125 A 
ATOM     11  C   UNL     1      -7.985 -19.577  35.505  1.00  0.00     0.069 A 
ENDROOT
BRANCH   1  12
ATOM     12  C   UNL     1      -4.760 -22.953  32.258  1.00  0.00    -0.011 A 
ATOM     13  C   UNL     1      -3.565 -23.524  32.730  1.00  0.00     0.013 A 
ATOM     14  C   UNL     1      -2.832 -24.398  31.922  1.00  0.00     0.047 A 
ATOM     15  C   UNL     1      -3.285 -24.715  30.635  1.00  0.00     0.115 A 
ATOM     16  C   UNL     1      -5.213 -23.282  30.967  1.00  0.00     0.013 A 
ATOM     17  C   UNL     1      -4.476 -24.156  30.162  1.00  0.00     0.047 A 
BRANCH  15  18
ATOM     18  O   UNL     1      -2.561 -25.584  29.820  1.00  0.00    -0.508 OA
ATOM     19  H   UNL     1      -2.860 -26.540  29.672  1.00  0.00     0.293 HD
ENDBRANCH  15  18
ENDBRANCH   1  12
BRANCH  11  20
ATOM     20  C   UNL     1      -9.436 -20.042  35.768  1.00  0.00     0.188 C 
ATOM     21  C   UNL     1      -9.630 -21.458  36.434  1.00  0.00     0.179 C 
ATOM     22  O   UNL     1     -10.336 -19.801  34.687  1.00  0.00    -0.362 OA
ATOM     23  C   UNL     1      -9.878 -22.589  35.421  1.00  0.00     0.177 C 
ATOM     24  C   UNL     1     -10.434 -20.866  33.747  1.00  0.00     0.176 C 
ATOM     25  C   UNL     1     -10.937 -22.157  34.413  1.00  0.00     0.177 C 
BRANCH  21  26
ATOM     26  O   UNL     1      -8.589 -21.812  37.308  1.00  0.00    -0.387 OA
ATOM     27  H   UNL     1      -8.988 -21.998  38.198  1.00  0.00     0.211 HD
ENDBRANCH  21  26
BRANCH  23  28
ATOM     28  O   UNL     1     -10.258 -23.775  36.077  1.00  0.00    -0.387 OA
ATOM     29  H   UNL     1      -9.775 -23.814  36.943  1.00  0.00     0.211 HD
ENDBRANCH  23  28
BRANCH  24  30
ATOM     30  C   UNL     1     -11.372 -20.404  32.618  1.00  0.00     0.191 C 
BRANCH  30  31
ATOM     31  O   UNL     1     -11.032 -21.000  31.394  1.00  0.00    -0.394 OA
ATOM     32  H   UNL     1     -10.377 -20.397  30.956  1.00  0.00     0.210 HD
ENDBRANCH  30  31
ENDBRANCH  24  30
BRANCH  25  33
ATOM     33  O   UNL     1     -11.098 -23.180  33.462  1.00  0.00    -0.388 OA
ATOM     34  H   UNL     1     -11.110 -22.750  32.567  1.00  0.00     0.211 HD
ENDBRANCH  25  33
ENDBRANCH  11  20
BRANCH  10  35
ATOM     35  O   UNL     1      -8.026 -17.771  37.174  1.00  0.00    -0.507 OA
ATOM     36  H   UNL     1      -8.583 -16.939  37.020  1.00  0.00     0.293 HD
ENDBRANCH  10  35
TORSDOF 9
ENDMDL
MODEL 9
REMARK VINA RESULT:    -6.463      4.978     10.265
REMARK INTER + INTRA:          -9.164
REMARK INTER:                  -8.605
REMARK INTRA:                  -0.560
REMARK UNBOUND:                -0.435
REMARK SMILES O=c1c(-c2ccc(O)cc2)coc2c([C@H]3O[C@H](CO)[C@@H](O)[C@H](O)[C@H]3O)c(O)ccc12
REMARK SMILES IDX 3 1 11 2 12 3 13 4 30 5 2 6 1 7 29 8 28 9 26 10 14 11 4 12
REMARK SMILES IDX 5 13 6 14 7 15 10 16 9 17 8 18 15 20 24 21 16 22 22 23 17 24
REMARK SMILES IDX 20 25 25 26 23 28 18 30 19 31 21 33 27 35
REMARK H PARENT 8 19 25 27 23 29 19 32 21 34 27 36
REMARK Flexibility Score: inf
ROOT
ATOM      1  C   UNL     1     -11.609 -20.116  30.180  1.00  0.00     0.065 A 
ATOM      2  C   UNL     1     -10.257 -19.789  30.012  1.00  0.00     0.208 A 
ATOM      3  O   UNL     1      -9.326 -20.314  30.797  1.00  0.00    -0.463 OA
ATOM      4  C   UNL     1      -9.593 -21.173  31.779  1.00  0.00     0.147 A 
ATOM      5  C   UNL     1     -10.938 -21.528  32.041  1.00  0.00     0.066 A 
ATOM      6  C   UNL     1     -11.949 -21.008  31.212  1.00  0.00     0.200 A 
ATOM      7  O   UNL     1     -13.153 -21.347  31.387  1.00  0.00    -0.288 OA
ATOM      8  C   UNL     1     -11.233 -22.364  33.123  1.00  0.00     0.020 A 
ATOM      9  C   UNL     1     -10.222 -22.766  33.987  1.00  0.00     0.047 A 
ATOM     10  C   UNL     1      -8.890 -22.397  33.757  1.00  0.00     0.125 A 
ATOM     11  C   UNL     1      -8.533 -21.707  32.564  1.00  0.00     0.069 A 
ENDROOT
BRANCH   1  12
ATOM     12  C   UNL     1     -12.632 -19.520  29.285  1.00  0.00    -0.011 A 
ATOM     13  C   UNL     1     -13.239 -18.293  29.606  1.00  0.00     0.013 A 
ATOM     14  C   UNL     1     -14.195 -17.732  28.754  1.00  0.00     0.047 A 
ATOM     15  C   UNL     1     -14.553 -18.388  27.569  1.00  0.00     0.115 A 
ATOM     16  C   UNL     1     -12.991 -20.168  28.090  1.00  0.00     0.013 A 
ATOM     17  C   UNL     1     -13.949 -19.605  27.240  1.00  0.00     0.047 A 
BRANCH  15  18
ATOM     18  O   UNL     1     -15.506 -17.840  26.712  1.00  0.00    -0.508 OA
ATOM     19  H   UNL     1     -16.449 -18.207  26.666  1.00  0.00     0.293 HD
ENDBRANCH  15  18
ENDBRANCH   1  12
BRANCH  11  20
ATOM     20  C   UNL     1      -7.075 -21.384  32.166  1.00  0.00     0.188 C 
ATOM     21  C   UNL     1      -6.130 -22.601  31.835  1.00  0.00     0.179 C 
ATOM     22  O   UNL     1      -6.449 -20.392  32.979  1.00  0.00    -0.362 OA
ATOM     23  C   UNL     1      -5.277 -23.065  33.028  1.00  0.00     0.177 C 
ATOM     24  C   UNL     1      -5.759 -20.904  34.115  1.00  0.00     0.176 C 
ATOM     25  C   UNL     1      -4.627 -21.859  33.699  1.00  0.00     0.177 C 
BRANCH  21  26
ATOM     26  O   UNL     1      -6.805 -23.696  31.271  1.00  0.00    -0.387 OA
ATOM     27  H   UNL     1      -7.537 -23.955  31.888  1.00  0.00     0.211 HD
ENDBRANCH  21  26
BRANCH  23  28
ATOM     28  O   UNL     1      -4.307 -23.999  32.619  1.00  0.00    -0.387 OA
ATOM     29  H   UNL     1      -4.726 -24.604  31.954  1.00  0.00     0.211 HD
ENDBRANCH  23  28
BRANCH  24  30
ATOM     30  C   UNL     1      -5.224 -19.703  34.915  1.00  0.00     0.191 C 
BRANCH  30  31
ATOM     31  O   UNL     1      -4.166 -19.073  34.244  1.00  0.00    -0.394 OA
ATOM     32  H   UNL     1      -4.003 -18.213  34.712  1.00  0.00     0.210 HD
ENDBRANCH  30  31
ENDBRANCH  24  30
BRANCH  25  33
ATOM     33  O   UNL     1      -3.908 -22.302  34.823  1.00  0.00    -0.388 OA
ATOM     34  H   UNL     1      -4.563 -22.711  35.447  1.00  0.00     0.211 HD
ENDBRANCH  25  33
ENDBRANCH  11  20
BRANCH  10  35
ATOM     35  O   UNL     1      -7.956 -22.670  34.753  1.00  0.00    -0.507 OA
ATOM     36  H   UNL     1      -6.958 -22.597  34.589  1.00  0.00     0.293 HD
ENDBRANCH  10  35
TORSDOF 9
ENDMDL
