MODEL 1
REMARK VINA RESULT:    -3.401      0.000      0.000
REMARK INTER + INTRA:         -11.148
REMARK INTER:                  -7.378
REMARK INTRA:                  -3.770
REMARK UNBOUND:                -3.770
REMARK SMILES CCCCCCCCCCCCCCCCCCCCCC(=O)[O-]
REMARK SMILES IDX 12 1 11 2 10 3 9 4 8 5 7 6 6 7 5 8 4 9 3 10 2 11 1 12 13 13
REMARK SMILES IDX 14 14 15 15 16 16 17 17 18 18 19 19 20 20 21 21 22 22 23 23
REMARK SMILES IDX 24 24
REMARK H PARENT
REMARK Flexibility Score: inf
ROOT
ATOM      1  C   UNL     1     150.325 136.307 166.092  1.00  0.00     0.000 C 
ENDROOT
BRANCH   1   2
ATOM      2  C   UNL     1     151.631 136.262 165.279  1.00  0.00     0.000 C 
BRANCH   2   3
ATOM      3  C   UNL     1     152.659 137.297 165.762  1.00  0.00     0.000 C 
BRANCH   3   4
ATOM      4  C   UNL     1     153.031 137.112 167.244  1.00  0.00    -0.000 C 
BRANCH   4   5
ATOM      5  C   UNL     1     153.980 135.914 167.459  1.00  0.00    -0.000 C 
BRANCH   5   6
ATOM      6  C   UNL     1     155.190 135.913 166.509  1.00  0.00    -0.000 C 
BRANCH   6   7
ATOM      7  C   UNL     1     156.533 135.977 167.253  1.00  0.00    -0.000 C 
BRANCH   7   8
ATOM      8  C   UNL     1     156.429 136.779 168.569  1.00  0.00    -0.000 C 
BRANCH   8   9
ATOM      9  C   UNL     1     157.380 137.988 168.628  1.00  0.00    -0.000 C 
BRANCH   9  10
ATOM     10  C   UNL     1     157.527 138.697 167.271  1.00  0.00    -0.000 C 
BRANCH  10  11
ATOM     11  C   UNL     1     156.379 139.682 166.994  1.00  0.00    -0.003 C 
ATOM     12  C   UNL     1     155.735 139.468 165.622  1.00  0.00     0.004 C 
ENDBRANCH  10  11
ENDBRANCH   9  10
ENDBRANCH   8   9
ENDBRANCH   7   8
ENDBRANCH   6   7
ENDBRANCH   5   6
ENDBRANCH   4   5
ENDBRANCH   3   4
ENDBRANCH   2   3
ENDBRANCH   1   2
BRANCH   1  13
ATOM     13  C   UNL     1     149.787 134.904 166.419  1.00  0.00     0.000 C 
BRANCH  13  14
ATOM     14  C   UNL     1     150.879 133.952 166.932  1.00  0.00     0.000 C 
BRANCH  14  15
ATOM     15  C   UNL     1     150.766 132.578 166.260  1.00  0.00     0.000 C 
BRANCH  15  16
ATOM     16  C   UNL     1     150.328 132.716 164.795  1.00  0.00     0.000 C 
BRANCH  16  17
ATOM     17  C   UNL     1     151.518 132.839 163.830  1.00  0.00     0.000 C 
BRANCH  17  18
ATOM     18  C   UNL     1     152.729 132.001 164.278  1.00  0.00     0.000 C 
BRANCH  18  19
ATOM     19  C   UNL     1     153.956 132.861 164.629  1.00  0.00     0.000 C 
BRANCH  19  20
ATOM     20  C   UNL     1     154.919 132.227 165.646  1.00  0.00     0.006 C 
BRANCH  20  21
ATOM     21  C   UNL     1     154.390 132.279 167.087  1.00  0.00     0.053 C 
BRANCH  21  22
ATOM     22  C   UNL     1     155.516 132.499 168.048  1.00  0.00     0.041 C 
ATOM     23  O   UNL     1     155.276 132.773 169.256  1.00  0.00    -0.550 OA
ATOM     24  O   UNL     1     156.829 132.457 167.600  1.00  0.00    -0.550 OA
ENDBRANCH  21  22
ENDBRANCH  20  21
ENDBRANCH  19  20
ENDBRANCH  18  19
ENDBRANCH  17  18
ENDBRANCH  16  17
ENDBRANCH  15  16
ENDBRANCH  14  15
ENDBRANCH  13  14
ENDBRANCH   1  13
TORSDOF 20
ENDMDL
MODEL 2
REMARK VINA RESULT:    -3.317      3.066      5.767
REMARK INTER + INTRA:         -10.965
REMARK INTER:                  -7.976
REMARK INTRA:                  -2.989
REMARK UNBOUND:                -3.770
REMARK SMILES CCCCCCCCCCCCCCCCCCCCCC(=O)[O-]
REMARK SMILES IDX 12 1 11 2 10 3 9 4 8 5 7 6 6 7 5 8 4 9 3 10 2 11 1 12 13 13
REMARK SMILES IDX 14 14 15 15 16 16 17 17 18 18 19 19 20 20 21 21 22 22 23 23
REMARK SMILES IDX 24 24
REMARK H PARENT
REMARK Flexibility Score: inf
ROOT
ATOM      1  C   UNL     1     157.439 133.547 168.286  1.00  0.00     0.000 C 
ENDROOT
BRANCH   1   2
ATOM      2  C   UNL     1     157.324 133.047 169.737  1.00  0.00     0.000 C 
BRANCH   2   3
ATOM      3  C   UNL     1     156.114 133.646 170.471  1.00  0.00     0.000 C 
BRANCH   3   4
ATOM      4  C   UNL     1     154.957 132.642 170.616  1.00  0.00    -0.000 C 
BRANCH   4   5
ATOM      5  C   UNL     1     153.679 133.118 169.894  1.00  0.00    -0.000 C 
BRANCH   5   6
ATOM      6  C   UNL     1     153.905 134.349 168.999  1.00  0.00    -0.000 C 
BRANCH   6   7
ATOM      7  C   UNL     1     152.858 134.474 167.881  1.00  0.00    -0.000 C 
BRANCH   7   8
ATOM      8  C   UNL     1     152.980 135.813 167.120  1.00  0.00    -0.000 C 
BRANCH   8   9
ATOM      9  C   UNL     1     154.280 135.941 166.307  1.00  0.00    -0.000 C 
BRANCH   9  10
ATOM     10  C   UNL     1     155.115 137.168 166.707  1.00  0.00    -0.000 C 
BRANCH  10  11
ATOM     11  C   UNL     1     156.493 136.785 167.271  1.00  0.00    -0.003 C 
ATOM     12  C   UNL     1     156.638 137.121 168.757  1.00  0.00     0.004 C 
ENDBRANCH  10  11
ENDBRANCH   9  10
ENDBRANCH   8   9
ENDBRANCH   7   8
ENDBRANCH   6   7
ENDBRANCH   5   6
ENDBRANCH   4   5
ENDBRANCH   3   4
ENDBRANCH   2   3
ENDBRANCH   1   2
BRANCH   1  13
ATOM     13  C   UNL     1     158.021 132.483 167.342  1.00  0.00     0.000 C 
BRANCH  13  14
ATOM     14  C   UNL     1     156.966 131.876 166.404  1.00  0.00     0.000 C 
BRANCH  14  15
ATOM     15  C   UNL     1     155.680 132.712 166.413  1.00  0.00     0.000 C 
BRANCH  15  16
ATOM     16  C   UNL     1     154.476 131.875 165.957  1.00  0.00     0.000 C 
BRANCH  16  17
ATOM     17  C   UNL     1     153.739 132.500 164.762  1.00  0.00     0.000 C 
BRANCH  17  18
ATOM     18  C   UNL     1     152.210 132.372 164.880  1.00  0.00     0.000 C 
BRANCH  18  19
ATOM     19  C   UNL     1     151.511 132.273 163.512  1.00  0.00     0.000 C 
BRANCH  19  20
ATOM     20  C   UNL     1     150.295 133.200 163.341  1.00  0.00     0.006 C 
BRANCH  20  21
ATOM     21  C   UNL     1     148.963 132.437 163.280  1.00  0.00     0.053 C 
BRANCH  21  22
ATOM     22  C   UNL     1     148.120 132.762 164.472  1.00  0.00     0.041 C 
ATOM     23  O   UNL     1     148.660 133.116 165.555  1.00  0.00    -0.550 OA
ATOM     24  O   UNL     1     146.740 132.621 164.405  1.00  0.00    -0.550 OA
ENDBRANCH  21  22
ENDBRANCH  20  21
ENDBRANCH  19  20
ENDBRANCH  18  19
ENDBRANCH  17  18
ENDBRANCH  16  17
ENDBRANCH  15  16
ENDBRANCH  14  15
ENDBRANCH  13  14
ENDBRANCH   1  13
TORSDOF 20
ENDMDL
MODEL 3
REMARK VINA RESULT:    -3.262      2.321      4.310
REMARK INTER + INTRA:         -10.846
REMARK INTER:                  -7.353
REMARK INTRA:                  -3.493
REMARK UNBOUND:                -3.770
REMARK SMILES CCCCCCCCCCCCCCCCCCCCCC(=O)[O-]
REMARK SMILES IDX 12 1 11 2 10 3 9 4 8 5 7 6 6 7 5 8 4 9 3 10 2 11 1 12 13 13
REMARK SMILES IDX 14 14 15 15 16 16 17 17 18 18 19 19 20 20 21 21 22 22 23 23
REMARK SMILES IDX 24 24
REMARK H PARENT
REMARK Flexibility Score: inf
ROOT
ATOM      1  C   UNL     1     152.442 135.577 167.857  1.00  0.00     0.000 C 
ENDROOT
BRANCH   1   2
ATOM      2  C   UNL     1     153.082 136.770 168.589  1.00  0.00     0.000 C 
BRANCH   2   3
ATOM      3  C   UNL     1     152.929 138.087 167.811  1.00  0.00     0.000 C 
BRANCH   3   4
ATOM      4  C   UNL     1     154.278 138.787 167.568  1.00  0.00    -0.000 C 
BRANCH   4   5
ATOM      5  C   UNL     1     155.264 138.571 168.735  1.00  0.00    -0.000 C 
BRANCH   5   6
ATOM      6  C   UNL     1     156.606 137.961 168.296  1.00  0.00    -0.000 C 
BRANCH   6   7
ATOM      7  C   UNL     1     156.471 137.038 167.074  1.00  0.00    -0.000 C 
BRANCH   7   8
ATOM      8  C   UNL     1     156.988 135.612 167.366  1.00  0.00    -0.000 C 
BRANCH   8   9
ATOM      9  C   UNL     1     156.534 135.061 168.730  1.00  0.00    -0.000 C 
BRANCH   9  10
ATOM     10  C   UNL     1     156.976 133.608 168.963  1.00  0.00    -0.000 C 
BRANCH  10  11
ATOM     11  C   UNL     1     158.063 133.156 167.974  1.00  0.00    -0.003 C 
ATOM     12  C   UNL     1     157.554 132.118 166.971  1.00  0.00     0.004 C 
ENDBRANCH  10  11
ENDBRANCH   9  10
ENDBRANCH   8   9
ENDBRANCH   7   8
ENDBRANCH   6   7
ENDBRANCH   5   6
ENDBRANCH   4   5
ENDBRANCH   3   4
ENDBRANCH   2   3
ENDBRANCH   1   2
BRANCH   1  13
ATOM     13  C   UNL     1     152.681 135.621 166.340  1.00  0.00     0.000 C 
BRANCH  13  14
ATOM     14  C   UNL     1     153.813 134.687 165.887  1.00  0.00     0.000 C 
BRANCH  14  15
ATOM     15  C   UNL     1     153.885 133.441 166.780  1.00  0.00     0.000 C 
BRANCH  15  16
ATOM     16  C   UNL     1     153.740 132.159 165.948  1.00  0.00     0.000 C 
BRANCH  16  17
ATOM     17  C   UNL     1     153.859 132.417 164.438  1.00  0.00     0.000 C 
BRANCH  17  18
ATOM     18  C   UNL     1     152.652 131.875 163.651  1.00  0.00     0.000 C 
BRANCH  18  19
ATOM     19  C   UNL     1     151.447 132.833 163.668  1.00  0.00     0.000 C 
BRANCH  19  20
ATOM     20  C   UNL     1     150.112 132.183 164.071  1.00  0.00     0.006 C 
BRANCH  20  21
ATOM     21  C   UNL     1     149.128 133.178 164.704  1.00  0.00     0.053 C 
BRANCH  21  22
ATOM     22  C   UNL     1     149.532 133.489 166.111  1.00  0.00     0.041 C 
ATOM     23  O   UNL     1     149.202 134.585 166.639  1.00  0.00    -0.550 OA
ATOM     24  O   UNL     1     150.321 132.592 166.820  1.00  0.00    -0.550 OA
ENDBRANCH  21  22
ENDBRANCH  20  21
ENDBRANCH  19  20
ENDBRANCH  18  19
ENDBRANCH  17  18
ENDBRANCH  16  17
ENDBRANCH  15  16
ENDBRANCH  14  15
ENDBRANCH  13  14
ENDBRANCH   1  13
TORSDOF 20
ENDMDL
MODEL 4
REMARK VINA RESULT:    -3.222      1.986      4.322
REMARK INTER + INTRA:         -10.758
REMARK INTER:                  -6.882
REMARK INTRA:                  -3.877
REMARK UNBOUND:                -3.770
REMARK SMILES CCCCCCCCCCCCCCCCCCCCCC(=O)[O-]
REMARK SMILES IDX 12 1 11 2 10 3 9 4 8 5 7 6 6 7 5 8 4 9 3 10 2 11 1 12 13 13
REMARK SMILES IDX 14 14 15 15 16 16 17 17 18 18 19 19 20 20 21 21 22 22 23 23
REMARK SMILES IDX 24 24
REMARK H PARENT
REMARK Flexibility Score: inf
ROOT
ATOM      1  C   UNL     1     154.036 133.026 164.540  1.00  0.00     0.000 C 
ENDROOT
BRANCH   1   2
ATOM      2  C   UNL     1     154.731 132.175 165.618  1.00  0.00     0.000 C 
BRANCH   2   3
ATOM      3  C   UNL     1     154.127 132.389 167.015  1.00  0.00     0.000 C 
BRANCH   3   4
ATOM      4  C   UNL     1     155.201 132.611 168.095  1.00  0.00    -0.000 C 
BRANCH   4   5
ATOM      5  C   UNL     1     156.630 132.466 167.531  1.00  0.00    -0.000 C 
BRANCH   5   6
ATOM      6  C   UNL     1     157.519 133.693 167.793  1.00  0.00    -0.000 C 
BRANCH   6   7
ATOM      7  C   UNL     1     156.740 134.878 168.387  1.00  0.00    -0.000 C 
BRANCH   7   8
ATOM      8  C   UNL     1     156.710 136.090 167.430  1.00  0.00    -0.000 C 
BRANCH   8   9
ATOM      9  C   UNL     1     155.430 136.168 166.579  1.00  0.00    -0.000 C 
BRANCH   9  10
ATOM     10  C   UNL     1     154.150 136.214 167.429  1.00  0.00    -0.000 C 
BRANCH  10  11
ATOM     11  C   UNL     1     152.890 135.874 166.617  1.00  0.00    -0.003 C 
ATOM     12  C   UNL     1     151.631 136.545 167.172  1.00  0.00     0.004 C 
ENDBRANCH  10  11
ENDBRANCH   9  10
ENDBRANCH   8   9
ENDBRANCH   7   8
ENDBRANCH   6   7
ENDBRANCH   5   6
ENDBRANCH   4   5
ENDBRANCH   3   4
ENDBRANCH   2   3
ENDBRANCH   1   2
BRANCH   1  13
ATOM     13  C   UNL     1     153.131 132.188 163.623  1.00  0.00     0.000 C 
BRANCH  13  14
ATOM     14  C   UNL     1     151.661 132.630 163.671  1.00  0.00     0.000 C 
BRANCH  14  15
ATOM     15  C   UNL     1     150.975 132.115 164.942  1.00  0.00     0.000 C 
BRANCH  15  16
ATOM     16  C   UNL     1     150.544 133.279 165.846  1.00  0.00     0.000 C 
BRANCH  16  17
ATOM     17  C   UNL     1     149.635 132.828 167.000  1.00  0.00     0.000 C 
BRANCH  17  18
ATOM     18  C   UNL     1     150.151 133.291 168.374  1.00  0.00     0.000 C 
BRANCH  18  19
ATOM     19  C   UNL     1     150.828 132.162 169.171  1.00  0.00     0.000 C 
BRANCH  19  20
ATOM     20  C   UNL     1     152.014 132.609 170.042  1.00  0.00     0.006 C 
BRANCH  20  21
ATOM     21  C   UNL     1     152.333 134.105 169.901  1.00  0.00     0.053 C 
BRANCH  21  22
ATOM     22  C   UNL     1     153.253 134.548 170.994  1.00  0.00     0.041 C 
ATOM     23  O   UNL     1     154.271 133.863 171.285  1.00  0.00    -0.550 OA
ATOM     24  O   UNL     1     152.958 135.689 171.729  1.00  0.00    -0.550 OA
ENDBRANCH  21  22
ENDBRANCH  20  21
ENDBRANCH  19  20
ENDBRANCH  18  19
ENDBRANCH  17  18
ENDBRANCH  16  17
ENDBRANCH  15  16
ENDBRANCH  14  15
ENDBRANCH  13  14
ENDBRANCH   1  13
TORSDOF 20
ENDMDL
MODEL 5
REMARK VINA RESULT:    -3.207      3.435      6.460
REMARK INTER + INTRA:         -10.727
REMARK INTER:                  -7.307
REMARK INTRA:                  -3.420
REMARK UNBOUND:                -3.770
REMARK SMILES CCCCCCCCCCCCCCCCCCCCCC(=O)[O-]
REMARK SMILES IDX 12 1 11 2 10 3 9 4 8 5 7 6 6 7 5 8 4 9 3 10 2 11 1 12 13 13
REMARK SMILES IDX 14 14 15 15 16 16 17 17 18 18 19 19 20 20 21 21 22 22 23 23
REMARK SMILES IDX 24 24
REMARK H PARENT
REMARK Flexibility Score: inf
ROOT
ATOM      1  C   UNL     1     155.810 133.500 168.925  1.00  0.00     0.000 C 
ENDROOT
BRANCH   1   2
ATOM      2  C   UNL     1     156.881 134.605 168.937  1.00  0.00     0.000 C 
BRANCH   2   3
ATOM      3  C   UNL     1     156.297 135.991 168.619  1.00  0.00     0.000 C 
BRANCH   3   4
ATOM      4  C   UNL     1     156.338 136.316 167.115  1.00  0.00    -0.000 C 
BRANCH   4   5
ATOM      5  C   UNL     1     155.025 135.929 166.401  1.00  0.00    -0.000 C 
BRANCH   5   6
ATOM      6  C   UNL     1     153.769 136.174 167.254  1.00  0.00    -0.000 C 
BRANCH   6   7
ATOM      7  C   UNL     1     152.475 135.739 166.549  1.00  0.00    -0.000 C 
BRANCH   7   8
ATOM      8  C   UNL     1     151.663 134.734 167.396  1.00  0.00    -0.000 C 
BRANCH   8   9
ATOM      9  C   UNL     1     152.238 134.515 168.807  1.00  0.00    -0.000 C 
BRANCH   9  10
ATOM     10  C   UNL     1     152.001 133.090 169.332  1.00  0.00    -0.000 C 
BRANCH  10  11
ATOM     11  C   UNL     1     151.178 132.232 168.358  1.00  0.00    -0.003 C 
ATOM     12  C   UNL     1     149.755 131.971 168.858  1.00  0.00     0.004 C 
ENDBRANCH  10  11
ENDBRANCH   9  10
ENDBRANCH   8   9
ENDBRANCH   7   8
ENDBRANCH   6   7
ENDBRANCH   5   6
ENDBRANCH   4   5
ENDBRANCH   3   4
ENDBRANCH   2   3
ENDBRANCH   1   2
BRANCH   1  13
ATOM     13  C   UNL     1     155.992 132.519 167.755  1.00  0.00     0.000 C 
BRANCH  13  14
ATOM     14  C   UNL     1     154.682 132.242 167.001  1.00  0.00     0.000 C 
BRANCH  14  15
ATOM     15  C   UNL     1     154.915 132.232 165.485  1.00  0.00     0.000 C 
BRANCH  15  16
ATOM     16  C   UNL     1     153.708 132.820 164.739  1.00  0.00     0.000 C 
BRANCH  16  17
ATOM     17  C   UNL     1     152.412 132.038 165.002  1.00  0.00     0.000 C 
BRANCH  17  18
ATOM     18  C   UNL     1     151.165 132.769 164.475  1.00  0.00     0.000 C 
BRANCH  18  19
ATOM     19  C   UNL     1     150.292 131.885 163.566  1.00  0.00     0.000 C 
BRANCH  19  20
ATOM     20  C   UNL     1     148.802 132.267 163.533  1.00  0.00     0.006 C 
BRANCH  20  21
ATOM     21  C   UNL     1     148.494 133.400 162.542  1.00  0.00     0.053 C 
BRANCH  21  22
ATOM     22  C   UNL     1     147.458 134.320 163.106  1.00  0.00     0.041 C 
ATOM     23  O   UNL     1     146.851 135.130 162.355  1.00  0.00    -0.550 OA
ATOM     24  O   UNL     1     147.202 134.321 164.471  1.00  0.00    -0.550 OA
ENDBRANCH  21  22
ENDBRANCH  20  21
ENDBRANCH  19  20
ENDBRANCH  18  19
ENDBRANCH  17  18
ENDBRANCH  16  17
ENDBRANCH  15  16
ENDBRANCH  14  15
ENDBRANCH  13  14
ENDBRANCH   1  13
TORSDOF 20
ENDMDL
MODEL 6
REMARK VINA RESULT:    -3.189      4.590      6.267
REMARK INTER + INTRA:         -10.686
REMARK INTER:                  -8.477
REMARK INTRA:                  -2.210
REMARK UNBOUND:                -3.770
REMARK SMILES CCCCCCCCCCCCCCCCCCCCCC(=O)[O-]
REMARK SMILES IDX 12 1 11 2 10 3 9 4 8 5 7 6 6 7 5 8 4 9 3 10 2 11 1 12 13 13
REMARK SMILES IDX 14 14 15 15 16 16 17 17 18 18 19 19 20 20 21 21 22 22 23 23
REMARK SMILES IDX 24 24
REMARK H PARENT
REMARK Flexibility Score: inf
ROOT
ATOM      1  C   UNL     1     152.245 134.746 166.149  1.00  0.00     0.000 C 
ENDROOT
BRANCH   1   2
ATOM      2  C   UNL     1     153.764 134.896 165.946  1.00  0.00     0.000 C 
BRANCH   2   3
ATOM      3  C   UNL     1     154.368 133.729 165.150  1.00  0.00     0.000 C 
BRANCH   3   4
ATOM      4  C   UNL     1     154.433 132.427 165.970  1.00  0.00    -0.000 C 
BRANCH   4   5
ATOM      5  C   UNL     1     155.660 132.390 166.905  1.00  0.00    -0.000 C 
BRANCH   5   6
ATOM      6  C   UNL     1     155.298 132.526 168.394  1.00  0.00    -0.000 C 
BRANCH   6   7
ATOM      7  C   UNL     1     155.748 133.867 168.996  1.00  0.00    -0.000 C 
BRANCH   7   8
ATOM      8  C   UNL     1     156.765 134.597 168.092  1.00  0.00    -0.000 C 
BRANCH   8   9
ATOM      9  C   UNL     1     156.718 136.130 168.227  1.00  0.00    -0.000 C 
BRANCH   9  10
ATOM     10  C   UNL     1     156.640 136.846 166.869  1.00  0.00    -0.000 C 
BRANCH  10  11
ATOM     11  C   UNL     1     155.935 138.209 166.961  1.00  0.00    -0.003 C 
ATOM     12  C   UNL     1     154.920 138.425 165.836  1.00  0.00     0.004 C 
ENDBRANCH  10  11
ENDBRANCH   9  10
ENDBRANCH   8   9
ENDBRANCH   7   8
ENDBRANCH   6   7
ENDBRANCH   5   6
ENDBRANCH   4   5
ENDBRANCH   3   4
ENDBRANCH   2   3
ENDBRANCH   1   2
BRANCH   1  13
ATOM     13  C   UNL     1     151.432 135.546 165.119  1.00  0.00     0.000 C 
BRANCH  13  14
ATOM     14  C   UNL     1     150.421 134.678 164.354  1.00  0.00     0.000 C 
BRANCH  14  15
ATOM     15  C   UNL     1     151.062 133.359 163.903  1.00  0.00     0.000 C 
BRANCH  15  16
ATOM     16  C   UNL     1     150.001 132.265 163.719  1.00  0.00     0.000 C 
BRANCH  16  17
ATOM     17  C   UNL     1     148.592 132.736 164.113  1.00  0.00     0.000 C 
BRANCH  17  18
ATOM     18  C   UNL     1     147.515 132.269 163.118  1.00  0.00     0.000 C 
BRANCH  18  19
ATOM     19  C   UNL     1     147.527 133.068 161.803  1.00  0.00     0.000 C 
BRANCH  19  20
ATOM     20  C   UNL     1     146.450 132.653 160.786  1.00  0.00     0.006 C 
BRANCH  20  21
ATOM     21  C   UNL     1     145.547 133.821 160.358  1.00  0.00     0.053 C 
BRANCH  21  22
ATOM     22  C   UNL     1     145.065 134.574 161.558  1.00  0.00     0.041 C 
ATOM     23  O   UNL     1     145.350 135.794 161.699  1.00  0.00    -0.550 OA
ATOM     24  O   UNL     1     144.346 133.915 162.547  1.00  0.00    -0.550 OA
ENDBRANCH  21  22
ENDBRANCH  20  21
ENDBRANCH  19  20
ENDBRANCH  18  19
ENDBRANCH  17  18
ENDBRANCH  16  17
ENDBRANCH  15  16
ENDBRANCH  14  15
ENDBRANCH  13  14
ENDBRANCH   1  13
TORSDOF 20
ENDMDL
MODEL 7
REMARK VINA RESULT:    -3.183      3.186      5.820
REMARK INTER + INTRA:         -10.675
REMARK INTER:                  -7.553
REMARK INTRA:                  -3.121
REMARK UNBOUND:                -3.770
REMARK SMILES CCCCCCCCCCCCCCCCCCCCCC(=O)[O-]
REMARK SMILES IDX 12 1 11 2 10 3 9 4 8 5 7 6 6 7 5 8 4 9 3 10 2 11 1 12 13 13
REMARK SMILES IDX 14 14 15 15 16 16 17 17 18 18 19 19 20 20 21 21 22 22 23 23
REMARK SMILES IDX 24 24
REMARK H PARENT
REMARK Flexibility Score: inf
ROOT
ATOM      1  C   UNL     1     155.432 133.003 170.109  1.00  0.00     0.000 C 
ENDROOT
BRANCH   1   2
ATOM      2  C   UNL     1     156.868 133.494 170.366  1.00  0.00     0.000 C 
BRANCH   2   3
ATOM      3  C   UNL     1     156.907 134.782 171.203  1.00  0.00     0.000 C 
BRANCH   3   4
ATOM      4  C   UNL     1     156.239 135.971 170.487  1.00  0.00    -0.000 C 
BRANCH   4   5
ATOM      5  C   UNL     1     157.015 136.399 169.224  1.00  0.00    -0.000 C 
BRANCH   5   6
ATOM      6  C   UNL     1     156.663 137.816 168.741  1.00  0.00    -0.000 C 
BRANCH   6   7
ATOM      7  C   UNL     1     156.199 137.848 167.276  1.00  0.00    -0.000 C 
BRANCH   7   8
ATOM      8  C   UNL     1     155.992 136.429 166.702  1.00  0.00    -0.000 C 
BRANCH   8   9
ATOM      9  C   UNL     1     154.523 136.109 166.371  1.00  0.00    -0.000 C 
BRANCH   9  10
ATOM     10  C   UNL     1     153.645 135.976 167.626  1.00  0.00    -0.000 C 
BRANCH  10  11
ATOM     11  C   UNL     1     152.544 134.916 167.466  1.00  0.00    -0.003 C 
ATOM     12  C   UNL     1     152.052 134.367 168.808  1.00  0.00     0.004 C 
ENDBRANCH  10  11
ENDBRANCH   9  10
ENDBRANCH   8   9
ENDBRANCH   7   8
ENDBRANCH   6   7
ENDBRANCH   5   6
ENDBRANCH   4   5
ENDBRANCH   3   4
ENDBRANCH   2   3
ENDBRANCH   1   2
BRANCH   1  13
ATOM     13  C   UNL     1     155.201 132.602 168.643  1.00  0.00     0.000 C 
BRANCH  13  14
ATOM     14  C   UNL     1     156.419 132.882 167.750  1.00  0.00     0.000 C 
BRANCH  14  15
ATOM     15  C   UNL     1     156.236 132.255 166.362  1.00  0.00     0.000 C 
BRANCH  15  16
ATOM     16  C   UNL     1     154.755 131.968 166.078  1.00  0.00     0.000 C 
BRANCH  16  17
ATOM     17  C   UNL     1     154.178 132.869 164.975  1.00  0.00     0.000 C 
BRANCH  17  18
ATOM     18  C   UNL     1     153.086 132.165 164.150  1.00  0.00     0.000 C 
BRANCH  18  19
ATOM     19  C   UNL     1     151.668 132.419 164.692  1.00  0.00     0.000 C 
BRANCH  19  20
ATOM     20  C   UNL     1     150.532 131.907 163.790  1.00  0.00     0.006 C 
BRANCH  20  21
ATOM     21  C   UNL     1     149.843 133.028 162.997  1.00  0.00     0.053 C 
BRANCH  21  22
ATOM     22  C   UNL     1     148.394 133.109 163.359  1.00  0.00     0.041 C 
ATOM     23  O   UNL     1     147.642 132.109 163.202  1.00  0.00    -0.550 OA
ATOM     24  O   UNL     1     147.860 134.305 163.820  1.00  0.00    -0.550 OA
ENDBRANCH  21  22
ENDBRANCH  20  21
ENDBRANCH  19  20
ENDBRANCH  18  19
ENDBRANCH  17  18
ENDBRANCH  16  17
ENDBRANCH  15  16
ENDBRANCH  14  15
ENDBRANCH  13  14
ENDBRANCH   1  13
TORSDOF 20
ENDMDL
MODEL 8
REMARK VINA RESULT:    -3.142      3.589      5.784
REMARK INTER + INTRA:         -10.585
REMARK INTER:                  -8.090
REMARK INTRA:                  -2.495
REMARK UNBOUND:                -3.770
REMARK SMILES CCCCCCCCCCCCCCCCCCCCCC(=O)[O-]
REMARK SMILES IDX 12 1 11 2 10 3 9 4 8 5 7 6 6 7 5 8 4 9 3 10 2 11 1 12 13 13
REMARK SMILES IDX 14 14 15 15 16 16 17 17 18 18 19 19 20 20 21 21 22 22 23 23
REMARK SMILES IDX 24 24
REMARK H PARENT
REMARK Flexibility Score: inf
ROOT
ATOM      1  C   UNL     1     153.526 131.971 165.553  1.00  0.00     0.000 C 
ENDROOT
BRANCH   1   2
ATOM      2  C   UNL     1     155.012 132.372 165.543  1.00  0.00     0.000 C 
BRANCH   2   3
ATOM      3  C   UNL     1     155.678 132.192 166.916  1.00  0.00     0.000 C 
BRANCH   3   4
ATOM      4  C   UNL     1     157.215 132.194 166.830  1.00  0.00    -0.000 C 
BRANCH   4   5
ATOM      5  C   UNL     1     157.853 133.162 167.850  1.00  0.00    -0.000 C 
BRANCH   5   6
ATOM      6  C   UNL     1     157.929 132.587 169.274  1.00  0.00    -0.000 C 
BRANCH   6   7
ATOM      7  C   UNL     1     157.030 133.338 170.270  1.00  0.00    -0.000 C 
BRANCH   7   8
ATOM      8  C   UNL     1     156.546 134.692 169.706  1.00  0.00    -0.000 C 
BRANCH   8   9
ATOM      9  C   UNL     1     155.043 134.717 169.376  1.00  0.00    -0.000 C 
BRANCH   9  10
ATOM     10  C   UNL     1     154.644 135.918 168.502  1.00  0.00    -0.000 C 
BRANCH  10  11
ATOM     11  C   UNL     1     155.192 135.812 167.070  1.00  0.00    -0.003 C 
ATOM     12  C   UNL     1     156.362 136.765 166.813  1.00  0.00     0.004 C 
ENDBRANCH  10  11
ENDBRANCH   9  10
ENDBRANCH   8   9
ENDBRANCH   7   8
ENDBRANCH   6   7
ENDBRANCH   5   6
ENDBRANCH   4   5
ENDBRANCH   3   4
ENDBRANCH   2   3
ENDBRANCH   1   2
BRANCH   1  13
ATOM     13  C   UNL     1     152.722 132.722 166.626  1.00  0.00     0.000 C 
BRANCH  13  14
ATOM     14  C   UNL     1     151.205 132.649 166.393  1.00  0.00     0.000 C 
BRANCH  14  15
ATOM     15  C   UNL     1     150.705 133.894 165.649  1.00  0.00     0.000 C 
BRANCH  15  16
ATOM     16  C   UNL     1     150.659 133.649 164.134  1.00  0.00     0.000 C 
BRANCH  16  17
ATOM     17  C   UNL     1     150.115 132.257 163.776  1.00  0.00     0.000 C 
BRANCH  17  18
ATOM     18  C   UNL     1     148.617 132.283 163.424  1.00  0.00     0.000 C 
BRANCH  18  19
ATOM     19  C   UNL     1     148.278 133.302 162.321  1.00  0.00     0.000 C 
BRANCH  19  20
ATOM     20  C   UNL     1     147.071 134.205 162.625  1.00  0.00     0.006 C 
BRANCH  20  21
ATOM     21  C   UNL     1     147.472 135.561 163.226  1.00  0.00     0.053 C 
BRANCH  21  22
ATOM     22  C   UNL     1     147.012 135.659 164.646  1.00  0.00     0.041 C 
ATOM     23  O   UNL     1     147.271 134.734 165.463  1.00  0.00    -0.550 OA
ATOM     24  O   UNL     1     146.251 136.746 165.055  1.00  0.00    -0.550 OA
ENDBRANCH  21  22
ENDBRANCH  20  21
ENDBRANCH  19  20
ENDBRANCH  18  19
ENDBRANCH  17  18
ENDBRANCH  16  17
ENDBRANCH  15  16
ENDBRANCH  14  15
ENDBRANCH  13  14
ENDBRANCH   1  13
TORSDOF 20
ENDMDL
MODEL 9
REMARK VINA RESULT:    -3.138      3.115      7.197
REMARK INTER + INTRA:         -10.576
REMARK INTER:                  -6.885
REMARK INTRA:                  -3.691
REMARK UNBOUND:                -3.770
REMARK SMILES CCCCCCCCCCCCCCCCCCCCCC(=O)[O-]
REMARK SMILES IDX 12 1 11 2 10 3 9 4 8 5 7 6 6 7 5 8 4 9 3 10 2 11 1 12 13 13
REMARK SMILES IDX 14 14 15 15 16 16 17 17 18 18 19 19 20 20 21 21 22 22 23 23
REMARK SMILES IDX 24 24
REMARK H PARENT
REMARK Flexibility Score: inf
ROOT
ATOM      1  C   UNL     1     153.898 136.356 167.126  1.00  0.00     0.000 C 
ENDROOT
BRANCH   1   2
ATOM      2  C   UNL     1     152.686 135.444 166.864  1.00  0.00     0.000 C 
BRANCH   2   3
ATOM      3  C   UNL     1     152.073 134.894 168.162  1.00  0.00     0.000 C 
BRANCH   3   4
ATOM      4  C   UNL     1     153.114 134.198 169.057  1.00  0.00    -0.000 C 
BRANCH   4   5
ATOM      5  C   UNL     1     153.646 132.895 168.424  1.00  0.00    -0.000 C 
BRANCH   5   6
ATOM      6  C   UNL     1     155.181 132.811 168.395  1.00  0.00    -0.000 C 
BRANCH   6   7
ATOM      7  C   UNL     1     155.730 132.384 167.025  1.00  0.00    -0.000 C 
BRANCH   7   8
ATOM      8  C   UNL     1     154.613 131.877 166.085  1.00  0.00    -0.000 C 
BRANCH   8   9
ATOM      9  C   UNL     1     154.466 132.712 164.800  1.00  0.00    -0.000 C 
BRANCH   9  10
ATOM     10  C   UNL     1     153.019 132.760 164.284  1.00  0.00    -0.000 C 
BRANCH  10  11
ATOM     11  C   UNL     1     152.058 131.922 165.143  1.00  0.00    -0.003 C 
ATOM     12  C   UNL     1     150.718 132.621 165.385  1.00  0.00     0.004 C 
ENDBRANCH  10  11
ENDBRANCH   9  10
ENDBRANCH   8   9
ENDBRANCH   7   8
ENDBRANCH   6   7
ENDBRANCH   5   6
ENDBRANCH   4   5
ENDBRANCH   3   4
ENDBRANCH   2   3
ENDBRANCH   1   2
BRANCH   1  13
ATOM     13  C   UNL     1     155.151 135.903 166.359  1.00  0.00     0.000 C 
BRANCH  13  14
ATOM     14  C   UNL     1     156.453 136.193 167.120  1.00  0.00     0.000 C 
BRANCH  14  15
ATOM     15  C   UNL     1     156.165 136.910 168.445  1.00  0.00     0.000 C 
BRANCH  15  16
ATOM     16  C   UNL     1     157.394 137.694 168.926  1.00  0.00     0.000 C 
BRANCH  16  17
ATOM     17  C   UNL     1     157.326 139.185 168.559  1.00  0.00     0.000 C 
BRANCH  17  18
ATOM     18  C   UNL     1     157.744 139.453 167.102  1.00  0.00     0.000 C 
BRANCH  18  19
ATOM     19  C   UNL     1     156.712 140.291 166.326  1.00  0.00     0.000 C 
BRANCH  19  20
ATOM     20  C   UNL     1     155.306 139.672 166.249  1.00  0.00     0.006 C 
BRANCH  20  21
ATOM     21  C   UNL     1     154.845 139.408 164.808  1.00  0.00     0.053 C 
BRANCH  21  22
ATOM     22  C   UNL     1     154.308 140.663 164.194  1.00  0.00     0.041 C 
ATOM     23  O   UNL     1     155.093 141.588 163.850  1.00  0.00    -0.550 OA
ATOM     24  O   UNL     1     152.937 140.834 164.051  1.00  0.00    -0.550 OA
ENDBRANCH  21  22
ENDBRANCH  20  21
ENDBRANCH  19  20
ENDBRANCH  18  19
ENDBRANCH  17  18
ENDBRANCH  16  17
ENDBRANCH  15  16
ENDBRANCH  14  15
ENDBRANCH  13  14
ENDBRANCH   1  13
TORSDOF 20
ENDMDL
