MODEL 1
REMARK VINA RESULT:    -6.940      0.000      0.000
REMARK INTER + INTRA:          -7.842
REMARK INTER:                  -7.752
REMARK INTRA:                  -0.091
REMARK UNBOUND:                -0.091
REMARK SMILES C=C(C)[C@@H]1CC[C@]2(C(=O)[O-])CC[C@]3(C)[C@H](CC[C@H]4[C@]5(C)CCC(=O)C(C)(C)[C@@H]5CC[C@@]43C)[C@@H]12
REMARK SMILES IDX 7 1 6 2 33 3 11 4 5 5 15 6 4 7 12 8 16 9 13 10 17 11 31 12
REMARK SMILES IDX 14 13 18 14 30 15 32 16 19 17 29 18 21 19 20 20 28 21 22 22
REMARK SMILES IDX 25 23 23 24 26 25 27 26 24 27 8 28 9 29 10 30 2 31 3 32 1 33
REMARK H PARENT
REMARK Flexibility Score: inf
ROOT
ATOM      1  C   UNL     1      21.847  29.733  30.730  1.00  0.00     0.014 C 
ATOM      2  C   UNL     1      20.330  29.459  30.634  1.00  0.00     0.014 C 
ATOM      3  C   UNL     1      21.863  31.263  30.758  1.00  0.00     0.012 C 
ATOM      4  C   UNL     1      22.512  29.190  32.032  1.00  0.00     0.014 C 
ATOM      5  C   UNL     1      19.763  30.594  29.753  1.00  0.00     0.009 C 
ATOM      6  C   UNL     1      23.323  31.769  30.711  1.00  0.00     0.000 C 
ATOM      7  C   UNL     1      20.854  31.686  29.681  1.00  0.00     0.018 C 
ATOM      8  C   UNL     1      23.628  30.081  32.705  1.00  0.00     0.008 C 
ATOM      9  C   UNL     1      23.507  33.247  30.260  1.00  0.00     0.005 C 
ATOM     10  C   UNL     1      24.059  31.490  32.072  1.00  0.00    -0.024 C 
ATOM     11  C   UNL     1      24.967  33.753  30.434  1.00  0.00     0.005 C 
ATOM     12  C   UNL     1      25.675  31.625  31.804  1.00  0.00    -0.024 C 
ATOM     13  C   UNL     1      23.562  32.571  33.123  1.00  0.00     0.012 C 
ATOM     14  C   UNL     1      25.982  32.583  30.568  1.00  0.00     0.002 C 
ATOM     15  C   UNL     1      26.341  30.251  31.427  1.00  0.00     0.008 C 
ATOM     16  C   UNL     1      26.352  32.120  33.125  1.00  0.00     0.012 C 
ATOM     17  C   UNL     1      27.519  32.898  30.267  1.00  0.00    -0.025 C 
ATOM     18  C   UNL     1      27.549  30.311  30.450  1.00  0.00     0.006 C 
ATOM     19  C   UNL     1      27.622  33.285  28.746  1.00  0.00     0.015 C 
ATOM     20  C   UNL     1      27.981  34.122  31.108  1.00  0.00     0.012 C 
ATOM     21  C   UNL     1      28.419  31.604  30.581  1.00  0.00     0.008 C 
ATOM     22  C   UNL     1      29.032  33.351  28.182  1.00  0.00     0.077 C 
ATOM     23  C   UNL     1      29.832  31.518  29.839  1.00  0.00     0.027 C 
ATOM     24  C   UNL     1      29.734  32.060  28.424  1.00  0.00     0.138 C 
ATOM     25  C   UNL     1      30.907  32.343  30.597  1.00  0.00     0.020 C 
ATOM     26  C   UNL     1      30.390  30.069  29.793  1.00  0.00     0.020 C 
ATOM     27  O   UNL     1      30.299  31.509  27.493  1.00  0.00    -0.299 OA
ENDROOT
BRANCH   1  28
ATOM     28  C   UNL     1      22.527  29.121  29.489  1.00  0.00     0.048 C 
ATOM     29  O   UNL     1      21.853  28.501  28.616  1.00  0.00    -0.550 OA
ATOM     30  O   UNL     1      23.897  29.283  29.277  1.00  0.00    -0.550 OA
ENDBRANCH   1  28
BRANCH   7  31
ATOM     31  C   UNL     1      20.293  33.096  29.868  1.00  0.00    -0.077 C 
ATOM     32  C   UNL     1      19.378  33.396  31.021  1.00  0.00     0.039 C 
ATOM     33  C   UNL     1      20.600  34.094  29.016  1.00  0.00     0.008 C 
ENDBRANCH   7  31
TORSDOF 2
ENDMDL
MODEL 2
REMARK VINA RESULT:    -4.914      2.656      8.273
REMARK INTER + INTRA:          -5.579
REMARK INTER:                  -6.275
REMARK INTRA:                   0.696
REMARK UNBOUND:                -0.091
REMARK SMILES C=C(C)[C@@H]1CC[C@]2(C(=O)[O-])CC[C@]3(C)[C@H](CC[C@H]4[C@]5(C)CCC(=O)C(C)(C)[C@@H]5CC[C@@]43C)[C@@H]12
REMARK SMILES IDX 7 1 6 2 33 3 11 4 5 5 15 6 4 7 12 8 16 9 13 10 17 11 31 12
REMARK SMILES IDX 14 13 18 14 30 15 32 16 19 17 29 18 21 19 20 20 28 21 22 22
REMARK SMILES IDX 25 23 23 24 26 25 27 26 24 27 8 28 9 29 10 30 2 31 3 32 1 33
REMARK H PARENT
REMARK Flexibility Score: inf
ROOT
ATOM      1  C   UNL     1      25.023  31.468  31.203  1.00  0.00     0.014 C 
ATOM      2  C   UNL     1      26.538  31.386  30.920  1.00  0.00     0.014 C 
ATOM      3  C   UNL     1      24.532  30.190  30.520  1.00  0.00     0.012 C 
ATOM      4  C   UNL     1      24.651  31.414  32.717  1.00  0.00     0.014 C 
ATOM      5  C   UNL     1      26.661  30.759  29.514  1.00  0.00     0.009 C 
ATOM      6  C   UNL     1      22.987  30.137  30.560  1.00  0.00     0.000 C 
ATOM      7  C   UNL     1      25.281  30.148  29.181  1.00  0.00     0.018 C 
ATOM      8  C   UNL     1      23.363  30.596  33.122  1.00  0.00     0.008 C 
ATOM      9  C   UNL     1      22.321  29.185  29.525  1.00  0.00     0.005 C 
ATOM     10  C   UNL     1      22.471  29.851  32.017  1.00  0.00    -0.024 C 
ATOM     11  C   UNL     1      20.791  29.020  29.755  1.00  0.00     0.005 C 
ATOM     12  C   UNL     1      20.879  30.256  32.073  1.00  0.00    -0.024 C 
ATOM     13  C   UNL     1      22.678  28.305  32.310  1.00  0.00     0.012 C 
ATOM     14  C   UNL     1      20.205  30.161  30.633  1.00  0.00     0.002 C 
ATOM     15  C   UNL     1      20.651  31.743  32.531  1.00  0.00     0.008 C 
ATOM     16  C   UNL     1      20.176  29.334  33.123  1.00  0.00     0.012 C 
ATOM     17  C   UNL     1      18.628  30.415  30.560  1.00  0.00    -0.025 C 
ATOM     18  C   UNL     1      19.419  32.473  31.925  1.00  0.00     0.006 C 
ATOM     19  C   UNL     1      18.305  30.890  29.096  1.00  0.00     0.015 C 
ATOM     20  C   UNL     1      17.868  29.082  30.813  1.00  0.00     0.012 C 
ATOM     21  C   UNL     1      18.201  31.539  31.624  1.00  0.00     0.008 C 
ATOM     22  C   UNL     1      16.909  31.454  28.885  1.00  0.00     0.077 C 
ATOM     23  C   UNL     1      16.837  32.320  31.332  1.00  0.00     0.027 C 
ATOM     24  C   UNL     1      16.662  32.565  29.844  1.00  0.00     0.138 C 
ATOM     25  C   UNL     1      15.614  31.505  31.832  1.00  0.00     0.020 C 
ATOM     26  C   UNL     1      16.757  33.676  32.086  1.00  0.00     0.020 C 
ATOM     27  O   UNL     1      16.234  33.628  29.423  1.00  0.00    -0.299 OA
ENDROOT
BRANCH   1  28
ATOM     28  C   UNL     1      24.482  32.765  30.569  1.00  0.00     0.048 C 
ATOM     29  O   UNL     1      23.244  33.024  30.570  1.00  0.00    -0.550 OA
ATOM     30  O   UNL     1      25.356  33.708  30.026  1.00  0.00    -0.550 OA
ENDBRANCH   1  28
BRANCH   7  31
ATOM     31  C   UNL     1      25.386  28.752  28.565  1.00  0.00    -0.077 C 
ATOM     32  C   UNL     1      26.363  28.490  27.454  1.00  0.00     0.039 C 
ATOM     33  C   UNL     1      24.617  27.734  28.995  1.00  0.00     0.008 C 
ENDBRANCH   7  31
TORSDOF 2
ENDMDL
