MODEL 1
REMARK VINA RESULT:    -4.466      0.000      0.000
REMARK INTER + INTRA:          -7.803
REMARK INTER:                  -6.816
REMARK INTRA:                  -0.988
REMARK UNBOUND:                -0.988
REMARK SMILES C=CCCCCCCCCCC
REMARK SMILES IDX 7 1 8 2 9 3 10 4 11 5 12 6 6 7 5 8 4 9 3 10 2 11 1 12
REMARK H PARENT
REMARK Flexibility Score: inf
ROOT
ATOM      1  C   UNL     1     111.149 105.215 128.775  1.00  0.00     0.000 C 
ENDROOT
BRANCH   1   2
ATOM      2  C   UNL     1     109.656 105.014 129.087  1.00  0.00    -0.000 C 
BRANCH   2   3
ATOM      3  C   UNL     1     108.929 104.208 127.999  1.00  0.00    -0.000 C 
BRANCH   3   4
ATOM      4  C   UNL     1     107.825 103.306 128.570  1.00  0.00    -0.000 C 
BRANCH   4   5
ATOM      5  C   UNL     1     107.814 101.942 127.871  1.00  0.00    -0.003 C 
ATOM      6  C   UNL     1     107.595 100.811 128.870  1.00  0.00     0.004 C 
ENDBRANCH   4   5
ENDBRANCH   3   4
ENDBRANCH   2   3
ENDBRANCH   1   2
BRANCH   1   7
ATOM      7  C   UNL     1     111.702 106.534 129.340  1.00  0.00     0.000 C 
BRANCH   7   8
ATOM      8  C   UNL     1     111.365 107.743 128.451  1.00  0.00     0.000 C 
BRANCH   8   9
ATOM      9  C   UNL     1     111.735 107.511 126.977  1.00  0.00     0.004 C 
BRANCH   9  10
ATOM     10  C   UNL     1     110.528 107.642 126.036  1.00  0.00     0.027 C 
BRANCH  10  11
ATOM     11  C   UNL     1     110.316 106.379 125.248  1.00  0.00    -0.035 C 
ATOM     12  C   UNL     1     111.297 105.491 125.066  1.00  0.00     0.004 C 
ENDBRANCH  10  11
ENDBRANCH   9  10
ENDBRANCH   8   9
ENDBRANCH   7   8
ENDBRANCH   1   7
TORSDOF 9
ENDMDL
MODEL 2
REMARK VINA RESULT:    -4.442      1.580      4.485
REMARK INTER + INTRA:          -7.767
REMARK INTER:                  -5.915
REMARK INTRA:                  -1.852
REMARK UNBOUND:                -0.988
REMARK SMILES C=CCCCCCCCCCC
REMARK SMILES IDX 7 1 8 2 9 3 10 4 11 5 12 6 6 7 5 8 4 9 3 10 2 11 1 12
REMARK H PARENT
REMARK Flexibility Score: inf
ROOT
ATOM      1  C   UNL     1     111.937 106.618 129.332  1.00  0.00     0.000 C 
ENDROOT
BRANCH   1   2
ATOM      2  C   UNL     1     111.279 107.662 128.413  1.00  0.00    -0.000 C 
BRANCH   2   3
ATOM      3  C   UNL     1     111.633 107.451 126.932  1.00  0.00    -0.000 C 
BRANCH   3   4
ATOM      4  C   UNL     1     110.424 107.629 126.003  1.00  0.00    -0.000 C 
BRANCH   4   5
ATOM      5  C   UNL     1     110.272 106.427 125.064  1.00  0.00    -0.003 C 
ATOM      6  C   UNL     1     111.386 105.410 125.284  1.00  0.00     0.004 C 
ENDBRANCH   4   5
ENDBRANCH   3   4
ENDBRANCH   2   3
ENDBRANCH   1   2
BRANCH   1   7
ATOM      7  C   UNL     1     111.430 105.190 129.067  1.00  0.00     0.000 C 
BRANCH   7   8
ATOM      8  C   UNL     1     109.935 105.026 129.389  1.00  0.00     0.000 C 
BRANCH   8   9
ATOM      9  C   UNL     1     109.115 104.581 128.167  1.00  0.00     0.004 C 
BRANCH   9  10
ATOM     10  C   UNL     1     107.975 105.555 127.831  1.00  0.00     0.027 C 
BRANCH  10  11
ATOM     11  C   UNL     1     107.803 106.582 128.916  1.00  0.00    -0.035 C 
ATOM     12  C   UNL     1     107.631 107.878 128.637  1.00  0.00     0.004 C 
ENDBRANCH  10  11
ENDBRANCH   9  10
ENDBRANCH   8   9
ENDBRANCH   7   8
ENDBRANCH   1   7
TORSDOF 9
ENDMDL
MODEL 3
REMARK VINA RESULT:    -4.401      4.712      6.337
REMARK INTER + INTRA:          -7.704
REMARK INTER:                  -6.873
REMARK INTRA:                  -0.831
REMARK UNBOUND:                -0.988
REMARK SMILES C=CCCCCCCCCCC
REMARK SMILES IDX 7 1 8 2 9 3 10 4 11 5 12 6 6 7 5 8 4 9 3 10 2 11 1 12
REMARK H PARENT
REMARK Flexibility Score: inf
ROOT
ATOM      1  C   UNL     1     107.436 109.604 129.256  1.00  0.00     0.000 C 
ENDROOT
BRANCH   1   2
ATOM      2  C   UNL     1     108.234 109.015 128.080  1.00  0.00    -0.000 C 
BRANCH   2   3
ATOM      3  C   UNL     1     108.943 107.702 128.446  1.00  0.00    -0.000 C 
BRANCH   3   4
ATOM      4  C   UNL     1     110.436 107.899 128.743  1.00  0.00    -0.000 C 
BRANCH   4   5
ATOM      5  C   UNL     1     111.298 106.997 127.853  1.00  0.00    -0.003 C 
ATOM      6  C   UNL     1     111.398 107.553 126.436  1.00  0.00     0.004 C 
ENDBRANCH   4   5
ENDBRANCH   3   4
ENDBRANCH   2   3
ENDBRANCH   1   2
BRANCH   1   7
ATOM      7  C   UNL     1     107.121 111.098 129.071  1.00  0.00     0.000 C 
BRANCH   7   8
ATOM      8  C   UNL     1     105.615 111.399 129.172  1.00  0.00     0.000 C 
BRANCH   8   9
ATOM      9  C   UNL     1     104.830 110.892 127.951  1.00  0.00     0.004 C 
BRANCH   9  10
ATOM     10  C   UNL     1     105.129 111.698 126.678  1.00  0.00     0.027 C 
BRANCH  10  11
ATOM     11  C   UNL     1     105.810 110.845 125.643  1.00  0.00    -0.035 C 
ATOM     12  C   UNL     1     107.019 111.152 125.164  1.00  0.00     0.004 C 
ENDBRANCH  10  11
ENDBRANCH   9  10
ENDBRANCH   8   9
ENDBRANCH   7   8
ENDBRANCH   1   7
TORSDOF 9
ENDMDL
MODEL 4
REMARK VINA RESULT:    -4.387      6.972      8.755
REMARK INTER + INTRA:          -7.683
REMARK INTER:                  -5.986
REMARK INTRA:                  -1.697
REMARK UNBOUND:                -0.988
REMARK SMILES C=CCCCCCCCCCC
REMARK SMILES IDX 7 1 8 2 9 3 10 4 11 5 12 6 6 7 5 8 4 9 3 10 2 11 1 12
REMARK H PARENT
REMARK Flexibility Score: inf
ROOT
ATOM      1  C   UNL     1     101.362 104.801 128.109  1.00  0.00     0.000 C 
ENDROOT
BRANCH   1   2
ATOM      2  C   UNL     1     100.733 105.045 126.726  1.00  0.00    -0.000 C 
BRANCH   2   3
ATOM      3  C   UNL     1     101.724 105.667 125.729  1.00  0.00    -0.000 C 
BRANCH   3   4
ATOM      4  C   UNL     1     101.255 107.029 125.200  1.00  0.00    -0.000 C 
BRANCH   4   5
ATOM      5  C   UNL     1     102.371 107.728 124.415  1.00  0.00    -0.003 C 
ATOM      6  C   UNL     1     103.501 106.760 124.082  1.00  0.00     0.004 C 
ENDBRANCH   4   5
ENDBRANCH   3   4
ENDBRANCH   2   3
ENDBRANCH   1   2
BRANCH   1   7
ATOM      7  C   UNL     1     100.708 105.647 129.215  1.00  0.00     0.000 C 
BRANCH   7   8
ATOM      8  C   UNL     1     101.164 107.116 129.181  1.00  0.00     0.000 C 
BRANCH   8   9
ATOM      9  C   UNL     1     102.692 107.261 129.269  1.00  0.00     0.004 C 
BRANCH   9  10
ATOM     10  C   UNL     1     103.274 108.108 128.128  1.00  0.00     0.027 C 
BRANCH  10  11
ATOM     11  C   UNL     1     104.550 107.508 127.603  1.00  0.00    -0.035 C 
ATOM     12  C   UNL     1     104.840 106.215 127.774  1.00  0.00     0.004 C 
ENDBRANCH  10  11
ENDBRANCH   9  10
ENDBRANCH   8   9
ENDBRANCH   7   8
ENDBRANCH   1   7
TORSDOF 9
ENDMDL
MODEL 5
REMARK VINA RESULT:    -4.384      7.186      8.887
REMARK INTER + INTRA:          -7.678
REMARK INTER:                  -6.328
REMARK INTRA:                  -1.350
REMARK UNBOUND:                -0.988
REMARK SMILES C=CCCCCCCCCCC
REMARK SMILES IDX 7 1 8 2 9 3 10 4 11 5 12 6 6 7 5 8 4 9 3 10 2 11 1 12
REMARK H PARENT
REMARK Flexibility Score: inf
ROOT
ATOM      1  C   UNL     1     101.385 104.807 128.301  1.00  0.00     0.000 C 
ENDROOT
BRANCH   1   2
ATOM      2  C   UNL     1     100.785 105.778 129.333  1.00  0.00    -0.000 C 
BRANCH   2   3
ATOM      3  C   UNL     1     101.197 107.237 129.080  1.00  0.00    -0.000 C 
BRANCH   3   4
ATOM      4  C   UNL     1     102.697 107.475 129.303  1.00  0.00    -0.000 C 
BRANCH   4   5
ATOM      5  C   UNL     1     103.351 108.068 128.050  1.00  0.00    -0.003 C 
ATOM      6  C   UNL     1     104.449 107.154 127.516  1.00  0.00     0.004 C 
ENDBRANCH   4   5
ENDBRANCH   3   4
ENDBRANCH   2   3
ENDBRANCH   1   2
BRANCH   1   7
ATOM      7  C   UNL     1     100.729 104.933 126.915  1.00  0.00     0.000 C 
BRANCH   7   8
ATOM      8  C   UNL     1     101.716 105.415 125.838  1.00  0.00     0.000 C 
BRANCH   8   9
ATOM      9  C   UNL     1     101.283 106.743 125.195  1.00  0.00     0.004 C 
BRANCH   9  10
ATOM     10  C   UNL     1     101.986 107.011 123.856  1.00  0.00     0.027 C 
BRANCH  10  11
ATOM     11  C   UNL     1     103.358 107.589 124.070  1.00  0.00    -0.035 C 
ATOM     12  C   UNL     1     103.560 108.908 124.149  1.00  0.00     0.004 C 
ENDBRANCH  10  11
ENDBRANCH   9  10
ENDBRANCH   8   9
ENDBRANCH   7   8
ENDBRANCH   1   7
TORSDOF 9
ENDMDL
MODEL 6
REMARK VINA RESULT:    -4.372      7.032      9.424
REMARK INTER + INTRA:          -7.660
REMARK INTER:                  -7.059
REMARK INTRA:                  -0.601
REMARK UNBOUND:                -0.988
REMARK SMILES C=CCCCCCCCCCC
REMARK SMILES IDX 7 1 8 2 9 3 10 4 11 5 12 6 6 7 5 8 4 9 3 10 2 11 1 12
REMARK H PARENT
REMARK Flexibility Score: inf
ROOT
ATOM      1  C   UNL     1     103.284 107.834 128.190  1.00  0.00     0.000 C 
ENDROOT
BRANCH   1   2
ATOM      2  C   UNL     1     104.248 109.016 128.386  1.00  0.00    -0.000 C 
BRANCH   2   3
ATOM      3  C   UNL     1     104.501 109.793 127.084  1.00  0.00    -0.000 C 
BRANCH   3   4
ATOM      4  C   UNL     1     105.210 111.134 127.323  1.00  0.00    -0.000 C 
BRANCH   4   5
ATOM      5  C   UNL     1     105.308 111.443 128.822  1.00  0.00    -0.003 C 
ATOM      6  C   UNL     1     106.754 111.684 129.242  1.00  0.00     0.004 C 
ENDBRANCH   4   5
ENDBRANCH   3   4
ENDBRANCH   2   3
ENDBRANCH   1   2
BRANCH   1   7
ATOM      7  C   UNL     1     102.547 107.448 129.483  1.00  0.00     0.000 C 
BRANCH   7   8
ATOM      8  C   UNL     1     101.055 107.155 129.247  1.00  0.00     0.000 C 
BRANCH   8   9
ATOM      9  C   UNL     1     100.737 105.651 129.289  1.00  0.00     0.004 C 
BRANCH   9  10
ATOM     10  C   UNL     1     101.384 104.876 128.131  1.00  0.00     0.027 C 
BRANCH  10  11
ATOM     11  C   UNL     1     100.697 105.178 126.828  1.00  0.00    -0.035 C 
ATOM     12  C   UNL     1     101.361 105.683 125.783  1.00  0.00     0.004 C 
ENDBRANCH  10  11
ENDBRANCH   9  10
ENDBRANCH   8   9
ENDBRANCH   7   8
ENDBRANCH   1   7
TORSDOF 9
ENDMDL
MODEL 7
REMARK VINA RESULT:    -4.336      2.675      6.134
REMARK INTER + INTRA:          -7.604
REMARK INTER:                  -6.013
REMARK INTRA:                  -1.591
REMARK UNBOUND:                -0.988
REMARK SMILES C=CCCCCCCCCCC
REMARK SMILES IDX 7 1 8 2 9 3 10 4 11 5 12 6 6 7 5 8 4 9 3 10 2 11 1 12
REMARK H PARENT
REMARK Flexibility Score: inf
ROOT
ATOM      1  C   UNL     1     104.893 103.158 128.531  1.00  0.00     0.000 C 
ENDROOT
BRANCH   1   2
ATOM      2  C   UNL     1     105.915 104.300 128.674  1.00  0.00    -0.000 C 
BRANCH   2   3
ATOM      3  C   UNL     1     106.625 104.625 127.351  1.00  0.00    -0.000 C 
BRANCH   3   4
ATOM      4  C   UNL     1     108.147 104.443 127.437  1.00  0.00    -0.000 C 
BRANCH   4   5
ATOM      5  C   UNL     1     108.589 104.184 128.881  1.00  0.00    -0.003 C 
ATOM      6  C   UNL     1     109.832 104.994 129.232  1.00  0.00     0.004 C 
ENDBRANCH   4   5
ENDBRANCH   3   4
ENDBRANCH   2   3
ENDBRANCH   1   2
BRANCH   1   7
ATOM      7  C   UNL     1     105.280 101.910 129.341  1.00  0.00     0.000 C 
BRANCH   7   8
ATOM      8  C   UNL     1     105.731 100.743 128.445  1.00  0.00     0.000 C 
BRANCH   8   9
ATOM      9  C   UNL     1     107.204 100.864 128.019  1.00  0.00     0.004 C 
BRANCH   9  10
ATOM     10  C   UNL     1     107.388 100.789 126.496  1.00  0.00     0.027 C 
BRANCH  10  11
ATOM     11  C   UNL     1     106.076 100.970 125.782  1.00  0.00    -0.035 C 
ATOM     12  C   UNL     1     105.885 101.956 124.900  1.00  0.00     0.004 C 
ENDBRANCH  10  11
ENDBRANCH   9  10
ENDBRANCH   8   9
ENDBRANCH   7   8
ENDBRANCH   1   7
TORSDOF 9
ENDMDL
MODEL 8
REMARK VINA RESULT:    -4.309      6.722      9.209
REMARK INTER + INTRA:          -7.564
REMARK INTER:                  -6.841
REMARK INTRA:                  -0.723
REMARK UNBOUND:                -0.988
REMARK SMILES C=CCCCCCCCCCC
REMARK SMILES IDX 7 1 8 2 9 3 10 4 11 5 12 6 6 7 5 8 4 9 3 10 2 11 1 12
REMARK H PARENT
REMARK Flexibility Score: inf
ROOT
ATOM      1  C   UNL     1     105.073 108.963 126.981  1.00  0.00     0.000 C 
ENDROOT
BRANCH   1   2
ATOM      2  C   UNL     1     104.874 110.220 126.116  1.00  0.00    -0.000 C 
BRANCH   2   3
ATOM      3  C   UNL     1     105.361 111.500 126.813  1.00  0.00    -0.000 C 
BRANCH   3   4
ATOM      4  C   UNL     1     106.599 111.261 127.690  1.00  0.00    -0.000 C 
BRANCH   4   5
ATOM      5  C   UNL     1     106.317 111.633 129.150  1.00  0.00    -0.003 C 
ATOM      6  C   UNL     1     104.843 111.960 129.362  1.00  0.00     0.004 C 
ENDBRANCH   4   5
ENDBRANCH   3   4
ENDBRANCH   2   3
ENDBRANCH   1   2
BRANCH   1   7
ATOM      7  C   UNL     1     103.748 108.265 127.329  1.00  0.00     0.000 C 
BRANCH   7   8
ATOM      8  C   UNL     1     103.636 107.921 128.824  1.00  0.00     0.000 C 
BRANCH   8   9
ATOM      9  C   UNL     1     102.296 107.255 129.177  1.00  0.00     0.004 C 
BRANCH   9  10
ATOM     10  C   UNL     1     101.510 106.810 127.934  1.00  0.00     0.027 C 
BRANCH  10  11
ATOM     11  C   UNL     1     100.732 105.552 128.207  1.00  0.00    -0.035 C 
ATOM     12  C   UNL     1     100.728 104.976 129.413  1.00  0.00     0.004 C 
ENDBRANCH  10  11
ENDBRANCH   9  10
ENDBRANCH   8   9
ENDBRANCH   7   8
ENDBRANCH   1   7
TORSDOF 9
ENDMDL
MODEL 9
REMARK VINA RESULT:    -4.308      4.779      6.990
REMARK INTER + INTRA:          -7.563
REMARK INTER:                  -6.850
REMARK INTRA:                  -0.712
REMARK UNBOUND:                -0.988
REMARK SMILES C=CCCCCCCCCCC
REMARK SMILES IDX 7 1 8 2 9 3 10 4 11 5 12 6 6 7 5 8 4 9 3 10 2 11 1 12
REMARK H PARENT
REMARK Flexibility Score: inf
ROOT
ATOM      1  C   UNL     1     105.049 102.993 129.027  1.00  0.00     0.000 C 
ENDROOT
BRANCH   1   2
ATOM      2  C   UNL     1     104.295 103.712 127.894  1.00  0.00    -0.000 C 
BRANCH   2   3
ATOM      3  C   UNL     1     103.046 104.454 128.395  1.00  0.00    -0.000 C 
BRANCH   3   4
ATOM      4  C   UNL     1     102.072 104.805 127.262  1.00  0.00    -0.000 C 
BRANCH   4   5
ATOM      5  C   UNL     1     100.680 105.132 127.814  1.00  0.00    -0.003 C 
ATOM      6  C   UNL     1     100.617 104.904 129.321  1.00  0.00     0.004 C 
ENDBRANCH   4   5
ENDBRANCH   3   4
ENDBRANCH   2   3
ENDBRANCH   1   2
BRANCH   1   7
ATOM      7  C   UNL     1     105.267 101.498 128.739  1.00  0.00     0.000 C 
BRANCH   7   8
ATOM      8  C   UNL     1     106.598 100.976 129.307  1.00  0.00     0.000 C 
BRANCH   8   9
ATOM      9  C   UNL     1     107.523 100.413 128.215  1.00  0.00     0.004 C 
BRANCH   9  10
ATOM     10  C   UNL     1     107.101 100.841 126.802  1.00  0.00     0.027 C 
BRANCH  10  11
ATOM     11  C   UNL     1     107.795 102.110 126.390  1.00  0.00    -0.035 C 
ATOM     12  C   UNL     1     107.199 103.016 125.609  1.00  0.00     0.004 C 
ENDBRANCH  10  11
ENDBRANCH   9  10
ENDBRANCH   8   9
ENDBRANCH   7   8
ENDBRANCH   1   7
TORSDOF 9
ENDMDL
