MODEL 1
REMARK VINA RESULT:    -4.456      0.000      0.000
REMARK INTER + INTRA:          -4.814
REMARK INTER:                  -4.716
REMARK INTRA:                  -0.099
REMARK UNBOUND:                -0.099
REMARK SMILES C=C(C)[C@@H]1CC=C(C)C(=O)C1
REMARK SMILES IDX 8 1 7 2 6 3 5 4 4 5 11 6 9 7 10 8 2 9 1 10 3 11
REMARK H PARENT
REMARK Flexibility Score: inf
ROOT
ATOM      1  C   UNL     1      23.861  45.213 141.773  1.00  0.00     0.048 C 
ATOM      2  C   UNL     1      25.206  44.774 142.282  1.00  0.00    -0.012 C 
ATOM      3  C   UNL     1      26.326  45.219 141.684  1.00  0.00    -0.019 C 
ATOM      4  C   UNL     1      27.698  44.827 142.165  1.00  0.00     0.036 C 
ATOM      5  C   UNL     1      27.693  43.401 142.747  1.00  0.00     0.025 C 
ATOM      6  C   UNL     1      26.630  43.278 143.855  1.00  0.00     0.089 C 
ATOM      7  C   UNL     1      25.294  43.758 143.360  1.00  0.00     0.158 C 
ATOM      8  O   UNL     1      24.244  43.313 143.897  1.00  0.00    -0.295 OA
ENDROOT
BRANCH   5   9
ATOM      9  C   UNL     1      29.072  43.002 143.253  1.00  0.00    -0.077 C 
ATOM     10  C   UNL     1      29.304  42.905 144.572  1.00  0.00     0.008 C 
ATOM     11  C   UNL     1      30.206  42.711 142.300  1.00  0.00     0.039 C 
ENDBRANCH   5   9
TORSDOF 1
ENDMDL
MODEL 2
REMARK VINA RESULT:    -4.442      2.024      4.575
REMARK INTER + INTRA:          -4.800
REMARK INTER:                  -4.711
REMARK INTRA:                  -0.089
REMARK UNBOUND:                -0.099
REMARK SMILES C=C(C)[C@@H]1CC=C(C)C(=O)C1
REMARK SMILES IDX 8 1 7 2 6 3 5 4 4 5 11 6 9 7 10 8 2 9 1 10 3 11
REMARK H PARENT
REMARK Flexibility Score: inf
ROOT
ATOM      1  C   UNL     1      30.338  41.204 144.804  1.00  0.00     0.048 C 
ATOM      2  C   UNL     1      29.194  41.968 144.197  1.00  0.00    -0.012 C 
ATOM      3  C   UNL     1      29.039  43.275 144.476  1.00  0.00    -0.019 C 
ATOM      4  C   UNL     1      27.923  44.091 143.881  1.00  0.00     0.036 C 
ATOM      5  C   UNL     1      26.662  43.232 143.665  1.00  0.00     0.025 C 
ATOM      6  C   UNL     1      26.998  41.995 142.812  1.00  0.00     0.089 C 
ATOM      7  C   UNL     1      28.171  41.254 143.394  1.00  0.00     0.158 C 
ATOM      8  O   UNL     1      28.295  40.021 143.162  1.00  0.00    -0.295 OA
ENDROOT
BRANCH   5   9
ATOM      9  C   UNL     1      25.534  44.045 143.047  1.00  0.00    -0.077 C 
ATOM     10  C   UNL     1      24.278  43.912 143.505  1.00  0.00     0.008 C 
ATOM     11  C   UNL     1      25.788  45.009 141.914  1.00  0.00     0.039 C 
ENDBRANCH   5   9
TORSDOF 1
ENDMDL
MODEL 3
REMARK VINA RESULT:    -4.431      1.487      2.096
REMARK INTER + INTRA:          -4.789
REMARK INTER:                  -4.697
REMARK INTRA:                  -0.092
REMARK UNBOUND:                -0.099
REMARK SMILES C=C(C)[C@@H]1CC=C(C)C(=O)C1
REMARK SMILES IDX 8 1 7 2 6 3 5 4 4 5 11 6 9 7 10 8 2 9 1 10 3 11
REMARK H PARENT
REMARK Flexibility Score: inf
ROOT
ATOM      1  C   UNL     1      24.095  44.847 142.802  1.00  0.00     0.048 C 
ATOM      2  C   UNL     1      25.448  44.192 142.841  1.00  0.00    -0.012 C 
ATOM      3  C   UNL     1      25.597  43.001 143.447  1.00  0.00    -0.019 C 
ATOM      4  C   UNL     1      26.925  42.292 143.499  1.00  0.00     0.036 C 
ATOM      5  C   UNL     1      28.088  43.300 143.563  1.00  0.00     0.025 C 
ATOM      6  C   UNL     1      28.002  44.292 142.388  1.00  0.00     0.089 C 
ATOM      7  C   UNL     1      26.635  44.915 142.321  1.00  0.00     0.158 C 
ATOM      8  O   UNL     1      26.502  46.048 141.785  1.00  0.00    -0.295 OA
ENDROOT
BRANCH   5   9
ATOM      9  C   UNL     1      29.436  42.593 143.597  1.00  0.00    -0.077 C 
ATOM     10  C   UNL     1      29.777  41.844 144.658  1.00  0.00     0.008 C 
ATOM     11  C   UNL     1      30.415  42.712 142.456  1.00  0.00     0.039 C 
ENDBRANCH   5   9
TORSDOF 1
ENDMDL
MODEL 4
REMARK VINA RESULT:    -4.359     13.560     14.676
REMARK INTER + INTRA:          -4.712
REMARK INTER:                  -4.618
REMARK INTRA:                  -0.095
REMARK UNBOUND:                -0.099
REMARK SMILES C=C(C)[C@@H]1CC=C(C)C(=O)C1
REMARK SMILES IDX 8 1 7 2 6 3 5 4 4 5 11 6 9 7 10 8 2 9 1 10 3 11
REMARK H PARENT
REMARK Flexibility Score: inf
ROOT
ATOM      1  C   UNL     1      30.138  32.114 137.983  1.00  0.00     0.048 C 
ATOM      2  C   UNL     1      28.868  31.334 138.183  1.00  0.00    -0.012 C 
ATOM      3  C   UNL     1      27.759  31.677 137.505  1.00  0.00    -0.019 C 
ATOM      4  C   UNL     1      26.466  30.919 137.654  1.00  0.00     0.036 C 
ATOM      5  C   UNL     1      26.311  30.363 139.082  1.00  0.00     0.025 C 
ATOM      6  C   UNL     1      27.535  29.507 139.458  1.00  0.00     0.089 C 
ATOM      7  C   UNL     1      28.808  30.270 139.217  1.00  0.00     0.158 C 
ATOM      8  O   UNL     1      29.838  29.972 139.879  1.00  0.00    -0.295 OA
ENDROOT
BRANCH   5   9
ATOM      9  C   UNL     1      25.016  29.579 139.236  1.00  0.00    -0.077 C 
ATOM     10  C   UNL     1      23.857  30.102 138.802  1.00  0.00     0.008 C 
ATOM     11  C   UNL     1      24.994  28.213 139.875  1.00  0.00     0.039 C 
ENDBRANCH   5   9
TORSDOF 1
ENDMDL
MODEL 5
REMARK VINA RESULT:    -4.323     12.763     13.932
REMARK INTER + INTRA:          -4.674
REMARK INTER:                  -4.583
REMARK INTRA:                  -0.091
REMARK UNBOUND:                -0.099
REMARK SMILES C=C(C)[C@@H]1CC=C(C)C(=O)C1
REMARK SMILES IDX 8 1 7 2 6 3 5 4 4 5 11 6 9 7 10 8 2 9 1 10 3 11
REMARK H PARENT
REMARK Flexibility Score: inf
ROOT
ATOM      1  C   UNL     1      29.758  33.876 135.581  1.00  0.00     0.048 C 
ATOM      2  C   UNL     1      29.489  32.723 136.508  1.00  0.00    -0.012 C 
ATOM      3  C   UNL     1      28.590  31.784 136.164  1.00  0.00    -0.019 C 
ATOM      4  C   UNL     1      28.296  30.599 137.045  1.00  0.00     0.036 C 
ATOM      5  C   UNL     1      28.441  30.967 138.534  1.00  0.00     0.025 C 
ATOM      6  C   UNL     1      29.835  31.563 138.804  1.00  0.00     0.089 C 
ATOM      7  C   UNL     1      30.123  32.689 137.849  1.00  0.00     0.158 C 
ATOM      8  O   UNL     1      30.939  33.587 138.187  1.00  0.00    -0.295 OA
ENDROOT
BRANCH   5   9
ATOM      9  C   UNL     1      28.164  29.770 139.432  1.00  0.00    -0.077 C 
ATOM     10  C   UNL     1      26.917  29.285 139.542  1.00  0.00     0.008 C 
ATOM     11  C   UNL     1      29.267  29.104 140.217  1.00  0.00     0.039 C 
ENDBRANCH   5   9
TORSDOF 1
ENDMDL
MODEL 6
REMARK VINA RESULT:    -4.319      9.311     10.490
REMARK INTER + INTRA:          -4.670
REMARK INTER:                  -4.574
REMARK INTRA:                  -0.096
REMARK UNBOUND:                -0.099
REMARK SMILES C=C(C)[C@@H]1CC=C(C)C(=O)C1
REMARK SMILES IDX 8 1 7 2 6 3 5 4 4 5 11 6 9 7 10 8 2 9 1 10 3 11
REMARK H PARENT
REMARK Flexibility Score: inf
ROOT
ATOM      1  C   UNL     1      34.330  42.169 148.663  1.00  0.00     0.048 C 
ATOM      2  C   UNL     1      35.364  42.247 147.574  1.00  0.00    -0.012 C 
ATOM      3  C   UNL     1      36.514  42.909 147.790  1.00  0.00    -0.019 C 
ATOM      4  C   UNL     1      37.590  43.003 146.741  1.00  0.00     0.036 C 
ATOM      5  C   UNL     1      36.984  43.027 145.325  1.00  0.00     0.025 C 
ATOM      6  C   UNL     1      36.068  41.806 145.115  1.00  0.00     0.089 C 
ATOM      7  C   UNL     1      35.062  41.702 146.227  1.00  0.00     0.158 C 
ATOM      8  O   UNL     1      33.969  41.113 146.013  1.00  0.00    -0.295 OA
ENDROOT
BRANCH   5   9
ATOM      9  C   UNL     1      38.065  43.102 144.258  1.00  0.00    -0.077 C 
ATOM     10  C   UNL     1      39.150  43.871 144.450  1.00  0.00     0.008 C 
ATOM     11  C   UNL     1      37.952  42.329 142.967  1.00  0.00     0.039 C 
ENDBRANCH   5   9
TORSDOF 1
ENDMDL
MODEL 7
REMARK VINA RESULT:    -4.296     16.398     17.442
REMARK INTER + INTRA:          -4.645
REMARK INTER:                  -4.547
REMARK INTRA:                  -0.099
REMARK UNBOUND:                -0.099
REMARK SMILES C=C(C)[C@@H]1CC=C(C)C(=O)C1
REMARK SMILES IDX 8 1 7 2 6 3 5 4 4 5 11 6 9 7 10 8 2 9 1 10 3 11
REMARK H PARENT
REMARK Flexibility Score: inf
ROOT
ATOM      1  C   UNL     1      33.732  33.341 131.334  1.00  0.00     0.048 C 
ATOM      2  C   UNL     1      35.063  33.490 132.019  1.00  0.00    -0.012 C 
ATOM      3  C   UNL     1      36.185  33.590 131.286  1.00  0.00    -0.019 C 
ATOM      4  C   UNL     1      37.540  33.760 131.920  1.00  0.00     0.036 C 
ATOM      5  C   UNL     1      37.612  33.035 133.277  1.00  0.00     0.025 C 
ATOM      6  C   UNL     1      36.474  33.511 134.199  1.00  0.00     0.089 C 
ATOM      7  C   UNL     1      35.147  33.403 133.499  1.00  0.00     0.158 C 
ATOM      8  O   UNL     1      34.099  33.273 134.186  1.00  0.00    -0.295 OA
ENDROOT
BRANCH   5   9
ATOM      9  C   UNL     1      38.973  33.217 133.934  1.00  0.00    -0.077 C 
ATOM     10  C   UNL     1      39.086  33.944 135.058  1.00  0.00     0.008 C 
ATOM     11  C   UNL     1      40.218  32.599 133.349  1.00  0.00     0.039 C 
ENDBRANCH   5   9
TORSDOF 1
ENDMDL
MODEL 8
REMARK VINA RESULT:    -4.273     12.772     13.823
REMARK INTER + INTRA:          -4.621
REMARK INTER:                  -4.531
REMARK INTRA:                  -0.091
REMARK UNBOUND:                -0.099
REMARK SMILES C=C(C)[C@@H]1CC=C(C)C(=O)C1
REMARK SMILES IDX 8 1 7 2 6 3 5 4 4 5 11 6 9 7 10 8 2 9 1 10 3 11
REMARK H PARENT
REMARK Flexibility Score: inf
ROOT
ATOM      1  C   UNL     1      29.338  33.119 136.102  1.00  0.00     0.048 C 
ATOM      2  C   UNL     1      28.333  32.365 136.928  1.00  0.00    -0.012 C 
ATOM      3  C   UNL     1      28.256  31.026 136.829  1.00  0.00    -0.019 C 
ATOM      4  C   UNL     1      27.282  30.220 137.647  1.00  0.00     0.036 C 
ATOM      5  C   UNL     1      25.987  31.014 137.906  1.00  0.00     0.025 C 
ATOM      6  C   UNL     1      26.313  32.370 138.558  1.00  0.00     0.089 C 
ATOM      7  C   UNL     1      27.350  33.107 137.756  1.00  0.00     0.158 C 
ATOM      8  O   UNL     1      27.398  34.365 137.822  1.00  0.00    -0.295 OA
ENDROOT
BRANCH   5   9
ATOM      9  C   UNL     1      25.004  30.214 138.748  1.00  0.00    -0.077 C 
ATOM     10  C   UNL     1      23.682  30.400 138.599  1.00  0.00     0.008 C 
ATOM     11  C   UNL     1      25.478  29.203 139.764  1.00  0.00     0.039 C 
ENDBRANCH   5   9
TORSDOF 1
ENDMDL
MODEL 9
REMARK VINA RESULT:    -4.246      1.744      2.566
REMARK INTER + INTRA:          -4.593
REMARK INTER:                  -4.505
REMARK INTRA:                  -0.088
REMARK UNBOUND:                -0.099
REMARK SMILES C=C(C)[C@@H]1CC=C(C)C(=O)C1
REMARK SMILES IDX 8 1 7 2 6 3 5 4 4 5 11 6 9 7 10 8 2 9 1 10 3 11
REMARK H PARENT
REMARK Flexibility Score: inf
ROOT
ATOM      1  C   UNL     1      25.059  43.822 143.406  1.00  0.00     0.048 C 
ATOM      2  C   UNL     1      26.446  43.291 143.648  1.00  0.00    -0.012 C 
ATOM      3  C   UNL     1      27.413  44.120 144.078  1.00  0.00    -0.019 C 
ATOM      4  C   UNL     1      28.813  43.638 144.355  1.00  0.00     0.036 C 
ATOM      5  C   UNL     1      29.199  42.487 143.406  1.00  0.00     0.025 C 
ATOM      6  C   UNL     1      28.163  41.351 143.495  1.00  0.00     0.089 C 
ATOM      7  C   UNL     1      26.772  41.887 143.296  1.00  0.00     0.158 C 
ATOM      8  O   UNL     1      25.874  41.118 142.859  1.00  0.00    -0.295 OA
ENDROOT
BRANCH   5   9
ATOM      9  C   UNL     1      30.606  41.981 143.691  1.00  0.00    -0.077 C 
ATOM     10  C   UNL     1      31.652  42.483 143.015  1.00  0.00     0.008 C 
ATOM     11  C   UNL     1      30.863  40.911 144.724  1.00  0.00     0.039 C 
ENDBRANCH   5   9
TORSDOF 1
ENDMDL
