MODEL 1
REMARK VINA RESULT:    -7.108      0.000      0.000
REMARK INTER + INTRA:         -10.702
REMARK INTER:                  -9.602
REMARK INTRA:                  -1.100
REMARK UNBOUND:                -1.100
REMARK SMILES O=c1c(-c2ccc(O)cc2)coc2c([C@H]3O[C@@H](CO)[C@@H](O)[C@H](O)[C@H]3O)c(O)ccc12
REMARK SMILES IDX 3 1 11 2 12 3 13 4 30 5 2 6 1 7 29 8 28 9 26 10 14 11 4 12
REMARK SMILES IDX 5 13 6 14 7 15 10 16 9 17 8 18 15 20 24 21 16 22 22 23 17 24
REMARK SMILES IDX 20 25 25 26 23 28 18 30 19 31 21 33 27 35
REMARK H PARENT 8 19 25 27 23 29 19 32 21 34 27 36
REMARK Flexibility Score: inf
ROOT
ATOM      1  C   UNL     1      84.958 182.481 188.422  1.00  0.00     0.065 A 
ATOM      2  C   UNL     1      83.669 181.932 188.490  1.00  0.00     0.208 A 
ATOM      3  O   UNL     1      82.648 182.649 188.943  1.00  0.00    -0.463 OA
ATOM      4  C   UNL     1      82.753 183.918 189.338  1.00  0.00     0.147 A 
ATOM      5  C   UNL     1      84.019 184.550 189.302  1.00  0.00     0.066 A 
ATOM      6  C   UNL     1      85.135 183.805 188.873  1.00  0.00     0.200 A 
ATOM      7  O   UNL     1      86.292 184.310 188.914  1.00  0.00    -0.288 OA
ATOM      8  C   UNL     1      84.136 185.889 189.688  1.00  0.00     0.020 A 
ATOM      9  C   UNL     1      83.009 186.615 190.064  1.00  0.00     0.047 A 
ATOM     10  C   UNL     1      81.749 185.999 190.107  1.00  0.00     0.125 A 
ATOM     11  C   UNL     1      81.604 184.629 189.786  1.00  0.00     0.069 A 
ENDROOT
BRANCH   1  12
ATOM     12  C   UNL     1      86.077 181.672 187.870  1.00  0.00    -0.011 A 
ATOM     13  C   UNL     1      86.464 181.810 186.520  1.00  0.00     0.013 A 
ATOM     14  C   UNL     1      87.555 181.093 186.018  1.00  0.00     0.047 A 
ATOM     15  C   UNL     1      88.273 180.228 186.850  1.00  0.00     0.115 A 
ATOM     16  C   UNL     1      86.808 180.798 188.701  1.00  0.00     0.013 A 
ATOM     17  C   UNL     1      87.894 180.078 188.195  1.00  0.00     0.047 A 
BRANCH  15  18
ATOM     18  O   UNL     1      89.365 179.528 186.337  1.00  0.00    -0.508 OA
ATOM     19  H   UNL     1      90.075 179.133 186.951  1.00  0.00     0.293 HD
ENDBRANCH  15  18
ENDBRANCH   1  12
BRANCH  11  20
ATOM     20  C   UNL     1      80.234 183.964 189.978  1.00  0.00     0.188 C 
ATOM     21  C   UNL     1      79.379 184.104 188.682  1.00  0.00     0.179 C 
ATOM     22  O   UNL     1      79.543 184.517 191.092  1.00  0.00    -0.362 OA
ATOM     23  C   UNL     1      77.966 183.511 188.876  1.00  0.00     0.177 C 
ATOM     24  C   UNL     1      78.334 183.822 191.350  1.00  0.00     0.176 C 
ATOM     25  C   UNL     1      77.331 184.004 190.190  1.00  0.00     0.177 C 
BRANCH  21  26
ATOM     26  O   UNL     1      79.308 185.440 188.235  1.00  0.00    -0.387 OA
ATOM     27  H   UNL     1      79.585 186.037 188.977  1.00  0.00     0.211 HD
ENDBRANCH  21  26
BRANCH  23  28
ATOM     28  O   UNL     1      78.051 182.103 188.909  1.00  0.00    -0.387 OA
ATOM     29  H   UNL     1      77.302 181.762 189.471  1.00  0.00     0.211 HD
ENDBRANCH  23  28
BRANCH  24  30
ATOM     30  C   UNL     1      77.743 184.316 192.680  1.00  0.00     0.191 C 
BRANCH  30  31
ATOM     31  O   UNL     1      78.068 185.663 192.910  1.00  0.00    -0.394 OA
ATOM     32  H   UNL     1      78.409 185.725 193.843  1.00  0.00     0.210 HD
ENDBRANCH  30  31
ENDBRANCH  24  30
BRANCH  25  33
ATOM     33  O   UNL     1      76.958 185.353 190.076  1.00  0.00    -0.388 OA
ATOM     34  H   UNL     1      77.688 185.886 190.482  1.00  0.00     0.211 HD
ENDBRANCH  25  33
ENDBRANCH  11  20
BRANCH  10  35
ATOM     35  O   UNL     1      80.635 186.761 190.468  1.00  0.00    -0.507 OA
ATOM     36  H   UNL     1      79.698 186.374 190.457  1.00  0.00     0.293 HD
ENDBRANCH  10  35
TORSDOF 9
ENDMDL
MODEL 2
REMARK VINA RESULT:    -6.884      2.500      3.466
REMARK INTER + INTRA:         -10.399
REMARK INTER:                  -9.690
REMARK INTRA:                  -0.708
REMARK UNBOUND:                -1.100
REMARK SMILES O=c1c(-c2ccc(O)cc2)coc2c([C@H]3O[C@@H](CO)[C@@H](O)[C@H](O)[C@H]3O)c(O)ccc12
REMARK SMILES IDX 3 1 11 2 12 3 13 4 30 5 2 6 1 7 29 8 28 9 26 10 14 11 4 12
REMARK SMILES IDX 5 13 6 14 7 15 10 16 9 17 8 18 15 20 24 21 16 22 22 23 17 24
REMARK SMILES IDX 20 25 25 26 23 28 18 30 19 31 21 33 27 35
REMARK H PARENT 8 19 25 27 23 29 19 32 21 34 27 36
REMARK Flexibility Score: inf
ROOT
ATOM      1  C   UNL     1      83.435 181.049 188.198  1.00  0.00     0.065 A 
ATOM      2  C   UNL     1      82.114 181.515 188.117  1.00  0.00     0.208 A 
ATOM      3  O   UNL     1      81.814 182.766 188.442  1.00  0.00    -0.463 OA
ATOM      4  C   UNL     1      82.715 183.664 188.841  1.00  0.00     0.147 A 
ATOM      5  C   UNL     1      84.072 183.277 188.951  1.00  0.00     0.066 A 
ATOM      6  C   UNL     1      84.422 181.944 188.660  1.00  0.00     0.200 A 
ATOM      7  O   UNL     1      85.607 181.544 188.834  1.00  0.00    -0.288 OA
ATOM      8  C   UNL     1      85.031 184.218 189.341  1.00  0.00     0.020 A 
ATOM      9  C   UNL     1      84.664 185.540 189.579  1.00  0.00     0.047 A 
ATOM     10  C   UNL     1      83.322 185.935 189.476  1.00  0.00     0.125 A 
ATOM     11  C   UNL     1      82.317 184.995 189.148  1.00  0.00     0.069 A 
ENDROOT
BRANCH   1  12
ATOM     12  C   UNL     1      83.754 179.656 187.786  1.00  0.00    -0.011 A 
ATOM     13  C   UNL     1      83.402 178.566 188.610  1.00  0.00     0.013 A 
ATOM     14  C   UNL     1      83.648 177.254 188.193  1.00  0.00     0.047 A 
ATOM     15  C   UNL     1      84.250 177.008 186.955  1.00  0.00     0.115 A 
ATOM     16  C   UNL     1      84.359 179.399 186.538  1.00  0.00     0.013 A 
ATOM     17  C   UNL     1      84.610 178.086 186.128  1.00  0.00     0.047 A 
BRANCH  15  18
ATOM     18  O   UNL     1      84.479 175.694 186.550  1.00  0.00    -0.508 OA
ATOM     19  H   UNL     1      84.748 174.974 187.219  1.00  0.00     0.293 HD
ENDBRANCH  15  18
ENDBRANCH   1  12
BRANCH  11  20
ATOM     20  C   UNL     1      80.847 185.440 189.180  1.00  0.00     0.188 C 
ATOM     21  C   UNL     1      80.219 185.128 190.573  1.00  0.00     0.179 C 
ATOM     22  O   UNL     1      80.096 184.817 188.145  1.00  0.00    -0.362 OA
ATOM     23  C   UNL     1      78.719 185.495 190.604  1.00  0.00     0.177 C 
ATOM     24  C   UNL     1      78.772 185.318 188.091  1.00  0.00     0.176 C 
ATOM     25  C   UNL     1      77.985 184.946 189.366  1.00  0.00     0.177 C 
BRANCH  21  26
ATOM     26  O   UNL     1      80.419 183.785 190.956  1.00  0.00    -0.387 OA
ATOM     27  H   UNL     1      81.098 183.759 191.678  1.00  0.00     0.211 HD
ENDBRANCH  21  26
BRANCH  23  28
ATOM     28  O   UNL     1      78.582 186.898 190.632  1.00  0.00    -0.387 OA
ATOM     29  H   UNL     1      79.389 187.279 191.074  1.00  0.00     0.211 HD
ENDBRANCH  23  28
BRANCH  24  30
ATOM     30  C   UNL     1      78.078 184.776 186.831  1.00  0.00     0.191 C 
BRANCH  30  31
ATOM     31  O   UNL     1      76.681 184.776 186.982  1.00  0.00    -0.394 OA
ATOM     32  H   UNL     1      76.319 184.120 186.327  1.00  0.00     0.210 HD
ENDBRANCH  30  31
ENDBRANCH  24  30
BRANCH  25  33
ATOM     33  O   UNL     1      77.843 183.551 189.461  1.00  0.00    -0.388 OA
ATOM     34  H   UNL     1      76.869 183.363 189.456  1.00  0.00     0.211 HD
ENDBRANCH  25  33
ENDBRANCH  11  20
BRANCH  10  35
ATOM     35  O   UNL     1      82.990 187.274 189.699  1.00  0.00    -0.507 OA
ATOM     36  H   UNL     1      83.125 187.712 190.603  1.00  0.00     0.293 HD
ENDBRANCH  10  35
TORSDOF 9
ENDMDL
MODEL 3
REMARK VINA RESULT:    -6.609      2.166      3.379
REMARK INTER + INTRA:         -10.028
REMARK INTER:                  -9.513
REMARK INTRA:                  -0.515
REMARK UNBOUND:                -1.100
REMARK SMILES O=c1c(-c2ccc(O)cc2)coc2c([C@H]3O[C@@H](CO)[C@@H](O)[C@H](O)[C@H]3O)c(O)ccc12
REMARK SMILES IDX 3 1 11 2 12 3 13 4 30 5 2 6 1 7 29 8 28 9 26 10 14 11 4 12
REMARK SMILES IDX 5 13 6 14 7 15 10 16 9 17 8 18 15 20 24 21 16 22 22 23 17 24
REMARK SMILES IDX 20 25 25 26 23 28 18 30 19 31 21 33 27 35
REMARK H PARENT 8 19 25 27 23 29 19 32 21 34 27 36
REMARK Flexibility Score: inf
ROOT
ATOM      1  C   UNL     1      83.636 182.579 188.470  1.00  0.00     0.065 A 
ATOM      2  C   UNL     1      82.766 183.168 189.400  1.00  0.00     0.208 A 
ATOM      3  O   UNL     1      81.534 183.515 189.053  1.00  0.00    -0.463 OA
ATOM      4  C   UNL     1      81.025 183.321 187.835  1.00  0.00     0.147 A 
ATOM      5  C   UNL     1      81.836 182.732 186.835  1.00  0.00     0.066 A 
ATOM      6  C   UNL     1      83.165 182.394 187.153  1.00  0.00     0.200 A 
ATOM      7  O   UNL     1      83.941 181.951 186.260  1.00  0.00    -0.288 OA
ATOM      8  C   UNL     1      81.304 182.498 185.562  1.00  0.00     0.020 A 
ATOM      9  C   UNL     1      79.973 182.800 185.288  1.00  0.00     0.047 A 
ATOM     10  C   UNL     1      79.160 183.386 186.271  1.00  0.00     0.125 A 
ATOM     11  C   UNL     1      79.683 183.697 187.548  1.00  0.00     0.069 A 
ENDROOT
BRANCH   1  12
ATOM     12  C   UNL     1      84.998 182.158 188.895  1.00  0.00    -0.011 A 
ATOM     13  C   UNL     1      85.950 183.117 189.301  1.00  0.00     0.013 A 
ATOM     14  C   UNL     1      87.209 182.715 189.758  1.00  0.00     0.047 A 
ATOM     15  C   UNL     1      87.540 181.358 189.813  1.00  0.00     0.115 A 
ATOM     16  C   UNL     1      85.339 180.791 188.956  1.00  0.00     0.013 A 
ATOM     17  C   UNL     1      86.601 180.394 189.407  1.00  0.00     0.047 A 
BRANCH  15  18
ATOM     18  O   UNL     1      88.796 180.973 190.280  1.00  0.00    -0.508 OA
ATOM     19  H   UNL     1      88.980 180.015 190.574  1.00  0.00     0.293 HD
ENDBRANCH  15  18
ENDBRANCH   1  12
BRANCH  11  20
ATOM     20  C   UNL     1      78.800 184.462 188.544  1.00  0.00     0.188 C 
ATOM     21  C   UNL     1      79.264 185.946 188.650  1.00  0.00     0.179 C 
ATOM     22  O   UNL     1      78.813 183.844 189.825  1.00  0.00    -0.362 OA
ATOM     23  C   UNL     1      78.440 186.716 189.705  1.00  0.00     0.177 C 
ATOM     24  C   UNL     1      77.903 184.470 190.714  1.00  0.00     0.176 C 
ATOM     25  C   UNL     1      78.335 185.920 191.019  1.00  0.00     0.177 C 
BRANCH  21  26
ATOM     26  O   UNL     1      80.646 186.052 188.913  1.00  0.00    -0.387 OA
ATOM     27  H   UNL     1      81.145 185.779 188.100  1.00  0.00     0.211 HD
ENDBRANCH  21  26
BRANCH  23  28
ATOM     28  O   UNL     1      77.141 186.948 189.206  1.00  0.00    -0.387 OA
ATOM     29  H   UNL     1      76.492 186.764 189.938  1.00  0.00     0.211 HD
ENDBRANCH  23  28
BRANCH  24  30
ATOM     30  C   UNL     1      77.799 183.637 192.000  1.00  0.00     0.191 C 
BRANCH  30  31
ATOM     31  O   UNL     1      77.823 184.459 193.140  1.00  0.00    -0.394 OA
ATOM     32  H   UNL     1      77.587 185.378 192.840  1.00  0.00     0.210 HD
ENDBRANCH  30  31
ENDBRANCH  24  30
BRANCH  25  33
ATOM     33  O   UNL     1      79.567 185.929 191.696  1.00  0.00    -0.388 OA
ATOM     34  H   UNL     1      80.202 185.412 191.138  1.00  0.00     0.211 HD
ENDBRANCH  25  33
ENDBRANCH  11  20
BRANCH  10  35
ATOM     35  O   UNL     1      77.823 183.657 185.971  1.00  0.00    -0.507 OA
ATOM     36  H   UNL     1      77.501 183.758 185.015  1.00  0.00     0.293 HD
ENDBRANCH  10  35
TORSDOF 9
ENDMDL
MODEL 4
REMARK VINA RESULT:    -6.510      2.070      8.293
REMARK INTER + INTRA:          -9.893
REMARK INTER:                  -8.890
REMARK INTRA:                  -1.003
REMARK UNBOUND:                -1.100
REMARK SMILES O=c1c(-c2ccc(O)cc2)coc2c([C@H]3O[C@@H](CO)[C@@H](O)[C@H](O)[C@H]3O)c(O)ccc12
REMARK SMILES IDX 3 1 11 2 12 3 13 4 30 5 2 6 1 7 29 8 28 9 26 10 14 11 4 12
REMARK SMILES IDX 5 13 6 14 7 15 10 16 9 17 8 18 15 20 24 21 16 22 22 23 17 24
REMARK SMILES IDX 20 25 25 26 23 28 18 30 19 31 21 33 27 35
REMARK H PARENT 8 19 25 27 23 29 19 32 21 34 27 36
REMARK Flexibility Score: inf
ROOT
ATOM      1  C   UNL     1      79.939 183.985 188.154  1.00  0.00     0.065 A 
ATOM      2  C   UNL     1      80.870 182.987 187.831  1.00  0.00     0.208 A 
ATOM      3  O   UNL     1      82.160 183.150 188.098  1.00  0.00    -0.463 OA
ATOM      4  C   UNL     1      82.661 184.231 188.696  1.00  0.00     0.147 A 
ATOM      5  C   UNL     1      81.790 185.287 189.055  1.00  0.00     0.066 A 
ATOM      6  C   UNL     1      80.422 185.171 188.745  1.00  0.00     0.200 A 
ATOM      7  O   UNL     1      79.633 186.132 188.970  1.00  0.00    -0.288 OA
ATOM      8  C   UNL     1      82.301 186.415 189.708  1.00  0.00     0.020 A 
ATOM      9  C   UNL     1      83.650 186.483 190.044  1.00  0.00     0.047 A 
ATOM     10  C   UNL     1      84.524 185.443 189.691  1.00  0.00     0.125 A 
ATOM     11  C   UNL     1      84.055 184.319 188.973  1.00  0.00     0.069 A 
ENDROOT
BRANCH   1  12
ATOM     12  C   UNL     1      78.493 183.761 187.884  1.00  0.00    -0.011 A 
ATOM     13  C   UNL     1      77.644 183.268 188.897  1.00  0.00     0.013 A 
ATOM     14  C   UNL     1      76.274 183.115 188.661  1.00  0.00     0.047 A 
ATOM     15  C   UNL     1      75.731 183.447 187.415  1.00  0.00     0.115 A 
ATOM     16  C   UNL     1      77.937 184.095 186.632  1.00  0.00     0.013 A 
ATOM     17  C   UNL     1      76.568 183.935 186.397  1.00  0.00     0.047 A 
BRANCH  15  18
ATOM     18  O   UNL     1      74.362 183.299 187.199  1.00  0.00    -0.508 OA
ATOM     19  H   UNL     1      73.832 182.559 187.657  1.00  0.00     0.293 HD
ENDBRANCH  15  18
ENDBRANCH   1  12
BRANCH  11  20
ATOM     20  C   UNL     1      85.069 183.273 188.488  1.00  0.00     0.188 C 
ATOM     21  C   UNL     1      85.130 182.077 189.486  1.00  0.00     0.179 C 
ATOM     22  O   UNL     1      86.360 183.845 188.318  1.00  0.00    -0.362 OA
ATOM     23  C   UNL     1      86.200 181.047 189.061  1.00  0.00     0.177 C 
ATOM     24  C   UNL     1      87.269 182.917 187.752  1.00  0.00     0.176 C 
ATOM     25  C   UNL     1      87.532 181.740 188.716  1.00  0.00     0.177 C 
BRANCH  21  26
ATOM     26  O   UNL     1      85.340 182.504 190.814  1.00  0.00    -0.387 OA
ATOM     27  H   UNL     1      84.578 182.195 191.370  1.00  0.00     0.211 HD
ENDBRANCH  21  26
BRANCH  23  28
ATOM     28  O   UNL     1      85.745 180.341 187.929  1.00  0.00    -0.387 OA
ATOM     29  H   UNL     1      85.812 179.367 188.125  1.00  0.00     0.211 HD
ENDBRANCH  23  28
BRANCH  24  30
ATOM     30  C   UNL     1      88.574 183.644 187.393  1.00  0.00     0.191 C 
BRANCH  30  31
ATOM     31  O   UNL     1      89.689 182.811 187.586  1.00  0.00    -0.394 OA
ATOM     32  H   UNL     1      89.728 182.600 188.558  1.00  0.00     0.210 HD
ENDBRANCH  30  31
ENDBRANCH  24  30
BRANCH  25  33
ATOM     33  O   UNL     1      88.162 182.198 189.885  1.00  0.00    -0.388 OA
ATOM     34  H   UNL     1      88.193 183.187 189.822  1.00  0.00     0.211 HD
ENDBRANCH  25  33
ENDBRANCH  11  20
BRANCH  10  35
ATOM     35  O   UNL     1      85.868 185.533 190.062  1.00  0.00    -0.507 OA
ATOM     36  H   UNL     1      86.364 186.417 190.061  1.00  0.00     0.293 HD
ENDBRANCH  10  35
TORSDOF 9
ENDMDL
MODEL 5
REMARK VINA RESULT:    -6.358      2.268      9.062
REMARK INTER + INTRA:          -9.688
REMARK INTER:                  -8.886
REMARK INTRA:                  -0.802
REMARK UNBOUND:                -1.100
REMARK SMILES O=c1c(-c2ccc(O)cc2)coc2c([C@H]3O[C@@H](CO)[C@@H](O)[C@H](O)[C@H]3O)c(O)ccc12
REMARK SMILES IDX 3 1 11 2 12 3 13 4 30 5 2 6 1 7 29 8 28 9 26 10 14 11 4 12
REMARK SMILES IDX 5 13 6 14 7 15 10 16 9 17 8 18 15 20 24 21 16 22 22 23 17 24
REMARK SMILES IDX 20 25 25 26 23 28 18 30 19 31 21 33 27 35
REMARK H PARENT 8 19 25 27 23 29 19 32 21 34 27 36
REMARK Flexibility Score: inf
ROOT
ATOM      1  C   UNL     1      81.993 183.492 189.120  1.00  0.00     0.065 A 
ATOM      2  C   UNL     1      83.316 183.957 189.155  1.00  0.00     0.208 A 
ATOM      3  O   UNL     1      84.336 183.114 189.058  1.00  0.00    -0.463 OA
ATOM      4  C   UNL     1      84.195 181.797 188.901  1.00  0.00     0.147 A 
ATOM      5  C   UNL     1      82.893 181.244 188.855  1.00  0.00     0.066 A 
ATOM      6  C   UNL     1      81.787 182.102 189.004  1.00  0.00     0.200 A 
ATOM      7  O   UNL     1      80.616 181.629 189.057  1.00  0.00    -0.288 OA
ATOM      8  C   UNL     1      82.733 179.867 188.664  1.00  0.00     0.020 A 
ATOM      9  C   UNL     1      83.843 179.048 188.474  1.00  0.00     0.047 A 
ATOM     10  C   UNL     1      85.138 179.585 188.520  1.00  0.00     0.125 A 
ATOM     11  C   UNL     1      85.340 180.961 188.778  1.00  0.00     0.069 A 
ENDROOT
BRANCH   1  12
ATOM     12  C   UNL     1      80.867 184.461 189.187  1.00  0.00    -0.011 A 
ATOM     13  C   UNL     1      80.768 185.371 190.260  1.00  0.00     0.013 A 
ATOM     14  C   UNL     1      79.742 186.322 190.290  1.00  0.00     0.047 A 
ATOM     15  C   UNL     1      78.801 186.378 189.258  1.00  0.00     0.115 A 
ATOM     16  C   UNL     1      79.915 184.526 188.149  1.00  0.00     0.013 A 
ATOM     17  C   UNL     1      78.887 185.474 188.186  1.00  0.00     0.047 A 
BRANCH  15  18
ATOM     18  O   UNL     1      77.791 187.339 189.298  1.00  0.00    -0.508 OA
ATOM     19  H   UNL     1      77.873 188.167 189.885  1.00  0.00     0.293 HD
ENDBRANCH  15  18
ENDBRANCH   1  12
BRANCH  11  20
ATOM     20  C   UNL     1      86.774 181.479 188.955  1.00  0.00     0.188 C 
ATOM     21  C   UNL     1      87.429 181.744 187.565  1.00  0.00     0.179 C 
ATOM     22  O   UNL     1      87.563 180.568 189.710  1.00  0.00    -0.362 OA
ATOM     23  C   UNL     1      88.900 182.192 187.716  1.00  0.00     0.177 C 
ATOM     24  C   UNL     1      88.849 181.097 189.985  1.00  0.00     0.176 C 
ATOM     25  C   UNL     1      89.665 181.273 188.686  1.00  0.00     0.177 C 
BRANCH  21  26
ATOM     26  O   UNL     1      87.326 180.627 186.709  1.00  0.00    -0.387 OA
ATOM     27  H   UNL     1      86.704 180.852 185.969  1.00  0.00     0.211 HD
ENDBRANCH  21  26
BRANCH  23  28
ATOM     28  O   UNL     1      88.938 183.512 188.210  1.00  0.00    -0.387 OA
ATOM     29  H   UNL     1      89.863 183.695 188.532  1.00  0.00     0.211 HD
ENDBRANCH  23  28
BRANCH  24  30
ATOM     30  C   UNL     1      89.573 180.173 190.977  1.00  0.00     0.191 C 
BRANCH  30  31
ATOM     31  O   UNL     1      90.968 180.314 190.875  1.00  0.00    -0.394 OA
ATOM     32  H   UNL     1      91.168 181.286 190.953  1.00  0.00     0.210 HD
ENDBRANCH  30  31
ENDBRANCH  24  30
BRANCH  25  33
ATOM     33  O   UNL     1      89.906 180.024 188.089  1.00  0.00    -0.388 OA
ATOM     34  H   UNL     1      90.353 180.203 187.223  1.00  0.00     0.211 HD
ENDBRANCH  25  33
ENDBRANCH  11  20
BRANCH  10  35
ATOM     35  O   UNL     1      86.229 178.740 188.304  1.00  0.00    -0.507 OA
ATOM     36  H   UNL     1      86.108 177.772 188.029  1.00  0.00     0.293 HD
ENDBRANCH  10  35
TORSDOF 9
ENDMDL
MODEL 6
REMARK VINA RESULT:    -6.304      1.799      2.012
REMARK INTER + INTRA:          -9.616
REMARK INTER:                  -8.601
REMARK INTRA:                  -1.015
REMARK UNBOUND:                -1.100
REMARK SMILES O=c1c(-c2ccc(O)cc2)coc2c([C@H]3O[C@@H](CO)[C@@H](O)[C@H](O)[C@H]3O)c(O)ccc12
REMARK SMILES IDX 3 1 11 2 12 3 13 4 30 5 2 6 1 7 29 8 28 9 26 10 14 11 4 12
REMARK SMILES IDX 5 13 6 14 7 15 10 16 9 17 8 18 15 20 24 21 16 22 22 23 17 24
REMARK SMILES IDX 20 25 25 26 23 28 18 30 19 31 21 33 27 35
REMARK H PARENT 8 19 25 27 23 29 19 32 21 34 27 36
REMARK Flexibility Score: inf
ROOT
ATOM      1  C   UNL     1      85.004 183.296 188.930  1.00  0.00     0.065 A 
ATOM      2  C   UNL     1      83.997 182.342 188.721  1.00  0.00     0.208 A 
ATOM      3  O   UNL     1      82.717 182.662 188.865  1.00  0.00    -0.463 OA
ATOM      4  C   UNL     1      82.291 183.884 189.188  1.00  0.00     0.147 A 
ATOM      5  C   UNL     1      83.242 184.907 189.417  1.00  0.00     0.066 A 
ATOM      6  C   UNL     1      84.611 184.593 189.320  1.00  0.00     0.200 A 
ATOM      7  O   UNL     1      85.485 185.460 189.606  1.00  0.00    -0.288 OA
ATOM      8  C   UNL     1      82.806 186.200 189.729  1.00  0.00     0.020 A 
ATOM      9  C   UNL     1      81.445 186.493 189.773  1.00  0.00     0.047 A 
ATOM     10  C   UNL     1      80.494 185.486 189.550  1.00  0.00     0.125 A 
ATOM     11  C   UNL     1      80.898 184.154 189.297  1.00  0.00     0.069 A 
ENDROOT
BRANCH   1  12
ATOM     12  C   UNL     1      86.429 182.926 188.720  1.00  0.00    -0.011 A 
ATOM     13  C   UNL     1      87.061 183.180 187.484  1.00  0.00     0.013 A 
ATOM     14  C   UNL     1      88.417 182.886 187.308  1.00  0.00     0.047 A 
ATOM     15  C   UNL     1      89.161 182.333 188.355  1.00  0.00     0.115 A 
ATOM     16  C   UNL     1      87.187 182.370 189.771  1.00  0.00     0.013 A 
ATOM     17  C   UNL     1      88.541 182.071 189.589  1.00  0.00     0.047 A 
BRANCH  15  18
ATOM     18  O   UNL     1      90.514 182.055 188.167  1.00  0.00    -0.508 OA
ATOM     19  H   UNL     1      90.818 181.311 187.541  1.00  0.00     0.293 HD
ENDBRANCH  15  18
ENDBRANCH   1  12
BRANCH  11  20
ATOM     20  C   UNL     1      79.826 183.060 189.196  1.00  0.00     0.188 C 
ATOM     21  C   UNL     1      79.215 183.033 187.761  1.00  0.00     0.179 C 
ATOM     22  O   UNL     1      78.804 183.247 190.168  1.00  0.00    -0.362 OA
ATOM     23  C   UNL     1      78.078 181.993 187.657  1.00  0.00     0.177 C 
ATOM     24  C   UNL     1      77.880 182.173 190.163  1.00  0.00     0.176 C 
ATOM     25  C   UNL     1      77.094 182.123 188.834  1.00  0.00     0.177 C 
BRANCH  21  26
ATOM     26  O   UNL     1      78.772 184.308 187.349  1.00  0.00    -0.387 OA
ATOM     27  H   UNL     1      78.099 184.635 188.001  1.00  0.00     0.211 HD
ENDBRANCH  21  26
BRANCH  23  28
ATOM     28  O   UNL     1      78.630 180.695 187.664  1.00  0.00    -0.387 OA
ATOM     29  H   UNL     1      79.437 180.699 187.080  1.00  0.00     0.211 HD
ENDBRANCH  23  28
BRANCH  24  30
ATOM     30  C   UNL     1      76.933 182.317 191.365  1.00  0.00     0.191 C 
BRANCH  30  31
ATOM     31  O   UNL     1      75.728 181.627 191.146  1.00  0.00    -0.394 OA
ATOM     32  H   UNL     1      75.723 180.848 191.764  1.00  0.00     0.210 HD
ENDBRANCH  30  31
ENDBRANCH  24  30
BRANCH  25  33
ATOM     33  O   UNL     1      76.309 183.279 188.690  1.00  0.00    -0.388 OA
ATOM     34  H   UNL     1      76.774 184.003 189.180  1.00  0.00     0.211 HD
ENDBRANCH  25  33
ENDBRANCH  11  20
BRANCH  10  35
ATOM     35  O   UNL     1      79.137 185.817 189.580  1.00  0.00    -0.507 OA
ATOM     36  H   UNL     1      78.414 185.112 189.493  1.00  0.00     0.293 HD
ENDBRANCH  10  35
TORSDOF 9
ENDMDL
MODEL 7
REMARK VINA RESULT:    -6.223      2.043      3.470
REMARK INTER + INTRA:          -9.506
REMARK INTER:                  -9.334
REMARK INTRA:                  -0.173
REMARK UNBOUND:                -1.100
REMARK SMILES O=c1c(-c2ccc(O)cc2)coc2c([C@H]3O[C@@H](CO)[C@@H](O)[C@H](O)[C@H]3O)c(O)ccc12
REMARK SMILES IDX 3 1 11 2 12 3 13 4 30 5 2 6 1 7 29 8 28 9 26 10 14 11 4 12
REMARK SMILES IDX 5 13 6 14 7 15 10 16 9 17 8 18 15 20 24 21 16 22 22 23 17 24
REMARK SMILES IDX 20 25 25 26 23 28 18 30 19 31 21 33 27 35
REMARK H PARENT 8 19 25 27 23 29 19 32 21 34 27 36
REMARK Flexibility Score: inf
ROOT
ATOM      1  C   UNL     1      84.898 182.709 188.271  1.00  0.00     0.065 A 
ATOM      2  C   UNL     1      84.186 183.528 189.159  1.00  0.00     0.208 A 
ATOM      3  O   UNL     1      82.913 183.829 188.934  1.00  0.00    -0.463 OA
ATOM      4  C   UNL     1      82.219 183.376 187.889  1.00  0.00     0.147 A 
ATOM      5  C   UNL     1      82.862 182.543 186.943  1.00  0.00     0.066 A 
ATOM      6  C   UNL     1      84.225 182.241 187.123  1.00  0.00     0.200 A 
ATOM      7  O   UNL     1      84.851 181.575 186.250  1.00  0.00    -0.288 OA
ATOM      8  C   UNL     1      82.136 182.039 185.858  1.00  0.00     0.020 A 
ATOM      9  C   UNL     1      80.777 182.317 185.730  1.00  0.00     0.047 A 
ATOM     10  C   UNL     1      80.130 183.143 186.660  1.00  0.00     0.125 A 
ATOM     11  C   UNL     1      80.847 183.723 187.732  1.00  0.00     0.069 A 
ENDROOT
BRANCH   1  12
ATOM     12  C   UNL     1      86.310 182.350 188.567  1.00  0.00    -0.011 A 
ATOM     13  C   UNL     1      86.612 181.207 189.338  1.00  0.00     0.013 A 
ATOM     14  C   UNL     1      87.942 180.837 189.564  1.00  0.00     0.047 A 
ATOM     15  C   UNL     1      88.988 181.599 189.033  1.00  0.00     0.115 A 
ATOM     16  C   UNL     1      87.371 183.112 188.034  1.00  0.00     0.013 A 
ATOM     17  C   UNL     1      88.699 182.743 188.269  1.00  0.00     0.047 A 
BRANCH  15  18
ATOM     18  O   UNL     1      90.307 181.211 189.261  1.00  0.00    -0.508 OA
ATOM     19  H   UNL     1      90.613 180.254 189.091  1.00  0.00     0.293 HD
ENDBRANCH  15  18
ENDBRANCH   1  12
BRANCH  11  20
ATOM     20  C   UNL     1      80.131 184.729 188.645  1.00  0.00     0.188 C 
ATOM     21  C   UNL     1      80.601 184.548 190.121  1.00  0.00     0.179 C 
ATOM     22  O   UNL     1      78.718 184.595 188.553  1.00  0.00    -0.362 OA
ATOM     23  C   UNL     1      79.836 185.496 191.072  1.00  0.00     0.177 C 
ATOM     24  C   UNL     1      78.051 185.602 189.295  1.00  0.00     0.176 C 
ATOM     25  C   UNL     1      78.320 185.445 190.808  1.00  0.00     0.177 C 
BRANCH  21  26
ATOM     26  O   UNL     1      80.494 183.208 190.551  1.00  0.00    -0.387 OA
ATOM     27  H   UNL     1      79.612 183.086 190.990  1.00  0.00     0.211 HD
ENDBRANCH  21  26
BRANCH  23  28
ATOM     28  O   UNL     1      80.290 186.817 190.878  1.00  0.00    -0.387 OA
ATOM     29  H   UNL     1      81.183 186.776 190.439  1.00  0.00     0.211 HD
ENDBRANCH  23  28
BRANCH  24  30
ATOM     30  C   UNL     1      76.547 185.543 188.987  1.00  0.00     0.191 C 
BRANCH  30  31
ATOM     31  O   UNL     1      76.313 185.022 187.703  1.00  0.00    -0.394 OA
ATOM     32  H   UNL     1      76.116 184.053 187.815  1.00  0.00     0.210 HD
ENDBRANCH  30  31
ENDBRANCH  24  30
BRANCH  25  33
ATOM     33  O   UNL     1      77.782 184.233 191.274  1.00  0.00    -0.388 OA
ATOM     34  H   UNL     1      77.428 183.755 190.482  1.00  0.00     0.211 HD
ENDBRANCH  25  33
ENDBRANCH  11  20
BRANCH  10  35
ATOM     35  O   UNL     1      78.761 183.384 186.515  1.00  0.00    -0.507 OA
ATOM     36  H   UNL     1      78.071 182.662 186.686  1.00  0.00     0.293 HD
ENDBRANCH  10  35
TORSDOF 9
ENDMDL
MODEL 8
REMARK VINA RESULT:    -6.164      2.083      8.503
REMARK INTER + INTRA:          -9.426
REMARK INTER:                  -8.314
REMARK INTRA:                  -1.112
REMARK UNBOUND:                -1.100
REMARK SMILES O=c1c(-c2ccc(O)cc2)coc2c([C@H]3O[C@@H](CO)[C@@H](O)[C@H](O)[C@H]3O)c(O)ccc12
REMARK SMILES IDX 3 1 11 2 12 3 13 4 30 5 2 6 1 7 29 8 28 9 26 10 14 11 4 12
REMARK SMILES IDX 5 13 6 14 7 15 10 16 9 17 8 18 15 20 24 21 16 22 22 23 17 24
REMARK SMILES IDX 20 25 25 26 23 28 18 30 19 31 21 33 27 35
REMARK H PARENT 8 19 25 27 23 29 19 32 21 34 27 36
REMARK Flexibility Score: inf
ROOT
ATOM      1  C   UNL     1      81.398 184.641 189.476  1.00  0.00     0.065 A 
ATOM      2  C   UNL     1      81.456 183.374 188.877  1.00  0.00     0.208 A 
ATOM      3  O   UNL     1      82.621 182.831 188.548  1.00  0.00    -0.463 OA
ATOM      4  C   UNL     1      83.799 183.415 188.770  1.00  0.00     0.147 A 
ATOM      5  C   UNL     1      83.831 184.696 189.372  1.00  0.00     0.066 A 
ATOM      6  C   UNL     1      82.612 185.324 189.692  1.00  0.00     0.200 A 
ATOM      7  O   UNL     1      82.603 186.503 190.146  1.00  0.00    -0.288 OA
ATOM      8  C   UNL     1      85.063 185.306 189.636  1.00  0.00     0.020 A 
ATOM      9  C   UNL     1      86.253 184.642 189.351  1.00  0.00     0.047 A 
ATOM     10  C   UNL     1      86.234 183.373 188.753  1.00  0.00     0.125 A 
ATOM     11  C   UNL     1      85.008 182.755 188.412  1.00  0.00     0.069 A 
ENDROOT
BRANCH   1  12
ATOM     12  C   UNL     1      80.083 185.210 189.877  1.00  0.00    -0.011 A 
ATOM     13  C   UNL     1      79.557 184.962 191.162  1.00  0.00     0.013 A 
ATOM     14  C   UNL     1      78.349 185.547 191.558  1.00  0.00     0.047 A 
ATOM     15  C   UNL     1      77.648 186.381 190.682  1.00  0.00     0.115 A 
ATOM     16  C   UNL     1      79.370 186.054 189.000  1.00  0.00     0.013 A 
ATOM     17  C   UNL     1      78.160 186.631 189.397  1.00  0.00     0.047 A 
BRANCH  15  18
ATOM     18  O   UNL     1      76.451 186.964 191.096  1.00  0.00    -0.508 OA
ATOM     19  H   UNL     1      76.382 187.450 191.988  1.00  0.00     0.293 HD
ENDBRANCH  15  18
ENDBRANCH   1  12
BRANCH  11  20
ATOM     20  C   UNL     1      85.037 181.430 187.635  1.00  0.00     0.188 C 
ATOM     21  C   UNL     1      85.058 180.225 188.624  1.00  0.00     0.179 C 
ATOM     22  O   UNL     1      86.152 181.372 186.755  1.00  0.00    -0.362 OA
ATOM     23  C   UNL     1      85.167 178.883 187.868  1.00  0.00     0.177 C 
ATOM     24  C   UNL     1      86.115 180.209 185.946  1.00  0.00     0.176 C 
ATOM     25  C   UNL     1      86.276 178.933 186.801  1.00  0.00     0.177 C 
BRANCH  21  26
ATOM     26  O   UNL     1      86.084 180.347 189.586  1.00  0.00    -0.387 OA
ATOM     27  H   UNL     1      85.673 180.575 190.460  1.00  0.00     0.211 HD
ENDBRANCH  21  26
BRANCH  23  28
ATOM     28  O   UNL     1      83.937 178.602 187.237  1.00  0.00    -0.387 OA
ATOM     29  H   UNL     1      83.446 179.460 187.122  1.00  0.00     0.211 HD
ENDBRANCH  23  28
BRANCH  24  30
ATOM     30  C   UNL     1      87.213 180.304 184.875  1.00  0.00     0.191 C 
BRANCH  30  31
ATOM     31  O   UNL     1      88.353 180.956 185.375  1.00  0.00    -0.394 OA
ATOM     32  H   UNL     1      89.085 180.807 184.716  1.00  0.00     0.210 HD
ENDBRANCH  30  31
ENDBRANCH  24  30
BRANCH  25  33
ATOM     33  O   UNL     1      87.542 178.911 187.410  1.00  0.00    -0.388 OA
ATOM     34  H   UNL     1      87.423 179.270 188.326  1.00  0.00     0.211 HD
ENDBRANCH  25  33
ENDBRANCH  11  20
BRANCH  10  35
ATOM     35  O   UNL     1      87.445 182.725 188.500  1.00  0.00    -0.507 OA
ATOM     36  H   UNL     1      87.709 182.433 187.565  1.00  0.00     0.293 HD
ENDBRANCH  10  35
TORSDOF 9
ENDMDL
MODEL 9
REMARK VINA RESULT:    -6.127      2.242      3.177
REMARK INTER + INTRA:          -9.377
REMARK INTER:                  -8.318
REMARK INTRA:                  -1.059
REMARK UNBOUND:                -1.100
REMARK SMILES O=c1c(-c2ccc(O)cc2)coc2c([C@H]3O[C@@H](CO)[C@@H](O)[C@H](O)[C@H]3O)c(O)ccc12
REMARK SMILES IDX 3 1 11 2 12 3 13 4 30 5 2 6 1 7 29 8 28 9 26 10 14 11 4 12
REMARK SMILES IDX 5 13 6 14 7 15 10 16 9 17 8 18 15 20 24 21 16 22 22 23 17 24
REMARK SMILES IDX 20 25 25 26 23 28 18 30 19 31 21 33 27 35
REMARK H PARENT 8 19 25 27 23 29 19 32 21 34 27 36
REMARK Flexibility Score: inf
ROOT
ATOM      1  C   UNL     1      83.527 183.220 189.269  1.00  0.00     0.065 A 
ATOM      2  C   UNL     1      82.704 182.089 189.371  1.00  0.00     0.208 A 
ATOM      3  O   UNL     1      81.394 182.216 189.538  1.00  0.00    -0.463 OA
ATOM      4  C   UNL     1      80.765 183.390 189.600  1.00  0.00     0.147 A 
ATOM      5  C   UNL     1      81.521 184.583 189.506  1.00  0.00     0.066 A 
ATOM      6  C   UNL     1      82.921 184.489 189.376  1.00  0.00     0.200 A 
ATOM      7  O   UNL     1      83.633 185.532 189.380  1.00  0.00    -0.288 OA
ATOM      8  C   UNL     1      80.870 185.820 189.542  1.00  0.00     0.020 A 
ATOM      9  C   UNL     1      79.481 185.883 189.625  1.00  0.00     0.047 A 
ATOM     10  C   UNL     1      78.721 184.708 189.721  1.00  0.00     0.125 A 
ATOM     11  C   UNL     1      79.351 183.442 189.754  1.00  0.00     0.069 A 
ENDROOT
BRANCH   1  12
ATOM     12  C   UNL     1      84.987 183.053 189.038  1.00  0.00    -0.011 A 
ATOM     13  C   UNL     1      85.881 182.978 190.127  1.00  0.00     0.013 A 
ATOM     14  C   UNL     1      87.245 182.760 189.910  1.00  0.00     0.047 A 
ATOM     15  C   UNL     1      87.739 182.618 188.609  1.00  0.00     0.115 A 
ATOM     16  C   UNL     1      85.493 182.907 187.730  1.00  0.00     0.013 A 
ATOM     17  C   UNL     1      86.859 182.697 187.516  1.00  0.00     0.047 A 
BRANCH  15  18
ATOM     18  O   UNL     1      89.101 182.392 188.410  1.00  0.00    -0.508 OA
ATOM     19  H   UNL     1      89.447 181.480 188.116  1.00  0.00     0.293 HD
ENDBRANCH  15  18
ENDBRANCH   1  12
BRANCH  11  20
ATOM     20  C   UNL     1      78.492 182.193 189.998  1.00  0.00     0.188 C 
ATOM     21  C   UNL     1      77.900 181.673 188.653  1.00  0.00     0.179 C 
ATOM     22  O   UNL     1      77.452 182.456 190.932  1.00  0.00    -0.362 OA
ATOM     23  C   UNL     1      76.968 180.463 188.882  1.00  0.00     0.177 C 
ATOM     24  C   UNL     1      76.735 181.277 191.256  1.00  0.00     0.176 C 
ATOM     25  C   UNL     1      75.974 180.735 190.027  1.00  0.00     0.177 C 
BRANCH  21  26
ATOM     26  O   UNL     1      77.236 182.692 187.937  1.00  0.00    -0.387 OA
ATOM     27  H   UNL     1      77.018 183.429 188.565  1.00  0.00     0.211 HD
ENDBRANCH  21  26
BRANCH  23  28
ATOM     28  O   UNL     1      77.744 179.332 189.209  1.00  0.00    -0.387 OA
ATOM     29  H   UNL     1      78.325 179.569 189.982  1.00  0.00     0.211 HD
ENDBRANCH  23  28
BRANCH  24  30
ATOM     30  C   UNL     1      75.775 181.574 192.419  1.00  0.00     0.191 C 
BRANCH  30  31
ATOM     31  O   UNL     1      74.599 180.812 192.312  1.00  0.00    -0.394 OA
ATOM     32  H   UNL     1      74.391 180.734 191.342  1.00  0.00     0.210 HD
ENDBRANCH  30  31
ENDBRANCH  24  30
BRANCH  25  33
ATOM     33  O   UNL     1      74.994 181.654 189.616  1.00  0.00    -0.388 OA
ATOM     34  H   UNL     1      75.377 182.558 189.753  1.00  0.00     0.211 HD
ENDBRANCH  25  33
ENDBRANCH  11  20
BRANCH  10  35
ATOM     35  O   UNL     1      77.329 184.805 189.781  1.00  0.00    -0.507 OA
ATOM     36  H   UNL     1      76.863 185.687 189.961  1.00  0.00     0.293 HD
ENDBRANCH  10  35
TORSDOF 9
ENDMDL
