MODEL 1
REMARK VINA RESULT:    -1.589      0.000      0.000
REMARK INTER + INTRA:          -1.973
REMARK INTER:                  -1.868
REMARK INTRA:                  -0.106
REMARK UNBOUND:                -0.106
REMARK SMILES O=C([O-])CCC(=O)[O-]
REMARK SMILES IDX 4 1 2 2 1 3 3 4 5 5 6 6 7 7 8 8
REMARK H PARENT
REMARK Flexibility Score: inf
ROOT
ATOM      1  C   UNL     1     173.637 177.810 198.118  1.00  0.00     0.059 C 
ENDROOT
BRANCH   1   2
ATOM      2  C   UNL     1     172.521 178.241 199.021  1.00  0.00     0.042 C 
ATOM      3  O   UNL     1     172.243 179.462 199.148  1.00  0.00    -0.550 OA
ATOM      4  O   UNL     1     171.817 177.295 199.754  1.00  0.00    -0.550 OA
ENDBRANCH   1   2
BRANCH   1   5
ATOM      5  C   UNL     1     173.139 176.875 197.012  1.00  0.00     0.059 C 
BRANCH   5   6
ATOM      6  C   UNL     1     172.831 177.626 195.753  1.00  0.00     0.042 C 
ATOM      7  O   UNL     1     172.331 177.028 194.764  1.00  0.00    -0.550 OA
ATOM      8  O   UNL     1     173.131 178.979 195.659  1.00  0.00    -0.550 OA
ENDBRANCH   5   6
ENDBRANCH   1   5
TORSDOF 3
ENDMDL
MODEL 2
REMARK VINA RESULT:    -1.582      0.380      3.701
REMARK INTER + INTRA:          -1.965
REMARK INTER:                  -1.848
REMARK INTRA:                  -0.118
REMARK UNBOUND:                -0.106
REMARK SMILES O=C([O-])CCC(=O)[O-]
REMARK SMILES IDX 4 1 2 2 1 3 3 4 5 5 6 6 7 7 8 8
REMARK H PARENT
REMARK Flexibility Score: inf
ROOT
ATOM      1  C   UNL     1     173.046 176.903 197.109  1.00  0.00     0.059 C 
ENDROOT
BRANCH   1   2
ATOM      2  C   UNL     1     173.012 177.861 195.957  1.00  0.00     0.042 C 
ATOM      3  O   UNL     1     172.529 177.505 194.850  1.00  0.00    -0.550 OA
ATOM      4  O   UNL     1     173.551 179.133 196.096  1.00  0.00    -0.550 OA
ENDBRANCH   1   2
BRANCH   1   5
ATOM      5  C   UNL     1     173.510 177.587 198.398  1.00  0.00     0.059 C 
BRANCH   5   6
ATOM      6  C   UNL     1     172.350 178.070 199.214  1.00  0.00     0.042 C 
ATOM      7  O   UNL     1     171.612 177.247 199.815  1.00  0.00    -0.550 OA
ATOM      8  O   UNL     1     172.062 179.427 199.277  1.00  0.00    -0.550 OA
ENDBRANCH   5   6
ENDBRANCH   1   5
TORSDOF 3
ENDMDL
MODEL 3
REMARK VINA RESULT:    -1.529      0.668      3.710
REMARK INTER + INTRA:          -1.903
REMARK INTER:                  -1.813
REMARK INTRA:                  -0.090
REMARK UNBOUND:                -0.106
REMARK SMILES O=C([O-])CCC(=O)[O-]
REMARK SMILES IDX 4 1 2 2 1 3 3 4 5 5 6 6 7 7 8 8
REMARK H PARENT
REMARK Flexibility Score: inf
ROOT
ATOM      1  C   UNL     1     173.787 178.150 196.918  1.00  0.00     0.059 C 
ENDROOT
BRANCH   1   2
ATOM      2  C   UNL     1     173.006 178.079 195.641  1.00  0.00     0.042 C 
ATOM      3  O   UNL     1     172.929 179.086 194.889  1.00  0.00    -0.550 OA
ATOM      4  O   UNL     1     172.329 176.915 195.304  1.00  0.00    -0.550 OA
ENDBRANCH   1   2
BRANCH   1   5
ATOM      5  C   UNL     1     173.202 177.224 197.989  1.00  0.00     0.059 C 
BRANCH   5   6
ATOM      6  C   UNL     1     172.378 177.984 198.983  1.00  0.00     0.042 C 
ATOM      7  O   UNL     1     172.374 179.243 198.974  1.00  0.00    -0.550 OA
ATOM      8  O   UNL     1     171.645 177.301 199.945  1.00  0.00    -0.550 OA
ENDBRANCH   5   6
ENDBRANCH   1   5
TORSDOF 3
ENDMDL
MODEL 4
REMARK VINA RESULT:    -1.449      2.421      3.635
REMARK INTER + INTRA:          -1.808
REMARK INTER:                  -1.694
REMARK INTRA:                  -0.114
REMARK UNBOUND:                -0.106
REMARK SMILES O=C([O-])CCC(=O)[O-]
REMARK SMILES IDX 4 1 2 2 1 3 3 4 5 5 6 6 7 7 8 8
REMARK H PARENT
REMARK Flexibility Score: inf
ROOT
ATOM      1  C   UNL     1     173.275 176.939 194.446  1.00  0.00     0.059 C 
ENDROOT
BRANCH   1   2
ATOM      2  C   UNL     1     173.122 177.644 195.759  1.00  0.00     0.042 C 
ATOM      3  O   UNL     1     173.185 178.901 195.815  1.00  0.00    -0.550 OA
ATOM      4  O   UNL     1     172.953 176.911 196.926  1.00  0.00    -0.550 OA
ENDBRANCH   1   2
BRANCH   1   5
ATOM      5  C   UNL     1     171.948 176.876 193.683  1.00  0.00     0.059 C 
BRANCH   5   6
ATOM      6  C   UNL     1     172.000 177.682 192.421  1.00  0.00     0.042 C 
ATOM      7  O   UNL     1     171.961 178.939 192.470  1.00  0.00    -0.550 OA
ATOM      8  O   UNL     1     172.052 177.043 191.189  1.00  0.00    -0.550 OA
ENDBRANCH   5   6
ENDBRANCH   1   5
TORSDOF 3
ENDMDL
MODEL 5
REMARK VINA RESULT:    -1.403      1.484      3.646
REMARK INTER + INTRA:          -1.754
REMARK INTER:                  -1.633
REMARK INTRA:                  -0.121
REMARK UNBOUND:                -0.106
REMARK SMILES O=C([O-])CCC(=O)[O-]
REMARK SMILES IDX 4 1 2 2 1 3 3 4 5 5 6 6 7 7 8 8
REMARK H PARENT
REMARK Flexibility Score: inf
ROOT
ATOM      1  C   UNL     1     173.801 179.438 197.343  1.00  0.00     0.059 C 
ENDROOT
BRANCH   1   2
ATOM      2  C   UNL     1     173.165 179.404 195.986  1.00  0.00     0.042 C 
ATOM      3  O   UNL     1     172.858 180.477 195.403  1.00  0.00    -0.550 OA
ATOM      4  O   UNL     1     172.875 178.187 195.386  1.00  0.00    -0.550 OA
ENDBRANCH   1   2
BRANCH   1   5
ATOM      5  C   UNL     1     172.768 179.229 198.455  1.00  0.00     0.059 C 
BRANCH   5   6
ATOM      6  C   UNL     1     172.758 177.811 198.938  1.00  0.00     0.042 C 
ATOM      7  O   UNL     1     173.672 177.018 198.593  1.00  0.00    -0.550 OA
ATOM      8  O   UNL     1     171.717 177.357 199.738  1.00  0.00    -0.550 OA
ENDBRANCH   5   6
ENDBRANCH   1   5
TORSDOF 3
ENDMDL
MODEL 6
REMARK VINA RESULT:    -1.402      2.085      4.530
REMARK INTER + INTRA:          -1.753
REMARK INTER:                  -1.643
REMARK INTRA:                  -0.110
REMARK UNBOUND:                -0.106
REMARK SMILES O=C([O-])CCC(=O)[O-]
REMARK SMILES IDX 4 1 2 2 1 3 3 4 5 5 6 6 7 7 8 8
REMARK H PARENT
REMARK Flexibility Score: inf
ROOT
ATOM      1  C   UNL     1     173.397 177.745 194.003  1.00  0.00     0.059 C 
ENDROOT
BRANCH   1   2
ATOM      2  C   UNL     1     172.517 178.586 193.129  1.00  0.00     0.042 C 
ATOM      3  O   UNL     1     171.876 178.060 192.182  1.00  0.00    -0.550 OA
ATOM      4  O   UNL     1     172.437 179.956 193.336  1.00  0.00    -0.550 OA
ENDBRANCH   1   2
BRANCH   1   5
ATOM      5  C   UNL     1     172.601 177.070 195.124  1.00  0.00     0.059 C 
BRANCH   5   6
ATOM      6  C   UNL     1     172.927 177.657 196.462  1.00  0.00     0.042 C 
ATOM      7  O   UNL     1     172.953 176.926 197.486  1.00  0.00    -0.550 OA
ATOM      8  O   UNL     1     173.165 179.020 196.584  1.00  0.00    -0.550 OA
ENDBRANCH   5   6
ENDBRANCH   1   5
TORSDOF 3
ENDMDL
MODEL 7
REMARK VINA RESULT:    -1.350      1.213      1.994
REMARK INTER + INTRA:          -1.693
REMARK INTER:                  -1.578
REMARK INTRA:                  -0.115
REMARK UNBOUND:                -0.106
REMARK SMILES O=C([O-])CCC(=O)[O-]
REMARK SMILES IDX 4 1 2 2 1 3 3 4 5 5 6 6 7 7 8 8
REMARK H PARENT
REMARK Flexibility Score: inf
ROOT
ATOM      1  C   UNL     1     173.099 176.875 197.063  1.00  0.00     0.059 C 
ENDROOT
BRANCH   1   2
ATOM      2  C   UNL     1     173.239 177.566 198.386  1.00  0.00     0.042 C 
ATOM      3  O   UNL     1     172.322 177.485 199.244  1.00  0.00    -0.550 OA
ATOM      4  O   UNL     1     174.365 178.334 198.652  1.00  0.00    -0.550 OA
ENDBRANCH   1   2
BRANCH   1   5
ATOM      5  C   UNL     1     173.957 177.542 195.984  1.00  0.00     0.059 C 
BRANCH   5   6
ATOM      6  C   UNL     1     173.155 178.502 195.159  1.00  0.00     0.042 C 
ATOM      7  O   UNL     1     172.960 179.678 195.565  1.00  0.00    -0.550 OA
ATOM      8  O   UNL     1     172.591 178.086 193.960  1.00  0.00    -0.550 OA
ENDBRANCH   5   6
ENDBRANCH   1   5
TORSDOF 3
ENDMDL
MODEL 8
REMARK VINA RESULT:    -1.337      2.464      3.774
REMARK INTER + INTRA:          -1.676
REMARK INTER:                  -1.563
REMARK INTRA:                  -0.114
REMARK UNBOUND:                -0.106
REMARK SMILES O=C([O-])CCC(=O)[O-]
REMARK SMILES IDX 4 1 2 2 1 3 3 4 5 5 6 6 7 7 8 8
REMARK H PARENT
REMARK Flexibility Score: inf
ROOT
ATOM      1  C   UNL     1     173.782 178.969 195.162  1.00  0.00     0.059 C 
ENDROOT
BRANCH   1   2
ATOM      2  C   UNL     1     172.981 177.820 195.696  1.00  0.00     0.042 C 
ATOM      3  O   UNL     1     172.274 177.126 194.919  1.00  0.00    -0.550 OA
ATOM      4  O   UNL     1     172.984 177.544 197.056  1.00  0.00    -0.550 OA
ENDBRANCH   1   2
BRANCH   1   5
ATOM      5  C   UNL     1     173.115 180.313 195.471  1.00  0.00     0.059 C 
BRANCH   5   6
ATOM      6  C   UNL     1     172.427 180.876 194.265  1.00  0.00     0.042 C 
ATOM      7  O   UNL     1     171.731 181.920 194.362  1.00  0.00    -0.550 OA
ATOM      8  O   UNL     1     172.523 180.224 193.042  1.00  0.00    -0.550 OA
ENDBRANCH   5   6
ENDBRANCH   1   5
TORSDOF 3
ENDMDL
