MODEL 1
REMARK VINA RESULT:    -3.800      0.000      0.000
REMARK INTER + INTRA:          -6.606
REMARK INTER:                  -6.022
REMARK INTRA:                  -0.584
REMARK UNBOUND:                -0.584
REMARK SMILES CCCCCCCCCCCC(=O)[O-]
REMARK SMILES IDX 7 1 8 2 9 3 10 4 11 5 12 6 13 7 14 8 6 9 5 10 4 11 3 12 2 13
REMARK SMILES IDX 1 14
REMARK H PARENT
REMARK Flexibility Score: inf
ROOT
ATOM      1  C   UNL     1       8.929   4.586   9.766  1.00  0.00     0.000 C 
ENDROOT
BRANCH   1   2
ATOM      2  C   UNL     1       7.552   3.906   9.793  1.00  0.00     0.000 C 
BRANCH   2   3
ATOM      3  C   UNL     1       7.648   2.373   9.875  1.00  0.00     0.000 C 
BRANCH   3   4
ATOM      4  C   UNL     1       6.336   1.676   9.473  1.00  0.00     0.006 C 
BRANCH   4   5
ATOM      5  C   UNL     1       5.558   2.473   8.417  1.00  0.00     0.053 C 
BRANCH   5   6
ATOM      6  C   UNL     1       4.829   1.576   7.465  1.00  0.00     0.041 C 
ATOM      7  O   UNL     1       5.249   0.409   7.246  1.00  0.00    -0.550 OA
ATOM      8  O   UNL     1       3.669   2.016   6.841  1.00  0.00    -0.550 OA
ENDBRANCH   5   6
ENDBRANCH   4   5
ENDBRANCH   3   4
ENDBRANCH   2   3
ENDBRANCH   1   2
BRANCH   1   9
ATOM      9  C   UNL     1       8.784   6.115   9.731  1.00  0.00     0.000 C 
BRANCH   9  10
ATOM     10  C   UNL     1       8.938   6.694   8.315  1.00  0.00    -0.000 C 
BRANCH  10  11
ATOM     11  C   UNL     1      10.203   7.552   8.163  1.00  0.00    -0.000 C 
BRANCH  11  12
ATOM     12  C   UNL     1      11.452   6.671   8.049  1.00  0.00    -0.000 C 
BRANCH  12  13
ATOM     13  C   UNL     1      12.598   7.230   8.901  1.00  0.00    -0.003 C 
ATOM     14  C   UNL     1      12.065   8.084  10.049  1.00  0.00     0.004 C 
ENDBRANCH  12  13
ENDBRANCH  11  12
ENDBRANCH  10  11
ENDBRANCH   9  10
ENDBRANCH   1   9
TORSDOF 10
ENDMDL
MODEL 2
REMARK VINA RESULT:    -3.556      5.412      7.185
REMARK INTER + INTRA:          -6.219
REMARK INTER:                  -5.616
REMARK INTRA:                  -0.603
REMARK UNBOUND:                -0.584
REMARK SMILES CCCCCCCCCCCC(=O)[O-]
REMARK SMILES IDX 7 1 8 2 9 3 10 4 11 5 12 6 13 7 14 8 6 9 5 10 4 11 3 12 2 13
REMARK SMILES IDX 1 14
REMARK H PARENT
REMARK Flexibility Score: inf
ROOT
ATOM      1  C   UNL     1       8.058   9.009   9.417  1.00  0.00     0.000 C 
ENDROOT
BRANCH   1   2
ATOM      2  C   UNL     1       7.199  10.282   9.469  1.00  0.00     0.000 C 
BRANCH   2   3
ATOM      3  C   UNL     1       6.839  10.813   8.072  1.00  0.00     0.000 C 
BRANCH   3   4
ATOM      4  C   UNL     1       6.034  12.124   8.127  1.00  0.00     0.006 C 
BRANCH   4   5
ATOM      5  C   UNL     1       4.521  11.877   8.055  1.00  0.00     0.053 C 
BRANCH   5   6
ATOM      6  C   UNL     1       3.981  12.111   6.679  1.00  0.00     0.041 C 
ATOM      7  O   UNL     1       3.988  11.182   5.829  1.00  0.00    -0.550 OA
ATOM      8  O   UNL     1       3.444  13.347   6.342  1.00  0.00    -0.550 OA
ENDBRANCH   5   6
ENDBRANCH   4   5
ENDBRANCH   3   4
ENDBRANCH   2   3
ENDBRANCH   1   2
BRANCH   1   9
ATOM      9  C   UNL     1       8.741   8.866   8.048  1.00  0.00     0.000 C 
BRANCH   9  10
ATOM     10  C   UNL     1       9.135   7.414   7.730  1.00  0.00    -0.000 C 
BRANCH  10  11
ATOM     11  C   UNL     1       9.009   6.487   8.948  1.00  0.00    -0.000 C 
BRANCH  11  12
ATOM     12  C   UNL     1      10.364   5.866   9.305  1.00  0.00    -0.000 C 
BRANCH  12  13
ATOM     13  C   UNL     1      11.480   6.434   8.419  1.00  0.00    -0.003 C 
ATOM     14  C   UNL     1      12.845   6.274   9.083  1.00  0.00     0.004 C 
ENDBRANCH  12  13
ENDBRANCH  11  12
ENDBRANCH  10  11
ENDBRANCH   9  10
ENDBRANCH   1   9
TORSDOF 10
ENDMDL
MODEL 3
REMARK VINA RESULT:    -3.502      1.360      2.500
REMARK INTER + INTRA:          -6.134
REMARK INTER:                  -5.553
REMARK INTRA:                  -0.581
REMARK UNBOUND:                -0.584
REMARK SMILES CCCCCCCCCCCC(=O)[O-]
REMARK SMILES IDX 7 1 8 2 9 3 10 4 11 5 12 6 13 7 14 8 6 9 5 10 4 11 3 12 2 13
REMARK SMILES IDX 1 14
REMARK H PARENT
REMARK Flexibility Score: inf
ROOT
ATOM      1  C   UNL     1       6.731   3.631   9.204  1.00  0.00     0.000 C 
ENDROOT
BRANCH   1   2
ATOM      2  C   UNL     1       5.595   4.116  10.119  1.00  0.00     0.000 C 
BRANCH   2   3
ATOM      3  C   UNL     1       4.227   3.535   9.725  1.00  0.00     0.000 C 
BRANCH   3   4
ATOM      4  C   UNL     1       4.072   3.365   8.204  1.00  0.00     0.006 C 
BRANCH   4   5
ATOM      5  C   UNL     1       3.693   1.928   7.819  1.00  0.00     0.053 C 
BRANCH   5   6
ATOM      6  C   UNL     1       4.894   1.040   7.720  1.00  0.00     0.041 C 
ATOM      7  O   UNL     1       5.571   1.006   6.659  1.00  0.00    -0.550 OA
ATOM      8  O   UNL     1       5.285   0.272   8.809  1.00  0.00    -0.550 OA
ENDBRANCH   5   6
ENDBRANCH   4   5
ENDBRANCH   3   4
ENDBRANCH   2   3
ENDBRANCH   1   2
BRANCH   1   9
ATOM      9  C   UNL     1       7.954   3.206  10.031  1.00  0.00     0.000 C 
BRANCH   9  10
ATOM     10  C   UNL     1       9.030   4.302  10.106  1.00  0.00    -0.000 C 
BRANCH  10  11
ATOM     11  C   UNL     1       8.617   5.587   9.371  1.00  0.00    -0.000 C 
BRANCH  11  12
ATOM     12  C   UNL     1       9.849   6.371   8.904  1.00  0.00    -0.000 C 
BRANCH  12  13
ATOM     13  C   UNL     1      11.099   5.483   8.909  1.00  0.00    -0.003 C 
ATOM     14  C   UNL     1      12.358   6.304   8.638  1.00  0.00     0.004 C 
ENDBRANCH  12  13
ENDBRANCH  11  12
ENDBRANCH  10  11
ENDBRANCH   9  10
ENDBRANCH   1   9
TORSDOF 10
ENDMDL
MODEL 4
REMARK VINA RESULT:    -3.442      5.663      7.503
REMARK INTER + INTRA:          -6.039
REMARK INTER:                  -5.504
REMARK INTRA:                  -0.535
REMARK UNBOUND:                -0.584
REMARK SMILES CCCCCCCCCCCC(=O)[O-]
REMARK SMILES IDX 7 1 8 2 9 3 10 4 11 5 12 6 13 7 14 8 6 9 5 10 4 11 3 12 2 13
REMARK SMILES IDX 1 14
REMARK H PARENT
REMARK Flexibility Score: inf
ROOT
ATOM      1  C   UNL     1       7.227  10.510   8.678  1.00  0.00     0.000 C 
ENDROOT
BRANCH   1   2
ATOM      2  C   UNL     1       7.951   9.222   9.098  1.00  0.00     0.000 C 
BRANCH   2   3
ATOM      3  C   UNL     1       8.860   8.663   7.991  1.00  0.00     0.000 C 
BRANCH   3   4
ATOM      4  C   UNL     1       9.141   7.159   8.158  1.00  0.00     0.006 C 
BRANCH   4   5
ATOM      5  C   UNL     1      10.145   6.881   9.285  1.00  0.00     0.053 C 
BRANCH   5   6
ATOM      6  C   UNL     1      10.750   5.516   9.170  1.00  0.00     0.041 C 
ATOM      7  O   UNL     1      11.892   5.371   8.659  1.00  0.00    -0.550 OA
ATOM      8  O   UNL     1      10.068   4.407   9.654  1.00  0.00    -0.550 OA
ENDBRANCH   5   6
ENDBRANCH   4   5
ENDBRANCH   3   4
ENDBRANCH   2   3
ENDBRANCH   1   2
BRANCH   1   9
ATOM      9  C   UNL     1       6.542  11.171   9.884  1.00  0.00     0.000 C 
BRANCH   9  10
ATOM     10  C   UNL     1       5.775  12.448   9.504  1.00  0.00    -0.000 C 
BRANCH  10  11
ATOM     11  C   UNL     1       5.956  12.829   8.027  1.00  0.00    -0.000 C 
BRANCH  11  12
ATOM     12  C   UNL     1       4.735  13.597   7.507  1.00  0.00    -0.000 C 
BRANCH  12  13
ATOM     13  C   UNL     1       3.602  12.636   7.127  1.00  0.00    -0.003 C 
ATOM     14  C   UNL     1       4.133  11.447   6.331  1.00  0.00     0.004 C 
ENDBRANCH  12  13
ENDBRANCH  11  12
ENDBRANCH  10  11
ENDBRANCH   9  10
ENDBRANCH   1   9
TORSDOF 10
ENDMDL
MODEL 5
REMARK VINA RESULT:    -3.336      6.042      7.566
REMARK INTER + INTRA:          -5.871
REMARK INTER:                  -5.326
REMARK INTRA:                  -0.545
REMARK UNBOUND:                -0.584
REMARK SMILES CCCCCCCCCCCC(=O)[O-]
REMARK SMILES IDX 7 1 8 2 9 3 10 4 11 5 12 6 13 7 14 8 6 9 5 10 4 11 3 12 2 13
REMARK SMILES IDX 1 14
REMARK H PARENT
REMARK Flexibility Score: inf
ROOT
ATOM      1  C   UNL     1       6.618  11.201   8.032  1.00  0.00     0.000 C 
ENDROOT
BRANCH   1   2
ATOM      2  C   UNL     1       5.320  12.005   7.868  1.00  0.00     0.000 C 
BRANCH   2   3
ATOM      3  C   UNL     1       4.826  12.612   9.191  1.00  0.00     0.000 C 
BRANCH   3   4
ATOM      4  C   UNL     1       3.421  12.117   9.581  1.00  0.00     0.006 C 
BRANCH   4   5
ATOM      5  C   UNL     1       2.699  11.443   8.406  1.00  0.00     0.053 C 
BRANCH   5   6
ATOM      6  C   UNL     1       1.592  10.549   8.870  1.00  0.00     0.041 C 
ATOM      7  O   UNL     1       0.922  10.848   9.893  1.00  0.00    -0.550 OA
ATOM      8  O   UNL     1       1.279   9.399   8.156  1.00  0.00    -0.550 OA
ENDBRANCH   5   6
ENDBRANCH   4   5
ENDBRANCH   3   4
ENDBRANCH   2   3
ENDBRANCH   1   2
BRANCH   1   9
ATOM      9  C   UNL     1       6.876  10.874   9.511  1.00  0.00     0.000 C 
BRANCH   9  10
ATOM     10  C   UNL     1       7.506   9.486   9.711  1.00  0.00    -0.000 C 
BRANCH  10  11
ATOM     11  C   UNL     1       8.252   8.990   8.463  1.00  0.00    -0.000 C 
BRANCH  11  12
ATOM     12  C   UNL     1       8.851   7.599   8.700  1.00  0.00    -0.000 C 
BRANCH  12  13
ATOM     13  C   UNL     1      10.008   7.326   7.731  1.00  0.00    -0.003 C 
ATOM     14  C   UNL     1      11.136   6.564   8.421  1.00  0.00     0.004 C 
ENDBRANCH  12  13
ENDBRANCH  11  12
ENDBRANCH  10  11
ENDBRANCH   9  10
ENDBRANCH   1   9
TORSDOF 10
ENDMDL
MODEL 6
REMARK VINA RESULT:    -3.268      3.796      5.928
REMARK INTER + INTRA:          -5.762
REMARK INTER:                  -5.208
REMARK INTRA:                  -0.554
REMARK UNBOUND:                -0.584
REMARK SMILES CCCCCCCCCCCC(=O)[O-]
REMARK SMILES IDX 7 1 8 2 9 3 10 4 11 5 12 6 13 7 14 8 6 9 5 10 4 11 3 12 2 13
REMARK SMILES IDX 1 14
REMARK H PARENT
REMARK Flexibility Score: inf
ROOT
ATOM      1  C   UNL     1       3.957   2.759   7.868  1.00  0.00     0.000 C 
ENDROOT
BRANCH   1   2
ATOM      2  C   UNL     1       2.920   2.905   8.992  1.00  0.00     0.000 C 
BRANCH   2   3
ATOM      3  C   UNL     1       2.798   4.349   9.504  1.00  0.00     0.000 C 
BRANCH   3   4
ATOM      4  C   UNL     1       1.347   4.740   9.835  1.00  0.00     0.006 C 
BRANCH   4   5
ATOM      5  C   UNL     1       0.345   3.659   9.403  1.00  0.00     0.053 C 
BRANCH   5   6
ATOM      6  C   UNL     1      -1.006   4.235   9.113  1.00  0.00     0.041 C 
ATOM      7  O   UNL     1      -1.187   5.480   9.151  1.00  0.00    -0.550 OA
ATOM      8  O   UNL     1      -2.061   3.398   8.771  1.00  0.00    -0.550 OA
ENDBRANCH   5   6
ENDBRANCH   4   5
ENDBRANCH   3   4
ENDBRANCH   2   3
ENDBRANCH   1   2
BRANCH   1   9
ATOM      9  C   UNL     1       4.962   1.643   8.192  1.00  0.00     0.000 C 
BRANCH   9  10
ATOM     10  C   UNL     1       5.490   1.721   9.634  1.00  0.00    -0.000 C 
BRANCH  10  11
ATOM     11  C   UNL     1       6.945   2.210   9.705  1.00  0.00    -0.000 C 
BRANCH  11  12
ATOM     12  C   UNL     1       7.035   3.708   9.392  1.00  0.00    -0.000 C 
BRANCH  12  13
ATOM     13  C   UNL     1       8.424   4.258   9.739  1.00  0.00    -0.003 C 
ATOM     14  C   UNL     1       8.653   5.621   9.091  1.00  0.00     0.004 C 
ENDBRANCH  12  13
ENDBRANCH  11  12
ENDBRANCH  10  11
ENDBRANCH   9  10
ENDBRANCH   1   9
TORSDOF 10
ENDMDL
MODEL 7
REMARK VINA RESULT:    -3.248      2.919      4.426
REMARK INTER + INTRA:          -5.731
REMARK INTER:                  -5.195
REMARK INTRA:                  -0.536
REMARK UNBOUND:                -0.584
REMARK SMILES CCCCCCCCCCCC(=O)[O-]
REMARK SMILES IDX 7 1 8 2 9 3 10 4 11 5 12 6 13 7 14 8 6 9 5 10 4 11 3 12 2 13
REMARK SMILES IDX 1 14
REMARK H PARENT
REMARK Flexibility Score: inf
ROOT
ATOM      1  C   UNL     1       6.084   2.111   8.263  1.00  0.00     0.000 C 
ENDROOT
BRANCH   1   2
ATOM      2  C   UNL     1       4.579   1.834   8.126  1.00  0.00     0.000 C 
BRANCH   2   3
ATOM      3  C   UNL     1       3.726   3.104   8.275  1.00  0.00     0.000 C 
BRANCH   3   4
ATOM      4  C   UNL     1       2.593   2.938   9.304  1.00  0.00     0.006 C 
BRANCH   4   5
ATOM      5  C   UNL     1       2.127   4.285   9.872  1.00  0.00     0.053 C 
BRANCH   5   6
ATOM      6  C   UNL     1       0.701   4.577   9.519  1.00  0.00     0.041 C 
ATOM      7  O   UNL     1       0.219   5.722   9.726  1.00  0.00    -0.550 OA
ATOM      8  O   UNL     1      -0.088   3.594   8.934  1.00  0.00    -0.550 OA
ENDBRANCH   5   6
ENDBRANCH   4   5
ENDBRANCH   3   4
ENDBRANCH   2   3
ENDBRANCH   1   2
BRANCH   1   9
ATOM      9  C   UNL     1       6.395   2.792   9.604  1.00  0.00     0.000 C 
BRANCH   9  10
ATOM     10  C   UNL     1       7.192   4.096   9.437  1.00  0.00    -0.000 C 
BRANCH  10  11
ATOM     11  C   UNL     1       8.665   3.945   9.848  1.00  0.00    -0.000 C 
BRANCH  11  12
ATOM     12  C   UNL     1       9.396   5.291   9.770  1.00  0.00    -0.000 C 
BRANCH  12  13
ATOM     13  C   UNL     1       8.841   6.151   8.627  1.00  0.00    -0.003 C 
ATOM     14  C   UNL     1       9.869   7.180   8.165  1.00  0.00     0.004 C 
ENDBRANCH  12  13
ENDBRANCH  11  12
ENDBRANCH  10  11
ENDBRANCH   9  10
ENDBRANCH   1   9
TORSDOF 10
ENDMDL
