MODEL 1
REMARK VINA RESULT:    -3.914      0.000      0.000
REMARK INTER + INTRA:          -9.113
REMARK INTER:                  -7.117
REMARK INTRA:                  -1.996
REMARK UNBOUND:                -1.996
REMARK SMILES CCCCCCCCCCCCCCCC(=O)[O-]
REMARK SMILES IDX 9 1 10 2 11 3 12 4 13 5 14 6 15 7 16 8 17 9 18 10 8 11 7 12
REMARK SMILES IDX 6 13 5 14 4 15 3 16 2 17 1 18
REMARK H PARENT
REMARK Flexibility Score: inf
ROOT
ATOM      1  C   UNL     1      21.766 -13.990   2.154  1.00  0.00     0.000 C 
ENDROOT
BRANCH   1   2
ATOM      2  C   UNL     1      21.574 -15.492   1.882  1.00  0.00     0.000 C 
BRANCH   2   3
ATOM      3  C   UNL     1      22.239 -16.378   2.949  1.00  0.00     0.000 C 
BRANCH   3   4
ATOM      4  C   UNL     1      21.883 -15.944   4.380  1.00  0.00     0.000 C 
BRANCH   4   5
ATOM      5  C   UNL     1      23.124 -15.570   5.208  1.00  0.00     0.000 C 
BRANCH   5   6
ATOM      6  C   UNL     1      22.902 -14.322   6.082  1.00  0.00     0.006 C 
BRANCH   6   7
ATOM      7  C   UNL     1      21.505 -14.300   6.714  1.00  0.00     0.053 C 
BRANCH   7   8
ATOM      8  C   UNL     1      21.561 -13.952   8.170  1.00  0.00     0.041 C 
ATOM      9  O   UNL     1      21.566 -14.862   9.041  1.00  0.00    -0.550 OA
ATOM     10  O   UNL     1      21.641 -12.623   8.564  1.00  0.00    -0.550 OA
ENDBRANCH   7   8
ENDBRANCH   6   7
ENDBRANCH   5   6
ENDBRANCH   4   5
ENDBRANCH   3   4
ENDBRANCH   2   3
ENDBRANCH   1   2
BRANCH   1  11
ATOM     11  C   UNL     1      22.357 -13.242   0.949  1.00  0.00     0.000 C 
BRANCH  11  12
ATOM     12  C   UNL     1      23.661 -12.508   1.290  1.00  0.00    -0.000 C 
BRANCH  12  13
ATOM     13  C   UNL     1      24.057 -12.746   2.755  1.00  0.00    -0.000 C 
BRANCH  13  14
ATOM     14  C   UNL     1      25.355 -13.559   2.896  1.00  0.00    -0.000 C 
BRANCH  14  15
ATOM     15  C   UNL     1      26.169 -13.161   4.140  1.00  0.00    -0.000 C 
BRANCH  15  16
ATOM     16  C   UNL     1      25.479 -12.073   4.983  1.00  0.00    -0.000 C 
BRANCH  16  17
ATOM     17  C   UNL     1      25.986 -11.954   6.432  1.00  0.00    -0.003 C 
ATOM     18  C   UNL     1      24.930 -11.413   7.393  1.00  0.00     0.004 C 
ENDBRANCH  16  17
ENDBRANCH  15  16
ENDBRANCH  14  15
ENDBRANCH  13  14
ENDBRANCH  12  13
ENDBRANCH  11  12
ENDBRANCH   1  11
TORSDOF 14
ENDMDL
MODEL 2
REMARK VINA RESULT:    -3.800      0.843      1.415
REMARK INTER + INTRA:          -8.907
REMARK INTER:                  -7.289
REMARK INTRA:                  -1.618
REMARK UNBOUND:                -1.996
REMARK SMILES CCCCCCCCCCCCCCCC(=O)[O-]
REMARK SMILES IDX 9 1 10 2 11 3 12 4 13 5 14 6 15 7 16 8 17 9 18 10 8 11 7 12
REMARK SMILES IDX 6 13 5 14 4 15 3 16 2 17 1 18
REMARK H PARENT
REMARK Flexibility Score: inf
ROOT
ATOM      1  C   UNL     1      22.039 -13.714   2.041  1.00  0.00     0.000 C 
ENDROOT
BRANCH   1   2
ATOM      2  C   UNL     1      21.626 -15.022   1.344  1.00  0.00     0.000 C 
BRANCH   2   3
ATOM      3  C   UNL     1      21.441 -16.187   2.330  1.00  0.00     0.000 C 
BRANCH   3   4
ATOM      4  C   UNL     1      22.346 -16.061   3.567  1.00  0.00     0.000 C 
BRANCH   4   5
ATOM      5  C   UNL     1      21.544 -15.949   4.874  1.00  0.00     0.000 C 
BRANCH   5   6
ATOM      6  C   UNL     1      22.381 -15.387   6.038  1.00  0.00     0.006 C 
BRANCH   6   7
ATOM      7  C   UNL     1      21.875 -14.016   6.504  1.00  0.00     0.053 C 
BRANCH   7   8
ATOM      8  C   UNL     1      21.775 -13.940   7.996  1.00  0.00     0.041 C 
ATOM      9  O   UNL     1      21.782 -12.823   8.577  1.00  0.00    -0.550 OA
ATOM     10  O   UNL     1      21.640 -15.103   8.744  1.00  0.00    -0.550 OA
ENDBRANCH   7   8
ENDBRANCH   6   7
ENDBRANCH   5   6
ENDBRANCH   4   5
ENDBRANCH   3   4
ENDBRANCH   2   3
ENDBRANCH   1   2
BRANCH   1  11
ATOM     11  C   UNL     1      23.009 -12.875   1.195  1.00  0.00     0.000 C 
BRANCH  11  12
ATOM     12  C   UNL     1      24.157 -12.281   2.025  1.00  0.00    -0.000 C 
BRANCH  12  13
ATOM     13  C   UNL     1      24.219 -12.930   3.416  1.00  0.00    -0.000 C 
BRANCH  13  14
ATOM     14  C   UNL     1      25.116 -12.154   4.395  1.00  0.00    -0.000 C 
BRANCH  14  15
ATOM     15  C   UNL     1      25.438 -12.959   5.666  1.00  0.00    -0.000 C 
BRANCH  15  16
ATOM     16  C   UNL     1      25.173 -12.168   6.959  1.00  0.00    -0.000 C 
BRANCH  16  17
ATOM     17  C   UNL     1      25.269 -10.638   6.817  1.00  0.00    -0.003 C 
ATOM     18  C   UNL     1      24.696  -9.887   8.018  1.00  0.00     0.004 C 
ENDBRANCH  16  17
ENDBRANCH  15  16
ENDBRANCH  14  15
ENDBRANCH  13  14
ENDBRANCH  12  13
ENDBRANCH  11  12
ENDBRANCH   1  11
TORSDOF 14
ENDMDL
MODEL 3
REMARK VINA RESULT:    -3.787      0.852      2.135
REMARK INTER + INTRA:          -8.883
REMARK INTER:                  -6.525
REMARK INTRA:                  -2.357
REMARK UNBOUND:                -1.996
REMARK SMILES CCCCCCCCCCCCCCCC(=O)[O-]
REMARK SMILES IDX 9 1 10 2 11 3 12 4 13 5 14 6 15 7 16 8 17 9 18 10 8 11 7 12
REMARK SMILES IDX 6 13 5 14 4 15 3 16 2 17 1 18
REMARK H PARENT
REMARK Flexibility Score: inf
ROOT
ATOM      1  C   UNL     1      22.730 -16.325   1.382  1.00  0.00     0.000 C 
ENDROOT
BRANCH   1   2
ATOM      2  C   UNL     1      23.280 -17.077   2.606  1.00  0.00     0.000 C 
BRANCH   2   3
ATOM      3  C   UNL     1      24.508 -16.388   3.224  1.00  0.00     0.000 C 
BRANCH   3   4
ATOM      4  C   UNL     1      24.408 -16.267   4.754  1.00  0.00     0.000 C 
BRANCH   4   5
ATOM      5  C   UNL     1      22.984 -15.928   5.226  1.00  0.00     0.000 C 
BRANCH   5   6
ATOM      6  C   UNL     1      22.887 -14.531   5.866  1.00  0.00     0.006 C 
BRANCH   6   7
ATOM      7  C   UNL     1      21.523 -14.291   6.526  1.00  0.00     0.053 C 
BRANCH   7   8
ATOM      8  C   UNL     1      21.654 -14.057   8.000  1.00  0.00     0.041 C 
ATOM      9  O   UNL     1      21.652 -12.884   8.459  1.00  0.00    -0.550 OA
ATOM     10  O   UNL     1      21.747 -15.136   8.869  1.00  0.00    -0.550 OA
ENDBRANCH   7   8
ENDBRANCH   6   7
ENDBRANCH   5   6
ENDBRANCH   4   5
ENDBRANCH   3   4
ENDBRANCH   2   3
ENDBRANCH   1   2
BRANCH   1  11
ATOM     11  C   UNL     1      21.467 -15.511   1.707  1.00  0.00     0.000 C 
BRANCH  11  12
ATOM     12  C   UNL     1      21.786 -14.079   2.157  1.00  0.00    -0.000 C 
BRANCH  12  13
ATOM     13  C   UNL     1      22.362 -13.255   0.995  1.00  0.00    -0.000 C 
BRANCH  13  14
ATOM     14  C   UNL     1      23.648 -12.504   1.378  1.00  0.00    -0.000 C 
BRANCH  14  15
ATOM     15  C   UNL     1      24.090 -12.789   2.825  1.00  0.00    -0.000 C 
BRANCH  15  16
ATOM     16  C   UNL     1      25.620 -12.814   2.989  1.00  0.00    -0.000 C 
BRANCH  16  17
ATOM     17  C   UNL     1      26.116 -12.999   4.434  1.00  0.00    -0.003 C 
ATOM     18  C   UNL     1      25.540 -11.967   5.402  1.00  0.00     0.004 C 
ENDBRANCH  16  17
ENDBRANCH  15  16
ENDBRANCH  14  15
ENDBRANCH  13  14
ENDBRANCH  12  13
ENDBRANCH  11  12
ENDBRANCH   1  11
TORSDOF 14
ENDMDL
MODEL 4
REMARK VINA RESULT:    -3.783      1.710      4.316
REMARK INTER + INTRA:          -8.874
REMARK INTER:                  -7.011
REMARK INTRA:                  -1.864
REMARK UNBOUND:                -1.996
REMARK SMILES CCCCCCCCCCCCCCCC(=O)[O-]
REMARK SMILES IDX 9 1 10 2 11 3 12 4 13 5 14 6 15 7 16 8 17 9 18 10 8 11 7 12
REMARK SMILES IDX 6 13 5 14 4 15 3 16 2 17 1 18
REMARK H PARENT
REMARK Flexibility Score: inf
ROOT
ATOM      1  C   UNL     1      21.878 -14.009   2.125  1.00  0.00     0.000 C 
ENDROOT
BRANCH   1   2
ATOM      2  C   UNL     1      22.393 -13.250   0.889  1.00  0.00     0.000 C 
BRANCH   2   3
ATOM      3  C   UNL     1      23.650 -12.416   1.186  1.00  0.00     0.000 C 
BRANCH   3   4
ATOM      4  C   UNL     1      24.137 -12.579   2.635  1.00  0.00     0.000 C 
BRANCH   4   5
ATOM      5  C   UNL     1      25.486 -13.312   2.725  1.00  0.00     0.000 C 
BRANCH   5   6
ATOM      6  C   UNL     1      25.980 -13.473   4.174  1.00  0.00     0.006 C 
BRANCH   6   7
ATOM      7  C   UNL     1      24.883 -13.157   5.198  1.00  0.00     0.053 C 
BRANCH   7   8
ATOM      8  C   UNL     1      25.327 -12.120   6.183  1.00  0.00     0.041 C 
ATOM      9  O   UNL     1      24.936 -12.173   7.379  1.00  0.00    -0.550 OA
ATOM     10  O   UNL     1      26.198 -11.113   5.788  1.00  0.00    -0.550 OA
ENDBRANCH   7   8
ENDBRANCH   6   7
ENDBRANCH   5   6
ENDBRANCH   4   5
ENDBRANCH   3   4
ENDBRANCH   2   3
ENDBRANCH   1   2
BRANCH   1  11
ATOM     11  C   UNL     1      21.455 -15.450   1.799  1.00  0.00     0.000 C 
BRANCH  11  12
ATOM     12  C   UNL     1      22.330 -16.497   2.505  1.00  0.00    -0.000 C 
BRANCH  12  13
ATOM     13  C   UNL     1      22.959 -15.915   3.780  1.00  0.00    -0.000 C 
BRANCH  13  14
ATOM     14  C   UNL     1      22.444 -16.593   5.060  1.00  0.00    -0.000 C 
BRANCH  14  15
ATOM     15  C   UNL     1      21.025 -16.134   5.441  1.00  0.00    -0.000 C 
BRANCH  15  16
ATOM     16  C   UNL     1      20.977 -15.400   6.793  1.00  0.00    -0.000 C 
BRANCH  16  17
ATOM     17  C   UNL     1      21.901 -14.174   6.901  1.00  0.00    -0.003 C 
ATOM     18  C   UNL     1      21.537 -13.250   8.062  1.00  0.00     0.004 C 
ENDBRANCH  16  17
ENDBRANCH  15  16
ENDBRANCH  14  15
ENDBRANCH  13  14
ENDBRANCH  12  13
ENDBRANCH  11  12
ENDBRANCH   1  11
TORSDOF 14
ENDMDL
MODEL 5
REMARK VINA RESULT:    -3.771      1.560      4.304
REMARK INTER + INTRA:          -8.854
REMARK INTER:                  -6.995
REMARK INTRA:                  -1.859
REMARK UNBOUND:                -1.996
REMARK SMILES CCCCCCCCCCCCCCCC(=O)[O-]
REMARK SMILES IDX 9 1 10 2 11 3 12 4 13 5 14 6 15 7 16 8 17 9 18 10 8 11 7 12
REMARK SMILES IDX 6 13 5 14 4 15 3 16 2 17 1 18
REMARK H PARENT
REMARK Flexibility Score: inf
ROOT
ATOM      1  C   UNL     1      24.324 -13.305   1.555  1.00  0.00     0.000 C 
ENDROOT
BRANCH   1   2
ATOM      2  C   UNL     1      24.742 -12.738   2.923  1.00  0.00     0.000 C 
BRANCH   2   3
ATOM      3  C   UNL     1      25.743 -13.643   3.660  1.00  0.00     0.000 C 
BRANCH   3   4
ATOM      4  C   UNL     1      26.199 -13.046   5.002  1.00  0.00     0.000 C 
BRANCH   4   5
ATOM      5  C   UNL     1      25.229 -11.978   5.533  1.00  0.00     0.000 C 
BRANCH   5   6
ATOM      6  C   UNL     1      25.436 -11.678   7.028  1.00  0.00     0.006 C 
BRANCH   6   7
ATOM      7  C   UNL     1      25.345 -10.177   7.335  1.00  0.00     0.053 C 
BRANCH   7   8
ATOM      8  C   UNL     1      24.120  -9.848   8.132  1.00  0.00     0.041 C 
ATOM      9  O   UNL     1      23.748  -8.652   8.258  1.00  0.00    -0.550 OA
ATOM     10  O   UNL     1      23.373 -10.866   8.710  1.00  0.00    -0.550 OA
ENDBRANCH   7   8
ENDBRANCH   6   7
ENDBRANCH   5   6
ENDBRANCH   4   5
ENDBRANCH   3   4
ENDBRANCH   2   3
ENDBRANCH   1   2
BRANCH   1  11
ATOM     11  C   UNL     1      23.019 -12.684   1.032  1.00  0.00     0.000 C 
BRANCH  11  12
ATOM     12  C   UNL     1      21.815 -13.625   1.179  1.00  0.00    -0.000 C 
BRANCH  12  13
ATOM     13  C   UNL     1      22.276 -15.080   1.358  1.00  0.00    -0.000 C 
BRANCH  13  14
ATOM     14  C   UNL     1      21.406 -15.861   2.357  1.00  0.00    -0.000 C 
BRANCH  14  15
ATOM     15  C   UNL     1      22.085 -16.026   3.728  1.00  0.00    -0.000 C 
BRANCH  15  16
ATOM     16  C   UNL     1      22.108 -14.721   4.545  1.00  0.00    -0.000 C 
BRANCH  16  17
ATOM     17  C   UNL     1      22.758 -14.837   5.936  1.00  0.00    -0.003 C 
ATOM     18  C   UNL     1      23.917 -15.831   5.975  1.00  0.00     0.004 C 
ENDBRANCH  16  17
ENDBRANCH  15  16
ENDBRANCH  14  15
ENDBRANCH  13  14
ENDBRANCH  12  13
ENDBRANCH  11  12
ENDBRANCH   1  11
TORSDOF 14
ENDMDL
MODEL 6
REMARK VINA RESULT:    -3.666      1.863      4.349
REMARK INTER + INTRA:          -8.663
REMARK INTER:                  -6.870
REMARK INTRA:                  -1.793
REMARK UNBOUND:                -1.996
REMARK SMILES CCCCCCCCCCCCCCCC(=O)[O-]
REMARK SMILES IDX 9 1 10 2 11 3 12 4 13 5 14 6 15 7 16 8 17 9 18 10 8 11 7 12
REMARK SMILES IDX 6 13 5 14 4 15 3 16 2 17 1 18
REMARK H PARENT
REMARK Flexibility Score: inf
ROOT
ATOM      1  C   UNL     1      23.477 -13.407   1.137  1.00  0.00     0.000 C 
ENDROOT
BRANCH   1   2
ATOM      2  C   UNL     1      23.811 -12.004   1.674  1.00  0.00     0.000 C 
BRANCH   2   3
ATOM      3  C   UNL     1      24.514 -12.042   3.041  1.00  0.00     0.000 C 
BRANCH   3   4
ATOM      4  C   UNL     1      25.017 -13.449   3.405  1.00  0.00     0.000 C 
BRANCH   4   5
ATOM      5  C   UNL     1      25.295 -13.605   4.910  1.00  0.00     0.000 C 
BRANCH   5   6
ATOM      6  C   UNL     1      25.814 -12.307   5.555  1.00  0.00     0.006 C 
BRANCH   6   7
ATOM      7  C   UNL     1      25.137 -12.020   6.902  1.00  0.00     0.053 C 
BRANCH   7   8
ATOM      8  C   UNL     1      25.164 -10.560   7.235  1.00  0.00     0.041 C 
ATOM      9  O   UNL     1      25.548  -9.721   6.377  1.00  0.00    -0.550 OA
ATOM     10  O   UNL     1      24.734 -10.123   8.481  1.00  0.00    -0.550 OA
ENDBRANCH   7   8
ENDBRANCH   6   7
ENDBRANCH   5   6
ENDBRANCH   4   5
ENDBRANCH   3   4
ENDBRANCH   2   3
ENDBRANCH   1   2
BRANCH   1  11
ATOM     11  C   UNL     1      21.967 -13.630   0.965  1.00  0.00     0.000 C 
BRANCH  11  12
ATOM     12  C   UNL     1      21.487 -14.944   1.598  1.00  0.00    -0.000 C 
BRANCH  12  13
ATOM     13  C   UNL     1      22.679 -15.835   1.981  1.00  0.00    -0.000 C 
BRANCH  13  14
ATOM     14  C   UNL     1      22.596 -16.350   3.427  1.00  0.00    -0.000 C 
BRANCH  14  15
ATOM     15  C   UNL     1      21.919 -15.344   4.375  1.00  0.00    -0.000 C 
BRANCH  15  16
ATOM     16  C   UNL     1      21.113 -16.027   5.495  1.00  0.00    -0.000 C 
BRANCH  16  17
ATOM     17  C   UNL     1      21.076 -15.260   6.829  1.00  0.00    -0.003 C 
ATOM     18  C   UNL     1      22.128 -14.155   6.915  1.00  0.00     0.004 C 
ENDBRANCH  16  17
ENDBRANCH  15  16
ENDBRANCH  14  15
ENDBRANCH  13  14
ENDBRANCH  12  13
ENDBRANCH  11  12
ENDBRANCH   1  11
TORSDOF 14
ENDMDL
MODEL 7
REMARK VINA RESULT:    -3.592      1.681      3.522
REMARK INTER + INTRA:          -8.527
REMARK INTER:                  -6.989
REMARK INTRA:                  -1.538
REMARK UNBOUND:                -1.996
REMARK SMILES CCCCCCCCCCCCCCCC(=O)[O-]
REMARK SMILES IDX 9 1 10 2 11 3 12 4 13 5 14 6 15 7 16 8 17 9 18 10 8 11 7 12
REMARK SMILES IDX 6 13 5 14 4 15 3 16 2 17 1 18
REMARK H PARENT
REMARK Flexibility Score: inf
ROOT
ATOM      1  C   UNL     1      24.965 -13.482   4.319  1.00  0.00     0.000 C 
ENDROOT
BRANCH   1   2
ATOM      2  C   UNL     1      24.250 -14.123   3.116  1.00  0.00     0.000 C 
BRANCH   2   3
ATOM      3  C   UNL     1      22.724 -13.939   3.166  1.00  0.00     0.000 C 
BRANCH   3   4
ATOM      4  C   UNL     1      21.979 -15.262   3.411  1.00  0.00     0.000 C 
BRANCH   4   5
ATOM      5  C   UNL     1      21.998 -15.685   4.889  1.00  0.00     0.000 C 
BRANCH   5   6
ATOM      6  C   UNL     1      21.485 -14.580   5.830  1.00  0.00     0.006 C 
BRANCH   6   7
ATOM      7  C   UNL     1      22.493 -14.250   6.938  1.00  0.00     0.053 C 
BRANCH   7   8
ATOM      8  C   UNL     1      21.820 -14.073   8.265  1.00  0.00     0.041 C 
ATOM      9  O   UNL     1      21.493 -12.924   8.662  1.00  0.00    -0.550 OA
ATOM     10  O   UNL     1      21.526 -15.182   9.047  1.00  0.00    -0.550 OA
ENDBRANCH   7   8
ENDBRANCH   6   7
ENDBRANCH   5   6
ENDBRANCH   4   5
ENDBRANCH   3   4
ENDBRANCH   2   3
ENDBRANCH   1   2
BRANCH   1  11
ATOM     11  C   UNL     1      25.219 -11.979   4.123  1.00  0.00     0.000 C 
BRANCH  11  12
ATOM     12  C   UNL     1      25.557 -11.261   5.437  1.00  0.00    -0.000 C 
BRANCH  12  13
ATOM     13  C   UNL     1      25.364 -12.197   6.640  1.00  0.00    -0.000 C 
BRANCH  13  14
ATOM     14  C   UNL     1      24.733 -11.489   7.850  1.00  0.00    -0.000 C 
BRANCH  14  15
ATOM     15  C   UNL     1      25.106  -9.998   7.923  1.00  0.00    -0.000 C 
BRANCH  15  16
ATOM     16  C   UNL     1      23.896  -9.091   8.211  1.00  0.00    -0.000 C 
BRANCH  16  17
ATOM     17  C   UNL     1      23.943  -7.710   7.533  1.00  0.00    -0.003 C 
ATOM     18  C   UNL     1      25.012  -7.611   6.446  1.00  0.00     0.004 C 
ENDBRANCH  16  17
ENDBRANCH  15  16
ENDBRANCH  14  15
ENDBRANCH  13  14
ENDBRANCH  12  13
ENDBRANCH  11  12
ENDBRANCH   1  11
TORSDOF 14
ENDMDL
MODEL 8
REMARK VINA RESULT:    -3.589     12.078     14.243
REMARK INTER + INTRA:          -8.522
REMARK INTER:                  -6.405
REMARK INTRA:                  -2.117
REMARK UNBOUND:                -1.996
REMARK SMILES CCCCCCCCCCCCCCCC(=O)[O-]
REMARK SMILES IDX 9 1 10 2 11 3 12 4 13 5 14 6 15 7 16 8 17 9 18 10 8 11 7 12
REMARK SMILES IDX 6 13 5 14 4 15 3 16 2 17 1 18
REMARK H PARENT
REMARK Flexibility Score: inf
ROOT
ATOM      1  C   UNL     1      29.776  -1.618  12.500  1.00  0.00     0.000 C 
ENDROOT
BRANCH   1   2
ATOM      2  C   UNL     1      28.918  -0.350  12.337  1.00  0.00     0.000 C 
BRANCH   2   3
ATOM      3  C   UNL     1      28.076  -0.364  11.051  1.00  0.00     0.000 C 
BRANCH   3   4
ATOM      4  C   UNL     1      26.567  -0.279  11.334  1.00  0.00     0.000 C 
BRANCH   4   5
ATOM      5  C   UNL     1      25.821  -1.566  10.946  1.00  0.00     0.000 C 
BRANCH   5   6
ATOM      6  C   UNL     1      25.080  -1.440   9.602  1.00  0.00     0.006 C 
BRANCH   6   7
ATOM      7  C   UNL     1      24.474  -2.775   9.149  1.00  0.00     0.053 C 
BRANCH   7   8
ATOM      8  C   UNL     1      23.031  -2.887   9.535  1.00  0.00     0.041 C 
ATOM      9  O   UNL     1      22.284  -1.874   9.497  1.00  0.00    -0.550 OA
ATOM     10  O   UNL     1      22.504  -4.117   9.905  1.00  0.00    -0.550 OA
ENDBRANCH   7   8
ENDBRANCH   6   7
ENDBRANCH   5   6
ENDBRANCH   4   5
ENDBRANCH   3   4
ENDBRANCH   2   3
ENDBRANCH   1   2
BRANCH   1  11
ATOM     11  C   UNL     1      29.107  -2.864  11.900  1.00  0.00     0.000 C 
BRANCH  11  12
ATOM     12  C   UNL     1      30.125  -3.887  11.376  1.00  0.00    -0.000 C 
BRANCH  12  13
ATOM     13  C   UNL     1      29.767  -4.335   9.950  1.00  0.00    -0.000 C 
BRANCH  13  14
ATOM     14  C   UNL     1      28.620  -3.514   9.339  1.00  0.00    -0.000 C 
BRANCH  14  15
ATOM     15  C   UNL     1      29.044  -2.764   8.064  1.00  0.00    -0.000 C 
BRANCH  15  16
ATOM     16  C   UNL     1      27.893  -1.960   7.432  1.00  0.00    -0.000 C 
BRANCH  16  17
ATOM     17  C   UNL     1      28.074  -0.431   7.463  1.00  0.00    -0.003 C 
ATOM     18  C   UNL     1      26.858   0.327   6.933  1.00  0.00     0.004 C 
ENDBRANCH  16  17
ENDBRANCH  15  16
ENDBRANCH  14  15
ENDBRANCH  13  14
ENDBRANCH  12  13
ENDBRANCH  11  12
ENDBRANCH   1  11
TORSDOF 14
ENDMDL
MODEL 9
REMARK VINA RESULT:    -3.553      1.602      2.522
REMARK INTER + INTRA:          -8.457
REMARK INTER:                  -6.565
REMARK INTRA:                  -1.892
REMARK UNBOUND:                -1.996
REMARK SMILES CCCCCCCCCCCCCCCC(=O)[O-]
REMARK SMILES IDX 9 1 10 2 11 3 12 4 13 5 14 6 15 7 16 8 17 9 18 10 8 11 7 12
REMARK SMILES IDX 6 13 5 14 4 15 3 16 2 17 1 18
REMARK H PARENT
REMARK Flexibility Score: inf
ROOT
ATOM      1  C   UNL     1      21.794 -13.820   1.504  1.00  0.00     0.000 C 
ENDROOT
BRANCH   1   2
ATOM      2  C   UNL     1      22.152 -15.299   1.276  1.00  0.00     0.000 C 
BRANCH   2   3
ATOM      3  C   UNL     1      21.437 -16.241   2.258  1.00  0.00     0.000 C 
BRANCH   3   4
ATOM      4  C   UNL     1      21.545 -15.765   3.716  1.00  0.00     0.000 C 
BRANCH   4   5
ATOM      5  C   UNL     1      22.977 -15.870   4.266  1.00  0.00     0.000 C 
BRANCH   5   6
ATOM      6  C   UNL     1      23.061 -15.554   5.770  1.00  0.00     0.006 C 
BRANCH   6   7
ATOM      7  C   UNL     1      22.152 -14.384   6.168  1.00  0.00     0.053 C 
BRANCH   7   8
ATOM      8  C   UNL     1      21.957 -14.314   7.651  1.00  0.00     0.041 C 
ATOM      9  O   UNL     1      21.861 -13.197   8.226  1.00  0.00    -0.550 OA
ATOM     10  O   UNL     1      21.849 -15.482   8.394  1.00  0.00    -0.550 OA
ENDBRANCH   7   8
ENDBRANCH   6   7
ENDBRANCH   5   6
ENDBRANCH   4   5
ENDBRANCH   3   4
ENDBRANCH   2   3
ENDBRANCH   1   2
BRANCH   1  11
ATOM     11  C   UNL     1      23.011 -12.891   1.378  1.00  0.00     0.000 C 
BRANCH  11  12
ATOM     12  C   UNL     1      24.329 -13.662   1.213  1.00  0.00    -0.000 C 
BRANCH  12  13
ATOM     13  C   UNL     1      25.325 -13.288   2.321  1.00  0.00    -0.000 C 
BRANCH  13  14
ATOM     14  C   UNL     1      24.691 -12.426   3.426  1.00  0.00    -0.000 C 
BRANCH  14  15
ATOM     15  C   UNL     1      25.263 -10.998   3.462  1.00  0.00    -0.000 C 
BRANCH  15  16
ATOM     16  C   UNL     1      26.274 -10.730   2.334  1.00  0.00    -0.000 C 
BRANCH  16  17
ATOM     17  C   UNL     1      25.894  -9.584   1.379  1.00  0.00    -0.003 C 
ATOM     18  C   UNL     1      24.385  -9.437   1.191  1.00  0.00     0.004 C 
ENDBRANCH  16  17
ENDBRANCH  15  16
ENDBRANCH  14  15
ENDBRANCH  13  14
ENDBRANCH  12  13
ENDBRANCH  11  12
ENDBRANCH   1  11
TORSDOF 14
ENDMDL
