MODEL 1
REMARK VINA RESULT:    -4.038      0.000      0.000
REMARK INTER + INTRA:          -5.459
REMARK INTER:                  -5.218
REMARK INTRA:                  -0.241
REMARK UNBOUND:                -0.241
REMARK SMILES CCCCCCC(=O)[O-]
REMARK SMILES IDX 5 1 6 2 7 3 8 4 9 5 4 6 3 7 2 8 1 9
REMARK H PARENT
REMARK Flexibility Score: inf
ROOT
ATOM      1  C   UNL     1      -4.175 -36.020  53.547  1.00  0.00     0.006 C 
ENDROOT
BRANCH   1   2
ATOM      2  C   UNL     1      -3.494 -35.425  54.786  1.00  0.00     0.053 C 
BRANCH   2   3
ATOM      3  C   UNL     1      -2.059 -35.084  54.521  1.00  0.00     0.041 C 
ATOM      4  O   UNL     1      -1.765 -34.209  53.663  1.00  0.00    -0.550 OA
ATOM      5  O   UNL     1      -1.047 -35.758  55.192  1.00  0.00    -0.550 OA
ENDBRANCH   2   3
ENDBRANCH   1   2
BRANCH   1   6
ATOM      6  C   UNL     1      -5.459 -35.261  53.169  1.00  0.00     0.000 C 
BRANCH   6   7
ATOM      7  C   UNL     1      -5.282 -34.368  51.928  1.00  0.00    -0.000 C 
BRANCH   7   8
ATOM      8  C   UNL     1      -4.830 -32.927  52.230  1.00  0.00    -0.003 C 
ATOM      9  C   UNL     1      -5.587 -31.880  51.415  1.00  0.00     0.004 C 
ENDBRANCH   7   8
ENDBRANCH   6   7
ENDBRANCH   1   6
TORSDOF 5
ENDMDL
MODEL 2
REMARK VINA RESULT:    -3.988      0.294      1.120
REMARK INTER + INTRA:          -5.395
REMARK INTER:                  -5.140
REMARK INTRA:                  -0.254
REMARK UNBOUND:                -0.241
REMARK SMILES CCCCCCC(=O)[O-]
REMARK SMILES IDX 5 1 6 2 7 3 8 4 9 5 4 6 3 7 2 8 1 9
REMARK H PARENT
REMARK Flexibility Score: inf
ROOT
ATOM      1  C   UNL     1      -4.262 -36.093  53.804  1.00  0.00     0.006 C 
ENDROOT
BRANCH   1   2
ATOM      2  C   UNL     1      -3.496 -35.341  54.900  1.00  0.00     0.053 C 
BRANCH   2   3
ATOM      3  C   UNL     1      -2.083 -35.054  54.492  1.00  0.00     0.041 C 
ATOM      4  O   UNL     1      -1.127 -35.645  55.064  1.00  0.00    -0.550 OA
ATOM      5  O   UNL     1      -1.818 -34.110  53.508  1.00  0.00    -0.550 OA
ENDBRANCH   2   3
ENDBRANCH   1   2
BRANCH   1   6
ATOM      6  C   UNL     1      -5.407 -35.252  53.215  1.00  0.00     0.000 C 
BRANCH   6   7
ATOM      7  C   UNL     1      -5.007 -34.518  51.922  1.00  0.00    -0.000 C 
BRANCH   7   8
ATOM      8  C   UNL     1      -4.988 -32.982  52.031  1.00  0.00    -0.003 C 
ATOM      9  C   UNL     1      -5.959 -32.302  51.069  1.00  0.00     0.004 C 
ENDBRANCH   7   8
ENDBRANCH   6   7
ENDBRANCH   1   6
TORSDOF 5
ENDMDL
MODEL 3
REMARK VINA RESULT:    -3.971      9.998     11.761
REMARK INTER + INTRA:          -5.373
REMARK INTER:                  -5.168
REMARK INTRA:                  -0.205
REMARK UNBOUND:                -0.241
REMARK SMILES CCCCCCC(=O)[O-]
REMARK SMILES IDX 5 1 6 2 7 3 8 4 9 5 4 6 3 7 2 8 1 9
REMARK H PARENT
REMARK Flexibility Score: inf
ROOT
ATOM      1  C   UNL     1      -7.616 -31.846  42.171  1.00  0.00     0.006 C 
ENDROOT
BRANCH   1   2
ATOM      2  C   UNL     1      -7.258 -32.300  43.593  1.00  0.00     0.053 C 
BRANCH   2   3
ATOM      3  C   UNL     1      -6.436 -31.275  44.312  1.00  0.00     0.041 C 
ATOM      4  O   UNL     1      -5.724 -31.612  45.296  1.00  0.00    -0.550 OA
ATOM      5  O   UNL     1      -6.483 -29.943  43.921  1.00  0.00    -0.550 OA
ENDBRANCH   2   3
ENDBRANCH   1   2
BRANCH   1   6
ATOM      6  C   UNL     1      -7.872 -33.035  41.229  1.00  0.00     0.000 C 
BRANCH   6   7
ATOM      7  C   UNL     1      -9.370 -33.341  41.047  1.00  0.00    -0.000 C 
BRANCH   7   8
ATOM      8  C   UNL     1      -9.974 -34.266  42.119  1.00  0.00    -0.003 C 
ATOM      9  C   UNL     1     -10.716 -33.505  43.216  1.00  0.00     0.004 C 
ENDBRANCH   7   8
ENDBRANCH   6   7
ENDBRANCH   1   6
TORSDOF 5
ENDMDL
MODEL 4
REMARK VINA RESULT:    -3.924     10.727     12.371
REMARK INTER + INTRA:          -5.312
REMARK INTER:                  -4.938
REMARK INTRA:                  -0.374
REMARK UNBOUND:                -0.241
REMARK SMILES CCCCCCC(=O)[O-]
REMARK SMILES IDX 5 1 6 2 7 3 8 4 9 5 4 6 3 7 2 8 1 9
REMARK H PARENT
REMARK Flexibility Score: inf
ROOT
ATOM      1  C   UNL     1      -9.984 -34.235  42.063  1.00  0.00     0.006 C 
ENDROOT
BRANCH   1   2
ATOM      2  C   UNL     1      -9.620 -33.227  40.965  1.00  0.00     0.053 C 
BRANCH   2   3
ATOM      3  C   UNL     1      -8.223 -32.709  41.128  1.00  0.00     0.041 C 
ATOM      4  O   UNL     1      -7.251 -33.511  41.160  1.00  0.00    -0.550 OA
ATOM      5  O   UNL     1      -7.998 -31.347  41.281  1.00  0.00    -0.550 OA
ENDBRANCH   2   3
ENDBRANCH   1   2
BRANCH   1   6
ATOM      6  C   UNL     1     -10.252 -33.551  43.414  1.00  0.00     0.000 C 
BRANCH   6   7
ATOM      7  C   UNL     1      -9.187 -33.884  44.475  1.00  0.00    -0.000 C 
BRANCH   7   8
ATOM      8  C   UNL     1      -8.649 -32.669  45.252  1.00  0.00    -0.003 C 
ATOM      9  C   UNL     1      -7.338 -32.128  44.683  1.00  0.00     0.004 C 
ENDBRANCH   7   8
ENDBRANCH   6   7
ENDBRANCH   1   6
TORSDOF 5
ENDMDL
MODEL 5
REMARK VINA RESULT:    -3.905      2.230      4.285
REMARK INTER + INTRA:          -5.288
REMARK INTER:                  -4.968
REMARK INTRA:                  -0.319
REMARK UNBOUND:                -0.241
REMARK SMILES CCCCCCC(=O)[O-]
REMARK SMILES IDX 5 1 6 2 7 3 8 4 9 5 4 6 3 7 2 8 1 9
REMARK H PARENT
REMARK Flexibility Score: inf
ROOT
ATOM      1  C   UNL     1      -5.560 -35.239  53.083  1.00  0.00     0.006 C 
ENDROOT
BRANCH   1   2
ATOM      2  C   UNL     1      -5.283 -34.648  51.695  1.00  0.00     0.053 C 
BRANCH   2   3
ATOM      3  C   UNL     1      -5.313 -33.150  51.714  1.00  0.00     0.041 C 
ATOM      4  O   UNL     1      -4.530 -32.511  52.468  1.00  0.00    -0.550 OA
ATOM      5  O   UNL     1      -6.228 -32.460  50.929  1.00  0.00    -0.550 OA
ENDBRANCH   2   3
ENDBRANCH   1   2
BRANCH   1   6
ATOM      6  C   UNL     1      -4.402 -36.122  53.581  1.00  0.00     0.000 C 
BRANCH   6   7
ATOM      7  C   UNL     1      -3.678 -35.526  54.801  1.00  0.00    -0.000 C 
BRANCH   7   8
ATOM      8  C   UNL     1      -2.151 -35.400  54.646  1.00  0.00    -0.003 C 
ATOM      9  C   UNL     1      -1.737 -34.289  53.683  1.00  0.00     0.004 C 
ENDBRANCH   7   8
ENDBRANCH   6   7
ENDBRANCH   1   6
TORSDOF 5
ENDMDL
MODEL 6
REMARK VINA RESULT:    -3.903     11.424     12.722
REMARK INTER + INTRA:          -5.285
REMARK INTER:                  -5.070
REMARK INTRA:                  -0.215
REMARK UNBOUND:                -0.241
REMARK SMILES CCCCCCC(=O)[O-]
REMARK SMILES IDX 5 1 6 2 7 3 8 4 9 5 4 6 3 7 2 8 1 9
REMARK H PARENT
REMARK Flexibility Score: inf
ROOT
ATOM      1  C   UNL     1      -9.936 -34.265  42.042  1.00  0.00     0.006 C 
ENDROOT
BRANCH   1   2
ATOM      2  C   UNL     1      -9.553 -33.231  40.975  1.00  0.00     0.053 C 
BRANCH   2   3
ATOM      3  C   UNL     1      -8.184 -32.671  41.210  1.00  0.00     0.041 C 
ATOM      4  O   UNL     1      -8.035 -31.443  41.450  1.00  0.00    -0.550 OA
ATOM      5  O   UNL     1      -7.069 -33.496  41.128  1.00  0.00    -0.550 OA
ENDBRANCH   2   3
ENDBRANCH   1   2
BRANCH   1   6
ATOM      6  C   UNL     1     -10.298 -33.607  43.384  1.00  0.00     0.000 C 
BRANCH   6   7
ATOM      7  C   UNL     1     -10.428 -34.624  44.533  1.00  0.00    -0.000 C 
BRANCH   7   8
ATOM      8  C   UNL     1     -10.573 -36.090  44.083  1.00  0.00    -0.003 C 
ATOM      9  C   UNL     1      -9.446 -36.986  44.594  1.00  0.00     0.004 C 
ENDBRANCH   7   8
ENDBRANCH   6   7
ENDBRANCH   1   6
TORSDOF 5
ENDMDL
MODEL 7
REMARK VINA RESULT:    -3.849      9.970     11.642
REMARK INTER + INTRA:          -5.216
REMARK INTER:                  -4.904
REMARK INTRA:                  -0.312
REMARK UNBOUND:                -0.241
REMARK SMILES CCCCCCC(=O)[O-]
REMARK SMILES IDX 5 1 6 2 7 3 8 4 9 5 4 6 3 7 2 8 1 9
REMARK H PARENT
REMARK Flexibility Score: inf
ROOT
ATOM      1  C   UNL     1     -10.531 -33.554  43.415  1.00  0.00     0.006 C 
ENDROOT
BRANCH   1   2
ATOM      2  C   UNL     1      -9.952 -34.096  44.729  1.00  0.00     0.053 C 
BRANCH   2   3
ATOM      3  C   UNL     1      -8.972 -33.140  45.340  1.00  0.00     0.041 C 
ATOM      4  O   UNL     1      -8.036 -32.663  44.644  1.00  0.00    -0.550 OA
ATOM      5  O   UNL     1      -9.071 -32.805  46.684  1.00  0.00    -0.550 OA
ENDBRANCH   2   3
ENDBRANCH   1   2
BRANCH   1   6
ATOM      6  C   UNL     1     -10.024 -34.335  42.191  1.00  0.00     0.000 C 
BRANCH   6   7
ATOM      7  C   UNL     1      -9.579 -33.417  41.038  1.00  0.00    -0.000 C 
BRANCH   7   8
ATOM      8  C   UNL     1      -8.117 -32.942  41.119  1.00  0.00    -0.003 C 
ATOM      9  C   UNL     1      -7.988 -31.438  41.351  1.00  0.00     0.004 C 
ENDBRANCH   7   8
ENDBRANCH   6   7
ENDBRANCH   1   6
TORSDOF 5
ENDMDL
MODEL 8
REMARK VINA RESULT:    -3.694     10.509     11.940
REMARK INTER + INTRA:          -5.015
REMARK INTER:                  -4.837
REMARK INTRA:                  -0.178
REMARK UNBOUND:                -0.241
REMARK SMILES CCCCCCC(=O)[O-]
REMARK SMILES IDX 5 1 6 2 7 3 8 4 9 5 4 6 3 7 2 8 1 9
REMARK H PARENT
REMARK Flexibility Score: inf
ROOT
ATOM      1  C   UNL     1      -9.413 -34.555  43.328  1.00  0.00     0.006 C 
ENDROOT
BRANCH   1   2
ATOM      2  C   UNL     1     -10.265 -35.662  43.964  1.00  0.00     0.053 C 
BRANCH   2   3
ATOM      3  C   UNL     1     -10.452 -35.442  45.434  1.00  0.00     0.041 C 
ATOM      4  O   UNL     1     -11.138 -36.252  46.113  1.00  0.00    -0.550 OA
ATOM      5  O   UNL     1      -9.902 -34.323  46.048  1.00  0.00    -0.550 OA
ENDBRANCH   2   3
ENDBRANCH   1   2
BRANCH   1   6
ATOM      6  C   UNL     1     -10.209 -33.726  42.306  1.00  0.00     0.000 C 
BRANCH   6   7
ATOM      7  C   UNL     1      -9.451 -33.520  40.982  1.00  0.00    -0.000 C 
BRANCH   7   8
ATOM      8  C   UNL     1      -8.004 -33.017  41.139  1.00  0.00    -0.003 C 
ATOM      9  C   UNL     1      -7.919 -31.515  41.402  1.00  0.00     0.004 C 
ENDBRANCH   7   8
ENDBRANCH   6   7
ENDBRANCH   1   6
TORSDOF 5
ENDMDL
MODEL 9
REMARK VINA RESULT:    -3.684     11.033     12.025
REMARK INTER + INTRA:          -5.002
REMARK INTER:                  -4.792
REMARK INTRA:                  -0.209
REMARK UNBOUND:                -0.241
REMARK SMILES CCCCCCC(=O)[O-]
REMARK SMILES IDX 5 1 6 2 7 3 8 4 9 5 4 6 3 7 2 8 1 9
REMARK H PARENT
REMARK Flexibility Score: inf
ROOT
ATOM      1  C   UNL     1      -9.738 -33.872  44.021  1.00  0.00     0.006 C 
ENDROOT
BRANCH   1   2
ATOM      2  C   UNL     1     -10.521 -34.799  44.960  1.00  0.00     0.053 C 
BRANCH   2   3
ATOM      3  C   UNL     1     -10.174 -36.239  44.734  1.00  0.00     0.041 C 
ATOM      4  O   UNL     1      -9.126 -36.546  44.106  1.00  0.00    -0.550 OA
ATOM      5  O   UNL     1     -11.024 -37.241  45.185  1.00  0.00    -0.550 OA
ENDBRANCH   2   3
ENDBRANCH   1   2
BRANCH   1   6
ATOM      6  C   UNL     1     -10.556 -33.477  42.780  1.00  0.00     0.000 C 
BRANCH   6   7
ATOM      7  C   UNL     1      -9.782 -33.677  41.465  1.00  0.00    -0.000 C 
BRANCH   7   8
ATOM      8  C   UNL     1      -8.621 -32.690  41.243  1.00  0.00    -0.003 C 
ATOM      9  C   UNL     1      -7.260 -33.378  41.152  1.00  0.00     0.004 C 
ENDBRANCH   7   8
ENDBRANCH   6   7
ENDBRANCH   1   6
TORSDOF 5
ENDMDL
