MODEL 1
REMARK VINA RESULT:    -3.686      0.000      0.000
REMARK INTER + INTRA:          -4.416
REMARK INTER:                  -4.332
REMARK INTRA:                  -0.084
REMARK UNBOUND:                -0.084
REMARK SMILES CCCCC(=O)[O-]
REMARK SMILES IDX 4 1 5 2 6 3 7 4 3 5 2 6 1 7
REMARK H PARENT
REMARK Flexibility Score: inf
ROOT
ATOM      1  C   UNL     1     -99.535 -60.676 -66.055  1.00  0.00     0.053 C 
ENDROOT
BRANCH   1   2
ATOM      2  C   UNL     1    -100.995 -60.533 -66.359  1.00  0.00     0.041 C 
ATOM      3  O   UNL     1    -101.458 -60.955 -67.451  1.00  0.00    -0.550 OA
ATOM      4  O   UNL     1    -101.837 -59.904 -65.451  1.00  0.00    -0.550 OA
ENDBRANCH   1   2
BRANCH   1   5
ATOM      5  C   UNL     1     -98.661 -60.029 -67.137  1.00  0.00     0.006 C 
BRANCH   5   6
ATOM      6  C   UNL     1     -98.742 -58.497 -67.109  1.00  0.00    -0.003 C 
ATOM      7  C   UNL     1     -97.538 -57.895 -66.391  1.00  0.00     0.004 C 
ENDBRANCH   5   6
ENDBRANCH   1   5
TORSDOF 3
ENDMDL
MODEL 2
REMARK VINA RESULT:    -3.657      2.954      3.302
REMARK INTER + INTRA:          -4.382
REMARK INTER:                  -4.332
REMARK INTRA:                  -0.050
REMARK UNBOUND:                -0.084
REMARK SMILES CCCCC(=O)[O-]
REMARK SMILES IDX 4 1 5 2 6 3 7 4 3 5 2 6 1 7
REMARK H PARENT
REMARK Flexibility Score: inf
ROOT
ATOM      1  C   UNL     1     -97.611 -60.503 -65.678  1.00  0.00     0.053 C 
ENDROOT
BRANCH   1   2
ATOM      2  C   UNL     1     -97.661 -61.478 -64.542  1.00  0.00     0.041 C 
ATOM      3  O   UNL     1     -98.723 -61.624 -63.881  1.00  0.00    -0.550 OA
ATOM      4  O   UNL     1     -96.527 -62.199 -64.192  1.00  0.00    -0.550 OA
ENDBRANCH   1   2
BRANCH   1   5
ATOM      5  C   UNL     1     -98.998 -60.267 -66.290  1.00  0.00     0.006 C 
BRANCH   5   6
ATOM      6  C   UNL     1     -99.126 -58.872 -66.918  1.00  0.00    -0.003 C 
ATOM      7  C   UNL     1     -97.910 -58.010 -66.597  1.00  0.00     0.004 C 
ENDBRANCH   5   6
ENDBRANCH   1   5
TORSDOF 3
ENDMDL
MODEL 3
REMARK VINA RESULT:    -3.640      2.867      3.139
REMARK INTER + INTRA:          -4.363
REMARK INTER:                  -4.306
REMARK INTRA:                  -0.057
REMARK UNBOUND:                -0.084
REMARK SMILES CCCCC(=O)[O-]
REMARK SMILES IDX 4 1 5 2 6 3 7 4 3 5 2 6 1 7
REMARK H PARENT
REMARK Flexibility Score: inf
ROOT
ATOM      1  C   UNL     1     -97.434 -60.522 -65.828  1.00  0.00     0.053 C 
ENDROOT
BRANCH   1   2
ATOM      2  C   UNL     1     -97.602 -61.435 -64.652  1.00  0.00     0.041 C 
ATOM      3  O   UNL     1     -96.632 -62.127 -64.245  1.00  0.00    -0.550 OA
ATOM      4  O   UNL     1     -98.837 -61.546 -64.028  1.00  0.00    -0.550 OA
ENDBRANCH   1   2
BRANCH   1   5
ATOM      5  C   UNL     1     -98.766 -60.261 -66.542  1.00  0.00     0.006 C 
BRANCH   5   6
ATOM      6  C   UNL     1     -98.877 -58.818 -67.056  1.00  0.00    -0.003 C 
ATOM      7  C   UNL     1     -97.745 -57.951 -66.512  1.00  0.00     0.004 C 
ENDBRANCH   5   6
ENDBRANCH   1   5
TORSDOF 3
ENDMDL
MODEL 4
REMARK VINA RESULT:    -3.529      2.601      3.391
REMARK INTER + INTRA:          -4.232
REMARK INTER:                  -4.152
REMARK INTRA:                  -0.080
REMARK UNBOUND:                -0.084
REMARK SMILES CCCCC(=O)[O-]
REMARK SMILES IDX 4 1 5 2 6 3 7 4 3 5 2 6 1 7
REMARK H PARENT
REMARK Flexibility Score: inf
ROOT
ATOM      1  C   UNL     1     -97.604 -60.067 -66.836  1.00  0.00     0.053 C 
ENDROOT
BRANCH   1   2
ATOM      2  C   UNL     1     -98.365 -58.778 -66.786  1.00  0.00     0.041 C 
ATOM      3  O   UNL     1     -99.573 -58.743 -67.139  1.00  0.00    -0.550 OA
ATOM      4  O   UNL     1     -97.731 -57.610 -66.383  1.00  0.00    -0.550 OA
ENDBRANCH   1   2
BRANCH   1   5
ATOM      5  C   UNL     1     -98.500 -61.271 -66.516  1.00  0.00     0.006 C 
BRANCH   5   6
ATOM      6  C   UNL     1     -98.476 -61.633 -65.024  1.00  0.00    -0.003 C 
ATOM      7  C   UNL     1     -97.051 -61.632 -64.480  1.00  0.00     0.004 C 
ENDBRANCH   5   6
ENDBRANCH   1   5
TORSDOF 3
ENDMDL
MODEL 5
REMARK VINA RESULT:    -3.520      2.862      3.426
REMARK INTER + INTRA:          -4.222
REMARK INTER:                  -4.163
REMARK INTRA:                  -0.059
REMARK UNBOUND:                -0.084
REMARK SMILES CCCCC(=O)[O-]
REMARK SMILES IDX 4 1 5 2 6 3 7 4 3 5 2 6 1 7
REMARK H PARENT
REMARK Flexibility Score: inf
ROOT
ATOM      1  C   UNL     1     -98.189 -60.277 -66.390  1.00  0.00     0.053 C 
ENDROOT
BRANCH   1   2
ATOM      2  C   UNL     1     -98.578 -58.890 -66.800  1.00  0.00     0.041 C 
ATOM      3  O   UNL     1     -99.673 -58.689 -67.389  1.00  0.00    -0.550 OA
ATOM      4  O   UNL     1     -97.718 -57.826 -66.563  1.00  0.00    -0.550 OA
ENDBRANCH   1   2
BRANCH   1   5
ATOM      5  C   UNL     1     -96.733 -60.593 -66.758  1.00  0.00     0.006 C 
BRANCH   5   6
ATOM      6  C   UNL     1     -95.994 -61.324 -65.627  1.00  0.00    -0.003 C 
ATOM      7  C   UNL     1     -96.955 -61.734 -64.516  1.00  0.00     0.004 C 
ENDBRANCH   5   6
ENDBRANCH   1   5
TORSDOF 3
ENDMDL
MODEL 6
REMARK VINA RESULT:    -3.489      2.667      3.762
REMARK INTER + INTRA:          -4.185
REMARK INTER:                  -4.084
REMARK INTRA:                  -0.100
REMARK UNBOUND:                -0.084
REMARK SMILES CCCCC(=O)[O-]
REMARK SMILES IDX 4 1 5 2 6 3 7 4 3 5 2 6 1 7
REMARK H PARENT
REMARK Flexibility Score: inf
ROOT
ATOM      1  C   UNL     1     -99.697 -59.000 -67.141  1.00  0.00     0.053 C 
ENDROOT
BRANCH   1   2
ATOM      2  C   UNL     1     -98.229 -58.813 -66.909  1.00  0.00     0.041 C 
ATOM      3  O   UNL     1     -97.438 -59.781 -67.056  1.00  0.00    -0.550 OA
ATOM      4  O   UNL     1     -97.741 -57.581 -66.496  1.00  0.00    -0.550 OA
ENDBRANCH   1   2
BRANCH   1   5
ATOM      5  C   UNL     1    -100.258 -60.177 -66.333  1.00  0.00     0.006 C 
BRANCH   5   6
ATOM      6  C   UNL     1    -100.959 -61.212 -67.224  1.00  0.00    -0.003 C 
ATOM      7  C   UNL     1    -100.030 -62.376 -67.552  1.00  0.00     0.004 C 
ENDBRANCH   5   6
ENDBRANCH   1   5
TORSDOF 3
ENDMDL
MODEL 7
REMARK VINA RESULT:    -3.420      1.911      2.359
REMARK INTER + INTRA:          -4.104
REMARK INTER:                  -4.010
REMARK INTRA:                  -0.094
REMARK UNBOUND:                -0.084
REMARK SMILES CCCCC(=O)[O-]
REMARK SMILES IDX 4 1 5 2 6 3 7 4 3 5 2 6 1 7
REMARK H PARENT
REMARK Flexibility Score: inf
ROOT
ATOM      1  C   UNL     1     -98.966 -60.473 -66.331  1.00  0.00     0.053 C 
ENDROOT
BRANCH   1   2
ATOM      2  C   UNL     1     -98.811 -61.425 -67.477  1.00  0.00     0.041 C 
ATOM      3  O   UNL     1     -97.758 -61.417 -68.167  1.00  0.00    -0.550 OA
ATOM      4  O   UNL     1     -99.842 -62.296 -67.803  1.00  0.00    -0.550 OA
ENDBRANCH   1   2
BRANCH   1   5
ATOM      5  C   UNL     1     -99.569 -59.135 -66.778  1.00  0.00     0.006 C 
BRANCH   5   6
ATOM      6  C   UNL     1     -98.494 -58.137 -67.231  1.00  0.00    -0.003 C 
ATOM      7  C   UNL     1     -97.337 -58.085 -66.239  1.00  0.00     0.004 C 
ENDBRANCH   5   6
ENDBRANCH   1   5
TORSDOF 3
ENDMDL
MODEL 8
REMARK VINA RESULT:    -3.415      2.244      3.233
REMARK INTER + INTRA:          -4.099
REMARK INTER:                  -3.984
REMARK INTRA:                  -0.115
REMARK UNBOUND:                -0.084
REMARK SMILES CCCCC(=O)[O-]
REMARK SMILES IDX 4 1 5 2 6 3 7 4 3 5 2 6 1 7
REMARK H PARENT
REMARK Flexibility Score: inf
ROOT
ATOM      1  C   UNL     1    -100.212 -60.952 -65.560  1.00  0.00     0.053 C 
ENDROOT
BRANCH   1   2
ATOM      2  C   UNL     1     -99.603 -60.283 -66.753  1.00  0.00     0.041 C 
ATOM      3  O   UNL     1     -99.960 -59.119 -67.075  1.00  0.00    -0.550 OA
ATOM      4  O   UNL     1     -98.669 -60.956 -67.529  1.00  0.00    -0.550 OA
ENDBRANCH   1   2
BRANCH   1   5
ATOM      5  C   UNL     1     -99.381 -62.155 -65.095  1.00  0.00     0.006 C 
BRANCH   5   6
ATOM      6  C   UNL     1     -98.388 -61.780 -63.986  1.00  0.00    -0.003 C 
ATOM      7  C   UNL     1     -96.953 -61.798 -64.503  1.00  0.00     0.004 C 
ENDBRANCH   5   6
ENDBRANCH   1   5
TORSDOF 3
ENDMDL
MODEL 9
REMARK VINA RESULT:    -3.391      2.703      3.243
REMARK INTER + INTRA:          -4.070
REMARK INTER:                  -3.959
REMARK INTRA:                  -0.111
REMARK UNBOUND:                -0.084
REMARK SMILES CCCCC(=O)[O-]
REMARK SMILES IDX 4 1 5 2 6 3 7 4 3 5 2 6 1 7
REMARK H PARENT
REMARK Flexibility Score: inf
ROOT
ATOM      1  C   UNL     1     -98.147 -61.846 -64.113  1.00  0.00     0.053 C 
ENDROOT
BRANCH   1   2
ATOM      2  C   UNL     1     -99.479 -61.876 -64.796  1.00  0.00     0.041 C 
ATOM      3  O   UNL     1    -100.487 -61.369 -64.238  1.00  0.00    -0.550 OA
ATOM      4  O   UNL     1     -99.614 -62.494 -66.032  1.00  0.00    -0.550 OA
ENDBRANCH   1   2
BRANCH   1   5
ATOM      5  C   UNL     1     -97.240 -60.745 -64.678  1.00  0.00     0.006 C 
BRANCH   5   6
ATOM      6  C   UNL     1     -96.153 -61.307 -65.606  1.00  0.00    -0.003 C 
ATOM      7  C   UNL     1     -96.449 -60.976 -67.065  1.00  0.00     0.004 C 
ENDBRANCH   5   6
ENDBRANCH   1   5
TORSDOF 3
ENDMDL
