MODEL 1
REMARK VINA RESULT:    -6.410      0.000      0.000
REMARK INTER + INTRA:          -8.148
REMARK INTER:                  -7.534
REMARK INTRA:                  -0.614
REMARK UNBOUND:                -0.614
REMARK SMILES C=C(C)[C@H]1CC[C@@]2(CO)CC[C@]3(C)[C@@H](CC[C@H]4[C@]5(C)CC[C@H](O)C(C)(C)[C@H]5CC[C@]43C)[C@@H]12
REMARK SMILES IDX 4 1 5 2 6 3 7 4 32 5 14 6 15 7 16 8 17 9 18 10 20 11 21 12
REMARK SMILES IDX 22 13 24 14 27 15 28 16 29 17 30 18 12 19 11 20 10 21 13 22
REMARK SMILES IDX 31 23 25 24 26 25 19 26 2 27 3 28 1 29 8 30 9 31 23 33
REMARK H PARENT 9 32 23 34
REMARK Flexibility Score: inf
ROOT
ATOM      1  C   UNL     1      33.151   3.905 103.668  1.00  0.00     0.018 C 
ATOM      2  C   UNL     1      32.414   5.252 103.817  1.00  0.00     0.009 C 
ATOM      3  C   UNL     1      31.754   5.251 105.203  1.00  0.00     0.010 C 
ATOM      4  C   UNL     1      32.182   3.945 105.906  1.00  0.00    -0.003 C 
ATOM      5  C   UNL     1      32.503   2.975 104.730  1.00  0.00     0.008 C 
ATOM      6  C   UNL     1      31.276   2.108 104.231  1.00  0.00    -0.000 C 
ATOM      7  C   UNL     1      30.262   2.897 103.382  1.00  0.00     0.005 C 
ATOM      8  C   UNL     1      29.265   1.962 102.753  1.00  0.00     0.005 C 
ATOM      9  C   UNL     1      28.422   1.115 103.748  1.00  0.00     0.002 C 
ATOM     10  C   UNL     1      27.397   0.154 102.916  1.00  0.00    -0.026 C 
ATOM     11  C   UNL     1      25.985   0.810 102.953  1.00  0.00     0.010 C 
ATOM     12  C   UNL     1      24.864  -0.072 102.377  1.00  0.00     0.033 C 
ATOM     13  C   UNL     1      24.772  -1.459 103.047  1.00  0.00     0.120 C 
ATOM     14  C   UNL     1      26.144  -2.233 103.091  1.00  0.00    -0.006 C 
ATOM     15  C   UNL     1      27.299  -1.255 103.580  1.00  0.00     0.003 C 
ATOM     16  C   UNL     1      28.711  -1.898 103.746  1.00  0.00     0.005 C 
ATOM     17  C   UNL     1      29.835  -0.919 104.203  1.00  0.00     0.008 C 
ATOM     18  C   UNL     1      29.327   0.404 104.867  1.00  0.00    -0.024 C 
ATOM     19  C   UNL     1      30.546   1.361 105.397  1.00  0.00    -0.024 C 
ATOM     20  C   UNL     1      30.021   2.485 106.369  1.00  0.00     0.008 C 
ATOM     21  C   UNL     1      31.099   3.441 106.909  1.00  0.00     0.010 C 
ATOM     22  C   UNL     1      31.600   0.482 106.152  1.00  0.00     0.012 C 
ATOM     23  C   UNL     1      28.475   0.003 106.138  1.00  0.00     0.012 C 
ATOM     24  C   UNL     1      26.397  -2.896 101.700  1.00  0.00     0.014 C 
ATOM     25  C   UNL     1      26.012  -3.403 104.109  1.00  0.00     0.014 C 
ATOM     26  C   UNL     1      27.813  -0.018 101.415  1.00  0.00     0.012 C 
ENDROOT
BRANCH   1  27
ATOM     27  C   UNL     1      33.308   3.332 102.255  1.00  0.00    -0.077 C 
ATOM     28  C   UNL     1      34.123   2.080 102.041  1.00  0.00     0.039 C 
ATOM     29  C   UNL     1      32.915   4.009 101.161  1.00  0.00     0.008 C 
ENDBRANCH   1  27
BRANCH   4  30
ATOM     30  C   UNL     1      33.472   4.260 106.734  1.00  0.00     0.163 C 
BRANCH  30  31
ATOM     31  O   UNL     1      34.125   3.082 107.125  1.00  0.00    -0.396 OA
ATOM     32  H   UNL     1      33.413   2.459 107.431  1.00  0.00     0.210 HD
ENDBRANCH  30  31
ENDBRANCH   4  30
BRANCH  13  33
ATOM     33  O   UNL     1      24.167  -1.346 104.318  1.00  0.00    -0.393 OA
ATOM     34  H   UNL     1      24.707  -1.852 104.973  1.00  0.00     0.210 HD
ENDBRANCH  13  33
TORSDOF 4
ENDMDL
MODEL 2
REMARK VINA RESULT:    -6.280      2.912      5.262
REMARK INTER + INTRA:          -7.995
REMARK INTER:                  -7.414
REMARK INTRA:                  -0.581
REMARK UNBOUND:                -0.614
REMARK SMILES C=C(C)[C@H]1CC[C@@]2(CO)CC[C@]3(C)[C@@H](CC[C@H]4[C@]5(C)CC[C@H](O)C(C)(C)[C@H]5CC[C@]43C)[C@@H]12
REMARK SMILES IDX 4 1 5 2 6 3 7 4 32 5 14 6 15 7 16 8 17 9 18 10 20 11 21 12
REMARK SMILES IDX 22 13 24 14 27 15 28 16 29 17 30 18 12 19 11 20 10 21 13 22
REMARK SMILES IDX 31 23 25 24 26 25 19 26 2 27 3 28 1 29 8 30 9 31 23 33
REMARK H PARENT 9 32 23 34
REMARK Flexibility Score: inf
ROOT
ATOM      1  C   UNL     1      30.498  -0.162 102.660  1.00  0.00     0.018 C 
ATOM      2  C   UNL     1      30.507   0.853 101.497  1.00  0.00     0.009 C 
ATOM      3  C   UNL     1      29.364   1.844 101.760  1.00  0.00     0.010 C 
ATOM      4  C   UNL     1      28.744   1.469 103.123  1.00  0.00    -0.003 C 
ATOM      5  C   UNL     1      29.080  -0.044 103.283  1.00  0.00     0.008 C 
ATOM      6  C   UNL     1      27.988  -1.032 102.702  1.00  0.00    -0.000 C 
ATOM      7  C   UNL     1      27.993  -1.131 101.165  1.00  0.00     0.005 C 
ATOM      8  C   UNL     1      27.102  -2.254 100.710  1.00  0.00     0.005 C 
ATOM      9  C   UNL     1      25.608  -2.133 101.124  1.00  0.00     0.002 C 
ATOM     10  C   UNL     1      24.778  -3.421 100.561  1.00  0.00    -0.026 C 
ATOM     11  C   UNL     1      24.009  -2.978  99.281  1.00  0.00     0.010 C 
ATOM     12  C   UNL     1      23.025  -4.029  98.741  1.00  0.00     0.033 C 
ATOM     13  C   UNL     1      21.992  -4.497  99.789  1.00  0.00     0.120 C 
ATOM     14  C   UNL     1      22.639  -4.963 101.149  1.00  0.00    -0.006 C 
ATOM     15  C   UNL     1      23.734  -3.909 101.615  1.00  0.00     0.003 C 
ATOM     16  C   UNL     1      24.414  -4.195 102.989  1.00  0.00     0.005 C 
ATOM     17  C   UNL     1      25.502  -3.164 103.419  1.00  0.00     0.008 C 
ATOM     18  C   UNL     1      25.431  -1.786 102.681  1.00  0.00    -0.024 C 
ATOM     19  C   UNL     1      26.545  -0.715 103.222  1.00  0.00    -0.024 C 
ATOM     20  C   UNL     1      26.225   0.751 102.739  1.00  0.00     0.008 C 
ATOM     21  C   UNL     1      27.228   1.826 103.192  1.00  0.00     0.010 C 
ATOM     22  C   UNL     1      26.571  -0.744 104.788  1.00  0.00     0.012 C 
ATOM     23  C   UNL     1      24.010  -1.157 102.980  1.00  0.00     0.012 C 
ATOM     24  C   UNL     1      23.168  -6.423 100.985  1.00  0.00     0.014 C 
ATOM     25  C   UNL     1      21.515  -5.030 102.225  1.00  0.00     0.014 C 
ATOM     26  C   UNL     1      25.711  -4.621 100.177  1.00  0.00     0.012 C 
ENDROOT
BRANCH   1  27
ATOM     27  C   UNL     1      31.008  -1.578 102.370  1.00  0.00    -0.077 C 
ATOM     28  C   UNL     1      31.151  -2.568 103.501  1.00  0.00     0.039 C 
ATOM     29  C   UNL     1      31.526  -1.923 101.177  1.00  0.00     0.008 C 
ENDBRANCH   1  27
BRANCH   4  30
ATOM     30  C   UNL     1      29.473   2.318 104.217  1.00  0.00     0.163 C 
BRANCH  30  31
ATOM     31  O   UNL     1      28.609   2.627 105.279  1.00  0.00    -0.396 OA
ATOM     32  H   UNL     1      27.689   2.454 104.946  1.00  0.00     0.210 HD
ENDBRANCH  30  31
ENDBRANCH   4  30
BRANCH  13  33
ATOM     33  O   UNL     1      20.999  -3.510  99.966  1.00  0.00    -0.393 OA
ATOM     34  H   UNL     1      21.281  -2.901 100.692  1.00  0.00     0.210 HD
ENDBRANCH  13  33
TORSDOF 4
ENDMDL
MODEL 3
REMARK VINA RESULT:    -6.216      1.733      8.004
REMARK INTER + INTRA:          -7.921
REMARK INTER:                  -7.338
REMARK INTRA:                  -0.582
REMARK UNBOUND:                -0.614
REMARK SMILES C=C(C)[C@H]1CC[C@@]2(CO)CC[C@]3(C)[C@@H](CC[C@H]4[C@]5(C)CC[C@H](O)C(C)(C)[C@H]5CC[C@]43C)[C@@H]12
REMARK SMILES IDX 4 1 5 2 6 3 7 4 32 5 14 6 15 7 16 8 17 9 18 10 20 11 21 12
REMARK SMILES IDX 22 13 24 14 27 15 28 16 29 17 30 18 12 19 11 20 10 21 13 22
REMARK SMILES IDX 31 23 25 24 26 25 19 26 2 27 3 28 1 29 8 30 9 31 23 33
REMARK H PARENT 9 32 23 34
REMARK Flexibility Score: inf
ROOT
ATOM      1  C   UNL     1      26.548  -4.050 102.686  1.00  0.00     0.018 C 
ATOM      2  C   UNL     1      25.622  -4.129 103.918  1.00  0.00     0.009 C 
ATOM      3  C   UNL     1      24.623  -2.968 103.801  1.00  0.00     0.010 C 
ATOM      4  C   UNL     1      24.900  -2.267 102.454  1.00  0.00    -0.003 C 
ATOM      5  C   UNL     1      26.395  -2.596 102.162  1.00  0.00     0.008 C 
ATOM      6  C   UNL     1      27.431  -1.544 102.733  1.00  0.00    -0.000 C 
ATOM      7  C   UNL     1      27.644  -1.645 104.255  1.00  0.00     0.005 C 
ATOM      8  C   UNL     1      28.804  -0.787 104.680  1.00  0.00     0.005 C 
ATOM      9  C   UNL     1      28.664   0.730 104.369  1.00  0.00     0.002 C 
ATOM     10  C   UNL     1      29.996   1.520 104.884  1.00  0.00    -0.026 C 
ATOM     11  C   UNL     1      29.655   2.209 106.238  1.00  0.00     0.010 C 
ATOM     12  C   UNL     1      30.750   3.155 106.758  1.00  0.00     0.033 C 
ATOM     13  C   UNL     1      31.146   4.249 105.744  1.00  0.00     0.120 C 
ATOM     14  C   UNL     1      31.506   3.687 104.316  1.00  0.00    -0.006 C 
ATOM     15  C   UNL     1      30.412   2.626 103.864  1.00  0.00     0.003 C 
ATOM     16  C   UNL     1      30.591   2.032 102.432  1.00  0.00     0.005 C 
ATOM     17  C   UNL     1      29.523   0.975 102.014  1.00  0.00     0.008 C 
ATOM     18  C   UNL     1      28.203   1.004 102.856  1.00  0.00    -0.024 C 
ATOM     19  C   UNL     1      27.087  -0.072 102.329  1.00  0.00    -0.024 C 
ATOM     20  C   UNL     1      25.663   0.222 102.938  1.00  0.00     0.008 C 
ATOM     21  C   UNL     1      24.551  -0.748 102.505  1.00  0.00     0.010 C 
ATOM     22  C   UNL     1      27.000  -0.000 100.766  1.00  0.00     0.012 C 
ATOM     23  C   UNL     1      27.565   2.443 102.692  1.00  0.00     0.012 C 
ATOM     24  C   UNL     1      32.970   3.145 104.338  1.00  0.00     0.014 C 
ATOM     25  C   UNL     1      31.501   4.875 103.310  1.00  0.00     0.014 C 
ATOM     26  C   UNL     1      31.214   0.562 105.120  1.00  0.00     0.012 C 
ENDROOT
BRANCH   1  27
ATOM     27  C   UNL     1      27.978  -4.581 102.837  1.00  0.00    -0.077 C 
ATOM     28  C   UNL     1      28.887  -4.639 101.633  1.00  0.00     0.039 C 
ATOM     29  C   UNL     1      28.402  -5.187 103.961  1.00  0.00     0.008 C 
ENDBRANCH   1  27
BRANCH   4  30
ATOM     30  C   UNL     1      23.967  -2.923 101.383  1.00  0.00     0.163 C 
BRANCH  30  31
ATOM     31  O   UNL     1      23.625  -2.007 100.377  1.00  0.00    -0.396 OA
ATOM     32  H   UNL     1      24.333  -2.080  99.684  1.00  0.00     0.210 HD
ENDBRANCH  30  31
ENDBRANCH   4  30
BRANCH  13  33
ATOM     33  O   UNL     1      30.156   5.255 105.703  1.00  0.00    -0.393 OA
ATOM     34  H   UNL     1      29.281   4.832 105.523  1.00  0.00     0.210 HD
ENDBRANCH  13  33
TORSDOF 4
ENDMDL
MODEL 4
REMARK VINA RESULT:    -6.141      2.800      9.127
REMARK INTER + INTRA:          -7.832
REMARK INTER:                  -7.222
REMARK INTRA:                  -0.611
REMARK UNBOUND:                -0.614
REMARK SMILES C=C(C)[C@H]1CC[C@@]2(CO)CC[C@]3(C)[C@@H](CC[C@H]4[C@]5(C)CC[C@H](O)C(C)(C)[C@H]5CC[C@]43C)[C@@H]12
REMARK SMILES IDX 4 1 5 2 6 3 7 4 32 5 14 6 15 7 16 8 17 9 18 10 20 11 21 12
REMARK SMILES IDX 22 13 24 14 27 15 28 16 29 17 30 18 12 19 11 20 10 21 13 22
REMARK SMILES IDX 31 23 25 24 26 25 19 26 2 27 3 28 1 29 8 30 9 31 23 33
REMARK H PARENT 9 32 23 34
REMARK Flexibility Score: inf
ROOT
ATOM      1  C   UNL     1      24.855  -5.641 100.223  1.00  0.00     0.018 C 
ATOM      2  C   UNL     1      24.127  -6.288 101.420  1.00  0.00     0.009 C 
ATOM      3  C   UNL     1      23.040  -5.302 101.870  1.00  0.00     0.010 C 
ATOM      4  C   UNL     1      23.066  -4.118 100.880  1.00  0.00    -0.003 C 
ATOM      5  C   UNL     1      24.521  -4.127 100.324  1.00  0.00     0.008 C 
ATOM      6  C   UNL     1      25.551  -3.247 101.144  1.00  0.00    -0.000 C 
ATOM      7  C   UNL     1      25.991  -3.884 102.475  1.00  0.00     0.005 C 
ATOM      8  C   UNL     1      27.136  -3.111 103.072  1.00  0.00     0.005 C 
ATOM      9  C   UNL     1      26.841  -1.618 103.390  1.00  0.00     0.002 C 
ATOM     10  C   UNL     1      28.174  -0.921 104.025  1.00  0.00    -0.026 C 
ATOM     11  C   UNL     1      27.986  -0.838 105.569  1.00  0.00     0.010 C 
ATOM     12  C   UNL     1      29.074  -0.028 106.294  1.00  0.00     0.033 C 
ATOM     13  C   UNL     1      29.236   1.406 105.748  1.00  0.00     0.120 C 
ATOM     14  C   UNL     1      29.423   1.469 104.184  1.00  0.00    -0.006 C 
ATOM     15  C   UNL     1      28.354   0.528 103.476  1.00  0.00     0.003 C 
ATOM     16  C   UNL     1      28.364   0.541 101.915  1.00  0.00     0.005 C 
ATOM     17  C   UNL     1      27.326  -0.404 101.238  1.00  0.00     0.008 C 
ATOM     18  C   UNL     1      26.145  -0.856 102.161  1.00  0.00    -0.024 C 
ATOM     19  C   UNL     1      25.045  -1.784 101.381  1.00  0.00    -0.024 C 
ATOM     20  C   UNL     1      23.709  -1.918 102.206  1.00  0.00     0.008 C 
ATOM     21  C   UNL     1      22.618  -2.784 101.553  1.00  0.00     0.010 C 
ATOM     22  C   UNL     1      24.725  -1.144  99.988  1.00  0.00     0.012 C 
ATOM     23  C   UNL     1      25.387   0.448 102.638  1.00  0.00     0.012 C 
ATOM     24  C   UNL     1      30.910   1.144 103.836  1.00  0.00     0.014 C 
ATOM     25  C   UNL     1      29.184   2.937 103.724  1.00  0.00     0.014 C 
ATOM     26  C   UNL     1      29.480  -1.740 103.739  1.00  0.00     0.012 C 
ENDROOT
BRANCH   1  27
ATOM     27  C   UNL     1      26.326  -6.008 100.002  1.00  0.00    -0.077 C 
ATOM     28  C   UNL     1      27.040  -5.530  98.761  1.00  0.00     0.039 C 
ATOM     29  C   UNL     1      26.962  -6.911 100.771  1.00  0.00     0.008 C 
ENDBRANCH   1  27
BRANCH   4  30
ATOM     30  C   UNL     1      22.036  -4.435  99.745  1.00  0.00     0.163 C 
BRANCH  30  31
ATOM     31  O   UNL     1      22.362  -3.759  98.560  1.00  0.00    -0.396 OA
ATOM     32  H   UNL     1      23.305  -3.462  98.661  1.00  0.00     0.210 HD
ENDBRANCH  30  31
ENDBRANCH   4  30
BRANCH  13  33
ATOM     33  O   UNL     1      28.181   2.223 106.206  1.00  0.00    -0.393 OA
ATOM     34  H   UNL     1      28.158   2.188 107.194  1.00  0.00     0.210 HD
ENDBRANCH  13  33
TORSDOF 4
ENDMDL
MODEL 5
REMARK VINA RESULT:    -6.038      1.554      2.040
REMARK INTER + INTRA:          -7.711
REMARK INTER:                  -7.271
REMARK INTRA:                  -0.439
REMARK UNBOUND:                -0.614
REMARK SMILES C=C(C)[C@H]1CC[C@@]2(CO)CC[C@]3(C)[C@@H](CC[C@H]4[C@]5(C)CC[C@H](O)C(C)(C)[C@H]5CC[C@]43C)[C@@H]12
REMARK SMILES IDX 4 1 5 2 6 3 7 4 32 5 14 6 15 7 16 8 17 9 18 10 20 11 21 12
REMARK SMILES IDX 22 13 24 14 27 15 28 16 29 17 30 18 12 19 11 20 10 21 13 22
REMARK SMILES IDX 31 23 25 24 26 25 19 26 2 27 3 28 1 29 8 30 9 31 23 33
REMARK H PARENT 9 32 23 34
REMARK Flexibility Score: inf
ROOT
ATOM      1  C   UNL     1      33.257   3.066 103.416  1.00  0.00     0.018 C 
ATOM      2  C   UNL     1      32.947   4.238 102.460  1.00  0.00     0.009 C 
ATOM      3  C   UNL     1      31.731   4.977 103.038  1.00  0.00     0.010 C 
ATOM      4  C   UNL     1      31.386   4.298 104.380  1.00  0.00    -0.003 C 
ATOM      5  C   UNL     1      31.948   2.854 104.225  1.00  0.00     0.008 C 
ATOM      6  C   UNL     1      30.927   1.804 103.622  1.00  0.00    -0.000 C 
ATOM      7  C   UNL     1      30.711   1.948 102.104  1.00  0.00     0.005 C 
ATOM      8  C   UNL     1      29.925   0.781 101.574  1.00  0.00     0.005 C 
ATOM      9  C   UNL     1      28.509   0.592 102.190  1.00  0.00     0.002 C 
ATOM     10  C   UNL     1      27.790  -0.710 101.518  1.00  0.00    -0.026 C 
ATOM     11  C   UNL     1      26.781  -0.203 100.446  1.00  0.00     0.010 C 
ATOM     12  C   UNL     1      25.880  -1.303  99.858  1.00  0.00     0.033 C 
ATOM     13  C   UNL     1      25.095  -2.089 100.929  1.00  0.00     0.120 C 
ATOM     14  C   UNL     1      25.999  -2.651 102.091  1.00  0.00    -0.006 C 
ATOM     15  C   UNL     1      26.997  -1.518 102.593  1.00  0.00     0.003 C 
ATOM     16  C   UNL     1      27.912  -1.902 103.797  1.00  0.00     0.005 C 
ATOM     17  C   UNL     1      28.899  -0.788 104.260  1.00  0.00     0.008 C 
ATOM     18  C   UNL     1      28.526   0.659 103.794  1.00  0.00    -0.024 C 
ATOM     19  C   UNL     1      29.551   1.799 104.370  1.00  0.00    -0.024 C 
ATOM     20  C   UNL     1      28.961   3.250 104.199  1.00  0.00     0.008 C 
ATOM     21  C   UNL     1      29.863   4.389 104.704  1.00  0.00     0.010 C 
ATOM     22  C   UNL     1      29.819   1.530 105.889  1.00  0.00     0.012 C 
ATOM     23  C   UNL     1      27.095   0.994 104.378  1.00  0.00     0.012 C 
ATOM     24  C   UNL     1      26.694  -3.962 101.605  1.00  0.00     0.014 C 
ATOM     25  C   UNL     1      25.074  -3.066 103.272  1.00  0.00     0.014 C 
ATOM     26  C   UNL     1      28.809  -1.668 100.812  1.00  0.00     0.012 C 
ENDROOT
BRANCH   1  27
ATOM     27  C   UNL     1      33.907   1.813 102.817  1.00  0.00    -0.077 C 
ATOM     28  C   UNL     1      34.123   1.722 101.326  1.00  0.00     0.039 C 
ATOM     29  C   UNL     1      34.116   0.699 103.541  1.00  0.00     0.008 C 
ENDBRANCH   1  27
BRANCH   4  30
ATOM     30  C   UNL     1      32.148   5.073 105.506  1.00  0.00     0.163 C 
BRANCH  30  31
ATOM     31  O   UNL     1      31.288   5.413 106.561  1.00  0.00    -0.396 OA
ATOM     32  H   UNL     1      31.656   4.971 107.371  1.00  0.00     0.210 HD
ENDBRANCH  30  31
ENDBRANCH   4  30
BRANCH  13  33
ATOM     33  O   UNL     1      24.013  -1.317 101.403  1.00  0.00    -0.393 OA
ATOM     34  H   UNL     1      23.660  -0.772 100.657  1.00  0.00     0.210 HD
ENDBRANCH  13  33
TORSDOF 4
ENDMDL
MODEL 6
REMARK VINA RESULT:    -6.031      3.528      6.116
REMARK INTER + INTRA:          -7.703
REMARK INTER:                  -7.208
REMARK INTRA:                  -0.495
REMARK UNBOUND:                -0.614
REMARK SMILES C=C(C)[C@H]1CC[C@@]2(CO)CC[C@]3(C)[C@@H](CC[C@H]4[C@]5(C)CC[C@H](O)C(C)(C)[C@H]5CC[C@]43C)[C@@H]12
REMARK SMILES IDX 4 1 5 2 6 3 7 4 32 5 14 6 15 7 16 8 17 9 18 10 20 11 21 12
REMARK SMILES IDX 22 13 24 14 27 15 28 16 29 17 30 18 12 19 11 20 10 21 13 22
REMARK SMILES IDX 31 23 25 24 26 25 19 26 2 27 3 28 1 29 8 30 9 31 23 33
REMARK H PARENT 9 32 23 34
REMARK Flexibility Score: inf
ROOT
ATOM      1  C   UNL     1      32.010   4.439 102.994  1.00  0.00     0.018 C 
ATOM      2  C   UNL     1      33.513   4.453 102.647  1.00  0.00     0.009 C 
ATOM      3  C   UNL     1      33.795   3.188 101.824  1.00  0.00     0.010 C 
ATOM      4  C   UNL     1      32.440   2.480 101.606  1.00  0.00    -0.003 C 
ATOM      5  C   UNL     1      31.569   2.962 102.804  1.00  0.00     0.008 C 
ATOM      6  C   UNL     1      31.651   2.048 104.094  1.00  0.00    -0.000 C 
ATOM      7  C   UNL     1      32.955   2.217 104.895  1.00  0.00     0.005 C 
ATOM      8  C   UNL     1      32.855   1.504 106.216  1.00  0.00     0.005 C 
ATOM      9  C   UNL     1      32.603  -0.028 106.132  1.00  0.00     0.002 C 
ATOM     10  C   UNL     1      32.517  -0.652 107.638  1.00  0.00    -0.026 C 
ATOM     11  C   UNL     1      33.881  -1.332 107.957  1.00  0.00     0.010 C 
ATOM     12  C   UNL     1      33.892  -2.137 109.268  1.00  0.00     0.033 C 
ATOM     13  C   UNL     1      32.787  -3.212 109.337  1.00  0.00     0.120 C 
ATOM     14  C   UNL     1      31.346  -2.657 109.019  1.00  0.00    -0.006 C 
ATOM     15  C   UNL     1      31.397  -1.736 107.724  1.00  0.00     0.003 C 
ATOM     16  C   UNL     1      30.027  -1.170 107.237  1.00  0.00     0.005 C 
ATOM     17  C   UNL     1      30.099  -0.249 105.980  1.00  0.00     0.008 C 
ATOM     18  C   UNL     1      31.405  -0.397 105.130  1.00  0.00    -0.024 C 
ATOM     19  C   UNL     1      31.397   0.534 103.782  1.00  0.00    -0.024 C 
ATOM     20  C   UNL     1      32.529   0.105 102.773  1.00  0.00     0.008 C 
ATOM     21  C   UNL     1      32.604   0.934 101.480  1.00  0.00     0.010 C 
ATOM     22  C   UNL     1      30.005   0.406 103.076  1.00  0.00     0.012 C 
ATOM     23  C   UNL     1      31.492  -1.901 104.646  1.00  0.00     0.012 C 
ATOM     24  C   UNL     1      30.778  -1.958 110.294  1.00  0.00     0.014 C 
ATOM     25  C   UNL     1      30.409  -3.869 108.738  1.00  0.00     0.014 C 
ATOM     26  C   UNL     1      32.251   0.441 108.731  1.00  0.00     0.012 C 
ENDROOT
BRANCH   1  27
ATOM     27  C   UNL     1      31.574   5.127 104.292  1.00  0.00    -0.077 C 
ATOM     28  C   UNL     1      30.119   5.472 104.505  1.00  0.00     0.039 C 
ATOM     29  C   UNL     1      32.461   5.622 105.174  1.00  0.00     0.008 C 
ENDBRANCH   1  27
BRANCH   4  30
ATOM     30  C   UNL     1      31.854   2.998 100.250  1.00  0.00     0.163 C 
BRANCH  30  31
ATOM     31  O   UNL     1      32.220   2.161  99.186  1.00  0.00    -0.396 OA
ATOM     32  H   UNL     1      32.951   1.581  99.528  1.00  0.00     0.210 HD
ENDBRANCH  30  31
ENDBRANCH   4  30
BRANCH  13  33
ATOM     33  O   UNL     1      33.136  -4.320 108.536  1.00  0.00    -0.393 OA
ATOM     34  H   UNL     1      33.767  -4.020 107.836  1.00  0.00     0.210 HD
ENDBRANCH  13  33
TORSDOF 4
ENDMDL
MODEL 7
REMARK VINA RESULT:    -5.997      1.806      3.406
REMARK INTER + INTRA:          -7.662
REMARK INTER:                  -7.068
REMARK INTRA:                  -0.595
REMARK UNBOUND:                -0.614
REMARK SMILES C=C(C)[C@H]1CC[C@@]2(CO)CC[C@]3(C)[C@@H](CC[C@H]4[C@]5(C)CC[C@H](O)C(C)(C)[C@H]5CC[C@]43C)[C@@H]12
REMARK SMILES IDX 4 1 5 2 6 3 7 4 32 5 14 6 15 7 16 8 17 9 18 10 20 11 21 12
REMARK SMILES IDX 22 13 24 14 27 15 28 16 29 17 30 18 12 19 11 20 10 21 13 22
REMARK SMILES IDX 31 23 25 24 26 25 19 26 2 27 3 28 1 29 8 30 9 31 23 33
REMARK H PARENT 9 32 23 34
REMARK Flexibility Score: inf
ROOT
ATOM      1  C   UNL     1      32.535   0.982 105.497  1.00  0.00     0.018 C 
ATOM      2  C   UNL     1      33.289   1.559 104.281  1.00  0.00     0.009 C 
ATOM      3  C   UNL     1      32.485   2.772 103.791  1.00  0.00     0.010 C 
ATOM      4  C   UNL     1      31.313   2.965 104.776  1.00  0.00    -0.003 C 
ATOM      5  C   UNL     1      31.093   1.545 105.378  1.00  0.00     0.008 C 
ATOM      6  C   UNL     1      30.062   0.641 104.588  1.00  0.00    -0.000 C 
ATOM      7  C   UNL     1      30.621   0.063 103.274  1.00  0.00     0.005 C 
ATOM      8  C   UNL     1      29.678  -0.965 102.710  1.00  0.00     0.005 C 
ATOM      9  C   UNL     1      28.250  -0.450 102.375  1.00  0.00     0.002 C 
ATOM     10  C   UNL     1      27.352  -1.676 101.780  1.00  0.00    -0.026 C 
ATOM     11  C   UNL     1      27.299  -1.527 100.231  1.00  0.00     0.010 C 
ATOM     12  C   UNL     1      26.328  -2.497  99.537  1.00  0.00     0.033 C 
ATOM     13  C   UNL     1      24.886  -2.415 100.081  1.00  0.00     0.120 C 
ATOM     14  C   UNL     1      24.795  -2.538 101.650  1.00  0.00    -0.006 C 
ATOM     15  C   UNL     1      25.892  -1.608 102.328  1.00  0.00     0.003 C 
ATOM     16  C   UNL     1      25.878  -1.566 103.888  1.00  0.00     0.005 C 
ATOM     17  C   UNL     1      26.975  -0.668 104.536  1.00  0.00     0.008 C 
ATOM     18  C   UNL     1      27.607   0.397 103.578  1.00  0.00    -0.024 C 
ATOM     19  C   UNL     1      28.697   1.362 104.327  1.00  0.00    -0.024 C 
ATOM     20  C   UNL     1      29.039   2.633 103.460  1.00  0.00     0.008 C 
ATOM     21  C   UNL     1      30.066   3.595 104.082  1.00  0.00     0.010 C 
ATOM     22  C   UNL     1      28.115   1.824 105.706  1.00  0.00     0.012 C 
ATOM     23  C   UNL     1      26.438   1.335 103.071  1.00  0.00     0.012 C 
ATOM     24  C   UNL     1      24.882  -4.046 102.046  1.00  0.00     0.014 C 
ATOM     25  C   UNL     1      23.382  -2.057 102.095  1.00  0.00     0.014 C 
ATOM     26  C   UNL     1      27.955  -3.084 102.112  1.00  0.00     0.012 C 
ENDROOT
BRANCH   1  27
ATOM     27  C   UNL     1      32.667  -0.522 105.767  1.00  0.00    -0.077 C 
ATOM     28  C   UNL     1      32.053  -1.116 107.012  1.00  0.00     0.039 C 
ATOM     29  C   UNL     1      33.480  -1.311 105.042  1.00  0.00     0.008 C 
ENDBRANCH   1  27
BRANCH   4  30
ATOM     30  C   UNL     1      31.788   3.969 105.879  1.00  0.00     0.163 C 
BRANCH  30  31
ATOM     31  O   UNL     1      30.703   4.460 106.620  1.00  0.00    -0.396 OA
ATOM     32  H   UNL     1      30.781   5.451 106.602  1.00  0.00     0.210 HD
ENDBRANCH  30  31
ENDBRANCH   4  30
BRANCH  13  33
ATOM     33  O   UNL     1      24.245  -1.260  99.585  1.00  0.00    -0.393 OA
ATOM     34  H   UNL     1      24.353  -0.529 100.242  1.00  0.00     0.210 HD
ENDBRANCH  13  33
TORSDOF 4
ENDMDL
MODEL 8
REMARK VINA RESULT:    -5.920      7.769     11.086
REMARK INTER + INTRA:          -7.573
REMARK INTER:                  -6.993
REMARK INTRA:                  -0.579
REMARK UNBOUND:                -0.614
REMARK SMILES C=C(C)[C@H]1CC[C@@]2(CO)CC[C@]3(C)[C@@H](CC[C@H]4[C@]5(C)CC[C@H](O)C(C)(C)[C@H]5CC[C@]43C)[C@@H]12
REMARK SMILES IDX 4 1 5 2 6 3 7 4 32 5 14 6 15 7 16 8 17 9 18 10 20 11 21 12
REMARK SMILES IDX 22 13 24 14 27 15 28 16 29 17 30 18 12 19 11 20 10 21 13 22
REMARK SMILES IDX 31 23 25 24 26 25 19 26 2 27 3 28 1 29 8 30 9 31 23 33
REMARK H PARENT 9 32 23 34
REMARK Flexibility Score: inf
ROOT
ATOM      1  C   UNL     1      24.398  -4.926 102.548  1.00  0.00     0.018 C 
ATOM      2  C   UNL     1      24.013  -3.435 102.639  1.00  0.00     0.009 C 
ATOM      3  C   UNL     1      23.022  -3.158 101.499  1.00  0.00     0.010 C 
ATOM      4  C   UNL     1      22.752  -4.506 100.798  1.00  0.00    -0.003 C 
ATOM      5  C   UNL     1      24.028  -5.347 101.099  1.00  0.00     0.008 C 
ATOM      6  C   UNL     1      25.183  -5.210 100.025  1.00  0.00    -0.000 C 
ATOM      7  C   UNL     1      25.962  -3.884 100.116  1.00  0.00     0.005 C 
ATOM      8  C   UNL     1      27.179  -3.931  99.233  1.00  0.00     0.005 C 
ATOM      9  C   UNL     1      26.901  -4.160  97.720  1.00  0.00     0.002 C 
ATOM     10  C   UNL     1      28.313  -4.189  96.902  1.00  0.00    -0.026 C 
ATOM     11  C   UNL     1      28.500  -2.804  96.215  1.00  0.00     0.010 C 
ATOM     12  C   UNL     1      29.692  -2.737  95.245  1.00  0.00     0.033 C 
ATOM     13  C   UNL     1      29.650  -3.822  94.147  1.00  0.00     0.120 C 
ATOM     14  C   UNL     1      29.450  -5.281  94.708  1.00  0.00    -0.006 C 
ATOM     15  C   UNL     1      28.287  -5.286  95.793  1.00  0.00     0.003 C 
ATOM     16  C   UNL     1      27.918  -6.680  96.390  1.00  0.00     0.005 C 
ATOM     17  C   UNL     1      26.792  -6.663  97.468  1.00  0.00     0.008 C 
ATOM     18  C   UNL     1      25.893  -5.382  97.462  1.00  0.00    -0.024 C 
ATOM     19  C   UNL     1      24.681  -5.448  98.561  1.00  0.00    -0.024 C 
ATOM     20  C   UNL     1      23.592  -4.340  98.292  1.00  0.00     0.008 C 
ATOM     21  C   UNL     1      22.418  -4.320  99.286  1.00  0.00     0.010 C 
ATOM     22  C   UNL     1      24.004  -6.859  98.498  1.00  0.00     0.012 C 
ATOM     23  C   UNL     1      25.212  -5.285  96.037  1.00  0.00     0.012 C 
ATOM     24  C   UNL     1      30.822  -5.821  95.221  1.00  0.00     0.014 C 
ATOM     25  C   UNL     1      29.038  -6.206  93.525  1.00  0.00     0.014 C 
ATOM     26  C   UNL     1      29.548  -4.438  97.836  1.00  0.00     0.012 C 
ENDROOT
BRANCH   1  27
ATOM     27  C   UNL     1      25.788  -5.333 103.050  1.00  0.00    -0.077 C 
ATOM     28  C   UNL     1      26.182  -6.791 103.064  1.00  0.00     0.039 C 
ATOM     29  C   UNL     1      26.609  -4.466 103.669  1.00  0.00     0.008 C 
ENDBRANCH   1  27
BRANCH   4  30
ATOM     30  C   UNL     1      21.494  -5.143 101.477  1.00  0.00     0.163 C 
BRANCH  30  31
ATOM     31  O   UNL     1      20.634  -4.155 101.982  1.00  0.00    -0.396 OA
ATOM     32  H   UNL     1      21.077  -3.284 101.801  1.00  0.00     0.210 HD
ENDBRANCH  30  31
ENDBRANCH   4  30
BRANCH  13  33
ATOM     33  O   UNL     1      28.700  -3.479  93.162  1.00  0.00    -0.393 OA
ATOM     34  H   UNL     1      29.173  -3.087  92.387  1.00  0.00     0.210 HD
ENDBRANCH  13  33
TORSDOF 4
ENDMDL
MODEL 9
REMARK VINA RESULT:    -5.853      3.755      5.641
REMARK INTER + INTRA:          -7.494
REMARK INTER:                  -6.881
REMARK INTRA:                  -0.613
REMARK UNBOUND:                -0.614
REMARK SMILES C=C(C)[C@H]1CC[C@@]2(CO)CC[C@]3(C)[C@@H](CC[C@H]4[C@]5(C)CC[C@H](O)C(C)(C)[C@H]5CC[C@]43C)[C@@H]12
REMARK SMILES IDX 4 1 5 2 6 3 7 4 32 5 14 6 15 7 16 8 17 9 18 10 20 11 21 12
REMARK SMILES IDX 22 13 24 14 27 15 28 16 29 17 30 18 12 19 11 20 10 21 13 22
REMARK SMILES IDX 31 23 25 24 26 25 19 26 2 27 3 28 1 29 8 30 9 31 23 33
REMARK H PARENT 9 32 23 34
REMARK Flexibility Score: inf
ROOT
ATOM      1  C   UNL     1      32.180   2.617 103.167  1.00  0.00     0.018 C 
ATOM      2  C   UNL     1      30.713   3.094 103.134  1.00  0.00     0.009 C 
ATOM      3  C   UNL     1      30.466   3.874 104.433  1.00  0.00     0.010 C 
ATOM      4  C   UNL     1      31.813   3.938 105.185  1.00  0.00    -0.003 C 
ATOM      5  C   UNL     1      32.592   2.693 104.663  1.00  0.00     0.008 C 
ATOM      6  C   UNL     1      32.373   1.372 105.507  1.00  0.00    -0.000 C 
ATOM      7  C   UNL     1      31.011   0.697 105.263  1.00  0.00     0.005 C 
ATOM      8  C   UNL     1      30.976  -0.662 105.909  1.00  0.00     0.005 C 
ATOM      9  C   UNL     1      31.190  -0.676 107.449  1.00  0.00     0.002 C 
ATOM     10  C   UNL     1      31.129  -2.214 107.995  1.00  0.00    -0.026 C 
ATOM     11  C   UNL     1      29.723  -2.446 108.624  1.00  0.00     0.010 C 
ATOM     12  C   UNL     1      29.576  -3.789 109.360  1.00  0.00     0.033 C 
ATOM     13  C   UNL     1      30.640  -4.007 110.456  1.00  0.00     0.120 C 
ATOM     14  C   UNL     1      32.118  -3.789 109.955  1.00  0.00    -0.006 C 
ATOM     15  C   UNL     1      32.205  -2.450 109.101  1.00  0.00     0.003 C 
ATOM     16  C   UNL     1      33.628  -2.056 108.595  1.00  0.00     0.005 C 
ATOM     17  C   UNL     1      33.690  -0.754 107.740  1.00  0.00     0.008 C 
ATOM     18  C   UNL     1      32.458   0.199 107.899  1.00  0.00    -0.024 C 
ATOM     19  C   UNL     1      32.609   1.585 107.040  1.00  0.00    -0.024 C 
ATOM     20  C   UNL     1      31.555   2.666 107.493  1.00  0.00     0.008 C 
ATOM     21  C   UNL     1      31.616   4.001 106.730  1.00  0.00     0.010 C 
ATOM     22  C   UNL     1      34.052   2.160 107.239  1.00  0.00     0.012 C 
ATOM     23  C   UNL     1      32.370   0.613 109.423  1.00  0.00     0.012 C 
ATOM     24  C   UNL     1      32.595  -5.072 109.205  1.00  0.00     0.014 C 
ATOM     25  C   UNL     1      33.040  -3.651 111.202  1.00  0.00     0.014 C 
ATOM     26  C   UNL     1      31.331  -3.270 106.855  1.00  0.00     0.012 C 
ENDROOT
BRANCH   1  27
ATOM     27  C   UNL     1      32.523   1.321 102.424  1.00  0.00    -0.077 C 
ATOM     28  C   UNL     1      33.959   0.861 102.345  1.00  0.00     0.039 C 
ATOM     29  C   UNL     1      31.623   0.672 101.662  1.00  0.00     0.008 C 
ENDBRANCH   1  27
BRANCH   4  30
ATOM     30  C   UNL     1      32.528   5.261 104.752  1.00  0.00     0.163 C 
BRANCH  30  31
ATOM     31  O   UNL     1      33.871   5.269 105.159  1.00  0.00    -0.396 OA
ATOM     32  H   UNL     1      34.389   5.635 104.394  1.00  0.00     0.210 HD
ENDBRANCH  30  31
ENDBRANCH   4  30
BRANCH  13  33
ATOM     33  O   UNL     1      30.329  -3.235 111.595  1.00  0.00    -0.393 OA
ATOM     34  H   UNL     1      31.170  -2.895 111.989  1.00  0.00     0.210 HD
ENDBRANCH  13  33
TORSDOF 4
ENDMDL
