MODEL 1
REMARK VINA RESULT:    -3.603      0.000      0.000
REMARK INTER + INTRA:          -3.695
REMARK INTER:                  -4.446
REMARK INTRA:                   0.751
REMARK UNBOUND:                 0.751
REMARK SMILES CC1=CC=CC(C)(C)CC1=O
REMARK SMILES IDX 1 1 2 2 3 3 10 4 11 5 9 6 4 8 5 9 6 10 7 11 8 12
REMARK H PARENT
REMARK Flexibility Score: 80.00
ROOT
ATOM      1  C   UNL     1     -43.080  17.862  15.809  1.00  0.00     0.048 C 
ATOM      2  C   UNL     1     -41.710  17.316  15.482  1.00  0.00    -0.008 C 
ATOM      3  C   UNL     1     -41.355  17.254  14.180  1.00  0.00     0.007 C 
ENDROOT
BRANCH   2   4
ATOM      4  C   UNL     1     -40.891  16.821  16.617  1.00  0.00     0.159 C 
ATOM      5  O   UNL     1     -41.428  16.716  17.755  1.00  0.00    -0.295 OA
BRANCH   4   6
ATOM      6  C   UNL     1     -39.446  16.446  16.492  1.00  0.00     0.091 CG0
ATOM      7  G   UNL     1     -39.196  15.321  15.464  1.00  0.00     0.000 G0
ENDBRANCH   4   6
ENDBRANCH   2   4
BRANCH   3   8
ATOM      8  C   UNL     1     -40.109  16.750  13.557  1.00  0.00    -0.003 C 
ATOM      9  C   UNL     1     -39.178  15.936  14.069  1.00  0.00    -0.020 C 
BRANCH   9  10
ATOM     10  C   UNL     1     -39.171  15.343  15.459  1.00  0.00    -0.010 CG0
ATOM     11  C   UNL     1     -37.759  14.776  15.737  1.00  0.00     0.016 C 
ATOM     12  C   UNL     1     -40.178  14.173  15.540  1.00  0.00     0.016 C 
ATOM     13  G   UNL     1     -39.457  16.450  16.498  1.00  0.00     0.000 G0
ENDBRANCH   9  10
ENDBRANCH   3   8
TORSDOF 0
ENDMDL
MODEL 2
REMARK VINA RESULT:    -3.544      2.138      3.089
REMARK INTER + INTRA:          -3.621
REMARK INTER:                  -4.364
REMARK INTRA:                   0.743
REMARK UNBOUND:                 0.751
REMARK SMILES CC1=CC=CC(C)(C)CC1=O
REMARK SMILES IDX 1 1 2 2 3 3 10 4 11 5 9 6 4 8 5 9 6 10 7 11 8 12
REMARK H PARENT
REMARK Flexibility Score: 80.00
ROOT
ATOM      1  C   UNL     1     -40.301  18.322  12.570  1.00  0.00     0.048 C 
ATOM      2  C   UNL     1     -40.283  17.147  13.519  1.00  0.00    -0.008 C 
ATOM      3  C   UNL     1     -40.920  17.288  14.702  1.00  0.00     0.007 C 
ENDROOT
BRANCH   2   4
ATOM      4  C   UNL     1     -39.499  15.957  13.106  1.00  0.00     0.159 C 
ATOM      5  O   UNL     1     -38.738  16.047  12.103  1.00  0.00    -0.295 OA
BRANCH   4   6
ATOM      6  C   UNL     1     -39.570  14.635  13.808  1.00  0.00     0.091 CG0
ATOM      7  G   UNL     1     -39.151  14.713  15.293  1.00  0.00     0.000 G0
ENDBRANCH   4   6
ENDBRANCH   2   4
BRANCH   3   8
ATOM      8  C   UNL     1     -41.050  16.337  15.831  1.00  0.00    -0.003 C 
ATOM      9  C   UNL     1     -40.316  15.253  16.111  1.00  0.00    -0.020 C 
BRANCH   9  10
ATOM     10  C   UNL     1     -39.162  14.716  15.297  1.00  0.00    -0.010 CG0
ATOM     11  C   UNL     1     -38.866  13.274  15.771  1.00  0.00     0.016 C 
ATOM     12  C   UNL     1     -37.897  15.568  15.547  1.00  0.00     0.016 C 
ATOM     13  G   UNL     1     -39.560  14.660  13.805  1.00  0.00     0.000 G0
ENDBRANCH   9  10
ENDBRANCH   3   8
TORSDOF 0
ENDMDL
MODEL 3
REMARK VINA RESULT:    -3.404      2.310      4.560
REMARK INTER + INTRA:          -3.449
REMARK INTER:                  -4.185
REMARK INTRA:                   0.736
REMARK UNBOUND:                 0.751
REMARK SMILES CC1=CC=CC(C)(C)CC1=O
REMARK SMILES IDX 1 1 2 2 3 3 10 4 11 5 9 6 4 8 5 9 6 10 7 11 8 12
REMARK H PARENT
REMARK Flexibility Score: 80.00
ROOT
ATOM      1  C   UNL     1     -39.383  16.367  16.136  1.00  0.00     0.048 C 
ATOM      2  C   UNL     1     -40.763  16.866  16.493  1.00  0.00    -0.008 C 
ATOM      3  C   UNL     1     -41.658  17.002  15.492  1.00  0.00     0.007 C 
ENDROOT
BRANCH   2   4
ATOM      4  C   UNL     1     -41.001  17.239  17.910  1.00  0.00     0.159 C 
ATOM      5  O   UNL     1     -40.015  17.306  18.696  1.00  0.00    -0.295 OA
BRANCH   4   6
ATOM      6  C   UNL     1     -42.359  17.530  18.472  1.00  0.00     0.091 CG0
ATOM      7  G   UNL     1     -43.077  18.694  17.754  1.00  0.00     0.000 G0
ENDBRANCH   4   6
ENDBRANCH   2   4
BRANCH   3   8
ATOM      8  C   UNL     1     -43.058  17.487  15.526  1.00  0.00    -0.003 C 
ATOM      9  C   UNL     1     -43.679  18.208  16.468  1.00  0.00    -0.020 C 
BRANCH   9  10
ATOM     10  C   UNL     1     -43.082  18.687  17.771  1.00  0.00    -0.010 CG0
ATOM     11  C   UNL     1     -44.237  19.130  18.699  1.00  0.00     0.016 C 
ATOM     12  C   UNL     1     -42.177  19.914  17.517  1.00  0.00     0.016 C 
ATOM     13  G   UNL     1     -42.332  17.524  18.458  1.00  0.00     0.000 G0
ENDBRANCH   9  10
ENDBRANCH   3   8
TORSDOF 0
ENDMDL
MODEL 4
REMARK VINA RESULT:    -3.287      2.687      3.872
REMARK INTER + INTRA:          -3.305
REMARK INTER:                  -4.063
REMARK INTRA:                   0.758
REMARK UNBOUND:                 0.751
REMARK SMILES CC1=CC=CC(C)(C)CC1=O
REMARK SMILES IDX 1 1 2 2 3 3 10 4 11 5 9 6 4 8 5 9 6 10 7 11 8 12
REMARK H PARENT
REMARK Flexibility Score: 80.00
ROOT
ATOM      1  C   UNL     1     -40.555  16.099  15.894  1.00  0.00     0.048 C 
ATOM      2  C   UNL     1     -40.305  16.753  14.555  1.00  0.00    -0.008 C 
ATOM      3  C   UNL     1     -41.267  17.564  14.065  1.00  0.00     0.007 C 
ENDROOT
BRANCH   2   4
ATOM      4  C   UNL     1     -39.051  16.389  13.850  1.00  0.00     0.159 C 
ATOM      5  O   UNL     1     -38.358  15.432  14.294  1.00  0.00    -0.295 OA
BRANCH   4   6
ATOM      6  C   UNL     1     -38.546  17.110  12.637  1.00  0.00     0.091 CG0
ATOM      7  G   UNL     1     -39.543  17.087  11.457  1.00  0.00     0.000 G0
ENDBRANCH   4   6
ENDBRANCH   2   4
BRANCH   3   8
ATOM      8  C   UNL     1     -41.320  18.312  12.787  1.00  0.00    -0.003 C 
ATOM      9  C   UNL     1     -40.610  18.124  11.668  1.00  0.00    -0.020 C 
BRANCH   9  10
ATOM     10  C   UNL     1     -39.533  17.087  11.453  1.00  0.00    -0.010 CG0
ATOM     11  C   UNL     1     -38.752  17.458  10.171  1.00  0.00     0.016 C 
ATOM     12  C   UNL     1     -40.174  15.697  11.234  1.00  0.00     0.016 C 
ATOM     13  G   UNL     1     -38.545  17.108  12.641  1.00  0.00     0.000 G0
ENDBRANCH   9  10
ENDBRANCH   3   8
TORSDOF 0
ENDMDL
MODEL 5
REMARK VINA RESULT:    -3.257      9.277     10.578
REMARK INTER + INTRA:          -3.267
REMARK INTER:                  -4.014
REMARK INTRA:                   0.746
REMARK UNBOUND:                 0.751
REMARK SMILES CC1=CC=CC(C)(C)CC1=O
REMARK SMILES IDX 1 1 2 2 3 3 10 4 11 5 9 6 4 8 5 9 6 10 7 11 8 12
REMARK H PARENT
REMARK Flexibility Score: 80.00
ROOT
ATOM      1  C   UNL     1     -33.112  15.150   7.680  1.00  0.00     0.048 C 
ATOM      2  C   UNL     1     -34.011  16.214   7.095  1.00  0.00    -0.008 C 
ATOM      3  C   UNL     1     -33.590  16.844   5.977  1.00  0.00     0.007 C 
ENDROOT
BRANCH   2   4
ATOM      4  C   UNL     1     -35.253  16.534   7.842  1.00  0.00     0.159 C 
ATOM      5  O   UNL     1     -35.399  16.073   9.008  1.00  0.00    -0.295 OA
BRANCH   4   6
ATOM      6  C   UNL     1     -36.363  17.370   7.281  1.00  0.00     0.091 CG0
ATOM      7  G   UNL     1     -35.913  18.796   6.891  1.00  0.00     0.000 G0
ENDBRANCH   4   6
ENDBRANCH   2   4
BRANCH   3   8
ATOM      8  C   UNL     1     -34.230  17.932   5.201  1.00  0.00    -0.003 C 
ATOM      9  C   UNL     1     -35.200  18.776   5.571  1.00  0.00    -0.020 C 
BRANCH   9  10
ATOM     10  C   UNL     1     -35.911  18.797   6.904  1.00  0.00    -0.010 CG0
ATOM     11  C   UNL     1     -37.182  19.666   6.762  1.00  0.00     0.016 C 
ATOM     12  C   UNL     1     -35.006  19.449   7.975  1.00  0.00     0.016 C 
ATOM     13  G   UNL     1     -36.348  17.365   7.283  1.00  0.00     0.000 G0
ENDBRANCH   9  10
ENDBRANCH   3   8
TORSDOF 0
ENDMDL
MODEL 6
REMARK VINA RESULT:    -3.232      2.875      5.208
REMARK INTER + INTRA:          -3.237
REMARK INTER:                  -4.295
REMARK INTRA:                   1.058
REMARK UNBOUND:                 0.751
REMARK SMILES CC1=CC=CC(C)(C)CC1=O
REMARK SMILES IDX 1 1 2 2 3 3 10 4 11 5 9 6 4 8 5 9 6 10 7 11 8 12
REMARK H PARENT
REMARK Flexibility Score: 80.00
ROOT
ATOM      1  C   UNL     1     -40.507  16.314  15.554  1.00  0.00     0.048 C 
ATOM      2  C   UNL     1     -41.448  17.050  16.479  1.00  0.00    -0.008 C 
ATOM      3  C   UNL     1     -41.118  17.111  17.787  1.00  0.00     0.007 C 
ENDROOT
BRANCH   2   4
ATOM      4  C   UNL     1     -42.700  17.582  15.886  1.00  0.00     0.159 C 
ATOM      5  O   UNL     1     -42.793  17.664  14.630  1.00  0.00    -0.295 OA
BRANCH   4   6
ATOM      6  C   UNL     1     -43.868  18.047  16.702  1.00  0.00     0.091 CG0
ATOM      7  G   UNL     1     -43.519  19.211  17.656  1.00  0.00     0.000 G0
ENDBRANCH   4   6
ENDBRANCH   2   4
BRANCH   3   8
ATOM      8  C   UNL     1     -41.842  17.730  18.923  1.00  0.00    -0.003 C 
ATOM      9  C   UNL     1     -42.859  18.600  18.902  1.00  0.00    -0.020 C 
BRANCH   9  10
ATOM     10  C   UNL     1     -43.508  19.193  17.674  1.00  0.00    -0.010 CG0
ATOM     11  C   UNL     1     -42.482  20.123  16.985  1.00  0.00     0.016 C 
ATOM     12  C   UNL     1     -44.728  20.050  18.083  1.00  0.00     0.016 C 
ATOM     13  G   UNL     1     -43.876  18.066  16.684  1.00  0.00     0.000 G0
ENDBRANCH   9  10
ENDBRANCH   3   8
TORSDOF 0
ENDMDL
MODEL 7
REMARK VINA RESULT:    -3.149      3.226      4.780
REMARK INTER + INTRA:          -3.134
REMARK INTER:                  -3.880
REMARK INTRA:                   0.746
REMARK UNBOUND:                 0.751
REMARK SMILES CC1=CC=CC(C)(C)CC1=O
REMARK SMILES IDX 1 1 2 2 3 3 10 4 11 5 9 6 4 8 5 9 6 10 7 11 8 12
REMARK H PARENT
REMARK Flexibility Score: 80.00
ROOT
ATOM      1  C   UNL     1     -38.030  15.873  15.024  1.00  0.00     0.048 C 
ATOM      2  C   UNL     1     -38.906  16.675  14.091  1.00  0.00    -0.008 C 
ATOM      3  C   UNL     1     -40.211  16.806  14.413  1.00  0.00     0.007 C 
ENDROOT
BRANCH   2   4
ATOM      4  C   UNL     1     -38.275  17.193  12.851  1.00  0.00     0.159 C 
ATOM      5  O   UNL     1     -37.126  16.777  12.532  1.00  0.00    -0.295 OA
BRANCH   4   6
ATOM      6  C   UNL     1     -38.923  18.201  11.952  1.00  0.00     0.091 CG0
ATOM      7  G   UNL     1     -40.276  17.724  11.379  1.00  0.00     0.000 G0
ENDBRANCH   4   6
ENDBRANCH   2   4
BRANCH   3   8
ATOM      8  C   UNL     1     -41.304  17.499  13.693  1.00  0.00    -0.003 C 
ATOM      9  C   UNL     1     -41.360  17.884  12.412  1.00  0.00    -0.020 C 
BRANCH   9  10
ATOM     10  C   UNL     1     -40.272  17.719  11.376  1.00  0.00    -0.010 CG0
ATOM     11  C   UNL     1     -40.612  18.621  10.168  1.00  0.00     0.016 C 
ATOM     12  C   UNL     1     -40.232  16.255  10.882  1.00  0.00     0.016 C 
ATOM     13  G   UNL     1     -38.921  18.188  11.962  1.00  0.00     0.000 G0
ENDBRANCH   9  10
ENDBRANCH   3   8
TORSDOF 0
ENDMDL
MODEL 8
REMARK VINA RESULT:    -3.122      5.505      7.078
REMARK INTER + INTRA:          -3.101
REMARK INTER:                  -3.853
REMARK INTRA:                   0.751
REMARK UNBOUND:                 0.751
REMARK SMILES CC1=CC=CC(C)(C)CC1=O
REMARK SMILES IDX 1 1 2 2 3 3 10 4 11 5 9 6 4 8 5 9 6 10 7 11 8 12
REMARK H PARENT
REMARK Flexibility Score: 80.00
ROOT
ATOM      1  C   UNL     1     -36.875  14.477   7.832  1.00  0.00     0.048 C 
ATOM      2  C   UNL     1     -37.260  15.769   8.515  1.00  0.00    -0.008 C 
ATOM      3  C   UNL     1     -36.893  16.925   7.920  1.00  0.00     0.007 C 
ENDROOT
BRANCH   2   4
ATOM      4  C   UNL     1     -37.948  15.662   9.826  1.00  0.00     0.159 C 
ATOM      5  O   UNL     1     -37.995  14.538  10.399  1.00  0.00    -0.295 OA
BRANCH   4   6
ATOM      6  C   UNL     1     -38.609  16.819  10.510  1.00  0.00     0.091 CG0
ATOM      7  G   UNL     1     -37.635  17.978  10.822  1.00  0.00     0.000 G0
ENDBRANCH   4   6
ENDBRANCH   2   4
BRANCH   3   8
ATOM      8  C   UNL     1     -37.100  18.326   8.356  1.00  0.00    -0.003 C 
ATOM      9  C   UNL     1     -37.400  18.797   9.572  1.00  0.00    -0.020 C 
BRANCH   9  10
ATOM     10  C   UNL     1     -37.631  17.977  10.820  1.00  0.00    -0.010 CG0
ATOM     11  C   UNL     1     -38.301  18.883  11.879  1.00  0.00     0.016 C 
ATOM     12  C   UNL     1     -36.279  17.494  11.393  1.00  0.00     0.016 C 
ATOM     13  G   UNL     1     -38.595  16.811  10.505  1.00  0.00     0.000 G0
ENDBRANCH   9  10
ENDBRANCH   3   8
TORSDOF 0
ENDMDL
MODEL 9
REMARK VINA RESULT:    -3.071      3.220      4.549
REMARK INTER + INTRA:          -3.038
REMARK INTER:                  -3.792
REMARK INTRA:                   0.754
REMARK UNBOUND:                 0.751
REMARK SMILES CC1=CC=CC(C)(C)CC1=O
REMARK SMILES IDX 1 1 2 2 3 3 10 4 11 5 9 6 4 8 5 9 6 10 7 11 8 12
REMARK H PARENT
REMARK Flexibility Score: 80.00
ROOT
ATOM      1  C   UNL     1     -39.544  17.245   9.024  1.00  0.00     0.048 C 
ATOM      2  C   UNL     1     -39.841  17.029  10.489  1.00  0.00    -0.008 C 
ATOM      3  C   UNL     1     -40.564  17.974  11.128  1.00  0.00     0.007 C 
ENDROOT
BRANCH   2   4
ATOM      4  C   UNL     1     -39.248  15.828  11.129  1.00  0.00     0.159 C 
ATOM      5  O   UNL     1     -38.383  15.164  10.495  1.00  0.00    -0.295 OA
BRANCH   4   6
ATOM      6  C   UNL     1     -39.633  15.344  12.494  1.00  0.00     0.091 CG0
ATOM      7  G   UNL     1     -39.368  16.384  13.605  1.00  0.00     0.000 G0
ENDBRANCH   4   6
ENDBRANCH   2   4
BRANCH   3   8
ATOM      8  C   UNL     1     -40.986  18.053  12.546  1.00  0.00    -0.003 C 
ATOM      9  C   UNL     1     -40.496  17.405  13.610  1.00  0.00    -0.020 C 
BRANCH   9  10
ATOM     10  C   UNL     1     -39.378  16.388  13.605  1.00  0.00    -0.010 CG0
ATOM     11  C   UNL     1     -39.393  15.647  14.961  1.00  0.00     0.016 C 
ATOM     12  C   UNL     1     -38.014  17.102  13.466  1.00  0.00     0.016 C 
ATOM     13  G   UNL     1     -39.625  15.351  12.487  1.00  0.00     0.000 G0
ENDBRANCH   9  10
ENDBRANCH   3   8
TORSDOF 0
ENDMDL
