MODEL 1
REMARK VINA RESULT:    -3.275      0.000      0.000
REMARK INTER + INTRA:          -6.229
REMARK INTER:                  -5.190
REMARK INTRA:                  -1.039
REMARK UNBOUND:                -1.039
REMARK SMILES CCCCCCCCCCCC(=O)[O-]
REMARK SMILES IDX 7 1 8 2 9 3 10 4 11 5 12 6 13 7 14 8 6 9 5 10 4 11 3 12 2 13
REMARK SMILES IDX 1 14
REMARK H PARENT
REMARK Flexibility Score: inf
ROOT
ATOM      1  C   UNL     1       9.145 -34.370  13.120  1.00  0.00     0.000 C 
ENDROOT
BRANCH   1   2
ATOM      2  C   UNL     1       8.004 -34.266  14.146  1.00  0.00     0.000 C 
BRANCH   2   3
ATOM      3  C   UNL     1       7.402 -32.855  14.310  1.00  0.00     0.000 C 
BRANCH   3   4
ATOM      4  C   UNL     1       7.420 -32.301  15.749  1.00  0.00     0.006 C 
BRANCH   4   5
ATOM      5  C   UNL     1       8.504 -32.910  16.651  1.00  0.00     0.053 C 
BRANCH   5   6
ATOM      6  C   UNL     1       8.894 -31.985  17.762  1.00  0.00     0.041 C 
ATOM      7  O   UNL     1       8.409 -32.138  18.915  1.00  0.00    -0.550 OA
ATOM      8  O   UNL     1       9.820 -30.976  17.535  1.00  0.00    -0.550 OA
ENDBRANCH   5   6
ENDBRANCH   4   5
ENDBRANCH   3   4
ENDBRANCH   2   3
ENDBRANCH   1   2
BRANCH   1   9
ATOM      9  C   UNL     1      10.536 -34.236  13.761  1.00  0.00     0.000 C 
BRANCH   9  10
ATOM     10  C   UNL     1      11.313 -33.018  13.239  1.00  0.00    -0.000 C 
BRANCH  10  11
ATOM     11  C   UNL     1      10.925 -31.719  13.961  1.00  0.00    -0.000 C 
BRANCH  11  12
ATOM     12  C   UNL     1      12.126 -31.128  14.710  1.00  0.00    -0.000 C 
BRANCH  12  13
ATOM     13  C   UNL     1      13.442 -31.488  14.009  1.00  0.00    -0.003 C 
ATOM     14  C   UNL     1      14.241 -30.235  13.661  1.00  0.00     0.004 C 
ENDBRANCH  12  13
ENDBRANCH  11  12
ENDBRANCH  10  11
ENDBRANCH   9  10
ENDBRANCH   1   9
TORSDOF 10
ENDMDL
MODEL 2
REMARK VINA RESULT:    -3.200      0.528      1.199
REMARK INTER + INTRA:          -6.111
REMARK INTER:                  -5.014
REMARK INTRA:                  -1.097
REMARK UNBOUND:                -1.039
REMARK SMILES CCCCCCCCCCCC(=O)[O-]
REMARK SMILES IDX 7 1 8 2 9 3 10 4 11 5 12 6 13 7 14 8 6 9 5 10 4 11 3 12 2 13
REMARK SMILES IDX 1 14
REMARK H PARENT
REMARK Flexibility Score: inf
ROOT
ATOM      1  C   UNL     1       8.127 -35.077  13.815  1.00  0.00     0.000 C 
ENDROOT
BRANCH   1   2
ATOM      2  C   UNL     1       6.920 -34.188  14.161  1.00  0.00     0.000 C 
BRANCH   2   3
ATOM      3  C   UNL     1       7.253 -32.699  14.389  1.00  0.00     0.000 C 
BRANCH   3   4
ATOM      4  C   UNL     1       7.332 -32.265  15.868  1.00  0.00     0.006 C 
BRANCH   4   5
ATOM      5  C   UNL     1       8.560 -32.800  16.620  1.00  0.00     0.053 C 
BRANCH   5   6
ATOM      6  C   UNL     1       8.977 -31.889  17.733  1.00  0.00     0.041 C 
ATOM      7  O   UNL     1       8.465 -32.011  18.878  1.00  0.00    -0.550 OA
ATOM      8  O   UNL     1       9.954 -30.927  17.517  1.00  0.00    -0.550 OA
ENDBRANCH   5   6
ENDBRANCH   4   5
ENDBRANCH   3   4
ENDBRANCH   2   3
ENDBRANCH   1   2
BRANCH   1   9
ATOM      9  C   UNL     1       9.178 -34.348  12.961  1.00  0.00     0.000 C 
BRANCH   9  10
ATOM     10  C   UNL     1      10.603 -34.504  13.517  1.00  0.00    -0.000 C 
BRANCH  10  11
ATOM     11  C   UNL     1      11.484 -33.280  13.229  1.00  0.00    -0.000 C 
BRANCH  11  12
ATOM     12  C   UNL     1      10.875 -32.011  13.838  1.00  0.00    -0.000 C 
BRANCH  12  13
ATOM     13  C   UNL     1      11.956 -31.147  14.500  1.00  0.00    -0.003 C 
ATOM     14  C   UNL     1      13.345 -31.506  13.978  1.00  0.00     0.004 C 
ENDBRANCH  12  13
ENDBRANCH  11  12
ENDBRANCH  10  11
ENDBRANCH   9  10
ENDBRANCH   1   9
TORSDOF 10
ENDMDL
MODEL 3
REMARK VINA RESULT:    -3.010      2.700      4.988
REMARK INTER + INTRA:          -5.810
REMARK INTER:                  -5.012
REMARK INTRA:                  -0.797
REMARK UNBOUND:                -1.039
REMARK SMILES CCCCCCCCCCCC(=O)[O-]
REMARK SMILES IDX 7 1 8 2 9 3 10 4 11 5 12 6 13 7 14 8 6 9 5 10 4 11 3 12 2 13
REMARK SMILES IDX 1 14
REMARK H PARENT
REMARK Flexibility Score: inf
ROOT
ATOM      1  C   UNL     1       8.434 -32.622  13.026  1.00  0.00     0.000 C 
ENDROOT
BRANCH   1   2
ATOM      2  C   UNL     1       9.517 -33.696  13.221  1.00  0.00     0.000 C 
BRANCH   2   3
ATOM      3  C   UNL     1      10.922 -33.152  13.550  1.00  0.00     0.000 C 
BRANCH   3   4
ATOM      4  C   UNL     1      11.008 -31.621  13.715  1.00  0.00     0.006 C 
BRANCH   4   5
ATOM      5  C   UNL     1      12.175 -31.143  14.593  1.00  0.00     0.053 C 
BRANCH   5   6
ATOM      6  C   UNL     1      13.490 -31.246  13.883  1.00  0.00     0.041 C 
ATOM      7  O   UNL     1      13.956 -32.374  13.573  1.00  0.00    -0.550 OA
ATOM      8  O   UNL     1      14.184 -30.095  13.533  1.00  0.00    -0.550 OA
ENDBRANCH   5   6
ENDBRANCH   4   5
ENDBRANCH   3   4
ENDBRANCH   2   3
ENDBRANCH   1   2
BRANCH   1   9
ATOM      9  C   UNL     1       7.064 -33.050  13.579  1.00  0.00     0.000 C 
BRANCH   9  10
ATOM     10  C   UNL     1       7.107 -33.374  15.081  1.00  0.00    -0.000 C 
BRANCH  10  11
ATOM     11  C   UNL     1       7.611 -32.193  15.923  1.00  0.00    -0.000 C 
BRANCH  11  12
ATOM     12  C   UNL     1       8.525 -32.678  17.055  1.00  0.00    -0.000 C 
BRANCH  12  13
ATOM     13  C   UNL     1       9.343 -31.518  17.636  1.00  0.00    -0.003 C 
ATOM     14  C   UNL     1       9.141 -31.404  19.145  1.00  0.00     0.004 C 
ENDBRANCH  12  13
ENDBRANCH  11  12
ENDBRANCH  10  11
ENDBRANCH   9  10
ENDBRANCH   1   9
TORSDOF 10
ENDMDL
MODEL 4
REMARK VINA RESULT:    -2.829      1.934      4.750
REMARK INTER + INTRA:          -5.522
REMARK INTER:                  -4.608
REMARK INTRA:                  -0.914
REMARK UNBOUND:                -1.039
REMARK SMILES CCCCCCCCCCCC(=O)[O-]
REMARK SMILES IDX 7 1 8 2 9 3 10 4 11 5 12 6 13 7 14 8 6 9 5 10 4 11 3 12 2 13
REMARK SMILES IDX 1 14
REMARK H PARENT
REMARK Flexibility Score: inf
ROOT
ATOM      1  C   UNL     1       7.907 -35.360  13.998  1.00  0.00     0.000 C 
ENDROOT
BRANCH   1   2
ATOM      2  C   UNL     1       8.832 -34.624  13.015  1.00  0.00     0.000 C 
BRANCH   2   3
ATOM      3  C   UNL     1      10.258 -34.353  13.540  1.00  0.00     0.000 C 
BRANCH   3   4
ATOM      4  C   UNL     1      10.845 -32.979  13.159  1.00  0.00     0.006 C 
BRANCH   4   5
ATOM      5  C   UNL     1      12.373 -32.884  13.289  1.00  0.00     0.053 C 
BRANCH   5   6
ATOM      6  C   UNL     1      12.796 -31.659  14.039  1.00  0.00     0.041 C 
ATOM      7  O   UNL     1      13.958 -31.194  13.889  1.00  0.00    -0.550 OA
ATOM      8  O   UNL     1      11.900 -31.011  14.878  1.00  0.00    -0.550 OA
ENDBRANCH   5   6
ENDBRANCH   4   5
ENDBRANCH   3   4
ENDBRANCH   2   3
ENDBRANCH   1   2
BRANCH   1   9
ATOM      9  C   UNL     1       6.726 -34.493  14.467  1.00  0.00     0.000 C 
BRANCH   9  10
ATOM     10  C   UNL     1       6.987 -32.990  14.287  1.00  0.00    -0.000 C 
BRANCH  10  11
ATOM     11  C   UNL     1       7.137 -32.253  15.626  1.00  0.00    -0.000 C 
BRANCH  11  12
ATOM     12  C   UNL     1       8.568 -32.379  16.164  1.00  0.00    -0.000 C 
BRANCH  12  13
ATOM     13  C   UNL     1       8.566 -32.620  17.678  1.00  0.00    -0.003 C 
ATOM     14  C   UNL     1       9.195 -31.446  18.424  1.00  0.00     0.004 C 
ENDBRANCH  12  13
ENDBRANCH  11  12
ENDBRANCH  10  11
ENDBRANCH   9  10
ENDBRANCH   1   9
TORSDOF 10
ENDMDL
MODEL 5
REMARK VINA RESULT:    -2.773      2.792      5.387
REMARK INTER + INTRA:          -5.434
REMARK INTER:                  -4.374
REMARK INTRA:                  -1.060
REMARK UNBOUND:                -1.039
REMARK SMILES CCCCCCCCCCCC(=O)[O-]
REMARK SMILES IDX 7 1 8 2 9 3 10 4 11 5 12 6 13 7 14 8 6 9 5 10 4 11 3 12 2 13
REMARK SMILES IDX 1 14
REMARK H PARENT
REMARK Flexibility Score: inf
ROOT
ATOM      1  C   UNL     1       8.398 -32.768  16.198  1.00  0.00     0.000 C 
ENDROOT
BRANCH   1   2
ATOM      2  C   UNL     1       9.559 -31.904  15.675  1.00  0.00     0.000 C 
BRANCH   2   3
ATOM      3  C   UNL     1       9.710 -31.877  14.140  1.00  0.00     0.000 C 
BRANCH   3   4
ATOM      4  C   UNL     1      11.164 -31.880  13.626  1.00  0.00     0.006 C 
BRANCH   4   5
ATOM      5  C   UNL     1      12.157 -31.127  14.526  1.00  0.00     0.053 C 
BRANCH   5   6
ATOM      6  C   UNL     1      13.544 -31.137  13.961  1.00  0.00     0.041 C 
ATOM      7  O   UNL     1      14.082 -32.224  13.621  1.00  0.00    -0.550 OA
ATOM      8  O   UNL     1      14.230 -29.944  13.780  1.00  0.00    -0.550 OA
ENDBRANCH   5   6
ENDBRANCH   4   5
ENDBRANCH   3   4
ENDBRANCH   2   3
ENDBRANCH   1   2
BRANCH   1   9
ATOM      9  C   UNL     1       7.069 -32.478  15.480  1.00  0.00     0.000 C 
BRANCH   9  10
ATOM     10  C   UNL     1       6.622 -33.636  14.574  1.00  0.00    -0.000 C 
BRANCH  10  11
ATOM     11  C   UNL     1       6.993 -35.011  15.150  1.00  0.00    -0.000 C 
BRANCH  11  12
ATOM     12  C   UNL     1       7.416 -35.976  14.035  1.00  0.00    -0.000 C 
BRANCH  12  13
ATOM     13  C   UNL     1       8.227 -35.247  12.957  1.00  0.00    -0.003 C 
ATOM     14  C   UNL     1       9.726 -35.380  13.212  1.00  0.00     0.004 C 
ENDBRANCH  12  13
ENDBRANCH  11  12
ENDBRANCH  10  11
ENDBRANCH   9  10
ENDBRANCH   1   9
TORSDOF 10
ENDMDL
MODEL 6
REMARK VINA RESULT:    -2.419      2.523      5.806
REMARK INTER + INTRA:          -4.873
REMARK INTER:                  -4.205
REMARK INTRA:                  -0.668
REMARK UNBOUND:                -1.039
REMARK SMILES CCCCCCCCCCCC(=O)[O-]
REMARK SMILES IDX 7 1 8 2 9 3 10 4 11 5 12 6 13 7 14 8 6 9 5 10 4 11 3 12 2 13
REMARK SMILES IDX 1 14
REMARK H PARENT
REMARK Flexibility Score: inf
ROOT
ATOM      1  C   UNL     1       8.813 -32.313  15.168  1.00  0.00     0.000 C 
ENDROOT
BRANCH   1   2
ATOM      2  C   UNL     1       8.723 -32.279  13.633  1.00  0.00     0.000 C 
BRANCH   2   3
ATOM      3  C   UNL     1      10.080 -32.332  12.900  1.00  0.00     0.000 C 
BRANCH   3   4
ATOM      4  C   UNL     1      11.163 -33.185  13.591  1.00  0.00     0.006 C 
BRANCH   4   5
ATOM      5  C   UNL     1      12.598 -32.672  13.390  1.00  0.00     0.053 C 
BRANCH   5   6
ATOM      6  C   UNL     1      12.845 -31.396  14.133  1.00  0.00     0.041 C 
ATOM      7  O   UNL     1      12.064 -31.036  15.053  1.00  0.00    -0.550 OA
ATOM      8  O   UNL     1      13.957 -30.620  13.834  1.00  0.00    -0.550 OA
ENDBRANCH   5   6
ENDBRANCH   4   5
ENDBRANCH   3   4
ENDBRANCH   2   3
ENDBRANCH   1   2
BRANCH   1   9
ATOM      9  C   UNL     1       7.694 -33.150  15.812  1.00  0.00     0.000 C 
BRANCH   9  10
ATOM     10  C   UNL     1       6.385 -33.105  15.009  1.00  0.00    -0.000 C 
BRANCH  10  11
ATOM     11  C   UNL     1       5.963 -34.488  14.492  1.00  0.00    -0.000 C 
BRANCH  11  12
ATOM     12  C   UNL     1       6.995 -35.555  14.876  1.00  0.00    -0.000 C 
BRANCH  12  13
ATOM     13  C   UNL     1       6.313 -36.786  15.484  1.00  0.00    -0.003 C 
ATOM     14  C   UNL     1       6.793 -37.033  16.912  1.00  0.00     0.004 C 
ENDBRANCH  12  13
ENDBRANCH  11  12
ENDBRANCH  10  11
ENDBRANCH   9  10
ENDBRANCH   1   9
TORSDOF 10
ENDMDL
MODEL 7
REMARK VINA RESULT:    -2.404      1.774      4.596
REMARK INTER + INTRA:          -4.848
REMARK INTER:                  -4.074
REMARK INTRA:                  -0.774
REMARK UNBOUND:                -1.039
REMARK SMILES CCCCCCCCCCCC(=O)[O-]
REMARK SMILES IDX 7 1 8 2 9 3 10 4 11 5 12 6 13 7 14 8 6 9 5 10 4 11 3 12 2 13
REMARK SMILES IDX 1 14
REMARK H PARENT
REMARK Flexibility Score: inf
ROOT
ATOM      1  C   UNL     1       9.553 -31.993  13.007  1.00  0.00     0.000 C 
ENDROOT
BRANCH   1   2
ATOM      2  C   UNL     1      10.989 -31.983  13.559  1.00  0.00     0.000 C 
BRANCH   2   3
ATOM      3  C   UNL     1      11.131 -31.435  14.995  1.00  0.00     0.000 C 
BRANCH   3   4
ATOM      4  C   UNL     1       9.879 -31.594  15.882  1.00  0.00     0.006 C 
BRANCH   4   5
ATOM      5  C   UNL     1      10.009 -30.966  17.279  1.00  0.00     0.053 C 
BRANCH   5   6
ATOM      6  C   UNL     1       9.096 -31.617  18.272  1.00  0.00     0.041 C 
ATOM      7  O   UNL     1       8.171 -32.377  17.880  1.00  0.00    -0.550 OA
ATOM      8  O   UNL     1       9.286 -31.410  19.632  1.00  0.00    -0.550 OA
ENDBRANCH   5   6
ENDBRANCH   4   5
ENDBRANCH   3   4
ENDBRANCH   2   3
ENDBRANCH   1   2
BRANCH   1   9
ATOM      9  C   UNL     1       8.950 -33.406  12.940  1.00  0.00     0.000 C 
BRANCH   9  10
ATOM     10  C   UNL     1       7.415 -33.392  12.875  1.00  0.00    -0.000 C 
BRANCH  10  11
ATOM     11  C   UNL     1       6.783 -32.630  14.050  1.00  0.00    -0.000 C 
BRANCH  11  12
ATOM     12  C   UNL     1       6.116 -33.597  15.035  1.00  0.00    -0.000 C 
BRANCH  12  13
ATOM     13  C   UNL     1       6.145 -35.034  14.500  1.00  0.00    -0.003 C 
ATOM     14  C   UNL     1       6.692 -36.001  15.547  1.00  0.00     0.004 C 
ENDBRANCH  12  13
ENDBRANCH  11  12
ENDBRANCH  10  11
ENDBRANCH   9  10
ENDBRANCH   1   9
TORSDOF 10
ENDMDL
MODEL 8
REMARK VINA RESULT:    -2.375      2.394      4.225
REMARK INTER + INTRA:          -4.802
REMARK INTER:                  -3.905
REMARK INTRA:                  -0.898
REMARK UNBOUND:                -1.039
REMARK SMILES CCCCCCCCCCCC(=O)[O-]
REMARK SMILES IDX 7 1 8 2 9 3 10 4 11 5 12 6 13 7 14 8 6 9 5 10 4 11 3 12 2 13
REMARK SMILES IDX 1 14
REMARK H PARENT
REMARK Flexibility Score: inf
ROOT
ATOM      1  C   UNL     1      10.579 -32.453  13.931  1.00  0.00     0.000 C 
ENDROOT
BRANCH   1   2
ATOM      2  C   UNL     1       9.537 -32.013  12.889  1.00  0.00     0.000 C 
BRANCH   2   3
ATOM      3  C   UNL     1       8.138 -32.638  13.063  1.00  0.00     0.000 C 
BRANCH   3   4
ATOM      4  C   UNL     1       7.435 -32.308  14.395  1.00  0.00     0.006 C 
BRANCH   4   5
ATOM      5  C   UNL     1       6.304 -33.276  14.773  1.00  0.00     0.053 C 
BRANCH   5   6
ATOM      6  C   UNL     1       6.793 -34.686  14.904  1.00  0.00     0.041 C 
ATOM      7  O   UNL     1       7.387 -35.056  15.952  1.00  0.00    -0.550 OA
ATOM      8  O   UNL     1       6.565 -35.600  13.884  1.00  0.00    -0.550 OA
ENDBRANCH   5   6
ENDBRANCH   4   5
ENDBRANCH   3   4
ENDBRANCH   2   3
ENDBRANCH   1   2
BRANCH   1   9
ATOM      9  C   UNL     1      11.614 -31.357  14.239  1.00  0.00     0.000 C 
BRANCH   9  10
ATOM     10  C   UNL     1      11.522 -30.845  15.685  1.00  0.00    -0.000 C 
BRANCH  10  11
ATOM     11  C   UNL     1      10.276 -31.367  16.416  1.00  0.00    -0.000 C 
BRANCH  11  12
ATOM     12  C   UNL     1      10.039 -30.592  17.718  1.00  0.00    -0.000 C 
BRANCH  12  13
ATOM     13  C   UNL     1       9.183 -31.407  18.694  1.00  0.00    -0.003 C 
ATOM     14  C   UNL     1       8.399 -32.494  17.964  1.00  0.00     0.004 C 
ENDBRANCH  12  13
ENDBRANCH  11  12
ENDBRANCH  10  11
ENDBRANCH   9  10
ENDBRANCH   1   9
TORSDOF 10
ENDMDL
MODEL 9
REMARK VINA RESULT:    -2.339      2.160      4.011
REMARK INTER + INTRA:          -4.747
REMARK INTER:                  -3.889
REMARK INTRA:                  -0.857
REMARK UNBOUND:                -1.039
REMARK SMILES CCCCCCCCCCCC(=O)[O-]
REMARK SMILES IDX 7 1 8 2 9 3 10 4 11 5 12 6 13 7 14 8 6 9 5 10 4 11 3 12 2 13
REMARK SMILES IDX 1 14
REMARK H PARENT
REMARK Flexibility Score: inf
ROOT
ATOM      1  C   UNL     1      11.308 -33.398  12.980  1.00  0.00     0.000 C 
ENDROOT
BRANCH   1   2
ATOM      2  C   UNL     1      10.706 -34.623  13.690  1.00  0.00     0.000 C 
BRANCH   2   3
ATOM      3  C   UNL     1       9.645 -35.391  12.875  1.00  0.00     0.000 C 
BRANCH   3   4
ATOM      4  C   UNL     1       8.212 -34.828  12.973  1.00  0.00     0.006 C 
BRANCH   4   5
ATOM      5  C   UNL     1       7.847 -34.259  14.353  1.00  0.00     0.053 C 
BRANCH   5   6
ATOM      6  C   UNL     1       6.997 -33.030  14.246  1.00  0.00     0.041 C 
ATOM      7  O   UNL     1       6.389 -32.590  15.258  1.00  0.00    -0.550 OA
ATOM      8  O   UNL     1       6.903 -32.351  13.038  1.00  0.00    -0.550 OA
ENDBRANCH   5   6
ENDBRANCH   4   5
ENDBRANCH   3   4
ENDBRANCH   2   3
ENDBRANCH   1   2
BRANCH   1   9
ATOM      9  C   UNL     1      10.576 -32.090  13.325  1.00  0.00     0.000 C 
BRANCH   9  10
ATOM     10  C   UNL     1      11.035 -31.491  14.664  1.00  0.00    -0.000 C 
BRANCH  10  11
ATOM     11  C   UNL     1      10.013 -31.713  15.789  1.00  0.00    -0.000 C 
BRANCH  11  12
ATOM     12  C   UNL     1      10.315 -30.809  16.990  1.00  0.00    -0.000 C 
BRANCH  12  13
ATOM     13  C   UNL     1       9.566 -31.287  18.240  1.00  0.00    -0.003 C 
ATOM     14  C   UNL     1       8.369 -32.156  17.866  1.00  0.00     0.004 C 
ENDBRANCH  12  13
ENDBRANCH  11  12
ENDBRANCH  10  11
ENDBRANCH   9  10
ENDBRANCH   1   9
TORSDOF 10
ENDMDL
