MODEL 1
REMARK VINA RESULT:    -3.933      0.000      0.000
REMARK INTER + INTRA:          -6.253
REMARK INTER:                  -6.002
REMARK INTRA:                  -0.251
REMARK UNBOUND:                -0.251
REMARK SMILES CC1=CCC[C@H](C)C(=O)C[C@H](C(C)C)C(=O)C1
REMARK SMILES IDX 8 1 9 2 6 3 7 4 5 5 4 6 3 7 2 8 1 9 10 11 11 12 15 13 16 14
REMARK SMILES IDX 17 15 12 17 13 18 14 19
REMARK H PARENT
REMARK Flexibility Score: 70.00
ROOT
ATOM      1  C   UNL     1      20.189  10.795 -25.482  1.00  0.00     0.136 C 
ATOM      2  O   UNL     1      19.193  11.478 -25.677  1.00  0.00    -0.299 OA
ENDROOT
BRANCH   1   3
ATOM      3  C   UNL     1      21.559  11.461 -25.486  1.00  0.00     0.053 C 
ATOM      4  C   UNL     1      22.674  10.445 -25.193  1.00  0.00     0.016 C 
BRANCH   3   5
ATOM      5  C   UNL     1      21.847  12.235 -26.797  1.00  0.00     0.015 C 
BRANCH   5   6
ATOM      6  C   UNL     1      22.148  11.345 -28.027  1.00  0.00     0.028 C 
BRANCH   6   7
ATOM      7  C   UNL     1      20.925  11.109 -28.880  1.00  0.00    -0.028 C 
ATOM      8  C   UNL     1      20.334   9.905 -29.079  1.00  0.00    -0.070 CG0
ATOM      9  C   UNL     1      19.142   9.850 -30.000  1.00  0.00     0.039 C 
ATOM     10  G   UNL     1      20.783   8.624 -28.389  1.00  0.00     0.000 G0
ENDBRANCH   6   7
ENDBRANCH   5   6
ENDBRANCH   3   5
ENDBRANCH   1   3
BRANCH   1  11
ATOM     11  C   UNL     1      19.996   9.302 -25.335  1.00  0.00     0.087 C 
BRANCH  11  12
ATOM     12  C   UNL     1      19.027   8.630 -26.347  1.00  0.00     0.066 C 
BRANCH  12  13
ATOM     13  C   UNL     1      19.681   7.981 -27.572  1.00  0.00     0.140 C 
ATOM     14  O   UNL     1      19.286   6.873 -27.905  1.00  0.00    -0.299 OA
BRANCH  13  15
ATOM     15  C   UNL     1      20.787   8.608 -28.397  1.00  0.00     0.106 CG0
ATOM     16  G   UNL     1      20.319   9.904 -29.045  1.00  0.00     0.000 G0
ENDBRANCH  13  15
ENDBRANCH  12  13
BRANCH  12  17
ATOM     17  C   UNL     1      18.088   7.628 -25.593  1.00  0.00    -0.006 C 
ATOM     18  C   UNL     1      16.593   7.960 -25.751  1.00  0.00     0.008 C 
ATOM     19  C   UNL     1      18.445   7.494 -24.103  1.00  0.00     0.008 C 
ENDBRANCH  12  17
ENDBRANCH  11  12
ENDBRANCH   1  11
TORSDOF 1
ENDMDL
MODEL 2
REMARK VINA RESULT:    -3.924     10.332     11.756
REMARK INTER + INTRA:          -6.239
REMARK INTER:                  -6.387
REMARK INTRA:                   0.148
REMARK UNBOUND:                -0.251
REMARK SMILES CC1=CCC[C@H](C)C(=O)C[C@H](C(C)C)C(=O)C1
REMARK SMILES IDX 8 1 9 2 6 3 7 4 5 5 4 6 3 7 2 8 1 9 10 11 11 12 15 13 16 14
REMARK SMILES IDX 17 15 12 17 13 18 14 19
REMARK H PARENT
REMARK Flexibility Score: 70.00
ROOT
ATOM      1  C   UNL     1      15.993  18.492 -23.943  1.00  0.00     0.136 C 
ATOM      2  O   UNL     1      16.719  19.255 -24.566  1.00  0.00    -0.299 OA
ENDROOT
BRANCH   1   3
ATOM      3  C   UNL     1      16.500  17.877 -22.646  1.00  0.00     0.053 C 
ATOM      4  C   UNL     1      18.035  17.797 -22.628  1.00  0.00     0.016 C 
BRANCH   3   5
ATOM      5  C   UNL     1      15.971  18.609 -21.387  1.00  0.00     0.015 C 
BRANCH   5   6
ATOM      6  C   UNL     1      14.990  17.786 -20.517  1.00  0.00     0.028 C 
BRANCH   6   7
ATOM      7  C   UNL     1      13.754  18.568 -20.147  1.00  0.00    -0.028 C 
ATOM      8  C   UNL     1      12.516  18.356 -20.655  1.00  0.00    -0.070 CG0
ATOM      9  C   UNL     1      11.401  19.265 -20.201  1.00  0.00     0.039 C 
ATOM     10  G   UNL     1      12.186  17.224 -21.620  1.00  0.00     0.000 G0
ENDBRANCH   6   7
ENDBRANCH   5   6
ENDBRANCH   3   5
ENDBRANCH   1   3
BRANCH   1  11
ATOM     11  C   UNL     1      14.658  18.138 -24.560  1.00  0.00     0.087 C 
BRANCH  11  12
ATOM     12  C   UNL     1      13.808  17.080 -23.803  1.00  0.00     0.066 C 
BRANCH  12  13
ATOM     13  C   UNL     1      12.575  17.613 -23.065  1.00  0.00     0.140 C 
ATOM     14  O   UNL     1      11.862  18.410 -23.656  1.00  0.00    -0.299 OA
BRANCH  13  15
ATOM     15  C   UNL     1      12.178  17.230 -21.654  1.00  0.00     0.106 CG0
ATOM     16  G   UNL     1      12.502  18.349 -20.672  1.00  0.00     0.000 G0
ENDBRANCH  13  15
ENDBRANCH  12  13
BRANCH  12  17
ATOM     17  C   UNL     1      13.440  15.906 -24.773  1.00  0.00    -0.006 C 
ATOM     18  C   UNL     1      12.757  16.381 -26.068  1.00  0.00     0.008 C 
ATOM     19  C   UNL     1      12.584  14.825 -24.091  1.00  0.00     0.008 C 
ENDBRANCH  12  17
ENDBRANCH  11  12
ENDBRANCH   1  11
TORSDOF 1
ENDMDL
MODEL 3
REMARK VINA RESULT:    -3.826     17.198     18.370
REMARK INTER + INTRA:          -6.089
REMARK INTER:                  -6.275
REMARK INTRA:                   0.186
REMARK UNBOUND:                -0.251
REMARK SMILES CC1=CCC[C@H](C)C(=O)C[C@H](C(C)C)C(=O)C1
REMARK SMILES IDX 8 1 9 2 6 3 7 4 5 5 4 6 3 7 2 8 1 9 10 11 11 12 15 13 16 14
REMARK SMILES IDX 17 15 12 17 13 18 14 19
REMARK H PARENT
REMARK Flexibility Score: 70.00
ROOT
ATOM      1  C   UNL     1       7.326  24.018 -22.090  1.00  0.00     0.136 C 
ATOM      2  O   UNL     1       7.297  24.985 -21.340  1.00  0.00    -0.299 OA
ENDROOT
BRANCH   1   3
ATOM      3  C   UNL     1       6.092  23.679 -22.915  1.00  0.00     0.053 C 
ATOM      4  C   UNL     1       4.815  23.747 -22.062  1.00  0.00     0.016 C 
BRANCH   3   5
ATOM      5  C   UNL     1       5.956  24.559 -24.183  1.00  0.00     0.015 C 
BRANCH   5   6
ATOM      6  C   UNL     1       6.143  23.807 -25.522  1.00  0.00     0.028 C 
BRANCH   6   7
ATOM      7  C   UNL     1       5.991  22.314 -25.370  1.00  0.00    -0.028 C 
ATOM      8  C   UNL     1       6.995  21.411 -25.493  1.00  0.00    -0.070 CG0
ATOM      9  C   UNL     1       6.651  19.950 -25.350  1.00  0.00     0.039 C 
ATOM     10  G   UNL     1       8.451  21.798 -25.720  1.00  0.00     0.000 G0
ENDBRANCH   6   7
ENDBRANCH   5   6
ENDBRANCH   3   5
ENDBRANCH   1   3
BRANCH   1  11
ATOM     11  C   UNL     1       8.575  23.164 -22.081  1.00  0.00     0.087 C 
BRANCH  11  12
ATOM     12  C   UNL     1       8.567  21.922 -23.014  1.00  0.00     0.066 C 
BRANCH  12  13
ATOM     13  C   UNL     1       9.157  22.131 -24.414  1.00  0.00     0.140 C 
ATOM     14  O   UNL     1      10.279  22.610 -24.490  1.00  0.00    -0.299 OA
BRANCH  13  15
ATOM     15  C   UNL     1       8.449  21.794 -25.710  1.00  0.00     0.106 CG0
ATOM     16  G   UNL     1       6.996  21.413 -25.458  1.00  0.00     0.000 G0
ENDBRANCH  13  15
ENDBRANCH  12  13
BRANCH  12  17
ATOM     17  C   UNL     1       9.231  20.707 -22.282  1.00  0.00    -0.006 C 
ATOM     18  C   UNL     1       8.377  19.427 -22.332  1.00  0.00     0.008 C 
ATOM     19  C   UNL     1       9.610  21.032 -20.827  1.00  0.00     0.008 C 
ENDBRANCH  12  17
ENDBRANCH  11  12
ENDBRANCH   1  11
TORSDOF 1
ENDMDL
MODEL 4
REMARK VINA RESULT:    -3.795      1.650      4.117
REMARK INTER + INTRA:          -6.042
REMARK INTER:                  -5.830
REMARK INTRA:                  -0.212
REMARK UNBOUND:                -0.251
REMARK SMILES CC1=CCC[C@H](C)C(=O)C[C@H](C(C)C)C(=O)C1
REMARK SMILES IDX 8 1 9 2 6 3 7 4 5 5 4 6 3 7 2 8 1 9 10 11 11 12 15 13 16 14
REMARK SMILES IDX 17 15 12 17 13 18 14 19
REMARK H PARENT
REMARK Flexibility Score: 70.00
ROOT
ATOM      1  C   UNL     1      18.012   9.271 -25.923  1.00  0.00     0.136 C 
ATOM      2  O   UNL     1      16.789   9.268 -25.913  1.00  0.00    -0.299 OA
ENDROOT
BRANCH   1   3
ATOM      3  C   UNL     1      18.763   7.999 -25.555  1.00  0.00     0.053 C 
ATOM      4  C   UNL     1      18.688   7.723 -24.045  1.00  0.00     0.016 C 
BRANCH   3   5
ATOM      5  C   UNL     1      18.289   6.766 -26.365  1.00  0.00     0.015 C 
BRANCH   5   6
ATOM      6  C   UNL     1      18.851   6.676 -27.805  1.00  0.00     0.028 C 
BRANCH   6   7
ATOM      7  C   UNL     1      20.337   6.930 -27.859  1.00  0.00    -0.028 C 
ATOM      8  C   UNL     1      20.926   7.983 -28.477  1.00  0.00    -0.070 CG0
ATOM      9  C   UNL     1      22.432   8.054 -28.467  1.00  0.00     0.039 C 
ATOM     10  G   UNL     1      20.147   9.113 -29.137  1.00  0.00     0.000 G0
ENDBRANCH   6   7
ENDBRANCH   5   6
ENDBRANCH   3   5
ENDBRANCH   1   3
BRANCH   1  11
ATOM     11  C   UNL     1      18.705  10.583 -26.220  1.00  0.00     0.087 C 
BRANCH  11  12
ATOM     12  C   UNL     1      20.141  10.487 -26.805  1.00  0.00     0.066 C 
BRANCH  12  13
ATOM     13  C   UNL     1      20.239  10.418 -28.334  1.00  0.00     0.140 C 
ATOM     14  O   UNL     1      20.391  11.469 -28.940  1.00  0.00    -0.299 OA
BRANCH  13  15
ATOM     15  C   UNL     1      20.154   9.145 -29.150  1.00  0.00     0.106 CG0
ATOM     16  G   UNL     1      20.919   8.012 -28.478  1.00  0.00     0.000 G0
ENDBRANCH  13  15
ENDBRANCH  12  13
BRANCH  12  17
ATOM     17  C   UNL     1      21.028  11.638 -26.220  1.00  0.00    -0.006 C 
ATOM     18  C   UNL     1      22.155  11.130 -25.303  1.00  0.00     0.008 C 
ATOM     19  C   UNL     1      20.198  12.710 -25.493  1.00  0.00     0.008 C 
ENDBRANCH  12  17
ENDBRANCH  11  12
ENDBRANCH   1  11
TORSDOF 1
ENDMDL
MODEL 5
REMARK VINA RESULT:    -3.713     11.177     12.314
REMARK INTER + INTRA:          -5.918
REMARK INTER:                  -5.749
REMARK INTRA:                  -0.169
REMARK UNBOUND:                -0.251
REMARK SMILES CC1=CCC[C@H](C)C(=O)C[C@H](C(C)C)C(=O)C1
REMARK SMILES IDX 8 1 9 2 6 3 7 4 5 5 4 6 3 7 2 8 1 9 10 11 11 12 15 13 16 14
REMARK SMILES IDX 17 15 12 17 13 18 14 19
REMARK H PARENT
REMARK Flexibility Score: 70.00
ROOT
ATOM      1  C   UNL     1      14.166  17.741 -20.129  1.00  0.00     0.136 C 
ATOM      2  O   UNL     1      14.598  17.748 -18.983  1.00  0.00    -0.299 OA
ENDROOT
BRANCH   1   3
ATOM      3  C   UNL     1      15.056  18.235 -21.261  1.00  0.00     0.053 C 
ATOM      4  C   UNL     1      16.461  18.594 -20.752  1.00  0.00     0.016 C 
BRANCH   3   5
ATOM      5  C   UNL     1      15.135  17.236 -22.443  1.00  0.00     0.015 C 
BRANCH   5   6
ATOM      6  C   UNL     1      14.619  17.782 -23.796  1.00  0.00     0.028 C 
BRANCH   6   7
ATOM      7  C   UNL     1      13.708  16.808 -24.500  1.00  0.00    -0.028 C 
ATOM      8  C   UNL     1      12.353  16.863 -24.493  1.00  0.00    -0.070 CG0
ATOM      9  C   UNL     1      11.600  15.776 -25.219  1.00  0.00     0.039 C 
ATOM     10  G   UNL     1      11.560  17.984 -23.834  1.00  0.00     0.000 G0
ENDBRANCH   6   7
ENDBRANCH   5   6
ENDBRANCH   3   5
ENDBRANCH   1   3
BRANCH   1  11
ATOM     11  C   UNL     1      12.728  17.317 -20.331  1.00  0.00     0.087 C 
BRANCH  11  12
ATOM     12  C   UNL     1      11.841  18.273 -21.176  1.00  0.00     0.066 C 
BRANCH  12  13
ATOM     13  C   UNL     1      11.178  17.655 -22.412  1.00  0.00     0.140 C 
ATOM     14  O   UNL     1      10.303  16.820 -22.228  1.00  0.00    -0.299 OA
BRANCH  13  15
ATOM     15  C   UNL     1      11.530  17.997 -23.845  1.00  0.00     0.106 CG0
ATOM     16  G   UNL     1      12.351  16.885 -24.487  1.00  0.00     0.000 G0
ENDBRANCH  13  15
ENDBRANCH  12  13
BRANCH  12  17
ATOM     17  C   UNL     1      10.793  18.977 -20.248  1.00  0.00    -0.006 C 
ATOM     18  C   UNL     1      10.927  20.511 -20.235  1.00  0.00     0.008 C 
ATOM     19  C   UNL     1      10.819  18.432 -18.810  1.00  0.00     0.008 C 
ENDBRANCH  12  17
ENDBRANCH  11  12
ENDBRANCH   1  11
TORSDOF 1
ENDMDL
MODEL 6
REMARK VINA RESULT:    -3.597     13.175     14.580
REMARK INTER + INTRA:          -5.741
REMARK INTER:                  -5.860
REMARK INTRA:                   0.119
REMARK UNBOUND:                -0.251
REMARK SMILES CC1=CCC[C@H](C)C(=O)C[C@H](C(C)C)C(=O)C1
REMARK SMILES IDX 8 1 9 2 6 3 7 4 5 5 4 6 3 7 2 8 1 9 10 11 11 12 15 13 16 14
REMARK SMILES IDX 17 15 12 17 13 18 14 19
REMARK H PARENT
REMARK Flexibility Score: 70.00
ROOT
ATOM      1  C   UNL     1      11.709  17.806 -20.283  1.00  0.00     0.136 C 
ATOM      2  O   UNL     1      12.712  17.777 -19.581  1.00  0.00    -0.299 OA
ENDROOT
BRANCH   1   3
ATOM      3  C   UNL     1      10.421  18.388 -19.716  1.00  0.00     0.053 C 
ATOM      4  C   UNL     1      10.073  17.755 -18.359  1.00  0.00     0.016 C 
BRANCH   3   5
ATOM      5  C   UNL     1      10.455  19.933 -19.612  1.00  0.00     0.015 C 
BRANCH   5   6
ATOM      6  C   UNL     1       9.666  20.679 -20.716  1.00  0.00     0.028 C 
BRANCH   6   7
ATOM      7  C   UNL     1       8.504  19.870 -21.238  1.00  0.00    -0.028 C 
ATOM      8  C   UNL     1       8.362  19.446 -22.518  1.00  0.00    -0.070 CG0
ATOM      9  C   UNL     1       7.111  18.683 -22.874  1.00  0.00     0.039 C 
ATOM     10  G   UNL     1       9.417  19.659 -23.596  1.00  0.00     0.000 G0
ENDBRANCH   6   7
ENDBRANCH   5   6
ENDBRANCH   3   5
ENDBRANCH   1   3
BRANCH   1  11
ATOM     11  C   UNL     1      11.797  17.173 -21.654  1.00  0.00     0.087 C 
BRANCH  11  12
ATOM     12  C   UNL     1      10.595  17.423 -22.607  1.00  0.00     0.066 C 
BRANCH  12  13
ATOM     13  C   UNL     1      10.616  18.748 -23.378  1.00  0.00     0.140 C 
ATOM     14  O   UNL     1      11.684  19.116 -23.843  1.00  0.00    -0.299 OA
BRANCH  13  15
ATOM     15  C   UNL     1       9.410  19.638 -23.601  1.00  0.00     0.106 CG0
ATOM     16  G   UNL     1       8.369  19.433 -22.508  1.00  0.00     0.000 G0
ENDBRANCH  13  15
ENDBRANCH  12  13
BRANCH  12  17
ATOM     17  C   UNL     1      10.419  16.198 -23.567  1.00  0.00    -0.006 C 
ATOM     18  C   UNL     1       9.097  15.440 -23.347  1.00  0.00     0.008 C 
ATOM     19  C   UNL     1      11.605  15.221 -23.499  1.00  0.00     0.008 C 
ENDBRANCH  12  17
ENDBRANCH  11  12
ENDBRANCH   1  11
TORSDOF 1
ENDMDL
MODEL 7
REMARK VINA RESULT:    -3.551     13.034     14.145
REMARK INTER + INTRA:          -5.671
REMARK INTER:                  -5.637
REMARK INTRA:                  -0.033
REMARK UNBOUND:                -0.251
REMARK SMILES CC1=CCC[C@H](C)C(=O)C[C@H](C(C)C)C(=O)C1
REMARK SMILES IDX 8 1 9 2 6 3 7 4 5 5 4 6 3 7 2 8 1 9 10 11 11 12 15 13 16 14
REMARK SMILES IDX 17 15 12 17 13 18 14 19
REMARK H PARENT
REMARK Flexibility Score: 70.00
ROOT
ATOM      1  C   UNL     1      10.391  20.500 -20.935  1.00  0.00     0.136 C 
ATOM      2  O   UNL     1      10.296  20.918 -19.789  1.00  0.00    -0.299 OA
ENDROOT
BRANCH   1   3
ATOM      3  C   UNL     1       9.463  21.055 -22.008  1.00  0.00     0.053 C 
ATOM      4  C   UNL     1       8.972  22.466 -21.646  1.00  0.00     0.016 C 
BRANCH   3   5
ATOM      5  C   UNL     1      10.100  21.037 -23.420  1.00  0.00     0.015 C 
BRANCH   5   6
ATOM      6  C   UNL     1       9.422  20.079 -24.429  1.00  0.00     0.028 C 
BRANCH   6   7
ATOM      7  C   UNL     1      10.420  19.227 -25.175  1.00  0.00    -0.028 C 
ATOM      8  C   UNL     1      10.769  17.961 -24.839  1.00  0.00    -0.070 CG0
ATOM      9  C   UNL     1      11.819  17.274 -25.675  1.00  0.00     0.039 C 
ATOM     10  G   UNL     1      10.125  17.186 -23.696  1.00  0.00     0.000 G0
ENDBRANCH   6   7
ENDBRANCH   5   6
ENDBRANCH   3   5
ENDBRANCH   1   3
BRANCH   1  11
ATOM     11  C   UNL     1      11.379  19.383 -21.193  1.00  0.00     0.087 C 
BRANCH  11  12
ATOM     12  C   UNL     1      10.802  17.940 -21.194  1.00  0.00     0.066 C 
BRANCH  12  13
ATOM     13  C   UNL     1      11.025  17.130 -22.476  1.00  0.00     0.140 C 
ATOM     14  O   UNL     1      12.006  16.403 -22.523  1.00  0.00    -0.299 OA
BRANCH  13  15
ATOM     15  C   UNL     1      10.124  17.170 -23.693  1.00  0.00     0.106 CG0
ATOM     16  G   UNL     1      10.777  17.938 -24.834  1.00  0.00     0.000 G0
ENDBRANCH  13  15
ENDBRANCH  12  13
BRANCH  12  17
ATOM     17  C   UNL     1      11.306  17.169 -19.927  1.00  0.00    -0.006 C 
ATOM     18  C   UNL     1      10.362  17.303 -18.719  1.00  0.00     0.008 C 
ATOM     19  C   UNL     1      12.737  17.567 -19.526  1.00  0.00     0.008 C 
ENDBRANCH  12  17
ENDBRANCH  11  12
ENDBRANCH   1  11
TORSDOF 1
ENDMDL
MODEL 8
REMARK VINA RESULT:    -3.474      2.089      4.431
REMARK INTER + INTRA:          -5.553
REMARK INTER:                  -5.423
REMARK INTRA:                  -0.130
REMARK UNBOUND:                -0.251
REMARK SMILES CC1=CCC[C@H](C)C(=O)C[C@H](C(C)C)C(=O)C1
REMARK SMILES IDX 8 1 9 2 6 3 7 4 5 5 4 6 3 7 2 8 1 9 10 11 11 12 15 13 16 14
REMARK SMILES IDX 17 15 12 17 13 18 14 19
REMARK H PARENT
REMARK Flexibility Score: 70.00
ROOT
ATOM      1  C   UNL     1      18.981   8.362 -24.716  1.00  0.00     0.136 C 
ATOM      2  O   UNL     1      19.591   8.080 -23.693  1.00  0.00    -0.299 OA
ENDROOT
BRANCH   1   3
ATOM      3  C   UNL     1      17.842   7.461 -25.174  1.00  0.00     0.053 C 
ATOM      4  C   UNL     1      17.866   6.113 -24.438  1.00  0.00     0.016 C 
BRANCH   3   5
ATOM      5  C   UNL     1      16.453   8.136 -25.045  1.00  0.00     0.015 C 
BRANCH   5   6
ATOM      6  C   UNL     1      15.920   8.785 -26.345  1.00  0.00     0.028 C 
BRANCH   6   7
ATOM      7  C   UNL     1      16.366   8.045 -27.583  1.00  0.00    -0.028 C 
ATOM      8  C   UNL     1      17.294   8.491 -28.465  1.00  0.00    -0.070 CG0
ATOM      9  C   UNL     1      17.585   7.636 -29.673  1.00  0.00     0.039 C 
ATOM     10  G   UNL     1      18.085   9.778 -28.275  1.00  0.00     0.000 G0
ENDBRANCH   6   7
ENDBRANCH   5   6
ENDBRANCH   3   5
ENDBRANCH   1   3
BRANCH   1  11
ATOM     11  C   UNL     1      19.464   9.555 -25.512  1.00  0.00     0.087 C 
BRANCH  11  12
ATOM     12  C   UNL     1      20.275   9.241 -26.800  1.00  0.00     0.066 C 
BRANCH  12  13
ATOM     13  C   UNL     1      19.561   9.526 -28.126  1.00  0.00     0.140 C 
ATOM     14  O   UNL     1      20.241   9.546 -29.142  1.00  0.00    -0.299 OA
BRANCH  13  15
ATOM     15  C   UNL     1      18.077   9.791 -28.271  1.00  0.00     0.106 CG0
ATOM     16  G   UNL     1      17.304   8.491 -28.452  1.00  0.00     0.000 G0
ENDBRANCH  13  15
ENDBRANCH  12  13
BRANCH  12  17
ATOM     17  C   UNL     1      21.671   9.947 -26.730  1.00  0.00    -0.006 C 
ATOM     18  C   UNL     1      22.852   8.961 -26.757  1.00  0.00     0.008 C 
ATOM     19  C   UNL     1      21.796  10.888 -25.519  1.00  0.00     0.008 C 
ENDBRANCH  12  17
ENDBRANCH  11  12
ENDBRANCH   1  11
TORSDOF 1
ENDMDL
MODEL 9
REMARK VINA RESULT:    -3.406     13.246     14.538
REMARK INTER + INTRA:          -5.449
REMARK INTER:                  -5.131
REMARK INTRA:                  -0.319
REMARK UNBOUND:                -0.251
REMARK SMILES CC1=CCC[C@H](C)C(=O)C[C@H](C(C)C)C(=O)C1
REMARK SMILES IDX 8 1 9 2 6 3 7 4 5 5 4 6 3 7 2 8 1 9 10 11 11 12 15 13 16 14
REMARK SMILES IDX 17 15 12 17 13 18 14 19
REMARK H PARENT
REMARK Flexibility Score: 70.00
ROOT
ATOM      1  C   UNL     1       9.882  19.626 -20.107  1.00  0.00     0.136 C 
ATOM      2  O   UNL     1       9.984  20.845 -20.149  1.00  0.00    -0.299 OA
ENDROOT
BRANCH   1   3
ATOM      3  C   UNL     1      10.940  18.817 -19.370  1.00  0.00     0.053 C 
ATOM      4  C   UNL     1      10.413  17.424 -18.990  1.00  0.00     0.016 C 
BRANCH   3   5
ATOM      5  C   UNL     1      12.270  18.708 -20.157  1.00  0.00     0.015 C 
BRANCH   5   6
ATOM      6  C   UNL     1      12.457  17.386 -20.941  1.00  0.00     0.028 C 
BRANCH   6   7
ATOM      7  C   UNL     1      12.476  17.601 -22.434  1.00  0.00    -0.028 C 
ATOM      8  C   UNL     1      11.483  17.244 -23.286  1.00  0.00    -0.070 CG0
ATOM      9  C   UNL     1      11.692  17.497 -24.758  1.00  0.00     0.039 C 
ATOM     10  G   UNL     1      10.158  16.648 -22.829  1.00  0.00     0.000 G0
ENDBRANCH   6   7
ENDBRANCH   5   6
ENDBRANCH   3   5
ENDBRANCH   1   3
BRANCH   1  11
ATOM     11  C   UNL     1       8.743  18.993 -20.876  1.00  0.00     0.087 C 
BRANCH  11  12
ATOM     12  C   UNL     1       8.875  18.990 -22.424  1.00  0.00     0.066 C 
BRANCH  12  13
ATOM     13  C   UNL     1       9.011  17.612 -23.082  1.00  0.00     0.140 C 
ATOM     14  O   UNL     1       8.132  17.265 -23.858  1.00  0.00    -0.299 OA
BRANCH  13  15
ATOM     15  C   UNL     1      10.151  16.644 -22.837  1.00  0.00     0.106 CG0
ATOM     16  G   UNL     1      11.481  17.244 -23.274  1.00  0.00     0.000 G0
ENDBRANCH  13  15
ENDBRANCH  12  13
BRANCH  12  17
ATOM     17  C   UNL     1       7.706  19.819 -23.056  1.00  0.00    -0.006 C 
ATOM     18  C   UNL     1       8.194  20.991 -23.927  1.00  0.00     0.008 C 
ATOM     19  C   UNL     1       6.707  20.326 -22.002  1.00  0.00     0.008 C 
ENDBRANCH  12  17
ENDBRANCH  11  12
ENDBRANCH   1  11
TORSDOF 1
ENDMDL
