MODEL 1
REMARK VINA RESULT:    -4.692      0.000      0.000
REMARK INTER + INTRA:          -4.989
REMARK INTER:                  -4.967
REMARK INTRA:                  -0.023
REMARK UNBOUND:                -0.023
REMARK SMILES O=C([O-])c1cccnc1
REMARK SMILES IDX 4 1 5 2 9 3 6 4 8 5 7 6 2 7 1 8 3 9
REMARK H PARENT
REMARK Flexibility Score: inf
ROOT
ATOM      1  C   UNL     1     152.766 149.181 149.380  1.00  0.00     0.016 A 
ATOM      2  C   UNL     1     153.277 150.334 150.000  1.00  0.00     0.013 A 
ATOM      3  C   UNL     1     153.592 148.485 148.481  1.00  0.00     0.120 A 
ATOM      4  C   UNL     1     154.574 150.765 149.719  1.00  0.00     0.021 A 
ATOM      5  N   UNL     1     154.853 148.926 148.225  1.00  0.00    -0.264 NA
ATOM      6  C   UNL     1     155.356 150.041 148.819  1.00  0.00     0.111 A 
ENDROOT
BRANCH   1   7
ATOM      7  C   UNL     1     151.394 148.708 149.663  1.00  0.00     0.073 C 
ATOM      8  O   UNL     1     150.515 149.507 150.082  1.00  0.00    -0.545 OA
ATOM      9  O   UNL     1     151.056 147.374 149.473  1.00  0.00    -0.545 OA
ENDBRANCH   1   7
TORSDOF 1
ENDMDL
MODEL 2
REMARK VINA RESULT:    -4.644      0.910      1.601
REMARK INTER + INTRA:          -4.938
REMARK INTER:                  -4.915
REMARK INTRA:                  -0.023
REMARK UNBOUND:                -0.023
REMARK SMILES O=C([O-])c1cccnc1
REMARK SMILES IDX 4 1 5 2 9 3 6 4 8 5 7 6 2 7 1 8 3 9
REMARK H PARENT
REMARK Flexibility Score: inf
ROOT
ATOM      1  C   UNL     1     152.745 149.222 149.382  1.00  0.00     0.016 A 
ATOM      2  C   UNL     1     153.556 148.459 148.526  1.00  0.00     0.013 A 
ATOM      3  C   UNL     1     153.278 150.400 149.931  1.00  0.00     0.120 A 
ATOM      4  C   UNL     1     154.857 148.875 148.237  1.00  0.00     0.021 A 
ATOM      5  N   UNL     1     154.549 150.783 149.634  1.00  0.00    -0.264 NA
ATOM      6  C   UNL     1     155.342 150.052 148.808  1.00  0.00     0.111 A 
ENDROOT
BRANCH   1   7
ATOM      7  C   UNL     1     151.364 148.799 149.701  1.00  0.00     0.073 C 
ATOM      8  O   UNL     1     150.532 149.625 150.161  1.00  0.00    -0.545 OA
ATOM      9  O   UNL     1     150.967 147.483 149.498  1.00  0.00    -0.545 OA
ENDBRANCH   1   7
TORSDOF 1
ENDMDL
MODEL 3
REMARK VINA RESULT:    -4.628      1.454      2.064
REMARK INTER + INTRA:          -4.921
REMARK INTER:                  -4.903
REMARK INTRA:                  -0.018
REMARK UNBOUND:                -0.023
REMARK SMILES O=C([O-])c1cccnc1
REMARK SMILES IDX 4 1 5 2 9 3 6 4 8 5 7 6 2 7 1 8 3 9
REMARK H PARENT
REMARK Flexibility Score: inf
ROOT
ATOM      1  C   UNL     1     152.804 148.025 148.412  1.00  0.00     0.016 A 
ATOM      2  C   UNL     1     152.268 149.204 148.956  1.00  0.00     0.013 A 
ATOM      3  C   UNL     1     154.173 147.998 148.095  1.00  0.00     0.120 A 
ATOM      4  C   UNL     1     153.087 150.314 149.171  1.00  0.00     0.021 A 
ATOM      5  N   UNL     1     154.949 149.093 148.314  1.00  0.00    -0.264 NA
ATOM      6  C   UNL     1     154.441 150.239 148.839  1.00  0.00     0.111 A 
ENDROOT
BRANCH   1   7
ATOM      7  C   UNL     1     151.952 146.839 148.177  1.00  0.00     0.073 C 
ATOM      8  O   UNL     1     151.801 146.380 147.013  1.00  0.00    -0.545 OA
ATOM      9  O   UNL     1     151.307 146.214 149.237  1.00  0.00    -0.545 OA
ENDBRANCH   1   7
TORSDOF 1
ENDMDL
MODEL 4
REMARK VINA RESULT:    -4.523      2.268      3.484
REMARK INTER + INTRA:          -4.810
REMARK INTER:                  -4.791
REMARK INTRA:                  -0.019
REMARK UNBOUND:                -0.023
REMARK SMILES O=C([O-])c1cccnc1
REMARK SMILES IDX 4 1 5 2 9 3 6 4 8 5 7 6 2 7 1 8 3 9
REMARK H PARENT
REMARK Flexibility Score: inf
ROOT
ATOM      1  C   UNL     1     152.040 148.664 149.303  1.00  0.00     0.016 A 
ATOM      2  C   UNL     1     150.901 147.971 149.746  1.00  0.00     0.013 A 
ATOM      3  C   UNL     1     152.866 148.048 148.348  1.00  0.00     0.120 A 
ATOM      4  C   UNL     1     150.611 146.702 149.241  1.00  0.00     0.021 A 
ATOM      5  N   UNL     1     152.561 146.811 147.872  1.00  0.00    -0.264 NA
ATOM      6  C   UNL     1     151.463 146.132 148.294  1.00  0.00     0.111 A 
ENDROOT
BRANCH   1   7
ATOM      7  C   UNL     1     152.365 150.009 149.827  1.00  0.00     0.073 C 
ATOM      8  O   UNL     1     152.688 150.940 149.042  1.00  0.00    -0.545 OA
ATOM      9  O   UNL     1     152.319 150.262 151.192  1.00  0.00    -0.545 OA
ENDBRANCH   1   7
TORSDOF 1
ENDMDL
MODEL 5
REMARK VINA RESULT:    -4.503      2.584      3.684
REMARK INTER + INTRA:          -4.788
REMARK INTER:                  -4.765
REMARK INTRA:                  -0.024
REMARK UNBOUND:                -0.023
REMARK SMILES O=C([O-])c1cccnc1
REMARK SMILES IDX 4 1 5 2 9 3 6 4 8 5 7 6 2 7 1 8 3 9
REMARK H PARENT
REMARK Flexibility Score: inf
ROOT
ATOM      1  C   UNL     1     153.274 148.953 148.857  1.00  0.00     0.016 A 
ATOM      2  C   UNL     1     152.102 149.165 149.602  1.00  0.00     0.013 A 
ATOM      3  C   UNL     1     153.381 147.772 148.104  1.00  0.00     0.120 A 
ATOM      4  C   UNL     1     151.078 148.216 149.584  1.00  0.00     0.021 A 
ATOM      5  N   UNL     1     152.369 146.863 148.104  1.00  0.00    -0.264 NA
ATOM      6  C   UNL     1     151.232 147.058 148.821  1.00  0.00     0.111 A 
ENDROOT
BRANCH   1   7
ATOM      7  C   UNL     1     154.370 149.946 148.862  1.00  0.00     0.073 C 
ATOM      8  O   UNL     1     155.395 149.771 148.151  1.00  0.00    -0.545 OA
ATOM      9  O   UNL     1     154.284 151.084 149.654  1.00  0.00    -0.545 OA
ENDBRANCH   1   7
TORSDOF 1
ENDMDL
MODEL 6
REMARK VINA RESULT:    -4.456      1.376      2.101
REMARK INTER + INTRA:          -4.739
REMARK INTER:                  -4.719
REMARK INTRA:                  -0.020
REMARK UNBOUND:                -0.023
REMARK SMILES O=C([O-])c1cccnc1
REMARK SMILES IDX 4 1 5 2 9 3 6 4 8 5 7 6 2 7 1 8 3 9
REMARK H PARENT
REMARK Flexibility Score: inf
ROOT
ATOM      1  C   UNL     1     152.228 148.971 149.553  1.00  0.00     0.016 A 
ATOM      2  C   UNL     1     153.186 148.960 148.526  1.00  0.00     0.013 A 
ATOM      3  C   UNL     1     152.384 149.894 150.602  1.00  0.00     0.120 A 
ATOM      4  C   UNL     1     154.261 149.850 148.560  1.00  0.00     0.021 A 
ATOM      5  N   UNL     1     153.440 150.750 150.611  1.00  0.00    -0.264 NA
ATOM      6  C   UNL     1     154.373 150.747 149.623  1.00  0.00     0.111 A 
ENDROOT
BRANCH   1   7
ATOM      7  C   UNL     1     151.082 148.036 149.536  1.00  0.00     0.073 C 
ATOM      8  O   UNL     1     151.252 146.820 149.256  1.00  0.00    -0.545 OA
ATOM      9  O   UNL     1     149.801 148.488 149.828  1.00  0.00    -0.545 OA
ENDBRANCH   1   7
TORSDOF 1
ENDMDL
MODEL 7
REMARK VINA RESULT:    -4.440      3.079      4.347
REMARK INTER + INTRA:          -4.722
REMARK INTER:                  -4.706
REMARK INTRA:                  -0.016
REMARK UNBOUND:                -0.023
REMARK SMILES O=C([O-])c1cccnc1
REMARK SMILES IDX 4 1 5 2 9 3 6 4 8 5 7 6 2 7 1 8 3 9
REMARK H PARENT
REMARK Flexibility Score: inf
ROOT
ATOM      1  C   UNL     1     151.263 149.060 149.933  1.00  0.00     0.016 A 
ATOM      2  C   UNL     1     151.621 147.779 149.481  1.00  0.00     0.013 A 
ATOM      3  C   UNL     1     149.922 149.293 150.283  1.00  0.00     0.120 A 
ATOM      4  C   UNL     1     150.658 146.773 149.388  1.00  0.00     0.021 A 
ATOM      5  N   UNL     1     149.003 148.296 150.183  1.00  0.00    -0.264 NA
ATOM      6  C   UNL     1     149.339 147.053 149.746  1.00  0.00     0.111 A 
ENDROOT
BRANCH   1   7
ATOM      7  C   UNL     1     152.268 150.139 150.038  1.00  0.00     0.073 C 
ATOM      8  O   UNL     1     152.720 150.485 151.162  1.00  0.00    -0.545 OA
ATOM      9  O   UNL     1     152.727 150.787 148.898  1.00  0.00    -0.545 OA
ENDBRANCH   1   7
TORSDOF 1
ENDMDL
MODEL 8
REMARK VINA RESULT:    -4.436      2.836      4.089
REMARK INTER + INTRA:          -4.718
REMARK INTER:                  -4.695
REMARK INTRA:                  -0.023
REMARK UNBOUND:                -0.023
REMARK SMILES O=C([O-])c1cccnc1
REMARK SMILES IDX 4 1 5 2 9 3 6 4 8 5 7 6 2 7 1 8 3 9
REMARK H PARENT
REMARK Flexibility Score: inf
ROOT
ATOM      1  C   UNL     1     152.573 148.362 148.707  1.00  0.00     0.016 A 
ATOM      2  C   UNL     1     152.594 147.020 148.290  1.00  0.00     0.013 A 
ATOM      3  C   UNL     1     151.440 148.829 149.395  1.00  0.00     0.120 A 
ATOM      4  C   UNL     1     151.510 146.184 148.561  1.00  0.00     0.021 A 
ATOM      5  N   UNL     1     150.397 147.993 149.646  1.00  0.00    -0.264 NA
ATOM      6  C   UNL     1     150.407 146.694 149.247  1.00  0.00     0.111 A 
ENDROOT
BRANCH   1   7
ATOM      7  C   UNL     1     153.712 149.264 148.429  1.00  0.00     0.073 C 
ATOM      8  O   UNL     1     153.578 150.512 148.529  1.00  0.00    -0.545 OA
ATOM      9  O   UNL     1     154.945 148.745 148.053  1.00  0.00    -0.545 OA
ENDBRANCH   1   7
TORSDOF 1
ENDMDL
MODEL 9
REMARK VINA RESULT:    -4.386      2.747      3.582
REMARK INTER + INTRA:          -4.665
REMARK INTER:                  -4.642
REMARK INTRA:                  -0.023
REMARK UNBOUND:                -0.023
REMARK SMILES O=C([O-])c1cccnc1
REMARK SMILES IDX 4 1 5 2 9 3 6 4 8 5 7 6 2 7 1 8 3 9
REMARK H PARENT
REMARK Flexibility Score: inf
ROOT
ATOM      1  C   UNL     1     153.457 149.990 149.603  1.00  0.00     0.016 A 
ATOM      2  C   UNL     1     152.403 150.075 150.527  1.00  0.00     0.013 A 
ATOM      3  C   UNL     1     153.248 149.267 148.417  1.00  0.00     0.120 A 
ATOM      4  C   UNL     1     151.183 149.451 150.260  1.00  0.00     0.021 A 
ATOM      5  N   UNL     1     152.051 148.668 148.180  1.00  0.00    -0.264 NA
ATOM      6  C   UNL     1     151.024 148.743 149.068  1.00  0.00     0.111 A 
ENDROOT
BRANCH   1   7
ATOM      7  C   UNL     1     154.757 150.644 149.869  1.00  0.00     0.073 C 
ATOM      8  O   UNL     1     154.862 151.518 150.770  1.00  0.00    -0.545 OA
ATOM      9  O   UNL     1     155.881 150.304 149.125  1.00  0.00    -0.545 OA
ENDBRANCH   1   7
TORSDOF 1
ENDMDL
