MODEL 1
REMARK VINA RESULT:    -7.248      0.000      0.000
REMARK INTER + INTRA:          -7.740
REMARK INTER:                  -7.671
REMARK INTRA:                  -0.068
REMARK UNBOUND:                -0.068
REMARK SMILES CC1=C[C@@H]2C(=C(C)CC[C@H]2C(C)C)CC1
REMARK SMILES IDX 1 1 2 2 3 3 4 4 10 5 9 6 8 7 6 8 5 9 14 10 15 11 7 12 11 13
REMARK SMILES IDX 12 14 13 15
REMARK H PARENT
REMARK Flexibility Score: inf
ROOT
ATOM      1  C   UNL     1      -0.867 -12.735  10.239  1.00  0.00     0.039 C 
ATOM      2  C   UNL     1      -2.008 -13.713  10.203  1.00  0.00    -0.076 C 
ATOM      3  C   UNL     1      -2.466 -14.175   9.026  1.00  0.00    -0.020 C 
ATOM      4  C   UNL     1      -3.589 -15.195   8.999  1.00  0.00     0.041 C 
ATOM      5  C   UNL     1      -3.804 -15.778   7.574  1.00  0.00     0.003 C 
ATOM      6  C   UNL     1      -4.690 -17.033   7.668  1.00  0.00     0.009 C 
ATOM      7  C   UNL     1      -3.997 -18.101   8.508  1.00  0.00     0.031 C 
ATOM      8  C   UNL     1      -3.546 -17.583   9.857  1.00  0.00    -0.073 C 
ATOM      9  C   UNL     1      -3.301 -16.257  10.068  1.00  0.00    -0.064 C 
ATOM     10  C   UNL     1      -2.768 -15.770  11.415  1.00  0.00     0.036 C 
ATOM     11  C   UNL     1      -2.627 -14.240  11.478  1.00  0.00     0.035 C 
ATOM     12  C   UNL     1      -3.258 -18.610  10.927  1.00  0.00     0.039 C 
ENDROOT
BRANCH   5  13
ATOM     13  C   UNL     1      -4.366 -14.719   6.566  1.00  0.00    -0.013 C 
ATOM     14  C   UNL     1      -5.271 -15.375   5.511  1.00  0.00     0.007 C 
ATOM     15  C   UNL     1      -5.106 -13.546   7.232  1.00  0.00     0.007 C 
ENDBRANCH   5  13
TORSDOF 1
ENDMDL
MODEL 2
REMARK VINA RESULT:    -6.929      1.314      4.261
REMARK INTER + INTRA:          -7.402
REMARK INTER:                  -7.125
REMARK INTRA:                  -0.278
REMARK UNBOUND:                -0.068
REMARK SMILES CC1=C[C@@H]2C(=C(C)CC[C@H]2C(C)C)CC1
REMARK SMILES IDX 1 1 2 2 3 3 4 4 10 5 9 6 8 7 6 8 5 9 14 10 15 11 7 12 11 13
REMARK SMILES IDX 12 14 13 15
REMARK H PARENT
REMARK Flexibility Score: inf
ROOT
ATOM      1  C   UNL     1      -5.326 -14.272   5.754  1.00  0.00     0.039 C 
ATOM      2  C   UNL     1      -4.728 -15.103   6.855  1.00  0.00    -0.076 C 
ATOM      3  C   UNL     1      -3.894 -14.541   7.749  1.00  0.00    -0.020 C 
ATOM      4  C   UNL     1      -3.330 -15.375   8.883  1.00  0.00     0.041 C 
ATOM      5  C   UNL     1      -2.595 -14.497   9.934  1.00  0.00     0.003 C 
ATOM      6  C   UNL     1      -2.355 -15.325  11.209  1.00  0.00     0.009 C 
ATOM      7  C   UNL     1      -3.688 -15.754  11.812  1.00  0.00     0.031 C 
ATOM      8  C   UNL     1      -4.589 -16.444  10.809  1.00  0.00    -0.073 C 
ATOM      9  C   UNL     1      -4.465 -16.225   9.469  1.00  0.00    -0.064 C 
ATOM     10  C   UNL     1      -5.439 -16.870   8.483  1.00  0.00     0.036 C 
ATOM     11  C   UNL     1      -5.089 -16.562   7.017  1.00  0.00     0.035 C 
ATOM     12  C   UNL     1      -5.714 -17.288  11.363  1.00  0.00     0.039 C 
ENDROOT
BRANCH   5  13
ATOM     13  C   UNL     1      -1.277 -13.859   9.375  1.00  0.00    -0.013 C 
ATOM     14  C   UNL     1      -0.821 -12.671  10.236  1.00  0.00     0.007 C 
ATOM     15  C   UNL     1      -0.117 -14.857   9.204  1.00  0.00     0.007 C 
ENDBRANCH   5  13
TORSDOF 1
ENDMDL
MODEL 3
REMARK VINA RESULT:    -6.391      1.477      5.523
REMARK INTER + INTRA:          -6.833
REMARK INTER:                  -6.621
REMARK INTRA:                  -0.212
REMARK UNBOUND:                -0.068
REMARK SMILES CC1=C[C@@H]2C(=C(C)CC[C@H]2C(C)C)CC1
REMARK SMILES IDX 1 1 2 2 3 3 4 4 10 5 9 6 8 7 6 8 5 9 14 10 15 11 7 12 11 13
REMARK SMILES IDX 12 14 13 15
REMARK H PARENT
REMARK Flexibility Score: inf
ROOT
ATOM      1  C   UNL     1      -3.120 -19.125   8.036  1.00  0.00     0.039 C 
ATOM      2  C   UNL     1      -3.448 -17.860   8.779  1.00  0.00    -0.076 C 
ATOM      3  C   UNL     1      -2.791 -17.553   9.912  1.00  0.00    -0.020 C 
ATOM      4  C   UNL     1      -3.096 -16.253  10.633  1.00  0.00     0.041 C 
ATOM      5  C   UNL     1      -2.072 -15.971  11.769  1.00  0.00     0.003 C 
ATOM      6  C   UNL     1      -2.212 -14.507  12.224  1.00  0.00     0.009 C 
ATOM      7  C   UNL     1      -1.893 -13.567  11.066  1.00  0.00     0.031 C 
ATOM      8  C   UNL     1      -2.690 -13.885   9.818  1.00  0.00    -0.073 C 
ATOM      9  C   UNL     1      -3.191 -15.133   9.590  1.00  0.00    -0.064 C 
ATOM     10  C   UNL     1      -3.921 -15.450   8.285  1.00  0.00     0.036 C 
ATOM     11  C   UNL     1      -4.474 -16.885   8.249  1.00  0.00     0.035 C 
ATOM     12  C   UNL     1      -2.799 -12.797   8.777  1.00  0.00     0.039 C 
ENDROOT
BRANCH   5  13
ATOM     13  C   UNL     1      -2.192 -16.984  12.958  1.00  0.00    -0.013 C 
ATOM     14  C   UNL     1      -1.015 -17.972  12.973  1.00  0.00     0.007 C 
ATOM     15  C   UNL     1      -2.335 -16.320  14.339  1.00  0.00     0.007 C 
ENDBRANCH   5  13
TORSDOF 1
ENDMDL
MODEL 4
REMARK VINA RESULT:    -6.213      1.629      4.131
REMARK INTER + INTRA:          -6.645
REMARK INTER:                  -6.637
REMARK INTRA:                  -0.009
REMARK UNBOUND:                -0.068
REMARK SMILES CC1=C[C@@H]2C(=C(C)CC[C@H]2C(C)C)CC1
REMARK SMILES IDX 1 1 2 2 3 3 4 4 10 5 9 6 8 7 6 8 5 9 14 10 15 11 7 12 11 13
REMARK SMILES IDX 12 14 13 15
REMARK H PARENT
REMARK Flexibility Score: inf
ROOT
ATOM      1  C   UNL     1       0.073 -13.377   9.502  1.00  0.00     0.039 C 
ATOM      2  C   UNL     1      -0.872 -14.540   9.384  1.00  0.00    -0.076 C 
ATOM      3  C   UNL     1      -1.760 -14.792  10.363  1.00  0.00    -0.020 C 
ATOM      4  C   UNL     1      -2.740 -15.941  10.216  1.00  0.00     0.041 C 
ATOM      5  C   UNL     1      -3.828 -15.915  11.327  1.00  0.00     0.003 C 
ATOM      6  C   UNL     1      -4.973 -16.866  10.937  1.00  0.00     0.009 C 
ATOM      7  C   UNL     1      -5.622 -16.398   9.638  1.00  0.00     0.031 C 
ATOM      8  C   UNL     1      -4.617 -16.183   8.527  1.00  0.00    -0.073 C 
ATOM      9  C   UNL     1      -3.306 -15.913   8.791  1.00  0.00    -0.064 C 
ATOM     10  C   UNL     1      -2.329 -15.618   7.653  1.00  0.00     0.036 C 
ATOM     11  C   UNL     1      -0.887 -15.413   8.149  1.00  0.00     0.035 C 
ATOM     12  C   UNL     1      -5.151 -16.153   7.114  1.00  0.00     0.039 C 
ENDROOT
BRANCH   5  13
ATOM     13  C   UNL     1      -3.248 -16.223  12.749  1.00  0.00    -0.013 C 
ATOM     14  C   UNL     1      -2.057 -17.192  12.671  1.00  0.00     0.007 C 
ATOM     15  C   UNL     1      -2.851 -14.971  13.552  1.00  0.00     0.007 C 
ENDBRANCH   5  13
TORSDOF 1
ENDMDL
MODEL 5
REMARK VINA RESULT:    -6.005      1.588      3.016
REMARK INTER + INTRA:          -6.424
REMARK INTER:                  -6.465
REMARK INTRA:                   0.041
REMARK UNBOUND:                -0.068
REMARK SMILES CC1=C[C@@H]2C(=C(C)CC[C@H]2C(C)C)CC1
REMARK SMILES IDX 1 1 2 2 3 3 4 4 10 5 9 6 8 7 6 8 5 9 14 10 15 11 7 12 11 13
REMARK SMILES IDX 12 14 13 15
REMARK H PARENT
REMARK Flexibility Score: inf
ROOT
ATOM      1  C   UNL     1       0.292 -15.376   7.998  1.00  0.00     0.039 C 
ATOM      2  C   UNL     1      -0.960 -15.045   8.761  1.00  0.00    -0.076 C 
ATOM      3  C   UNL     1      -1.979 -15.922   8.801  1.00  0.00    -0.020 C 
ATOM      4  C   UNL     1      -3.221 -15.600   9.610  1.00  0.00     0.041 C 
ATOM      5  C   UNL     1      -4.167 -16.828   9.728  1.00  0.00     0.003 C 
ATOM      6  C   UNL     1      -5.212 -16.561  10.825  1.00  0.00     0.009 C 
ATOM      7  C   UNL     1      -4.520 -16.376  12.171  1.00  0.00     0.031 C 
ATOM      8  C   UNL     1      -3.420 -15.337  12.126  1.00  0.00    -0.073 C 
ATOM      9  C   UNL     1      -2.781 -15.023  10.962  1.00  0.00    -0.064 C 
ATOM     10  C   UNL     1      -1.618 -14.031  10.956  1.00  0.00     0.036 C 
ATOM     11  C   UNL     1      -1.082 -13.756   9.541  1.00  0.00     0.035 C 
ATOM     12  C   UNL     1      -2.970 -14.753  13.445  1.00  0.00     0.039 C 
ENDROOT
BRANCH   5  13
ATOM     13  C   UNL     1      -4.820 -17.223   8.359  1.00  0.00    -0.013 C 
ATOM     14  C   UNL     1      -5.358 -15.988   7.619  1.00  0.00     0.007 C 
ATOM     15  C   UNL     1      -3.894 -18.027   7.428  1.00  0.00     0.007 C 
ENDBRANCH   5  13
TORSDOF 1
ENDMDL
MODEL 6
REMARK VINA RESULT:    -5.446      1.983      3.616
REMARK INTER + INTRA:          -5.833
REMARK INTER:                  -5.541
REMARK INTRA:                  -0.292
REMARK UNBOUND:                -0.068
REMARK SMILES CC1=C[C@@H]2C(=C(C)CC[C@H]2C(C)C)CC1
REMARK SMILES IDX 1 1 2 2 3 3 4 4 10 5 9 6 8 7 6 8 5 9 14 10 15 11 7 12 11 13
REMARK SMILES IDX 12 14 13 15
REMARK H PARENT
REMARK Flexibility Score: inf
ROOT
ATOM      1  C   UNL     1      -1.621 -16.835  14.456  1.00  0.00     0.039 C 
ATOM      2  C   UNL     1      -2.387 -16.184  13.338  1.00  0.00    -0.076 C 
ATOM      3  C   UNL     1      -1.884 -16.175  12.090  1.00  0.00    -0.020 C 
ATOM      4  C   UNL     1      -2.683 -15.556  10.959  1.00  0.00     0.041 C 
ATOM      5  C   UNL     1      -2.050 -15.860   9.572  1.00  0.00     0.003 C 
ATOM      6  C   UNL     1      -3.064 -15.521   8.466  1.00  0.00     0.009 C 
ATOM      7  C   UNL     1      -4.307 -16.392   8.611  1.00  0.00     0.031 C 
ATOM      8  C   UNL     1      -4.899 -16.340  10.003  1.00  0.00    -0.073 C 
ATOM      9  C   UNL     1      -4.141 -16.014  11.090  1.00  0.00    -0.064 C 
ATOM     10  C   UNL     1      -4.742 -16.048  12.495  1.00  0.00     0.036 C 
ATOM     11  C   UNL     1      -3.752 -15.579  13.574  1.00  0.00     0.035 C 
ATOM     12  C   UNL     1      -6.334 -16.785  10.157  1.00  0.00     0.039 C 
ENDROOT
BRANCH   5  13
ATOM     13  C   UNL     1      -0.672 -15.143   9.366  1.00  0.00    -0.013 C 
ATOM     14  C   UNL     1      -0.087 -15.443   7.976  1.00  0.00     0.007 C 
ATOM     15  C   UNL     1      -0.712 -13.622   9.599  1.00  0.00     0.007 C 
ENDBRANCH   5  13
TORSDOF 1
ENDMDL
MODEL 7
REMARK VINA RESULT:    -5.348      1.618      3.800
REMARK INTER + INTRA:          -5.729
REMARK INTER:                  -5.455
REMARK INTRA:                  -0.275
REMARK UNBOUND:                -0.068
REMARK SMILES CC1=C[C@@H]2C(=C(C)CC[C@H]2C(C)C)CC1
REMARK SMILES IDX 1 1 2 2 3 3 4 4 10 5 9 6 8 7 6 8 5 9 14 10 15 11 7 12 11 13
REMARK SMILES IDX 12 14 13 15
REMARK H PARENT
REMARK Flexibility Score: inf
ROOT
ATOM      1  C   UNL     1      -5.329 -15.749  13.647  1.00  0.00     0.039 C 
ATOM      2  C   UNL     1      -4.158 -15.714  12.705  1.00  0.00    -0.076 C 
ATOM      3  C   UNL     1      -4.342 -15.937  11.391  1.00  0.00    -0.020 C 
ATOM      4  C   UNL     1      -3.163 -15.856  10.439  1.00  0.00     0.041 C 
ATOM      5  C   UNL     1      -3.618 -15.901   8.953  1.00  0.00     0.003 C 
ATOM      6  C   UNL     1      -2.448 -15.470   8.051  1.00  0.00     0.009 C 
ATOM      7  C   UNL     1      -2.042 -14.035   8.371  1.00  0.00     0.031 C 
ATOM      8  C   UNL     1      -1.775 -13.818   9.845  1.00  0.00    -0.073 C 
ATOM      9  C   UNL     1      -2.336 -14.616  10.798  1.00  0.00    -0.064 C 
ATOM     10  C   UNL     1      -2.116 -14.325  12.283  1.00  0.00     0.036 C 
ATOM     11  C   UNL     1      -2.769 -15.378  13.196  1.00  0.00     0.035 C 
ATOM     12  C   UNL     1      -0.961 -12.603  10.224  1.00  0.00     0.039 C 
ENDROOT
BRANCH   5  13
ATOM     13  C   UNL     1      -4.213 -17.291   8.544  1.00  0.00    -0.013 C 
ATOM     14  C   UNL     1      -5.121 -17.171   7.310  1.00  0.00     0.007 C 
ATOM     15  C   UNL     1      -3.155 -18.385   8.309  1.00  0.00     0.007 C 
ENDBRANCH   5  13
TORSDOF 1
ENDMDL
MODEL 8
REMARK VINA RESULT:    -5.248      1.041      3.767
REMARK INTER + INTRA:          -5.623
REMARK INTER:                  -5.362
REMARK INTRA:                  -0.261
REMARK UNBOUND:                -0.068
REMARK SMILES CC1=C[C@@H]2C(=C(C)CC[C@H]2C(C)C)CC1
REMARK SMILES IDX 1 1 2 2 3 3 4 4 10 5 9 6 8 7 6 8 5 9 14 10 15 11 7 12 11 13
REMARK SMILES IDX 12 14 13 15
REMARK H PARENT
REMARK Flexibility Score: inf
ROOT
ATOM      1  C   UNL     1      -2.248 -14.030  12.398  1.00  0.00     0.039 C 
ATOM      2  C   UNL     1      -2.366 -14.255  10.916  1.00  0.00    -0.076 C 
ATOM      3  C   UNL     1      -2.883 -15.404  10.445  1.00  0.00    -0.020 C 
ATOM      4  C   UNL     1      -3.040 -15.605   8.950  1.00  0.00     0.041 C 
ATOM      5  C   UNL     1      -3.872 -16.877   8.624  1.00  0.00     0.003 C 
ATOM      6  C   UNL     1      -4.291 -16.843   7.143  1.00  0.00     0.009 C 
ATOM      7  C   UNL     1      -5.175 -15.628   6.879  1.00  0.00     0.031 C 
ATOM      8  C   UNL     1      -4.549 -14.334   7.355  1.00  0.00    -0.073 C 
ATOM      9  C   UNL     1      -3.613 -14.317   8.347  1.00  0.00    -0.064 C 
ATOM     10  C   UNL     1      -3.056 -12.991   8.866  1.00  0.00     0.036 C 
ATOM     11  C   UNL     1      -1.961 -13.184   9.929  1.00  0.00     0.035 C 
ATOM     12  C   UNL     1      -5.096 -13.052   6.773  1.00  0.00     0.039 C 
ENDROOT
BRANCH   5  13
ATOM     13  C   UNL     1      -3.128 -18.202   9.007  1.00  0.00    -0.013 C 
ATOM     14  C   UNL     1      -3.892 -18.980  10.090  1.00  0.00     0.007 C 
ATOM     15  C   UNL     1      -2.829 -19.125   7.812  1.00  0.00     0.007 C 
ENDBRANCH   5  13
TORSDOF 1
ENDMDL
