MODEL 1
REMARK VINA RESULT:    -4.060      0.000      0.000
REMARK INTER + INTRA:          -5.259
REMARK INTER:                  -5.010
REMARK INTRA:                  -0.250
REMARK UNBOUND:                -0.250
REMARK SMILES CCCCC=CC(C)=O
REMARK SMILES IDX 4 1 3 2 2 3 1 4 5 5 6 6 7 7 9 8 8 9
REMARK H PARENT
REMARK Flexibility Score: inf
ROOT
ATOM      1  C   UNL     1     -24.883 -54.485  25.052  1.00  0.00     0.027 C 
ENDROOT
BRANCH   1   2
ATOM      2  C   UNL     1     -23.966 -55.087  26.125  1.00  0.00     0.004 C 
BRANCH   2   3
ATOM      3  C   UNL     1     -22.651 -55.617  25.532  1.00  0.00    -0.003 C 
ATOM      4  C   UNL     1     -22.905 -56.794  24.595  1.00  0.00     0.004 C 
ENDBRANCH   2   3
ENDBRANCH   1   2
BRANCH   1   5
ATOM      5  C   UNL     1     -26.206 -55.205  24.989  1.00  0.00    -0.023 C 
ATOM      6  C   UNL     1     -27.384 -54.640  24.687  1.00  0.00     0.042 C 
BRANCH   6   7
ATOM      7  C   UNL     1     -27.610 -53.196  24.500  1.00  0.00     0.152 C 
ATOM      8  O   UNL     1     -27.701 -52.741  23.329  1.00  0.00    -0.295 OA
ATOM      9  C   UNL     1     -27.843 -52.272  25.657  1.00  0.00     0.093 C 
ENDBRANCH   6   7
ENDBRANCH   1   5
TORSDOF 4
ENDMDL
MODEL 2
REMARK VINA RESULT:    -4.060      2.293      4.717
REMARK INTER + INTRA:          -5.259
REMARK INTER:                  -4.733
REMARK INTRA:                  -0.527
REMARK UNBOUND:                -0.250
REMARK SMILES CCCCC=CC(C)=O
REMARK SMILES IDX 4 1 3 2 2 3 1 4 5 5 6 6 7 7 9 8 8 9
REMARK H PARENT
REMARK Flexibility Score: inf
ROOT
ATOM      1  C   UNL     1     -27.787 -53.329  24.827  1.00  0.00     0.027 C 
ENDROOT
BRANCH   1   2
ATOM      2  C   UNL     1     -29.011 -53.438  25.745  1.00  0.00     0.004 C 
BRANCH   2   3
ATOM      3  C   UNL     1     -28.964 -52.424  26.898  1.00  0.00    -0.003 C 
ATOM      4  C   UNL     1     -27.652 -51.644  26.891  1.00  0.00     0.004 C 
ENDBRANCH   2   3
ENDBRANCH   1   2
BRANCH   1   5
ATOM      5  C   UNL     1     -27.198 -54.684  24.528  1.00  0.00    -0.023 C 
ATOM      6  C   UNL     1     -26.319 -55.337  25.302  1.00  0.00     0.042 C 
BRANCH   6   7
ATOM      7  C   UNL     1     -25.675 -54.785  26.507  1.00  0.00     0.152 C 
ATOM      8  O   UNL     1     -26.294 -54.832  27.603  1.00  0.00    -0.295 OA
ATOM      9  C   UNL     1     -24.268 -54.271  26.491  1.00  0.00     0.093 C 
ENDBRANCH   6   7
ENDBRANCH   1   5
TORSDOF 4
ENDMDL
MODEL 3
REMARK VINA RESULT:    -4.000      4.311      5.787
REMARK INTER + INTRA:          -5.185
REMARK INTER:                  -4.982
REMARK INTRA:                  -0.202
REMARK UNBOUND:                -0.250
REMARK SMILES CCCCC=CC(C)=O
REMARK SMILES IDX 4 1 3 2 2 3 1 4 5 5 6 6 7 7 9 8 8 9
REMARK H PARENT
REMARK Flexibility Score: inf
ROOT
ATOM      1  C   UNL     1     -20.281 -53.041  23.929  1.00  0.00     0.027 C 
ENDROOT
BRANCH   1   2
ATOM      2  C   UNL     1     -20.185 -51.523  23.734  1.00  0.00     0.004 C 
BRANCH   2   3
ATOM      3  C   UNL     1     -18.774 -50.989  24.027  1.00  0.00    -0.003 C 
ATOM      4  C   UNL     1     -18.654 -50.518  25.473  1.00  0.00     0.004 C 
ENDBRANCH   2   3
ENDBRANCH   1   2
BRANCH   1   5
ATOM      5  C   UNL     1     -20.984 -53.704  22.772  1.00  0.00    -0.023 C 
ATOM      6  C   UNL     1     -22.164 -54.338  22.840  1.00  0.00     0.042 C 
BRANCH   6   7
ATOM      7  C   UNL     1     -22.909 -54.614  24.082  1.00  0.00     0.152 C 
ATOM      8  O   UNL     1     -23.685 -53.731  24.534  1.00  0.00    -0.295 OA
ATOM      9  C   UNL     1     -22.855 -55.949  24.760  1.00  0.00     0.093 C 
ENDBRANCH   6   7
ENDBRANCH   1   5
TORSDOF 4
ENDMDL
MODEL 4
REMARK VINA RESULT:    -3.995      1.314      1.745
REMARK INTER + INTRA:          -5.179
REMARK INTER:                  -4.817
REMARK INTRA:                  -0.363
REMARK UNBOUND:                -0.250
REMARK SMILES CCCCC=CC(C)=O
REMARK SMILES IDX 4 1 3 2 2 3 1 4 5 5 6 6 7 7 9 8 8 9
REMARK H PARENT
REMARK Flexibility Score: inf
ROOT
ATOM      1  C   UNL     1     -26.548 -55.172  25.009  1.00  0.00     0.027 C 
ENDROOT
BRANCH   1   2
ATOM      2  C   UNL     1     -25.234 -54.941  25.765  1.00  0.00     0.004 C 
BRANCH   2   3
ATOM      3  C   UNL     1     -24.037 -54.787  24.814  1.00  0.00    -0.003 C 
ATOM      4  C   UNL     1     -23.270 -56.099  24.678  1.00  0.00     0.004 C 
ENDBRANCH   2   3
ENDBRANCH   1   2
BRANCH   1   5
ATOM      5  C   UNL     1     -26.854 -54.032  24.071  1.00  0.00    -0.023 C 
ATOM      6  C   UNL     1     -27.530 -52.920  24.394  1.00  0.00     0.042 C 
BRANCH   6   7
ATOM      7  C   UNL     1     -28.206 -52.682  25.682  1.00  0.00     0.152 C 
ATOM      8  O   UNL     1     -29.322 -53.227  25.893  1.00  0.00    -0.295 OA
ATOM      9  C   UNL     1     -27.559 -51.904  26.787  1.00  0.00     0.093 C 
ENDBRANCH   6   7
ENDBRANCH   1   5
TORSDOF 4
ENDMDL
MODEL 5
REMARK VINA RESULT:    -3.984      1.761      4.799
REMARK INTER + INTRA:          -5.165
REMARK INTER:                  -4.863
REMARK INTRA:                  -0.302
REMARK UNBOUND:                -0.250
REMARK SMILES CCCCC=CC(C)=O
REMARK SMILES IDX 4 1 3 2 2 3 1 4 5 5 6 6 7 7 9 8 8 9
REMARK H PARENT
REMARK Flexibility Score: inf
ROOT
ATOM      1  C   UNL     1     -26.654 -55.167  24.781  1.00  0.00     0.027 C 
ENDROOT
BRANCH   1   2
ATOM      2  C   UNL     1     -27.370 -53.860  24.420  1.00  0.00     0.004 C 
BRANCH   2   3
ATOM      3  C   UNL     1     -28.372 -53.430  25.502  1.00  0.00    -0.003 C 
ATOM      4  C   UNL     1     -28.032 -52.046  26.049  1.00  0.00     0.004 C 
ENDBRANCH   2   3
ENDBRANCH   1   2
BRANCH   1   5
ATOM      5  C   UNL     1     -25.778 -55.000  25.997  1.00  0.00    -0.023 C 
ATOM      6  C   UNL     1     -24.437 -55.010  25.996  1.00  0.00     0.042 C 
BRANCH   6   7
ATOM      7  C   UNL     1     -23.591 -55.323  24.830  1.00  0.00     0.152 C 
ATOM      8  O   UNL     1     -23.334 -54.408  24.003  1.00  0.00    -0.295 OA
ATOM      9  C   UNL     1     -22.941 -56.661  24.656  1.00  0.00     0.093 C 
ENDBRANCH   6   7
ENDBRANCH   1   5
TORSDOF 4
ENDMDL
MODEL 6
REMARK VINA RESULT:    -3.967      2.506      3.543
REMARK INTER + INTRA:          -5.145
REMARK INTER:                  -4.548
REMARK INTRA:                  -0.596
REMARK UNBOUND:                -0.250
REMARK SMILES CCCCC=CC(C)=O
REMARK SMILES IDX 4 1 3 2 2 3 1 4 5 5 6 6 7 7 9 8 8 9
REMARK H PARENT
REMARK Flexibility Score: inf
ROOT
ATOM      1  C   UNL     1     -27.817 -53.495  24.796  1.00  0.00     0.027 C 
ENDROOT
BRANCH   1   2
ATOM      2  C   UNL     1     -27.179 -54.889  24.728  1.00  0.00     0.004 C 
BRANCH   2   3
ATOM      3  C   UNL     1     -25.738 -54.893  25.259  1.00  0.00    -0.003 C 
ATOM      4  C   UNL     1     -25.128 -53.496  25.207  1.00  0.00     0.004 C 
ENDBRANCH   2   3
ENDBRANCH   1   2
BRANCH   1   5
ATOM      5  C   UNL     1     -29.009 -53.478  25.720  1.00  0.00    -0.023 C 
ATOM      6  C   UNL     1     -28.998 -53.058  26.994  1.00  0.00     0.042 C 
BRANCH   6   7
ATOM      7  C   UNL     1     -27.793 -52.671  27.750  1.00  0.00     0.152 C 
ATOM      8  O   UNL     1     -27.163 -53.557  28.385  1.00  0.00    -0.295 OA
ATOM      9  C   UNL     1     -27.235 -51.282  27.697  1.00  0.00     0.093 C 
ENDBRANCH   6   7
ENDBRANCH   1   5
TORSDOF 4
ENDMDL
MODEL 7
REMARK VINA RESULT:    -3.954      4.093      5.427
REMARK INTER + INTRA:          -5.129
REMARK INTER:                  -4.511
REMARK INTRA:                  -0.618
REMARK UNBOUND:                -0.250
REMARK SMILES CCCCC=CC(C)=O
REMARK SMILES IDX 4 1 3 2 2 3 1 4 5 5 6 6 7 7 9 8 8 9
REMARK H PARENT
REMARK Flexibility Score: inf
ROOT
ATOM      1  C   UNL     1     -22.641 -54.002  23.556  1.00  0.00     0.027 C 
ENDROOT
BRANCH   1   2
ATOM      2  C   UNL     1     -21.398 -53.970  22.658  1.00  0.00     0.004 C 
BRANCH   2   3
ATOM      3  C   UNL     1     -20.279 -53.100  23.248  1.00  0.00    -0.003 C 
ATOM      4  C   UNL     1     -20.850 -51.993  24.131  1.00  0.00     0.004 C 
ENDBRANCH   2   3
ENDBRANCH   1   2
BRANCH   1   5
ATOM      5  C   UNL     1     -22.842 -55.363  24.173  1.00  0.00    -0.023 C 
ATOM      6  C   UNL     1     -22.452 -55.723  25.404  1.00  0.00     0.042 C 
BRANCH   6   7
ATOM      7  C   UNL     1     -21.640 -54.895  26.314  1.00  0.00     0.152 C 
ATOM      8  O   UNL     1     -22.220 -54.058  27.055  1.00  0.00    -0.295 OA
ATOM      9  C   UNL     1     -20.163 -55.094  26.462  1.00  0.00     0.093 C 
ENDBRANCH   6   7
ENDBRANCH   1   5
TORSDOF 4
ENDMDL
MODEL 8
REMARK VINA RESULT:    -3.916      6.042      7.457
REMARK INTER + INTRA:          -5.081
REMARK INTER:                  -4.862
REMARK INTRA:                  -0.219
REMARK UNBOUND:                -0.250
REMARK SMILES CCCCC=CC(C)=O
REMARK SMILES IDX 4 1 3 2 2 3 1 4 5 5 6 6 7 7 9 8 8 9
REMARK H PARENT
REMARK Flexibility Score: inf
ROOT
ATOM      1  C   UNL     1     -20.420 -51.824  24.048  1.00  0.00     0.027 C 
ENDROOT
BRANCH   1   2
ATOM      2  C   UNL     1     -20.293 -53.343  23.875  1.00  0.00     0.004 C 
BRANCH   2   3
ATOM      3  C   UNL     1     -21.197 -53.876  22.754  1.00  0.00    -0.003 C 
ATOM      4  C   UNL     1     -22.560 -54.294  23.298  1.00  0.00     0.004 C 
ENDBRANCH   2   3
ENDBRANCH   1   2
BRANCH   1   5
ATOM      5  C   UNL     1     -19.085 -51.138  23.903  1.00  0.00    -0.023 C 
ATOM      6  C   UNL     1     -18.414 -50.528  24.890  1.00  0.00     0.042 C 
BRANCH   6   7
ATOM      7  C   UNL     1     -18.927 -50.304  26.254  1.00  0.00     0.152 C 
ATOM      8  O   UNL     1     -18.731 -51.187  27.130  1.00  0.00    -0.295 OA
ATOM      9  C   UNL     1     -19.576 -49.015  26.656  1.00  0.00     0.093 C 
ENDBRANCH   6   7
ENDBRANCH   1   5
TORSDOF 4
ENDMDL
MODEL 9
REMARK VINA RESULT:    -3.915      1.290      1.995
REMARK INTER + INTRA:          -5.080
REMARK INTER:                  -4.680
REMARK INTRA:                  -0.400
REMARK UNBOUND:                -0.250
REMARK SMILES CCCCC=CC(C)=O
REMARK SMILES IDX 4 1 3 2 2 3 1 4 5 5 6 6 7 7 9 8 8 9
REMARK H PARENT
REMARK Flexibility Score: inf
ROOT
ATOM      1  C   UNL     1     -23.799 -53.412  23.842  1.00  0.00     0.027 C 
ENDROOT
BRANCH   1   2
ATOM      2  C   UNL     1     -22.676 -54.372  24.253  1.00  0.00     0.004 C 
BRANCH   2   3
ATOM      3  C   UNL     1     -23.172 -55.469  25.208  1.00  0.00    -0.003 C 
ATOM      4  C   UNL     1     -22.886 -56.859  24.645  1.00  0.00     0.004 C 
ENDBRANCH   2   3
ENDBRANCH   1   2
BRANCH   1   5
ATOM      5  C   UNL     1     -24.538 -52.878  25.043  1.00  0.00    -0.023 C 
ATOM      6  C   UNL     1     -25.825 -53.116  25.332  1.00  0.00     0.042 C 
BRANCH   6   7
ATOM      7  C   UNL     1     -26.775 -53.825  24.456  1.00  0.00     0.152 C 
ATOM      8  O   UNL     1     -27.349 -53.184  23.537  1.00  0.00    -0.295 OA
ATOM      9  C   UNL     1     -26.994 -55.304  24.556  1.00  0.00     0.093 C 
ENDBRANCH   6   7
ENDBRANCH   1   5
TORSDOF 4
ENDMDL
