MODEL 1
REMARK VINA RESULT:    -5.243      0.000      0.000
REMARK INTER + INTRA:          -5.648
REMARK INTER:                  -5.550
REMARK INTRA:                  -0.098
REMARK UNBOUND:                -0.098
REMARK SMILES C=C(C)[C@H]1CC=C(C)C(=O)C1
REMARK SMILES IDX 8 1 7 2 6 3 5 4 4 5 11 6 9 7 10 8 2 9 1 10 3 11
REMARK H PARENT
REMARK Flexibility Score: inf
ROOT
ATOM      1  C   UNL     1     124.901 177.995 117.603  1.00  0.00     0.048 C 
ATOM      2  C   UNL     1     124.901 177.889 119.104  1.00  0.00    -0.012 C 
ATOM      3  C   UNL     1     123.766 177.594 119.760  1.00  0.00    -0.019 C 
ATOM      4  C   UNL     1     123.698 177.556 121.263  1.00  0.00     0.036 C 
ATOM      5  C   UNL     1     125.050 177.137 121.872  1.00  0.00     0.025 C 
ATOM      6  C   UNL     1     126.174 178.058 121.360  1.00  0.00     0.089 C 
ATOM      7  C   UNL     1     126.155 178.137 119.858  1.00  0.00     0.158 C 
ATOM      8  O   UNL     1     127.207 178.461 119.246  1.00  0.00    -0.295 OA
ENDROOT
BRANCH   5   9
ATOM      9  C   UNL     1     124.998 177.106 123.393  1.00  0.00    -0.077 C 
ATOM     10  C   UNL     1     126.089 177.364 124.135  1.00  0.00     0.008 C 
ATOM     11  C   UNL     1     123.707 176.782 124.098  1.00  0.00     0.039 C 
ENDBRANCH   5   9
TORSDOF 1
ENDMDL
MODEL 2
REMARK VINA RESULT:    -5.232     13.869     14.804
REMARK INTER + INTRA:          -5.636
REMARK INTER:                  -5.548
REMARK INTRA:                  -0.088
REMARK UNBOUND:                -0.098
REMARK SMILES C=C(C)[C@H]1CC=C(C)C(=O)C1
REMARK SMILES IDX 8 1 7 2 6 3 5 4 4 5 11 6 9 7 10 8 2 9 1 10 3 11
REMARK H PARENT
REMARK Flexibility Score: inf
ROOT
ATOM      1  C   UNL     1     115.996 165.410 117.828  1.00  0.00     0.048 C 
ATOM      2  C   UNL     1     115.992 165.801 119.280  1.00  0.00    -0.012 C 
ATOM      3  C   UNL     1     115.099 166.697 119.736  1.00  0.00    -0.019 C 
ATOM      4  C   UNL     1     115.108 167.180 121.162  1.00  0.00     0.036 C 
ATOM      5  C   UNL     1     115.636 166.091 122.116  1.00  0.00     0.025 C 
ATOM      6  C   UNL     1     117.023 165.605 121.655  1.00  0.00     0.089 C 
ATOM      7  C   UNL     1     116.994 165.213 120.203  1.00  0.00     0.158 C 
ATOM      8  O   UNL     1     117.862 164.410 119.765  1.00  0.00    -0.295 OA
ENDROOT
BRANCH   5   9
ATOM      9  C   UNL     1     115.660 166.572 123.560  1.00  0.00    -0.077 C 
ATOM     10  C   UNL     1     114.843 166.042 124.487  1.00  0.00     0.008 C 
ATOM     11  C   UNL     1     116.613 167.662 123.978  1.00  0.00     0.039 C 
ENDBRANCH   5   9
TORSDOF 1
ENDMDL
MODEL 3
REMARK VINA RESULT:    -5.222      7.929      9.056
REMARK INTER + INTRA:          -5.626
REMARK INTER:                  -5.531
REMARK INTRA:                  -0.095
REMARK UNBOUND:                -0.098
REMARK SMILES C=C(C)[C@H]1CC=C(C)C(=O)C1
REMARK SMILES IDX 8 1 7 2 6 3 5 4 4 5 11 6 9 7 10 8 2 9 1 10 3 11
REMARK H PARENT
REMARK Flexibility Score: inf
ROOT
ATOM      1  C   UNL     1     116.277 178.829 123.151  1.00  0.00     0.048 C 
ATOM      2  C   UNL     1     116.821 178.381 124.480  1.00  0.00    -0.012 C 
ATOM      3  C   UNL     1     115.988 178.158 125.511  1.00  0.00    -0.019 C 
ATOM      4  C   UNL     1     116.492 177.788 126.880  1.00  0.00     0.036 C 
ATOM      5  C   UNL     1     117.812 176.996 126.793  1.00  0.00     0.025 C 
ATOM      6  C   UNL     1     118.855 177.786 125.979  1.00  0.00     0.089 C 
ATOM      7  C   UNL     1     118.285 178.211 124.654  1.00  0.00     0.158 C 
ATOM      8  O   UNL     1     119.069 178.467 123.701  1.00  0.00    -0.295 OA
ENDROOT
BRANCH   5   9
ATOM      9  C   UNL     1     118.338 176.626 128.173  1.00  0.00    -0.077 C 
ATOM     10  C   UNL     1     117.523 176.139 129.125  1.00  0.00     0.008 C 
ATOM     11  C   UNL     1     119.799 176.801 128.496  1.00  0.00     0.039 C 
ENDBRANCH   5   9
TORSDOF 1
ENDMDL
MODEL 4
REMARK VINA RESULT:    -5.001     13.551     14.897
REMARK INTER + INTRA:          -5.391
REMARK INTER:                  -5.301
REMARK INTRA:                  -0.090
REMARK UNBOUND:                -0.098
REMARK SMILES C=C(C)[C@H]1CC=C(C)C(=O)C1
REMARK SMILES IDX 8 1 7 2 6 3 5 4 4 5 11 6 9 7 10 8 2 9 1 10 3 11
REMARK H PARENT
REMARK Flexibility Score: inf
ROOT
ATOM      1  C   UNL     1     116.997 167.965 124.508  1.00  0.00     0.048 C 
ATOM      2  C   UNL     1     117.072 167.166 123.235  1.00  0.00    -0.012 C 
ATOM      3  C   UNL     1     118.233 166.600 122.861  1.00  0.00    -0.019 C 
ATOM      4  C   UNL     1     118.378 165.861 121.558  1.00  0.00     0.036 C 
ATOM      5  C   UNL     1     117.049 165.201 121.141  1.00  0.00     0.025 C 
ATOM      6  C   UNL     1     115.923 166.251 121.095  1.00  0.00     0.089 C 
ATOM      7  C   UNL     1     115.866 167.026 122.383  1.00  0.00     0.158 C 
ATOM      8  O   UNL     1     114.791 167.597 122.709  1.00  0.00    -0.295 OA
ENDROOT
BRANCH   5   9
ATOM      9  C   UNL     1     117.180 164.459 119.818  1.00  0.00    -0.077 C 
ATOM     10  C   UNL     1     117.762 163.248 119.749  1.00  0.00     0.008 C 
ATOM     11  C   UNL     1     116.653 165.077 118.549  1.00  0.00     0.039 C 
ENDBRANCH   5   9
TORSDOF 1
ENDMDL
MODEL 5
REMARK VINA RESULT:    -4.984      6.989      8.579
REMARK INTER + INTRA:          -5.374
REMARK INTER:                  -5.278
REMARK INTRA:                  -0.095
REMARK UNBOUND:                -0.098
REMARK SMILES C=C(C)[C@H]1CC=C(C)C(=O)C1
REMARK SMILES IDX 8 1 7 2 6 3 5 4 4 5 11 6 9 7 10 8 2 9 1 10 3 11
REMARK H PARENT
REMARK Flexibility Score: inf
ROOT
ATOM      1  C   UNL     1     122.688 178.704 126.811  1.00  0.00     0.048 C 
ATOM      2  C   UNL     1     121.221 178.674 126.481  1.00  0.00    -0.012 C 
ATOM      3  C   UNL     1     120.663 179.682 125.788  1.00  0.00    -0.019 C 
ATOM      4  C   UNL     1     119.186 179.736 125.504  1.00  0.00     0.036 C 
ATOM      5  C   UNL     1     118.590 178.320 125.383  1.00  0.00     0.025 C 
ATOM      6  C   UNL     1     118.913 177.495 126.644  1.00  0.00     0.089 C 
ATOM      7  C   UNL     1     120.387 177.537 126.944  1.00  0.00     0.158 C 
ATOM      8  O   UNL     1     120.900 176.616 127.634  1.00  0.00    -0.295 OA
ENDROOT
BRANCH   5   9
ATOM      9  C   UNL     1     117.093 178.360 125.107  1.00  0.00    -0.077 C 
ATOM     10  C   UNL     1     116.195 178.152 126.086  1.00  0.00     0.008 C 
ATOM     11  C   UNL     1     116.590 178.638 123.714  1.00  0.00     0.039 C 
ENDBRANCH   5   9
TORSDOF 1
ENDMDL
MODEL 6
REMARK VINA RESULT:    -4.951      4.101      6.769
REMARK INTER + INTRA:          -5.338
REMARK INTER:                  -5.241
REMARK INTRA:                  -0.097
REMARK UNBOUND:                -0.098
REMARK SMILES C=C(C)[C@H]1CC=C(C)C(=O)C1
REMARK SMILES IDX 8 1 7 2 6 3 5 4 4 5 11 6 9 7 10 8 2 9 1 10 3 11
REMARK H PARENT
REMARK Flexibility Score: inf
ROOT
ATOM      1  C   UNL     1     120.971 178.868 128.386  1.00  0.00     0.048 C 
ATOM      2  C   UNL     1     121.733 178.529 127.133  1.00  0.00    -0.012 C 
ATOM      3  C   UNL     1     123.072 178.411 127.168  1.00  0.00    -0.019 C 
ATOM      4  C   UNL     1     123.884 178.154 125.927  1.00  0.00     0.036 C 
ATOM      5  C   UNL     1     123.083 177.336 124.896  1.00  0.00     0.025 C 
ATOM      6  C   UNL     1     121.744 178.033 124.585  1.00  0.00     0.089 C 
ATOM      7  C   UNL     1     121.002 178.350 125.855  1.00  0.00     0.158 C 
ATOM      8  O   UNL     1     119.753 178.508 125.813  1.00  0.00    -0.295 OA
ENDROOT
BRANCH   5   9
ATOM      9  C   UNL     1     123.890 177.078 123.631  1.00  0.00    -0.077 C 
ATOM     10  C   UNL     1     123.404 177.388 122.417  1.00  0.00     0.008 C 
ATOM     11  C   UNL     1     125.263 176.465 123.723  1.00  0.00     0.039 C 
ENDBRANCH   5   9
TORSDOF 1
ENDMDL
MODEL 7
REMARK VINA RESULT:    -4.943      5.860      7.627
REMARK INTER + INTRA:          -5.330
REMARK INTER:                  -5.241
REMARK INTRA:                  -0.089
REMARK UNBOUND:                -0.098
REMARK SMILES C=C(C)[C@H]1CC=C(C)C(=O)C1
REMARK SMILES IDX 8 1 7 2 6 3 5 4 4 5 11 6 9 7 10 8 2 9 1 10 3 11
REMARK H PARENT
REMARK Flexibility Score: inf
ROOT
ATOM      1  C   UNL     1     117.030 177.783 125.629  1.00  0.00     0.048 C 
ATOM      2  C   UNL     1     118.518 177.975 125.737  1.00  0.00    -0.012 C 
ATOM      3  C   UNL     1     119.046 179.210 125.671  1.00  0.00    -0.019 C 
ATOM      4  C   UNL     1     120.532 179.445 125.693  1.00  0.00     0.036 C 
ATOM      5  C   UNL     1     121.257 178.359 126.511  1.00  0.00     0.025 C 
ATOM      6  C   UNL     1     120.895 176.959 125.979  1.00  0.00     0.089 C 
ATOM      7  C   UNL     1     119.402 176.794 125.891  1.00  0.00     0.158 C 
ATOM      8  O   UNL     1     118.911 175.633 125.904  1.00  0.00    -0.295 OA
ENDROOT
BRANCH   5   9
ATOM      9  C   UNL     1     122.763 178.580 126.531  1.00  0.00    -0.077 C 
ATOM     10  C   UNL     1     123.337 179.409 127.421  1.00  0.00     0.008 C 
ATOM     11  C   UNL     1     123.645 177.864 125.541  1.00  0.00     0.039 C 
ENDBRANCH   5   9
TORSDOF 1
ENDMDL
MODEL 8
REMARK VINA RESULT:    -4.940      1.502      2.558
REMARK INTER + INTRA:          -5.326
REMARK INTER:                  -5.231
REMARK INTRA:                  -0.095
REMARK UNBOUND:                -0.098
REMARK SMILES C=C(C)[C@H]1CC=C(C)C(=O)C1
REMARK SMILES IDX 8 1 7 2 6 3 5 4 4 5 11 6 9 7 10 8 2 9 1 10 3 11
REMARK H PARENT
REMARK Flexibility Score: inf
ROOT
ATOM      1  C   UNL     1     123.422 177.641 120.106  1.00  0.00     0.048 C 
ATOM      2  C   UNL     1     124.556 177.654 121.095  1.00  0.00    -0.012 C 
ATOM      3  C   UNL     1     124.345 177.286 122.370  1.00  0.00    -0.019 C 
ATOM      4  C   UNL     1     125.428 177.359 123.414  1.00  0.00     0.036 C 
ATOM      5  C   UNL     1     126.819 177.141 122.788  1.00  0.00     0.025 C 
ATOM      6  C   UNL     1     127.049 178.139 121.637  1.00  0.00     0.089 C 
ATOM      7  C   UNL     1     125.904 178.097 120.661  1.00  0.00     0.158 C 
ATOM      8  O   UNL     1     126.091 178.488 119.478  1.00  0.00    -0.295 OA
ENDROOT
BRANCH   5   9
ATOM      9  C   UNL     1     127.925 177.224 123.832  1.00  0.00    -0.077 C 
ATOM     10  C   UNL     1     128.675 178.331 123.970  1.00  0.00     0.008 C 
ATOM     11  C   UNL     1     128.198 176.052 124.738  1.00  0.00     0.039 C 
ENDBRANCH   5   9
TORSDOF 1
ENDMDL
MODEL 9
REMARK VINA RESULT:    -4.930      3.926      6.282
REMARK INTER + INTRA:          -5.316
REMARK INTER:                  -5.221
REMARK INTRA:                  -0.095
REMARK UNBOUND:                -0.098
REMARK SMILES C=C(C)[C@H]1CC=C(C)C(=O)C1
REMARK SMILES IDX 8 1 7 2 6 3 5 4 4 5 11 6 9 7 10 8 2 9 1 10 3 11
REMARK H PARENT
REMARK Flexibility Score: inf
ROOT
ATOM      1  C   UNL     1     118.872 176.072 126.076  1.00  0.00     0.048 C 
ATOM      2  C   UNL     1     120.145 176.407 125.348  1.00  0.00    -0.012 C 
ATOM      3  C   UNL     1     121.175 175.543 125.356  1.00  0.00    -0.019 C 
ATOM      4  C   UNL     1     122.496 175.868 124.711  1.00  0.00     0.036 C 
ATOM      5  C   UNL     1     122.311 176.807 123.504  1.00  0.00     0.025 C 
ATOM      6  C   UNL     1     121.539 178.072 123.925  1.00  0.00     0.089 C 
ATOM      7  C   UNL     1     120.268 177.706 124.642  1.00  0.00     0.158 C 
ATOM      8  O   UNL     1     119.320 178.536 124.675  1.00  0.00    -0.295 OA
ENDROOT
BRANCH   5   9
ATOM      9  C   UNL     1     123.642 177.153 122.850  1.00  0.00    -0.077 C 
ATOM     10  C   UNL     1     124.805 176.987 123.502  1.00  0.00     0.008 C 
ATOM     11  C   UNL     1     123.674 177.692 121.443  1.00  0.00     0.039 C 
ENDBRANCH   5   9
TORSDOF 1
ENDMDL
