MODEL 1
REMARK VINA RESULT:    -2.935      0.000      0.000
REMARK INTER + INTRA:          -8.022
REMARK INTER:                  -5.337
REMARK INTRA:                  -2.686
REMARK UNBOUND:                -2.686
REMARK SMILES CCCCCCCCCCCCCC[C@@H](C)C(=O)[O-]
REMARK SMILES IDX 9 1 10 2 11 3 12 4 13 5 14 6 15 7 16 8 17 9 18 10 19 11 8 12
REMARK SMILES IDX 7 13 6 14 5 15 4 16 3 17 2 18 1 19
REMARK H PARENT
REMARK Flexibility Score: inf
ROOT
ATOM      1  C   UNL     1      30.409  30.427  52.785  1.00  0.00     0.000 C 
ENDROOT
BRANCH   1   2
ATOM      2  C   UNL     1      31.681  30.855  53.535  1.00  0.00     0.000 C 
BRANCH   2   3
ATOM      3  C   UNL     1      31.542  30.712  55.061  1.00  0.00     0.000 C 
BRANCH   3   4
ATOM      4  C   UNL     1      31.602  32.066  55.788  1.00  0.00     0.000 C 
BRANCH   4   5
ATOM      5  C   UNL     1      30.435  32.266  56.768  1.00  0.00     0.001 C 
BRANCH   5   6
ATOM      6  C   UNL     1      29.780  30.920  57.120  1.00  0.00     0.009 C 
BRANCH   6   7
ATOM      7  C   UNL     1      28.239  30.968  57.039  1.00  0.00     0.032 C 
ATOM      8  C   UNL     1      27.698  30.238  55.802  1.00  0.00     0.014 C 
BRANCH   7   9
ATOM      9  C   UNL     1      27.647  30.360  58.281  1.00  0.00     0.044 C 
ATOM     10  O   UNL     1      27.578  31.031  59.344  1.00  0.00    -0.550 OA
ATOM     11  O   UNL     1      27.174  29.052  58.264  1.00  0.00    -0.550 OA
ENDBRANCH   7   9
ENDBRANCH   6   7
ENDBRANCH   5   6
ENDBRANCH   4   5
ENDBRANCH   3   4
ENDBRANCH   2   3
ENDBRANCH   1   2
BRANCH   1  12
ATOM     12  C   UNL     1      29.357  31.545  52.713  1.00  0.00     0.000 C 
BRANCH  12  13
ATOM     13  C   UNL     1      30.016  32.902  52.440  1.00  0.00    -0.000 C 
BRANCH  13  14
ATOM     14  C   UNL     1      29.405  33.999  53.324  1.00  0.00    -0.000 C 
BRANCH  14  15
ATOM     15  C   UNL     1      28.183  33.508  54.116  1.00  0.00    -0.000 C 
BRANCH  15  16
ATOM     16  C   UNL     1      26.937  34.380  53.882  1.00  0.00    -0.000 C 
BRANCH  16  17
ATOM     17  C   UNL     1      25.660  33.547  53.696  1.00  0.00    -0.000 C 
BRANCH  17  18
ATOM     18  C   UNL     1      25.629  32.807  52.351  1.00  0.00    -0.003 C 
ATOM     19  C   UNL     1      25.478  31.301  52.555  1.00  0.00     0.004 C 
ENDBRANCH  17  18
ENDBRANCH  16  17
ENDBRANCH  15  16
ENDBRANCH  14  15
ENDBRANCH  13  14
ENDBRANCH  12  13
ENDBRANCH   1  12
TORSDOF 14
ENDMDL
MODEL 2
REMARK VINA RESULT:    -2.840      9.476     12.468
REMARK INTER + INTRA:          -7.850
REMARK INTER:                  -5.851
REMARK INTRA:                  -1.999
REMARK UNBOUND:                -2.686
REMARK SMILES CCCCCCCCCCCCCC[C@@H](C)C(=O)[O-]
REMARK SMILES IDX 9 1 10 2 11 3 12 4 13 5 14 6 15 7 16 8 17 9 18 10 19 11 8 12
REMARK SMILES IDX 7 13 6 14 5 15 4 16 3 17 2 18 1 19
REMARK H PARENT
REMARK Flexibility Score: inf
ROOT
ATOM      1  C   UNL     1      16.613  27.772  55.146  1.00  0.00     0.000 C 
ENDROOT
BRANCH   1   2
ATOM      2  C   UNL     1      16.167  29.184  54.738  1.00  0.00     0.000 C 
BRANCH   2   3
ATOM      3  C   UNL     1      17.315  30.016  54.139  1.00  0.00     0.000 C 
BRANCH   3   4
ATOM      4  C   UNL     1      18.666  29.285  54.197  1.00  0.00     0.000 C 
BRANCH   4   5
ATOM      5  C   UNL     1      19.632  29.902  55.221  1.00  0.00     0.001 C 
BRANCH   5   6
ATOM      6  C   UNL     1      19.995  28.883  56.314  1.00  0.00     0.009 C 
BRANCH   6   7
ATOM      7  C   UNL     1      21.318  29.225  57.033  1.00  0.00     0.032 C 
ATOM      8  C   UNL     1      22.128  30.292  56.285  1.00  0.00     0.014 C 
BRANCH   7   9
ATOM      9  C   UNL     1      21.027  29.701  58.429  1.00  0.00     0.044 C 
ATOM     10  O   UNL     1      21.502  30.793  58.838  1.00  0.00    -0.550 OA
ATOM     11  O   UNL     1      20.235  28.938  59.280  1.00  0.00    -0.550 OA
ENDBRANCH   7   9
ENDBRANCH   6   7
ENDBRANCH   5   6
ENDBRANCH   4   5
ENDBRANCH   3   4
ENDBRANCH   2   3
ENDBRANCH   1   2
BRANCH   1  12
ATOM     12  C   UNL     1      15.695  26.674  54.587  1.00  0.00     0.000 C 
BRANCH  12  13
ATOM     13  C   UNL     1      14.225  26.974  54.902  1.00  0.00    -0.000 C 
BRANCH  13  14
ATOM     14  C   UNL     1      13.341  26.753  53.665  1.00  0.00    -0.000 C 
BRANCH  14  15
ATOM     15  C   UNL     1      13.036  28.059  52.915  1.00  0.00    -0.000 C 
BRANCH  15  16
ATOM     16  C   UNL     1      13.278  27.941  51.400  1.00  0.00    -0.000 C 
BRANCH  16  17
ATOM     17  C   UNL     1      14.592  27.219  51.066  1.00  0.00    -0.000 C 
BRANCH  17  18
ATOM     18  C   UNL     1      15.812  28.149  51.149  1.00  0.00    -0.003 C 
ATOM     19  C   UNL     1      17.107  27.348  51.263  1.00  0.00     0.004 C 
ENDBRANCH  17  18
ENDBRANCH  16  17
ENDBRANCH  15  16
ENDBRANCH  14  15
ENDBRANCH  13  14
ENDBRANCH  12  13
ENDBRANCH   1  12
TORSDOF 14
ENDMDL
MODEL 3
REMARK VINA RESULT:    -2.812     17.754     19.928
REMARK INTER + INTRA:          -7.799
REMARK INTER:                  -6.641
REMARK INTRA:                  -1.158
REMARK UNBOUND:                -2.686
REMARK SMILES CCCCCCCCCCCCCC[C@@H](C)C(=O)[O-]
REMARK SMILES IDX 9 1 10 2 11 3 12 4 13 5 14 6 15 7 16 8 17 9 18 10 19 11 8 12
REMARK SMILES IDX 7 13 6 14 5 15 4 16 3 17 2 18 1 19
REMARK H PARENT
REMARK Flexibility Score: inf
ROOT
ATOM      1  C   UNL     1      18.015  17.964  51.544  1.00  0.00     0.000 C 
ENDROOT
BRANCH   1   2
ATOM      2  C   UNL     1      18.181  19.146  50.576  1.00  0.00     0.000 C 
BRANCH   2   3
ATOM      3  C   UNL     1      17.327  18.993  49.305  1.00  0.00     0.000 C 
BRANCH   3   4
ATOM      4  C   UNL     1      16.792  20.339  48.788  1.00  0.00     0.000 C 
BRANCH   4   5
ATOM      5  C   UNL     1      15.257  20.391  48.742  1.00  0.00     0.001 C 
BRANCH   5   6
ATOM      6  C   UNL     1      14.663  18.973  48.693  1.00  0.00     0.009 C 
BRANCH   6   7
ATOM      7  C   UNL     1      13.954  18.669  47.356  1.00  0.00     0.032 C 
ATOM      8  C   UNL     1      13.683  19.940  46.538  1.00  0.00     0.014 C 
BRANCH   7   9
ATOM      9  C   UNL     1      14.789  17.718  46.544  1.00  0.00     0.044 C 
ATOM     10  O   UNL     1      14.349  16.573  46.260  1.00  0.00    -0.550 OA
ATOM     11  O   UNL     1      16.053  18.095  46.103  1.00  0.00    -0.550 OA
ENDBRANCH   7   9
ENDBRANCH   6   7
ENDBRANCH   5   6
ENDBRANCH   4   5
ENDBRANCH   3   4
ENDBRANCH   2   3
ENDBRANCH   1   2
BRANCH   1  12
ATOM     12  C   UNL     1      16.589  17.850  52.104  1.00  0.00     0.000 C 
BRANCH  12  13
ATOM     13  C   UNL     1      16.602  17.804  53.636  1.00  0.00    -0.000 C 
BRANCH  13  14
ATOM     14  C   UNL     1      15.769  18.950  54.229  1.00  0.00    -0.000 C 
BRANCH  14  15
ATOM     15  C   UNL     1      15.809  18.978  55.765  1.00  0.00    -0.000 C 
BRANCH  15  16
ATOM     16  C   UNL     1      16.611  17.805  56.357  1.00  0.00    -0.000 C 
BRANCH  16  17
ATOM     17  C   UNL     1      16.773  17.910  57.881  1.00  0.00    -0.000 C 
BRANCH  17  18
ATOM     18  C   UNL     1      15.425  17.921  58.618  1.00  0.00    -0.003 C 
ATOM     19  C   UNL     1      14.811  16.523  58.661  1.00  0.00     0.004 C 
ENDBRANCH  17  18
ENDBRANCH  16  17
ENDBRANCH  15  16
ENDBRANCH  14  15
ENDBRANCH  13  14
ENDBRANCH  12  13
ENDBRANCH   1  12
TORSDOF 14
ENDMDL
MODEL 4
REMARK VINA RESULT:    -2.803     16.792     18.518
REMARK INTER + INTRA:          -7.784
REMARK INTER:                  -5.238
REMARK INTRA:                  -2.546
REMARK UNBOUND:                -2.686
REMARK SMILES CCCCCCCCCCCCCC[C@@H](C)C(=O)[O-]
REMARK SMILES IDX 9 1 10 2 11 3 12 4 13 5 14 6 15 7 16 8 17 9 18 10 19 11 8 12
REMARK SMILES IDX 7 13 6 14 5 15 4 16 3 17 2 18 1 19
REMARK H PARENT
REMARK Flexibility Score: inf
ROOT
ATOM      1  C   UNL     1      24.561  21.110  42.283  1.00  0.00     0.000 C 
ENDROOT
BRANCH   1   2
ATOM      2  C   UNL     1      24.838  19.657  41.865  1.00  0.00     0.000 C 
BRANCH   2   3
ATOM      3  C   UNL     1      23.797  19.122  40.866  1.00  0.00     0.000 C 
BRANCH   3   4
ATOM      4  C   UNL     1      22.568  18.514  41.564  1.00  0.00     0.000 C 
BRANCH   4   5
ATOM      5  C   UNL     1      22.907  17.249  42.369  1.00  0.00     0.001 C 
BRANCH   5   6
ATOM      6  C   UNL     1      22.424  17.380  43.823  1.00  0.00     0.009 C 
BRANCH   6   7
ATOM      7  C   UNL     1      22.104  18.837  44.217  1.00  0.00     0.032 C 
ATOM      8  C   UNL     1      20.701  18.982  44.822  1.00  0.00     0.014 C 
BRANCH   7   9
ATOM      9  C   UNL     1      23.129  19.334  45.198  1.00  0.00     0.044 C 
ATOM     10  O   UNL     1      24.213  18.713  45.350  1.00  0.00    -0.550 OA
ATOM     11  O   UNL     1      22.885  20.481  45.946  1.00  0.00    -0.550 OA
ENDBRANCH   7   9
ENDBRANCH   6   7
ENDBRANCH   5   6
ENDBRANCH   4   5
ENDBRANCH   3   4
ENDBRANCH   2   3
ENDBRANCH   1   2
BRANCH   1  12
ATOM     12  C   UNL     1      24.267  22.028  41.086  1.00  0.00     0.000 C 
BRANCH  12  13
ATOM     13  C   UNL     1      22.871  22.650  41.201  1.00  0.00    -0.000 C 
BRANCH  13  14
ATOM     14  C   UNL     1      22.157  22.170  42.473  1.00  0.00    -0.000 C 
BRANCH  14  15
ATOM     15  C   UNL     1      20.732  21.666  42.197  1.00  0.00    -0.000 C 
BRANCH  15  16
ATOM     16  C   UNL     1      20.478  21.399  40.703  1.00  0.00    -0.000 C 
BRANCH  16  17
ATOM     17  C   UNL     1      19.531  20.212  40.468  1.00  0.00    -0.000 C 
BRANCH  17  18
ATOM     18  C   UNL     1      18.146  20.430  41.097  1.00  0.00    -0.003 C 
ATOM     19  C   UNL     1      17.124  19.449  40.528  1.00  0.00     0.004 C 
ENDBRANCH  17  18
ENDBRANCH  16  17
ENDBRANCH  15  16
ENDBRANCH  14  15
ENDBRANCH  13  14
ENDBRANCH  12  13
ENDBRANCH   1  12
TORSDOF 14
ENDMDL
MODEL 5
REMARK VINA RESULT:    -2.802     17.174     19.318
REMARK INTER + INTRA:          -7.781
REMARK INTER:                  -6.318
REMARK INTRA:                  -1.462
REMARK UNBOUND:                -2.686
REMARK SMILES CCCCCCCCCCCCCC[C@@H](C)C(=O)[O-]
REMARK SMILES IDX 9 1 10 2 11 3 12 4 13 5 14 6 15 7 16 8 17 9 18 10 19 11 8 12
REMARK SMILES IDX 7 13 6 14 5 15 4 16 3 17 2 18 1 19
REMARK H PARENT
REMARK Flexibility Score: inf
ROOT
ATOM      1  C   UNL     1      15.067  19.015  50.054  1.00  0.00     0.000 C 
ENDROOT
BRANCH   1   2
ATOM      2  C   UNL     1      14.315  19.793  48.964  1.00  0.00     0.000 C 
BRANCH   2   3
ATOM      3  C   UNL     1      14.988  19.679  47.585  1.00  0.00     0.000 C 
BRANCH   3   4
ATOM      4  C   UNL     1      14.856  18.271  46.979  1.00  0.00     0.000 C 
BRANCH   4   5
ATOM      5  C   UNL     1      16.099  17.850  46.179  1.00  0.00     0.001 C 
BRANCH   5   6
ATOM      6  C   UNL     1      17.340  18.630  46.643  1.00  0.00     0.009 C 
BRANCH   6   7
ATOM      7  C   UNL     1      18.206  19.129  45.467  1.00  0.00     0.032 C 
ATOM      8  C   UNL     1      17.377  19.853  44.398  1.00  0.00     0.014 C 
BRANCH   7   9
ATOM      9  C   UNL     1      19.277  20.050  45.982  1.00  0.00     0.044 C 
ATOM     10  O   UNL     1      20.492  19.752  45.838  1.00  0.00    -0.550 OA
ATOM     11  O   UNL     1      18.935  21.236  46.621  1.00  0.00    -0.550 OA
ENDBRANCH   7   9
ENDBRANCH   6   7
ENDBRANCH   5   6
ENDBRANCH   4   5
ENDBRANCH   3   4
ENDBRANCH   2   3
ENDBRANCH   1   2
BRANCH   1  12
ATOM     12  C   UNL     1      16.516  19.496  50.235  1.00  0.00     0.000 C 
BRANCH  12  13
ATOM     13  C   UNL     1      17.482  18.309  50.319  1.00  0.00    -0.000 C 
BRANCH  13  14
ATOM     14  C   UNL     1      17.974  18.100  51.759  1.00  0.00    -0.000 C 
BRANCH  14  15
ATOM     15  C   UNL     1      16.932  17.399  52.644  1.00  0.00    -0.000 C 
BRANCH  15  16
ATOM     16  C   UNL     1      16.441  18.289  53.799  1.00  0.00    -0.000 C 
BRANCH  16  17
ATOM     17  C   UNL     1      17.592  19.002  54.525  1.00  0.00    -0.000 C 
BRANCH  17  18
ATOM     18  C   UNL     1      17.427  18.982  56.052  1.00  0.00    -0.003 C 
ATOM     19  C   UNL     1      16.496  17.854  56.490  1.00  0.00     0.004 C 
ENDBRANCH  17  18
ENDBRANCH  16  17
ENDBRANCH  15  16
ENDBRANCH  14  15
ENDBRANCH  13  14
ENDBRANCH  12  13
ENDBRANCH   1  12
TORSDOF 14
ENDMDL
MODEL 6
REMARK VINA RESULT:    -2.794      8.758     11.600
REMARK INTER + INTRA:          -7.767
REMARK INTER:                  -5.670
REMARK INTRA:                  -2.097
REMARK UNBOUND:                -2.686
REMARK SMILES CCCCCCCCCCCCCC[C@@H](C)C(=O)[O-]
REMARK SMILES IDX 9 1 10 2 11 3 12 4 13 5 14 6 15 7 16 8 17 9 18 10 19 11 8 12
REMARK SMILES IDX 7 13 6 14 5 15 4 16 3 17 2 18 1 19
REMARK H PARENT
REMARK Flexibility Score: inf
ROOT
ATOM      1  C   UNL     1      21.784  28.854  55.094  1.00  0.00     0.000 C 
ENDROOT
BRANCH   1   2
ATOM      2  C   UNL     1      20.335  28.354  54.986  1.00  0.00     0.000 C 
BRANCH   2   3
ATOM      3  C   UNL     1      19.306  29.490  55.132  1.00  0.00     0.000 C 
BRANCH   3   4
ATOM      4  C   UNL     1      18.436  29.662  53.876  1.00  0.00     0.000 C 
BRANCH   4   5
ATOM      5  C   UNL     1      17.048  30.242  54.190  1.00  0.00     0.001 C 
BRANCH   5   6
ATOM      6  C   UNL     1      16.217  29.253  55.025  1.00  0.00     0.009 C 
BRANCH   6   7
ATOM      7  C   UNL     1      16.016  27.897  54.317  1.00  0.00     0.032 C 
ATOM      8  C   UNL     1      15.807  26.746  55.311  1.00  0.00     0.014 C 
BRANCH   7   9
ATOM      9  C   UNL     1      14.837  27.979  53.388  1.00  0.00     0.044 C 
ATOM     10  O   UNL     1      15.004  27.893  52.143  1.00  0.00    -0.550 OA
ATOM     11  O   UNL     1      13.554  28.153  53.896  1.00  0.00    -0.550 OA
ENDBRANCH   7   9
ENDBRANCH   6   7
ENDBRANCH   5   6
ENDBRANCH   4   5
ENDBRANCH   3   4
ENDBRANCH   2   3
ENDBRANCH   1   2
BRANCH   1  12
ATOM     12  C   UNL     1      22.621  28.038  56.092  1.00  0.00     0.000 C 
BRANCH  12  13
ATOM     13  C   UNL     1      23.026  28.894  57.298  1.00  0.00    -0.000 C 
BRANCH  13  14
ATOM     14  C   UNL     1      22.244  30.216  57.322  1.00  0.00    -0.000 C 
BRANCH  14  15
ATOM     15  C   UNL     1      21.464  30.417  58.631  1.00  0.00    -0.000 C 
BRANCH  15  16
ATOM     16  C   UNL     1      21.038  29.087  59.276  1.00  0.00    -0.000 C 
BRANCH  16  17
ATOM     17  C   UNL     1      19.676  28.592  58.765  1.00  0.00    -0.000 C 
BRANCH  17  18
ATOM     18  C   UNL     1      19.717  27.129  58.299  1.00  0.00    -0.003 C 
ATOM     19  C   UNL     1      20.794  26.345  59.045  1.00  0.00     0.004 C 
ENDBRANCH  17  18
ENDBRANCH  16  17
ENDBRANCH  15  16
ENDBRANCH  14  15
ENDBRANCH  13  14
ENDBRANCH  12  13
ENDBRANCH   1  12
TORSDOF 14
ENDMDL
MODEL 7
REMARK VINA RESULT:    -2.774      9.167     12.668
REMARK INTER + INTRA:          -7.731
REMARK INTER:                  -5.310
REMARK INTRA:                  -2.421
REMARK UNBOUND:                -2.686
REMARK SMILES CCCCCCCCCCCCCC[C@@H](C)C(=O)[O-]
REMARK SMILES IDX 9 1 10 2 11 3 12 4 13 5 14 6 15 7 16 8 17 9 18 10 19 11 8 12
REMARK SMILES IDX 7 13 6 14 5 15 4 16 3 17 2 18 1 19
REMARK H PARENT
REMARK Flexibility Score: inf
ROOT
ATOM      1  C   UNL     1      17.390  30.086  54.126  1.00  0.00     0.000 C 
ENDROOT
BRANCH   1   2
ATOM      2  C   UNL     1      16.289  29.551  55.055  1.00  0.00     0.000 C 
BRANCH   2   3
ATOM      3  C   UNL     1      15.777  28.165  54.626  1.00  0.00     0.000 C 
BRANCH   3   4
ATOM      4  C   UNL     1      15.623  28.038  53.101  1.00  0.00     0.000 C 
BRANCH   4   5
ATOM      5  C   UNL     1      16.444  26.879  52.515  1.00  0.00     0.001 C 
BRANCH   5   6
ATOM      6  C   UNL     1      17.437  27.392  51.457  1.00  0.00     0.009 C 
BRANCH   6   7
ATOM      7  C   UNL     1      16.967  28.697  50.782  1.00  0.00     0.032 C 
ATOM      8  C   UNL     1      18.118  29.693  50.576  1.00  0.00     0.014 C 
BRANCH   7   9
ATOM      9  C   UNL     1      16.333  28.383  49.456  1.00  0.00     0.044 C 
ATOM     10  O   UNL     1      15.714  29.278  48.821  1.00  0.00    -0.550 OA
ATOM     11  O   UNL     1      16.421  27.102  48.922  1.00  0.00    -0.550 OA
ENDBRANCH   7   9
ENDBRANCH   6   7
ENDBRANCH   5   6
ENDBRANCH   4   5
ENDBRANCH   3   4
ENDBRANCH   2   3
ENDBRANCH   1   2
BRANCH   1  12
ATOM     12  C   UNL     1      18.798  29.925  54.719  1.00  0.00     0.000 C 
BRANCH  12  13
ATOM     13  C   UNL     1      19.424  28.591  54.295  1.00  0.00    -0.000 C 
BRANCH  13  14
ATOM     14  C   UNL     1      19.490  27.614  55.478  1.00  0.00    -0.000 C 
BRANCH  14  15
ATOM     15  C   UNL     1      19.410  28.324  56.838  1.00  0.00    -0.000 C 
BRANCH  15  16
ATOM     16  C   UNL     1      20.789  28.496  57.499  1.00  0.00    -0.000 C 
BRANCH  16  17
ATOM     17  C   UNL     1      21.169  29.971  57.699  1.00  0.00    -0.000 C 
BRANCH  17  18
ATOM     18  C   UNL     1      22.517  30.325  57.053  1.00  0.00    -0.003 C 
ATOM     19  C   UNL     1      22.777  29.468  55.817  1.00  0.00     0.004 C 
ENDBRANCH  17  18
ENDBRANCH  16  17
ENDBRANCH  15  16
ENDBRANCH  14  15
ENDBRANCH  13  14
ENDBRANCH  12  13
ENDBRANCH   1  12
TORSDOF 14
ENDMDL
MODEL 8
REMARK VINA RESULT:    -2.767      2.089      4.204
REMARK INTER + INTRA:          -7.717
REMARK INTER:                  -5.632
REMARK INTRA:                  -2.085
REMARK UNBOUND:                -2.686
REMARK SMILES CCCCCCCCCCCCCC[C@@H](C)C(=O)[O-]
REMARK SMILES IDX 9 1 10 2 11 3 12 4 13 5 14 6 15 7 16 8 17 9 18 10 19 11 8 12
REMARK SMILES IDX 7 13 6 14 5 15 4 16 3 17 2 18 1 19
REMARK H PARENT
REMARK Flexibility Score: inf
ROOT
ATOM      1  C   UNL     1      27.171  34.118  53.744  1.00  0.00     0.000 C 
ENDROOT
BRANCH   1   2
ATOM      2  C   UNL     1      28.685  34.087  54.003  1.00  0.00     0.000 C 
BRANCH   2   3
ATOM      3  C   UNL     1      29.493  33.734  52.742  1.00  0.00     0.000 C 
BRANCH   3   4
ATOM      4  C   UNL     1      30.336  32.461  52.918  1.00  0.00     0.000 C 
BRANCH   4   5
ATOM      5  C   UNL     1      31.352  32.575  54.066  1.00  0.00     0.001 C 
BRANCH   5   6
ATOM      6  C   UNL     1      31.270  31.352  54.994  1.00  0.00     0.009 C 
BRANCH   6   7
ATOM      7  C   UNL     1      30.858  31.723  56.435  1.00  0.00     0.032 C 
ATOM      8  C   UNL     1      31.031  33.220  56.723  1.00  0.00     0.014 C 
BRANCH   7   9
ATOM      9  C   UNL     1      29.426  31.328  56.670  1.00  0.00     0.044 C 
ATOM     10  O   UNL     1      28.918  31.444  57.816  1.00  0.00    -0.550 OA
ATOM     11  O   UNL     1      28.655  30.831  55.626  1.00  0.00    -0.550 OA
ENDBRANCH   7   9
ENDBRANCH   6   7
ENDBRANCH   5   6
ENDBRANCH   4   5
ENDBRANCH   3   4
ENDBRANCH   2   3
ENDBRANCH   1   2
BRANCH   1  12
ATOM     12  C   UNL     1      26.535  32.718  53.767  1.00  0.00     0.000 C 
BRANCH  12  13
ATOM     13  C   UNL     1      25.397  32.616  52.745  1.00  0.00    -0.000 C 
BRANCH  13  14
ATOM     14  C   UNL     1      25.830  33.172  51.380  1.00  0.00    -0.000 C 
BRANCH  14  15
ATOM     15  C   UNL     1      26.707  32.187  50.591  1.00  0.00    -0.000 C 
BRANCH  15  16
ATOM     16  C   UNL     1      27.722  32.898  49.679  1.00  0.00    -0.000 C 
BRANCH  16  17
ATOM     17  C   UNL     1      28.620  31.914  48.914  1.00  0.00    -0.000 C 
BRANCH  17  18
ATOM     18  C   UNL     1      30.107  32.078  49.263  1.00  0.00    -0.003 C 
ATOM     19  C   UNL     1      30.621  33.452  48.841  1.00  0.00     0.004 C 
ENDBRANCH  17  18
ENDBRANCH  16  17
ENDBRANCH  15  16
ENDBRANCH  14  15
ENDBRANCH  13  14
ENDBRANCH  12  13
ENDBRANCH   1  12
TORSDOF 14
ENDMDL
MODEL 9
REMARK VINA RESULT:    -2.738      1.189      2.152
REMARK INTER + INTRA:          -7.665
REMARK INTER:                  -5.057
REMARK INTRA:                  -2.608
REMARK UNBOUND:                -2.686
REMARK SMILES CCCCCCCCCCCCCC[C@@H](C)C(=O)[O-]
REMARK SMILES IDX 9 1 10 2 11 3 12 4 13 5 14 6 15 7 16 8 17 9 18 10 19 11 8 12
REMARK SMILES IDX 7 13 6 14 5 15 4 16 3 17 2 18 1 19
REMARK H PARENT
REMARK Flexibility Score: inf
ROOT
ATOM      1  C   UNL     1      32.321  31.434  54.125  1.00  0.00     0.000 C 
ENDROOT
BRANCH   1   2
ATOM      2  C   UNL     1      32.687  30.815  55.483  1.00  0.00     0.000 C 
BRANCH   2   3
ATOM      3  C   UNL     1      32.468  31.789  56.654  1.00  0.00     0.000 C 
BRANCH   3   4
ATOM      4  C   UNL     1      31.004  32.242  56.779  1.00  0.00     0.000 C 
BRANCH   4   5
ATOM      5  C   UNL     1      30.042  31.076  57.058  1.00  0.00     0.001 C 
BRANCH   5   6
ATOM      6  C   UNL     1      28.624  31.406  56.564  1.00  0.00     0.009 C 
BRANCH   6   7
ATOM      7  C   UNL     1      27.956  30.222  55.834  1.00  0.00     0.032 C 
ATOM      8  C   UNL     1      28.833  28.962  55.843  1.00  0.00     0.014 C 
BRANCH   7   9
ATOM      9  C   UNL     1      26.630  29.915  56.473  1.00  0.00     0.044 C 
ATOM     10  O   UNL     1      26.583  29.411  57.626  1.00  0.00    -0.550 OA
ATOM     11  O   UNL     1      25.446  30.183  55.795  1.00  0.00    -0.550 OA
ENDBRANCH   7   9
ENDBRANCH   6   7
ENDBRANCH   5   6
ENDBRANCH   4   5
ENDBRANCH   3   4
ENDBRANCH   2   3
ENDBRANCH   1   2
BRANCH   1  12
ATOM     12  C   UNL     1      31.421  30.519  53.278  1.00  0.00     0.000 C 
BRANCH  12  13
ATOM     13  C   UNL     1      30.061  31.177  53.017  1.00  0.00    -0.000 C 
BRANCH  13  14
ATOM     14  C   UNL     1      30.139  32.149  51.831  1.00  0.00    -0.000 C 
BRANCH  14  15
ATOM     15  C   UNL     1      29.604  33.548  52.176  1.00  0.00    -0.000 C 
BRANCH  15  16
ATOM     16  C   UNL     1      29.334  33.722  53.681  1.00  0.00    -0.000 C 
BRANCH  16  17
ATOM     17  C   UNL     1      27.881  34.123  53.978  1.00  0.00    -0.000 C 
BRANCH  17  18
ATOM     18  C   UNL     1      26.882  33.001  53.656  1.00  0.00    -0.003 C 
ATOM     19  C   UNL     1      25.732  33.518  52.797  1.00  0.00     0.004 C 
ENDBRANCH  17  18
ENDBRANCH  16  17
ENDBRANCH  15  16
ENDBRANCH  14  15
ENDBRANCH  13  14
ENDBRANCH  12  13
ENDBRANCH   1  12
TORSDOF 14
ENDMDL
