MODEL 1
REMARK VINA RESULT:    -3.127      0.000      0.000
REMARK INTER + INTRA:          -4.088
REMARK INTER:                  -3.950
REMARK INTRA:                  -0.138
REMARK UNBOUND:                -0.138
REMARK SMILES CCCCCCO
REMARK SMILES IDX 4 1 3 2 2 3 1 4 5 5 6 6 7 7
REMARK H PARENT 7 8
REMARK Flexibility Score: inf
ROOT
ATOM      1  C   UNL     1     161.090 160.740 180.950  1.00  0.00     0.002 C 
ENDROOT
BRANCH   1   2
ATOM      2  C   UNL     1     159.926 160.700 181.950  1.00  0.00    -0.000 C 
BRANCH   2   3
ATOM      3  C   UNL     1     160.362 161.055 183.380  1.00  0.00    -0.003 C 
ATOM      4  C   UNL     1     160.827 162.505 183.513  1.00  0.00     0.004 C 
ENDBRANCH   2   3
ENDBRANCH   1   2
BRANCH   1   5
ATOM      5  C   UNL     1     160.672 161.437 179.648  1.00  0.00     0.028 C 
BRANCH   5   6
ATOM      6  C   UNL     1     160.676 162.962 179.791  1.00  0.00     0.156 C 
BRANCH   6   7
ATOM      7  O   UNL     1     160.052 163.571 178.693  1.00  0.00    -0.396 OA
ATOM      8  H   UNL     1     159.088 163.342 178.751  1.00  0.00     0.210 HD
ENDBRANCH   6   7
ENDBRANCH   5   6
ENDBRANCH   1   5
TORSDOF 5
ENDMDL
MODEL 2
REMARK VINA RESULT:    -3.094      1.456      2.101
REMARK INTER + INTRA:          -4.045
REMARK INTER:                  -3.928
REMARK INTRA:                  -0.117
REMARK UNBOUND:                -0.138
REMARK SMILES CCCCCCO
REMARK SMILES IDX 4 1 3 2 2 3 1 4 5 5 6 6 7 7
REMARK H PARENT 7 8
REMARK Flexibility Score: inf
ROOT
ATOM      1  C   UNL     1     160.460 163.299 182.660  1.00  0.00     0.002 C 
ENDROOT
BRANCH   1   2
ATOM      2  C   UNL     1     160.956 162.191 183.599  1.00  0.00    -0.000 C 
BRANCH   2   3
ATOM      3  C   UNL     1     161.610 161.024 182.842  1.00  0.00    -0.003 C 
ATOM      4  C   UNL     1     163.133 161.019 182.965  1.00  0.00     0.004 C 
ENDBRANCH   2   3
ENDBRANCH   1   2
BRANCH   1   5
ATOM      5  C   UNL     1     160.274 162.767 181.232  1.00  0.00     0.028 C 
BRANCH   5   6
ATOM      6  C   UNL     1     160.709 163.792 180.180  1.00  0.00     0.156 C 
BRANCH   6   7
ATOM      7  O   UNL     1     160.037 163.583 178.967  1.00  0.00    -0.396 OA
ATOM      8  H   UNL     1     160.724 163.616 178.252  1.00  0.00     0.210 HD
ENDBRANCH   6   7
ENDBRANCH   5   6
ENDBRANCH   1   5
TORSDOF 5
ENDMDL
MODEL 3
REMARK VINA RESULT:    -3.021      1.641      2.585
REMARK INTER + INTRA:          -3.953
REMARK INTER:                  -3.759
REMARK INTRA:                  -0.194
REMARK UNBOUND:                -0.138
REMARK SMILES CCCCCCO
REMARK SMILES IDX 4 1 3 2 2 3 1 4 5 5 6 6 7 7
REMARK H PARENT 7 8
REMARK Flexibility Score: inf
ROOT
ATOM      1  C   UNL     1     161.076 161.025 182.957  1.00  0.00     0.002 C 
ENDROOT
BRANCH   1   2
ATOM      2  C   UNL     1     160.727 162.378 183.594  1.00  0.00    -0.000 C 
BRANCH   2   3
ATOM      3  C   UNL     1     161.097 163.567 182.694  1.00  0.00    -0.003 C 
ATOM      4  C   UNL     1     159.875 164.237 182.067  1.00  0.00     0.004 C 
ENDBRANCH   2   3
ENDBRANCH   1   2
BRANCH   1   5
ATOM      5  C   UNL     1     159.895 160.482 182.140  1.00  0.00     0.028 C 
BRANCH   5   6
ATOM      6  C   UNL     1     160.294 160.186 180.691  1.00  0.00     0.156 C 
BRANCH   6   7
ATOM      7  O   UNL     1     159.914 161.235 179.841  1.00  0.00    -0.396 OA
ATOM      8  H   UNL     1     159.004 161.016 179.510  1.00  0.00     0.210 HD
ENDBRANCH   6   7
ENDBRANCH   5   6
ENDBRANCH   1   5
TORSDOF 5
ENDMDL
MODEL 4
REMARK VINA RESULT:    -2.997      2.082      2.830
REMARK INTER + INTRA:          -3.923
REMARK INTER:                  -3.835
REMARK INTRA:                  -0.088
REMARK UNBOUND:                -0.138
REMARK SMILES CCCCCCO
REMARK SMILES IDX 4 1 3 2 2 3 1 4 5 5 6 6 7 7
REMARK H PARENT 7 8
REMARK Flexibility Score: inf
ROOT
ATOM      1  C   UNL     1     160.850 163.087 182.077  1.00  0.00     0.002 C 
ENDROOT
BRANCH   1   2
ATOM      2  C   UNL     1     160.596 162.328 183.386  1.00  0.00    -0.000 C 
BRANCH   2   3
ATOM      3  C   UNL     1     160.290 160.840 183.157  1.00  0.00    -0.003 C 
ATOM      4  C   UNL     1     159.929 160.527 181.705  1.00  0.00     0.004 C 
ENDBRANCH   2   3
ENDBRANCH   1   2
BRANCH   1   5
ATOM      5  C   UNL     1     160.024 164.380 182.022  1.00  0.00     0.028 C 
BRANCH   5   6
ATOM      6  C   UNL     1     160.774 165.505 181.301  1.00  0.00     0.156 C 
BRANCH   6   7
ATOM      7  O   UNL     1     159.878 166.437 180.757  1.00  0.00    -0.396 OA
ATOM      8  H   UNL     1     159.339 166.787 181.514  1.00  0.00     0.210 HD
ENDBRANCH   6   7
ENDBRANCH   5   6
ENDBRANCH   1   5
TORSDOF 5
ENDMDL
MODEL 5
REMARK VINA RESULT:    -2.941      2.226      2.311
REMARK INTER + INTRA:          -3.852
REMARK INTER:                  -3.641
REMARK INTRA:                  -0.211
REMARK UNBOUND:                -0.138
REMARK SMILES CCCCCCO
REMARK SMILES IDX 4 1 3 2 2 3 1 4 5 5 6 6 7 7
REMARK H PARENT 7 8
REMARK Flexibility Score: inf
ROOT
ATOM      1  C   UNL     1     160.178 161.154 181.016  1.00  0.00     0.002 C 
ENDROOT
BRANCH   1   2
ATOM      2  C   UNL     1     159.955 160.511 182.392  1.00  0.00    -0.000 C 
BRANCH   2   3
ATOM      3  C   UNL     1     160.602 161.314 183.531  1.00  0.00    -0.003 C 
ATOM      4  C   UNL     1     160.725 162.804 183.209  1.00  0.00     0.004 C 
ENDBRANCH   2   3
ENDBRANCH   1   2
BRANCH   1   5
ATOM      5  C   UNL     1     161.164 160.328 180.177  1.00  0.00     0.028 C 
BRANCH   5   6
ATOM      6  C   UNL     1     162.545 160.988 180.109  1.00  0.00     0.156 C 
BRANCH   6   7
ATOM      7  O   UNL     1     163.396 160.472 181.097  1.00  0.00    -0.396 OA
ATOM      8  H   UNL     1     163.192 159.503 181.172  1.00  0.00     0.210 HD
ENDBRANCH   6   7
ENDBRANCH   5   6
ENDBRANCH   1   5
TORSDOF 5
ENDMDL
MODEL 6
REMARK VINA RESULT:    -2.940     12.617     13.643
REMARK INTER + INTRA:          -3.851
REMARK INTER:                  -3.717
REMARK INTRA:                  -0.134
REMARK UNBOUND:                -0.138
REMARK SMILES CCCCCCO
REMARK SMILES IDX 4 1 3 2 2 3 1 4 5 5 6 6 7 7
REMARK H PARENT 7 8
REMARK Flexibility Score: inf
ROOT
ATOM      1  C   UNL     1     160.619 176.358 182.558  1.00  0.00     0.002 C 
ENDROOT
BRANCH   1   2
ATOM      2  C   UNL     1     160.047 175.372 183.586  1.00  0.00    -0.000 C 
BRANCH   2   3
ATOM      3  C   UNL     1     160.019 173.926 183.065  1.00  0.00    -0.003 C 
ATOM      4  C   UNL     1     161.327 173.178 183.325  1.00  0.00     0.004 C 
ENDBRANCH   2   3
ENDBRANCH   1   2
BRANCH   1   5
ATOM      5  C   UNL     1     160.120 176.028 181.144  1.00  0.00     0.028 C 
BRANCH   5   6
ATOM      6  C   UNL     1     161.272 175.954 180.137  1.00  0.00     0.156 C 
BRANCH   6   7
ATOM      7  O   UNL     1     160.983 176.703 178.987  1.00  0.00    -0.396 OA
ATOM      8  H   UNL     1     161.801 176.687 178.424  1.00  0.00     0.210 HD
ENDBRANCH   6   7
ENDBRANCH   5   6
ENDBRANCH   1   5
TORSDOF 5
ENDMDL
MODEL 7
REMARK VINA RESULT:    -2.832     17.137     17.542
REMARK INTER + INTRA:          -3.714
REMARK INTER:                  -3.567
REMARK INTRA:                  -0.147
REMARK UNBOUND:                -0.138
REMARK SMILES CCCCCCO
REMARK SMILES IDX 4 1 3 2 2 3 1 4 5 5 6 6 7 7
REMARK H PARENT 7 8
REMARK Flexibility Score: inf
ROOT
ATOM      1  C   UNL     1     176.909 164.793 183.570  1.00  0.00     0.002 C 
ENDROOT
BRANCH   1   2
ATOM      2  C   UNL     1     177.734 163.744 184.329  1.00  0.00    -0.000 C 
BRANCH   2   3
ATOM      3  C   UNL     1     177.770 162.387 183.609  1.00  0.00    -0.003 C 
ATOM      4  C   UNL     1     176.505 162.116 182.795  1.00  0.00     0.004 C 
ENDBRANCH   2   3
ENDBRANCH   1   2
BRANCH   1   5
ATOM      5  C   UNL     1     177.823 165.785 182.837  1.00  0.00     0.028 C 
BRANCH   5   6
ATOM      6  C   UNL     1     177.845 165.531 181.326  1.00  0.00     0.156 C 
BRANCH   6   7
ATOM      7  O   UNL     1     179.022 166.029 180.750  1.00  0.00    -0.396 OA
ATOM      8  H   UNL     1     179.250 165.421 179.999  1.00  0.00     0.210 HD
ENDBRANCH   6   7
ENDBRANCH   5   6
ENDBRANCH   1   5
TORSDOF 5
ENDMDL
MODEL 8
REMARK VINA RESULT:    -2.806     20.654     21.336
REMARK INTER + INTRA:          -3.683
REMARK INTER:                  -3.533
REMARK INTRA:                  -0.150
REMARK UNBOUND:                -0.138
REMARK SMILES CCCCCCO
REMARK SMILES IDX 4 1 3 2 2 3 1 4 5 5 6 6 7 7
REMARK H PARENT 7 8
REMARK Flexibility Score: inf
ROOT
ATOM      1  C   UNL     1     178.148 173.976 182.865  1.00  0.00     0.002 C 
ENDROOT
BRANCH   1   2
ATOM      2  C   UNL     1     176.724 173.522 183.217  1.00  0.00    -0.000 C 
BRANCH   2   3
ATOM      3  C   UNL     1     176.066 174.414 184.282  1.00  0.00    -0.003 C 
ATOM      4  C   UNL     1     176.872 175.679 184.574  1.00  0.00     0.004 C 
ENDBRANCH   2   3
ENDBRANCH   1   2
BRANCH   1   5
ATOM      5  C   UNL     1     178.290 174.219 181.356  1.00  0.00     0.028 C 
BRANCH   5   6
ATOM      6  C   UNL     1     177.437 175.403 180.887  1.00  0.00     0.156 C 
BRANCH   6   7
ATOM      7  O   UNL     1     178.230 176.376 180.261  1.00  0.00    -0.396 OA
ATOM      8  H   UNL     1     177.995 176.355 179.297  1.00  0.00     0.210 HD
ENDBRANCH   6   7
ENDBRANCH   5   6
ENDBRANCH   1   5
TORSDOF 5
ENDMDL
MODEL 9
REMARK VINA RESULT:    -2.796      2.848      3.766
REMARK INTER + INTRA:          -3.670
REMARK INTER:                  -3.488
REMARK INTRA:                  -0.182
REMARK UNBOUND:                -0.138
REMARK SMILES CCCCCCO
REMARK SMILES IDX 4 1 3 2 2 3 1 4 5 5 6 6 7 7
REMARK H PARENT 7 8
REMARK Flexibility Score: inf
ROOT
ATOM      1  C   UNL     1     162.166 162.524 182.551  1.00  0.00     0.002 C 
ENDROOT
BRANCH   1   2
ATOM      2  C   UNL     1     161.132 162.135 183.617  1.00  0.00    -0.000 C 
BRANCH   2   3
ATOM      3  C   UNL     1     160.186 161.020 183.144  1.00  0.00    -0.003 C 
ATOM      4  C   UNL     1     160.202 160.835 181.627  1.00  0.00     0.004 C 
ENDBRANCH   2   3
ENDBRANCH   1   2
BRANCH   1   5
ATOM      5  C   UNL     1     163.584 162.138 182.996  1.00  0.00     0.028 C 
BRANCH   5   6
ATOM      6  C   UNL     1     163.845 160.637 182.829  1.00  0.00     0.156 C 
BRANCH   6   7
ATOM      7  O   UNL     1     164.051 160.311 181.481  1.00  0.00    -0.396 OA
ATOM      8  H   UNL     1     163.189 159.955 181.140  1.00  0.00     0.210 HD
ENDBRANCH   6   7
ENDBRANCH   5   6
ENDBRANCH   1   5
TORSDOF 5
ENDMDL
