MODEL 1
REMARK VINA RESULT:    -4.174      0.000      0.000
REMARK INTER + INTRA:          -4.636
REMARK INTER:                  -4.418
REMARK INTRA:                  -0.219
REMARK UNBOUND:                -0.219
REMARK SMILES C=C(C)[C@H]1CC=C(C)C(=O)C1
REMARK SMILES IDX 8 1 7 2 6 3 5 4 4 5 11 6 9 7 10 8 2 9 1 10 3 11
REMARK H PARENT
REMARK Flexibility Score: inf
ROOT
ATOM      1  C   UNL     1      23.752  28.121  27.502  1.00  0.00     0.048 C 
ATOM      2  C   UNL     1      22.632  27.438  28.237  1.00  0.00    -0.012 C 
ATOM      3  C   UNL     1      22.522  26.102  28.190  1.00  0.00    -0.019 C 
ATOM      4  C   UNL     1      21.445  25.352  28.927  1.00  0.00     0.036 C 
ATOM      5  C   UNL     1      20.145  26.163  29.113  1.00  0.00     0.025 C 
ATOM      6  C   UNL     1      20.431  27.596  29.609  1.00  0.00     0.089 C 
ATOM      7  C   UNL     1      21.571  28.250  28.878  1.00  0.00     0.158 C 
ATOM      8  O   UNL     1      21.635  29.508  28.851  1.00  0.00    -0.295 OA
ENDROOT
BRANCH   5   9
ATOM      9  C   UNL     1      19.239  26.124  27.882  1.00  0.00    -0.077 C 
ATOM     10  C   UNL     1      19.207  25.072  27.047  1.00  0.00     0.008 C 
ATOM     11  C   UNL     1      18.341  27.298  27.574  1.00  0.00     0.039 C 
ENDBRANCH   5   9
TORSDOF 1
ENDMDL
MODEL 2
REMARK VINA RESULT:    -4.151      3.907      5.633
REMARK INTER + INTRA:          -4.612
REMARK INTER:                  -4.396
REMARK INTRA:                  -0.216
REMARK UNBOUND:                -0.219
REMARK SMILES C=C(C)[C@H]1CC=C(C)C(=O)C1
REMARK SMILES IDX 8 1 7 2 6 3 5 4 4 5 11 6 9 7 10 8 2 9 1 10 3 11
REMARK H PARENT
REMARK Flexibility Score: inf
ROOT
ATOM      1  C   UNL     1      15.766  31.994  29.722  1.00  0.00     0.048 C 
ATOM      2  C   UNL     1      16.385  30.658  30.026  1.00  0.00    -0.012 C 
ATOM      3  C   UNL     1      17.607  30.602  30.580  1.00  0.00    -0.019 C 
ATOM      4  C   UNL     1      18.273  29.301  30.940  1.00  0.00     0.036 C 
ATOM      5  C   UNL     1      17.848  28.121  30.040  1.00  0.00     0.025 C 
ATOM      6  C   UNL     1      16.317  28.067  29.853  1.00  0.00     0.089 C 
ATOM      7  C   UNL     1      15.715  29.416  29.575  1.00  0.00     0.158 C 
ATOM      8  O   UNL     1      14.605  29.477  28.983  1.00  0.00    -0.295 OA
ENDROOT
BRANCH   5   9
ATOM      9  C   UNL     1      18.616  28.074  28.719  1.00  0.00    -0.077 C 
ATOM     10  C   UNL     1      19.855  28.577  28.591  1.00  0.00     0.008 C 
ATOM     11  C   UNL     1      17.979  27.445  27.504  1.00  0.00     0.039 C 
ENDBRANCH   5   9
TORSDOF 1
ENDMDL
MODEL 3
REMARK VINA RESULT:    -4.129      5.901      7.276
REMARK INTER + INTRA:          -4.589
REMARK INTER:                  -4.632
REMARK INTRA:                   0.043
REMARK UNBOUND:                -0.219
REMARK SMILES C=C(C)[C@H]1CC=C(C)C(=O)C1
REMARK SMILES IDX 8 1 7 2 6 3 5 4 4 5 11 6 9 7 10 8 2 9 1 10 3 11
REMARK H PARENT
REMARK Flexibility Score: inf
ROOT
ATOM      1  C   UNL     1      19.267  34.040  31.828  1.00  0.00     0.048 C 
ATOM      2  C   UNL     1      18.001  33.579  31.161  1.00  0.00    -0.012 C 
ATOM      3  C   UNL     1      17.040  32.993  31.891  1.00  0.00    -0.019 C 
ATOM      4  C   UNL     1      15.735  32.536  31.295  1.00  0.00     0.036 C 
ATOM      5  C   UNL     1      15.845  32.128  29.810  1.00  0.00     0.025 C 
ATOM      6  C   UNL     1      16.637  33.167  28.989  1.00  0.00     0.089 C 
ATOM      7  C   UNL     1      17.885  33.633  29.685  1.00  0.00     0.158 C 
ATOM      8  O   UNL     1      18.825  34.110  28.995  1.00  0.00    -0.295 OA
ENDROOT
BRANCH   5   9
ATOM      9  C   UNL     1      16.356  30.699  29.623  1.00  0.00    -0.077 C 
ATOM     10  C   UNL     1      17.646  30.426  29.364  1.00  0.00     0.008 C 
ATOM     11  C   UNL     1      15.396  29.540  29.730  1.00  0.00     0.039 C 
ENDBRANCH   5   9
TORSDOF 1
ENDMDL
MODEL 4
REMARK VINA RESULT:    -4.115      5.525      7.107
REMARK INTER + INTRA:          -4.574
REMARK INTER:                  -4.394
REMARK INTRA:                  -0.180
REMARK UNBOUND:                -0.219
REMARK SMILES C=C(C)[C@H]1CC=C(C)C(=O)C1
REMARK SMILES IDX 8 1 7 2 6 3 5 4 4 5 11 6 9 7 10 8 2 9 1 10 3 11
REMARK H PARENT
REMARK Flexibility Score: inf
ROOT
ATOM      1  C   UNL     1      19.350  30.357  28.997  1.00  0.00     0.048 C 
ATOM      2  C   UNL     1      17.957  30.903  29.149  1.00  0.00    -0.012 C 
ATOM      3  C   UNL     1      17.764  32.230  29.202  1.00  0.00    -0.019 C 
ATOM      4  C   UNL     1      16.396  32.844  29.320  1.00  0.00     0.036 C 
ATOM      5  C   UNL     1      15.380  31.951  30.064  1.00  0.00     0.025 C 
ATOM      6  C   UNL     1      15.425  30.493  29.560  1.00  0.00     0.089 C 
ATOM      7  C   UNL     1      16.827  29.976  29.392  1.00  0.00     0.158 C 
ATOM      8  O   UNL     1      17.025  28.733  29.422  1.00  0.00    -0.295 OA
ENDROOT
BRANCH   5   9
ATOM      9  C   UNL     1      15.492  32.063  31.585  1.00  0.00    -0.077 C 
ATOM     10  C   UNL     1      16.130  33.083  32.185  1.00  0.00     0.008 C 
ATOM     11  C   UNL     1      14.870  31.004  32.463  1.00  0.00     0.039 C 
ENDBRANCH   5   9
TORSDOF 1
ENDMDL
MODEL 5
REMARK VINA RESULT:    -4.114      6.845      7.923
REMARK INTER + INTRA:          -4.573
REMARK INTER:                  -4.355
REMARK INTRA:                  -0.218
REMARK UNBOUND:                -0.219
REMARK SMILES C=C(C)[C@H]1CC=C(C)C(=O)C1
REMARK SMILES IDX 8 1 7 2 6 3 5 4 4 5 11 6 9 7 10 8 2 9 1 10 3 11
REMARK H PARENT
REMARK Flexibility Score: inf
ROOT
ATOM      1  C   UNL     1      16.639  22.506  25.915  1.00  0.00     0.048 C 
ATOM      2  C   UNL     1      15.598  22.896  26.928  1.00  0.00    -0.012 C 
ATOM      3  C   UNL     1      15.396  24.193  27.209  1.00  0.00    -0.019 C 
ATOM      4  C   UNL     1      14.350  24.656  28.187  1.00  0.00     0.036 C 
ATOM      5  C   UNL     1      14.058  23.634  29.307  1.00  0.00     0.025 C 
ATOM      6  C   UNL     1      13.875  22.208  28.747  1.00  0.00     0.089 C 
ATOM      7  C   UNL     1      14.911  21.848  27.718  1.00  0.00     0.158 C 
ATOM      8  O   UNL     1      15.162  20.632  27.507  1.00  0.00    -0.295 OA
ENDROOT
BRANCH   5   9
ATOM      9  C   UNL     1      15.068  23.704  30.453  1.00  0.00    -0.077 C 
ATOM     10  C   UNL     1      15.695  24.844  30.789  1.00  0.00     0.008 C 
ATOM     11  C   UNL     1      15.386  22.462  31.248  1.00  0.00     0.039 C 
ENDBRANCH   5   9
TORSDOF 1
ENDMDL
MODEL 6
REMARK VINA RESULT:    -4.082      2.411      3.767
REMARK INTER + INTRA:          -4.540
REMARK INTER:                  -4.328
REMARK INTRA:                  -0.212
REMARK UNBOUND:                -0.219
REMARK SMILES C=C(C)[C@H]1CC=C(C)C(=O)C1
REMARK SMILES IDX 8 1 7 2 6 3 5 4 4 5 11 6 9 7 10 8 2 9 1 10 3 11
REMARK H PARENT
REMARK Flexibility Score: inf
ROOT
ATOM      1  C   UNL     1      21.273  25.318  28.844  1.00  0.00     0.048 C 
ATOM      2  C   UNL     1      20.279  26.398  28.519  1.00  0.00    -0.012 C 
ATOM      3  C   UNL     1      20.459  27.636  29.003  1.00  0.00    -0.019 C 
ATOM      4  C   UNL     1      19.522  28.772  28.692  1.00  0.00     0.036 C 
ATOM      5  C   UNL     1      18.070  28.319  28.429  1.00  0.00     0.025 C 
ATOM      6  C   UNL     1      18.012  27.112  27.469  1.00  0.00     0.089 C 
ATOM      7  C   UNL     1      19.030  26.056  27.797  1.00  0.00     0.158 C 
ATOM      8  O   UNL     1      18.826  24.873  27.414  1.00  0.00    -0.295 OA
ENDROOT
BRANCH   5   9
ATOM      9  C   UNL     1      17.274  28.100  29.717  1.00  0.00    -0.077 C 
ATOM     10  C   UNL     1      16.190  27.307  29.765  1.00  0.00     0.008 C 
ATOM     11  C   UNL     1      17.702  28.790  30.989  1.00  0.00     0.039 C 
ENDBRANCH   5   9
TORSDOF 1
ENDMDL
MODEL 7
REMARK VINA RESULT:    -4.070      5.610      7.149
REMARK INTER + INTRA:          -4.527
REMARK INTER:                  -4.449
REMARK INTRA:                  -0.078
REMARK UNBOUND:                -0.219
REMARK SMILES C=C(C)[C@H]1CC=C(C)C(=O)C1
REMARK SMILES IDX 8 1 7 2 6 3 5 4 4 5 11 6 9 7 10 8 2 9 1 10 3 11
REMARK H PARENT
REMARK Flexibility Score: inf
ROOT
ATOM      1  C   UNL     1      19.403  30.635  29.040  1.00  0.00     0.048 C 
ATOM      2  C   UNL     1      17.979  31.091  29.201  1.00  0.00    -0.012 C 
ATOM      3  C   UNL     1      17.701  32.404  29.233  1.00  0.00    -0.019 C 
ATOM      4  C   UNL     1      16.297  32.930  29.359  1.00  0.00     0.036 C 
ATOM      5  C   UNL     1      15.351  31.986  30.132  1.00  0.00     0.025 C 
ATOM      6  C   UNL     1      15.484  30.525  29.654  1.00  0.00     0.089 C 
ATOM      7  C   UNL     1      16.915  30.098  29.476  1.00  0.00     0.158 C 
ATOM      8  O   UNL     1      17.194  28.871  29.526  1.00  0.00    -0.295 OA
ENDROOT
BRANCH   5   9
ATOM      9  C   UNL     1      15.473  32.135  31.649  1.00  0.00    -0.077 C 
ATOM     10  C   UNL     1      14.754  31.388  32.504  1.00  0.00     0.008 C 
ATOM     11  C   UNL     1      16.428  33.150  32.228  1.00  0.00     0.039 C 
ENDBRANCH   5   9
TORSDOF 1
ENDMDL
MODEL 8
REMARK VINA RESULT:    -3.995      5.938      7.622
REMARK INTER + INTRA:          -4.447
REMARK INTER:                  -4.303
REMARK INTRA:                  -0.144
REMARK UNBOUND:                -0.219
REMARK SMILES C=C(C)[C@H]1CC=C(C)C(=O)C1
REMARK SMILES IDX 8 1 7 2 6 3 5 4 4 5 11 6 9 7 10 8 2 9 1 10 3 11
REMARK H PARENT
REMARK Flexibility Score: inf
ROOT
ATOM      1  C   UNL     1      15.147  32.268  32.495  1.00  0.00     0.048 C 
ATOM      2  C   UNL     1      16.043  32.641  31.346  1.00  0.00    -0.012 C 
ATOM      3  C   UNL     1      15.731  32.244  30.103  1.00  0.00    -0.019 C 
ATOM      4  C   UNL     1      16.564  32.608  28.904  1.00  0.00     0.036 C 
ATOM      5  C   UNL     1      18.061  32.805  29.230  1.00  0.00     0.025 C 
ATOM      6  C   UNL     1      18.262  33.681  30.484  1.00  0.00     0.089 C 
ATOM      7  C   UNL     1      17.339  33.308  31.611  1.00  0.00     0.158 C 
ATOM      8  O   UNL     1      17.666  33.606  32.790  1.00  0.00    -0.295 OA
ENDROOT
BRANCH   5   9
ATOM      9  C   UNL     1      18.835  31.487  29.287  1.00  0.00    -0.077 C 
ATOM     10  C   UNL     1      18.309  30.327  28.862  1.00  0.00     0.008 C 
ATOM     11  C   UNL     1      20.240  31.467  29.838  1.00  0.00     0.039 C 
ENDBRANCH   5   9
TORSDOF 1
ENDMDL
MODEL 9
REMARK VINA RESULT:    -3.970      5.601      7.219
REMARK INTER + INTRA:          -4.421
REMARK INTER:                  -4.201
REMARK INTRA:                  -0.220
REMARK UNBOUND:                -0.219
REMARK SMILES C=C(C)[C@H]1CC=C(C)C(=O)C1
REMARK SMILES IDX 8 1 7 2 6 3 5 4 4 5 11 6 9 7 10 8 2 9 1 10 3 11
REMARK H PARENT
REMARK Flexibility Score: inf
ROOT
ATOM      1  C   UNL     1      17.134  25.749  27.893  1.00  0.00     0.048 C 
ATOM      2  C   UNL     1      15.954  25.086  28.550  1.00  0.00    -0.012 C 
ATOM      3  C   UNL     1      15.439  25.608  29.674  1.00  0.00    -0.019 C 
ATOM      4  C   UNL     1      14.241  25.016  30.365  1.00  0.00     0.036 C 
ATOM      5  C   UNL     1      14.102  23.492  30.163  1.00  0.00     0.025 C 
ATOM      6  C   UNL     1      14.297  23.091  28.686  1.00  0.00     0.089 C 
ATOM      7  C   UNL     1      15.466  23.783  28.042  1.00  0.00     0.158 C 
ATOM      8  O   UNL     1      16.006  23.256  27.034  1.00  0.00    -0.295 OA
ENDROOT
BRANCH   5   9
ATOM      9  C   UNL     1      14.975  22.683  31.124  1.00  0.00    -0.077 C 
ATOM     10  C   UNL     1      15.411  21.447  30.831  1.00  0.00     0.008 C 
ATOM     11  C   UNL     1      15.372  23.276  32.454  1.00  0.00     0.039 C 
ENDBRANCH   5   9
TORSDOF 1
ENDMDL
