MODEL 1
REMARK VINA RESULT:    -3.593      0.000      0.000
REMARK INTER + INTRA:          -4.635
REMARK INTER:                  -4.433
REMARK INTRA:                  -0.202
REMARK UNBOUND:                -0.202
REMARK SMILES CCCCCC(=O)[O-]
REMARK SMILES IDX 4 1 5 2 6 3 7 4 8 5 3 6 2 7 1 8
REMARK H PARENT
REMARK Flexibility Score: inf
ROOT
ATOM      1  C   UNL     1      31.848   5.729  48.667  1.00  0.00     0.006 C 
ENDROOT
BRANCH   1   2
ATOM      2  C   UNL     1      30.574   6.042  47.878  1.00  0.00     0.053 C 
BRANCH   2   3
ATOM      3  C   UNL     1      30.662   5.478  46.495  1.00  0.00     0.041 C 
ATOM      4  O   UNL     1      31.750   5.003  46.073  1.00  0.00    -0.550 OA
ATOM      5  O   UNL     1      29.532   5.432  45.689  1.00  0.00    -0.550 OA
ENDBRANCH   2   3
ENDBRANCH   1   2
BRANCH   1   6
ATOM      6  C   UNL     1      31.511   5.145  50.047  1.00  0.00     0.000 C 
BRANCH   6   7
ATOM      7  C   UNL     1      31.465   3.610  50.045  1.00  0.00    -0.003 C 
ATOM      8  C   UNL     1      32.432   2.992  49.034  1.00  0.00     0.004 C 
ENDBRANCH   6   7
ENDBRANCH   1   6
TORSDOF 4
ENDMDL
MODEL 2
REMARK VINA RESULT:    -3.482     10.066     11.496
REMARK INTER + INTRA:          -4.498
REMARK INTER:                  -4.358
REMARK INTRA:                  -0.141
REMARK UNBOUND:                -0.202
REMARK SMILES CCCCCC(=O)[O-]
REMARK SMILES IDX 4 1 5 2 6 3 7 4 8 5 3 6 2 7 1 8
REMARK H PARENT
REMARK Flexibility Score: inf
ROOT
ATOM      1  C   UNL     1      23.394   2.441  38.938  1.00  0.00     0.006 C 
ENDROOT
BRANCH   1   2
ATOM      2  C   UNL     1      23.888   2.853  40.329  1.00  0.00     0.053 C 
BRANCH   2   3
ATOM      3  C   UNL     1      25.118   3.695  40.220  1.00  0.00     0.041 C 
ATOM      4  O   UNL     1      25.172   4.815  40.795  1.00  0.00    -0.550 OA
ATOM      5  O   UNL     1      26.224   3.225  39.524  1.00  0.00    -0.550 OA
ENDBRANCH   2   3
ENDBRANCH   1   2
BRANCH   1   6
ATOM      6  C   UNL     1      22.963   0.967  38.921  1.00  0.00     0.000 C 
BRANCH   6   7
ATOM      7  C   UNL     1      23.696   0.125  39.976  1.00  0.00    -0.003 C 
ATOM      8  C   UNL     1      23.872  -1.333  39.551  1.00  0.00     0.004 C 
ENDBRANCH   6   7
ENDBRANCH   1   6
TORSDOF 4
ENDMDL
MODEL 3
REMARK VINA RESULT:    -3.465      2.766      4.223
REMARK INTER + INTRA:          -4.477
REMARK INTER:                  -4.385
REMARK INTRA:                  -0.092
REMARK UNBOUND:                -0.202
REMARK SMILES CCCCCC(=O)[O-]
REMARK SMILES IDX 4 1 5 2 6 3 7 4 8 5 3 6 2 7 1 8
REMARK H PARENT
REMARK Flexibility Score: inf
ROOT
ATOM      1  C   UNL     1      31.490   5.213  47.841  1.00  0.00     0.006 C 
ENDROOT
BRANCH   1   2
ATOM      2  C   UNL     1      31.842   5.316  49.328  1.00  0.00     0.053 C 
BRANCH   2   3
ATOM      3  C   UNL     1      32.208   3.973  49.875  1.00  0.00     0.041 C 
ATOM      4  O   UNL     1      32.469   3.837  51.100  1.00  0.00    -0.550 OA
ATOM      5  O   UNL     1      32.213   2.861  49.043  1.00  0.00    -0.550 OA
ENDBRANCH   2   3
ENDBRANCH   1   2
BRANCH   1   6
ATOM      6  C   UNL     1      31.296   6.606  47.224  1.00  0.00     0.000 C 
BRANCH   6   7
ATOM      7  C   UNL     1      32.355   6.933  46.160  1.00  0.00    -0.003 C 
ATOM      8  C   UNL     1      33.327   8.024  46.610  1.00  0.00     0.004 C 
ENDBRANCH   6   7
ENDBRANCH   1   6
TORSDOF 4
ENDMDL
MODEL 4
REMARK VINA RESULT:    -3.448      1.453      1.721
REMARK INTER + INTRA:          -4.456
REMARK INTER:                  -4.373
REMARK INTRA:                  -0.083
REMARK UNBOUND:                -0.202
REMARK SMILES CCCCCC(=O)[O-]
REMARK SMILES IDX 4 1 5 2 6 3 7 4 8 5 3 6 2 7 1 8
REMARK H PARENT
REMARK Flexibility Score: inf
ROOT
ATOM      1  C   UNL     1      31.489   5.059  47.415  1.00  0.00     0.006 C 
ENDROOT
BRANCH   1   2
ATOM      2  C   UNL     1      31.713   6.206  46.425  1.00  0.00     0.053 C 
BRANCH   2   3
ATOM      3  C   UNL     1      32.155   5.675  45.099  1.00  0.00     0.041 C 
ATOM      4  O   UNL     1      33.244   6.057  44.593  1.00  0.00    -0.550 OA
ATOM      5  O   UNL     1      31.389   4.721  44.441  1.00  0.00    -0.550 OA
ENDBRANCH   2   3
ENDBRANCH   1   2
BRANCH   1   6
ATOM      6  C   UNL     1      31.459   5.578  48.860  1.00  0.00     0.000 C 
BRANCH   6   7
ATOM      7  C   UNL     1      31.978   4.545  49.870  1.00  0.00    -0.003 C 
ATOM      8  C   UNL     1      32.304   3.198  49.224  1.00  0.00     0.004 C 
ENDBRANCH   6   7
ENDBRANCH   1   6
TORSDOF 4
ENDMDL
MODEL 5
REMARK VINA RESULT:    -3.366      9.497     11.100
REMARK INTER + INTRA:          -4.355
REMARK INTER:                  -4.246
REMARK INTRA:                  -0.109
REMARK UNBOUND:                -0.202
REMARK SMILES CCCCCC(=O)[O-]
REMARK SMILES IDX 4 1 5 2 6 3 7 4 8 5 3 6 2 7 1 8
REMARK H PARENT
REMARK Flexibility Score: inf
ROOT
ATOM      1  C   UNL     1      24.104   2.526  39.033  1.00  0.00     0.006 C 
ENDROOT
BRANCH   1   2
ATOM      2  C   UNL     1      24.392   3.066  40.437  1.00  0.00     0.053 C 
BRANCH   2   3
ATOM      3  C   UNL     1      25.683   3.822  40.453  1.00  0.00     0.041 C 
ATOM      4  O   UNL     1      26.622   3.489  39.683  1.00  0.00    -0.550 OA
ATOM      5  O   UNL     1      25.833   4.925  41.284  1.00  0.00    -0.550 OA
ENDBRANCH   2   3
ENDBRANCH   1   2
BRANCH   1   6
ATOM      6  C   UNL     1      23.217   1.274  39.097  1.00  0.00     0.000 C 
BRANCH   6   7
ATOM      7  C   UNL     1      23.697   0.262  40.147  1.00  0.00    -0.003 C 
ATOM      8  C   UNL     1      23.844  -1.152  39.584  1.00  0.00     0.004 C 
ENDBRANCH   6   7
ENDBRANCH   1   6
TORSDOF 4
ENDMDL
MODEL 6
REMARK VINA RESULT:    -3.362      2.721      4.207
REMARK INTER + INTRA:          -4.350
REMARK INTER:                  -4.219
REMARK INTRA:                  -0.131
REMARK UNBOUND:                -0.202
REMARK SMILES CCCCCC(=O)[O-]
REMARK SMILES IDX 4 1 5 2 6 3 7 4 8 5 3 6 2 7 1 8
REMARK H PARENT
REMARK Flexibility Score: inf
ROOT
ATOM      1  C   UNL     1      31.102   5.318  47.771  1.00  0.00     0.006 C 
ENDROOT
BRANCH   1   2
ATOM      2  C   UNL     1      31.841   5.450  49.106  1.00  0.00     0.053 C 
BRANCH   2   3
ATOM      3  C   UNL     1      32.152   4.100  49.669  1.00  0.00     0.041 C 
ATOM      4  O   UNL     1      32.177   3.090  48.917  1.00  0.00    -0.550 OA
ATOM      5  O   UNL     1      32.464   3.962  51.015  1.00  0.00    -0.550 OA
ENDBRANCH   2   3
ENDBRANCH   1   2
BRANCH   1   6
ATOM      6  C   UNL     1      31.942   5.888  46.619  1.00  0.00     0.000 C 
BRANCH   6   7
ATOM      7  C   UNL     1      31.961   7.423  46.605  1.00  0.00    -0.003 C 
ATOM      8  C   UNL     1      33.376   7.997  46.529  1.00  0.00     0.004 C 
ENDBRANCH   6   7
ENDBRANCH   1   6
TORSDOF 4
ENDMDL
MODEL 7
REMARK VINA RESULT:    -3.306      1.521      1.978
REMARK INTER + INTRA:          -4.281
REMARK INTER:                  -4.140
REMARK INTRA:                  -0.141
REMARK UNBOUND:                -0.202
REMARK SMILES CCCCCC(=O)[O-]
REMARK SMILES IDX 4 1 5 2 6 3 7 4 8 5 3 6 2 7 1 8
REMARK H PARENT
REMARK Flexibility Score: inf
ROOT
ATOM      1  C   UNL     1      31.649   5.725  48.662  1.00  0.00     0.006 C 
ENDROOT
BRANCH   1   2
ATOM      2  C   UNL     1      30.907   6.578  47.629  1.00  0.00     0.053 C 
BRANCH   2   3
ATOM      3  C   UNL     1      29.449   6.245  47.624  1.00  0.00     0.041 C 
ATOM      4  O   UNL     1      28.823   6.129  48.711  1.00  0.00    -0.550 OA
ATOM      5  O   UNL     1      28.770   6.112  46.421  1.00  0.00    -0.550 OA
ENDBRANCH   2   3
ENDBRANCH   1   2
BRANCH   1   6
ATOM      6  C   UNL     1      31.834   4.286  48.157  1.00  0.00     0.000 C 
BRANCH   6   7
ATOM      7  C   UNL     1      32.134   3.295  49.291  1.00  0.00    -0.003 C 
ATOM      8  C   UNL     1      32.367   3.987  50.635  1.00  0.00     0.004 C 
ENDBRANCH   6   7
ENDBRANCH   1   6
TORSDOF 4
ENDMDL
MODEL 8
REMARK VINA RESULT:    -3.172      9.473     10.983
REMARK INTER + INTRA:          -4.115
REMARK INTER:                  -3.861
REMARK INTRA:                  -0.254
REMARK UNBOUND:                -0.202
REMARK SMILES CCCCCC(=O)[O-]
REMARK SMILES IDX 4 1 5 2 6 3 7 4 8 5 3 6 2 7 1 8
REMARK H PARENT
REMARK Flexibility Score: inf
ROOT
ATOM      1  C   UNL     1      23.314   2.431  41.256  1.00  0.00     0.006 C 
ENDROOT
BRANCH   1   2
ATOM      2  C   UNL     1      24.604   3.069  41.780  1.00  0.00     0.053 C 
BRANCH   2   3
ATOM      3  C   UNL     1      25.235   3.919  40.724  1.00  0.00     0.041 C 
ATOM      4  O   UNL     1      25.161   5.174  40.791  1.00  0.00    -0.550 OA
ATOM      5  O   UNL     1      25.948   3.327  39.689  1.00  0.00    -0.550 OA
ENDBRANCH   2   3
ENDBRANCH   1   2
BRANCH   1   6
ATOM      6  C   UNL     1      23.543   0.961  40.875  1.00  0.00     0.000 C 
BRANCH   6   7
ATOM      7  C   UNL     1      23.512   0.732  39.357  1.00  0.00    -0.003 C 
ATOM      8  C   UNL     1      22.736   1.818  38.610  1.00  0.00     0.004 C 
ENDBRANCH   6   7
ENDBRANCH   1   6
TORSDOF 4
ENDMDL
MODEL 9
REMARK VINA RESULT:    -3.135      2.564      4.191
REMARK INTER + INTRA:          -4.070
REMARK INTER:                  -3.966
REMARK INTRA:                  -0.104
REMARK UNBOUND:                -0.202
REMARK SMILES CCCCCC(=O)[O-]
REMARK SMILES IDX 4 1 5 2 6 3 7 4 8 5 3 6 2 7 1 8
REMARK H PARENT
REMARK Flexibility Score: inf
ROOT
ATOM      1  C   UNL     1      30.692   5.366  48.550  1.00  0.00     0.006 C 
ENDROOT
BRANCH   1   2
ATOM      2  C   UNL     1      31.894   5.415  49.497  1.00  0.00     0.053 C 
BRANCH   2   3
ATOM      3  C   UNL     1      32.243   4.042  49.974  1.00  0.00     0.041 C 
ATOM      4  O   UNL     1      32.540   3.847  51.183  1.00  0.00    -0.550 OA
ATOM      5  O   UNL     1      32.194   2.967  49.096  1.00  0.00    -0.550 OA
ENDBRANCH   2   3
ENDBRANCH   1   2
BRANCH   1   6
ATOM      6  C   UNL     1      30.801   6.448  47.465  1.00  0.00     0.000 C 
BRANCH   6   7
ATOM      7  C   UNL     1      29.524   7.292  47.341  1.00  0.00    -0.003 C 
ATOM      8  C   UNL     1      28.350   6.706  48.126  1.00  0.00     0.004 C 
ENDBRANCH   6   7
ENDBRANCH   1   6
TORSDOF 4
ENDMDL
