MODEL 1
REMARK VINA RESULT:    -3.751      0.000      0.000
REMARK INTER + INTRA:          -4.677
REMARK INTER:                  -4.628
REMARK INTRA:                  -0.049
REMARK UNBOUND:                -0.049
REMARK SMILES CCCCCC(=O)[O-]
REMARK SMILES IDX 4 1 5 2 6 3 7 4 8 5 3 6 2 7 1 8
REMARK H PARENT
REMARK Flexibility Score: inf
ROOT
ATOM      1  C   UNL     1     -11.171  11.970   9.908  1.00  0.00     0.006 C 
ENDROOT
BRANCH   1   2
ATOM      2  C   UNL     1     -12.677  11.692   9.817  1.00  0.00     0.053 C 
BRANCH   2   3
ATOM      3  C   UNL     1     -12.932  10.221   9.720  1.00  0.00     0.041 C 
ATOM      4  O   UNL     1     -12.025   9.446   9.314  1.00  0.00    -0.550 OA
ATOM      5  O   UNL     1     -14.153   9.699  10.124  1.00  0.00    -0.550 OA
ENDBRANCH   2   3
ENDBRANCH   1   2
BRANCH   1   6
ATOM      6  C   UNL     1     -10.845  13.472   9.884  1.00  0.00     0.000 C 
BRANCH   6   7
ATOM      7  C   UNL     1      -9.355  13.757  10.124  1.00  0.00    -0.003 C 
ATOM      8  C   UNL     1      -8.824  14.777   9.122  1.00  0.00     0.004 C 
ENDBRANCH   6   7
ENDBRANCH   1   6
TORSDOF 4
ENDMDL
MODEL 2
REMARK VINA RESULT:    -3.674      2.927      3.903
REMARK INTER + INTRA:          -4.583
REMARK INTER:                  -4.500
REMARK INTRA:                  -0.082
REMARK UNBOUND:                -0.049
REMARK SMILES CCCCCC(=O)[O-]
REMARK SMILES IDX 4 1 5 2 6 3 7 4 8 5 3 6 2 7 1 8
REMARK H PARENT
REMARK Flexibility Score: inf
ROOT
ATOM      1  C   UNL     1     -12.981  13.607   8.958  1.00  0.00     0.006 C 
ENDROOT
BRANCH   1   2
ATOM      2  C   UNL     1     -11.941  13.570  10.086  1.00  0.00     0.053 C 
BRANCH   2   3
ATOM      3  C   UNL     1     -11.075  12.357   9.958  1.00  0.00     0.041 C 
ATOM      4  O   UNL     1      -9.821  12.465  10.017  1.00  0.00    -0.550 OA
ATOM      5  O   UNL     1     -11.652  11.101   9.822  1.00  0.00    -0.550 OA
ENDBRANCH   2   3
ENDBRANCH   1   2
BRANCH   1   6
ATOM      6  C   UNL     1     -12.935  14.917   8.155  1.00  0.00     0.000 C 
BRANCH   6   7
ATOM      7  C   UNL     1     -13.683  14.817   6.819  1.00  0.00    -0.003 C 
ATOM      8  C   UNL     1     -14.547  13.561   6.766  1.00  0.00     0.004 C 
ENDBRANCH   6   7
ENDBRANCH   1   6
TORSDOF 4
ENDMDL
MODEL 3
REMARK VINA RESULT:    -3.402     20.636     22.067
REMARK INTER + INTRA:          -4.247
REMARK INTER:                  -4.095
REMARK INTRA:                  -0.151
REMARK UNBOUND:                -0.049
REMARK SMILES CCCCCC(=O)[O-]
REMARK SMILES IDX 4 1 5 2 6 3 7 4 8 5 3 6 2 7 1 8
REMARK H PARENT
REMARK Flexibility Score: inf
ROOT
ATOM      1  C   UNL     1     -13.163  -4.429  -5.229  1.00  0.00     0.006 C 
ENDROOT
BRANCH   1   2
ATOM      2  C   UNL     1     -14.546  -4.724  -5.824  1.00  0.00     0.053 C 
BRANCH   2   3
ATOM      3  C   UNL     1     -15.193  -3.460  -6.294  1.00  0.00     0.041 C 
ATOM      4  O   UNL     1     -15.186  -2.434  -5.562  1.00  0.00    -0.550 OA
ATOM      5  O   UNL     1     -15.761  -3.398  -7.560  1.00  0.00    -0.550 OA
ENDBRANCH   2   3
ENDBRANCH   1   2
BRANCH   1   6
ATOM      6  C   UNL     1     -12.992  -5.009  -3.815  1.00  0.00     0.000 C 
BRANCH   6   7
ATOM      7  C   UNL     1     -13.974  -4.401  -2.804  1.00  0.00    -0.003 C 
ATOM      8  C   UNL     1     -13.604  -4.794  -1.377  1.00  0.00     0.004 C 
ENDBRANCH   6   7
ENDBRANCH   1   6
TORSDOF 4
ENDMDL
MODEL 4
REMARK VINA RESULT:    -3.141     14.713     15.356
REMARK INTER + INTRA:          -3.924
REMARK INTER:                  -3.849
REMARK INTRA:                  -0.076
REMARK UNBOUND:                -0.049
REMARK SMILES CCCCCC(=O)[O-]
REMARK SMILES IDX 4 1 5 2 6 3 7 4 8 5 3 6 2 7 1 8
REMARK H PARENT
REMARK Flexibility Score: inf
ROOT
ATOM      1  C   UNL     1       2.136   9.037   3.444  1.00  0.00     0.006 C 
ENDROOT
BRANCH   1   2
ATOM      2  C   UNL     1       2.904   8.674   4.722  1.00  0.00     0.053 C 
BRANCH   2   3
ATOM      3  C   UNL     1       2.098   7.739   5.568  1.00  0.00     0.041 C 
ATOM      4  O   UNL     1       0.875   7.961   5.768  1.00  0.00    -0.550 OA
ATOM      5  O   UNL     1       2.686   6.597   6.095  1.00  0.00    -0.550 OA
ENDBRANCH   2   3
ENDBRANCH   1   2
BRANCH   1   6
ATOM      6  C   UNL     1       2.830  10.141   2.631  1.00  0.00     0.000 C 
BRANCH   6   7
ATOM      7  C   UNL     1       3.125  11.395   3.466  1.00  0.00    -0.003 C 
ATOM      8  C   UNL     1       2.936  12.662   2.639  1.00  0.00     0.004 C 
ENDBRANCH   6   7
ENDBRANCH   1   6
TORSDOF 4
ENDMDL
MODEL 5
REMARK VINA RESULT:    -2.977      1.740      2.032
REMARK INTER + INTRA:          -3.723
REMARK INTER:                  -3.623
REMARK INTRA:                  -0.100
REMARK UNBOUND:                -0.049
REMARK SMILES CCCCCC(=O)[O-]
REMARK SMILES IDX 4 1 5 2 6 3 7 4 8 5 3 6 2 7 1 8
REMARK H PARENT
REMARK Flexibility Score: inf
ROOT
ATOM      1  C   UNL     1     -11.862  10.938   9.752  1.00  0.00     0.006 C 
ENDROOT
BRANCH   1   2
ATOM      2  C   UNL     1     -13.314  11.061   9.271  1.00  0.00     0.053 C 
BRANCH   2   3
ATOM      3  C   UNL     1     -13.904   9.706   9.040  1.00  0.00     0.041 C 
ATOM      4  O   UNL     1     -13.663   8.765   9.843  1.00  0.00    -0.550 OA
ATOM      5  O   UNL     1     -14.759   9.494   7.967  1.00  0.00    -0.550 OA
ENDBRANCH   2   3
ENDBRANCH   1   2
BRANCH   1   6
ATOM      6  C   UNL     1     -11.218  12.303  10.044  1.00  0.00     0.000 C 
BRANCH   6   7
ATOM      7  C   UNL     1     -12.249  13.438  10.125  1.00  0.00    -0.003 C 
ATOM      8  C   UNL     1     -12.001  14.483   9.042  1.00  0.00     0.004 C 
ENDBRANCH   6   7
ENDBRANCH   1   6
TORSDOF 4
ENDMDL
MODEL 6
REMARK VINA RESULT:    -2.967     18.537     19.083
REMARK INTER + INTRA:          -3.710
REMARK INTER:                  -3.648
REMARK INTRA:                  -0.062
REMARK UNBOUND:                -0.049
REMARK SMILES CCCCCC(=O)[O-]
REMARK SMILES IDX 4 1 5 2 6 3 7 4 8 5 3 6 2 7 1 8
REMARK H PARENT
REMARK Flexibility Score: inf
ROOT
ATOM      1  C   UNL     1     -15.765  10.918  -8.972  1.00  0.00     0.006 C 
ENDROOT
BRANCH   1   2
ATOM      2  C   UNL     1     -15.846   9.679  -9.874  1.00  0.00     0.053 C 
BRANCH   2   3
ATOM      3  C   UNL     1     -15.047   8.556  -9.291  1.00  0.00     0.041 C 
ATOM      4  O   UNL     1     -13.798   8.664  -9.168  1.00  0.00    -0.550 OA
ATOM      5  O   UNL     1     -15.687   7.410  -8.839  1.00  0.00    -0.550 OA
ENDBRANCH   2   3
ENDBRANCH   1   2
BRANCH   1   6
ATOM      6  C   UNL     1     -17.109  11.252  -8.304  1.00  0.00     0.000 C 
BRANCH   6   7
ATOM      7  C   UNL     1     -17.097  12.617  -7.603  1.00  0.00    -0.003 C 
ATOM      8  C   UNL     1     -16.803  12.466  -6.113  1.00  0.00     0.004 C 
ENDBRANCH   6   7
ENDBRANCH   1   6
TORSDOF 4
ENDMDL
MODEL 7
REMARK VINA RESULT:    -2.967     20.945     22.019
REMARK INTER + INTRA:          -3.710
REMARK INTER:                  -3.584
REMARK INTRA:                  -0.126
REMARK UNBOUND:                -0.049
REMARK SMILES CCCCCC(=O)[O-]
REMARK SMILES IDX 4 1 5 2 6 3 7 4 8 5 3 6 2 7 1 8
REMARK H PARENT
REMARK Flexibility Score: inf
ROOT
ATOM      1  C   UNL     1     -14.125  -3.915  -3.651  1.00  0.00     0.006 C 
ENDROOT
BRANCH   1   2
ATOM      2  C   UNL     1     -15.567  -4.342  -3.957  1.00  0.00     0.053 C 
BRANCH   2   3
ATOM      3  C   UNL     1     -16.238  -3.328  -4.829  1.00  0.00     0.041 C 
ATOM      4  O   UNL     1     -16.394  -3.553  -6.058  1.00  0.00    -0.550 OA
ATOM      5  O   UNL     1     -16.735  -2.155  -4.275  1.00  0.00    -0.550 OA
ENDBRANCH   2   3
ENDBRANCH   1   2
BRANCH   1   6
ATOM      6  C   UNL     1     -13.089  -4.934  -4.150  1.00  0.00     0.000 C 
BRANCH   6   7
ATOM      7  C   UNL     1     -13.025  -5.010  -5.682  1.00  0.00    -0.003 C 
ATOM      8  C   UNL     1     -11.583  -5.124  -6.166  1.00  0.00     0.004 C 
ENDBRANCH   6   7
ENDBRANCH   1   6
TORSDOF 4
ENDMDL
