MODEL 1
REMARK VINA RESULT:    -0.154      0.000      0.000
REMARK INTER + INTRA:          -0.635
REMARK INTER:                  -0.243
REMARK INTRA:                  -0.392
REMARK UNBOUND:                -0.392
REMARK SMILES CCCCCCCCCCCC(=O)[O-]
REMARK SMILES IDX 7 1 8 2 9 3 10 4 11 5 12 6 13 7 14 8 6 9 5 10 4 11 3 12 2 13
REMARK SMILES IDX 1 14
REMARK H PARENT
REMARK Flexibility Score: inf
ROOT
ATOM      1  C   UNL     1      -6.766  28.060 -17.570  1.00  0.00     0.000 C 
ENDROOT
BRANCH   1   2
ATOM      2  C   UNL     1      -7.862  28.969 -16.990  1.00  0.00     0.000 C 
BRANCH   2   3
ATOM      3  C   UNL     1      -7.746  29.141 -15.467  1.00  0.00     0.000 C 
BRANCH   3   4
ATOM      4  C   UNL     1      -8.858  30.049 -14.931  1.00  0.00     0.006 C 
BRANCH   4   5
ATOM      5  C   UNL     1      -9.543  30.812 -16.068  1.00  0.00     0.053 C 
BRANCH   5   6
ATOM      6  C   UNL     1      -9.104  32.242 -16.080  1.00  0.00     0.041 C 
ATOM      7  O   UNL     1      -8.686  32.785 -15.024  1.00  0.00    -0.550 OA
ATOM      8  O   UNL     1      -9.110  32.961 -17.269  1.00  0.00    -0.550 OA
ENDBRANCH   5   6
ENDBRANCH   4   5
ENDBRANCH   3   4
ENDBRANCH   2   3
ENDBRANCH   1   2
BRANCH   1   9
ATOM      9  C   UNL     1      -6.023  28.710 -18.748  1.00  0.00     0.000 C 
BRANCH   9  10
ATOM     10  C   UNL     1      -6.618  28.331 -20.117  1.00  0.00    -0.000 C 
BRANCH  10  11
ATOM     11  C   UNL     1      -5.993  29.048 -21.328  1.00  0.00    -0.000 C 
BRANCH  11  12
ATOM     12  C   UNL     1      -6.177  28.274 -22.644  1.00  0.00    -0.000 C 
BRANCH  12  13
ATOM     13  C   UNL     1      -4.875  27.614 -23.125  1.00  0.00    -0.003 C 
ATOM     14  C   UNL     1      -4.942  26.087 -23.103  1.00  0.00     0.004 C 
ENDBRANCH  12  13
ENDBRANCH  11  12
ENDBRANCH  10  11
ENDBRANCH   9  10
ENDBRANCH   1   9
TORSDOF 10
ENDMDL
MODEL 2
REMARK VINA RESULT:    -0.146      0.790      1.224
REMARK INTER + INTRA:          -0.623
REMARK INTER:                  -0.286
REMARK INTRA:                  -0.336
REMARK UNBOUND:                -0.392
REMARK SMILES CCCCCCCCCCCC(=O)[O-]
REMARK SMILES IDX 7 1 8 2 9 3 10 4 11 5 12 6 13 7 14 8 6 9 5 10 4 11 3 12 2 13
REMARK SMILES IDX 1 14
REMARK H PARENT
REMARK Flexibility Score: inf
ROOT
ATOM      1  C   UNL     1      -8.068  29.295 -18.639  1.00  0.00     0.000 C 
ENDROOT
BRANCH   1   2
ATOM      2  C   UNL     1      -8.819  29.302 -17.298  1.00  0.00     0.000 C 
BRANCH   2   3
ATOM      3  C   UNL     1      -7.889  29.087 -16.095  1.00  0.00     0.000 C 
BRANCH   3   4
ATOM      4  C   UNL     1      -8.348  29.917 -14.890  1.00  0.00     0.006 C 
BRANCH   4   5
ATOM      5  C   UNL     1      -9.530  30.817 -15.260  1.00  0.00     0.053 C 
BRANCH   5   6
ATOM      6  C   UNL     1      -9.053  32.188 -15.622  1.00  0.00     0.041 C 
ATOM      7  O   UNL     1      -9.016  32.548 -16.827  1.00  0.00    -0.550 OA
ATOM      8  O   UNL     1      -8.695  33.086 -14.623  1.00  0.00    -0.550 OA
ENDBRANCH   5   6
ENDBRANCH   4   5
ENDBRANCH   3   4
ENDBRANCH   2   3
ENDBRANCH   1   2
BRANCH   1   9
ATOM      9  C   UNL     1      -6.679  28.642 -18.533  1.00  0.00     0.000 C 
BRANCH   9  10
ATOM     10  C   UNL     1      -5.925  28.614 -19.876  1.00  0.00    -0.000 C 
BRANCH  10  11
ATOM     11  C   UNL     1      -6.675  27.938 -21.039  1.00  0.00    -0.000 C 
BRANCH  11  12
ATOM     12  C   UNL     1      -6.285  28.503 -22.414  1.00  0.00    -0.000 C 
BRANCH  12  13
ATOM     13  C   UNL     1      -4.926  27.979 -22.902  1.00  0.00    -0.003 C 
ATOM     14  C   UNL     1      -4.919  26.467 -23.124  1.00  0.00     0.004 C 
ENDBRANCH  12  13
ENDBRANCH  11  12
ENDBRANCH  10  11
ENDBRANCH   9  10
ENDBRANCH   1   9
TORSDOF 10
ENDMDL
MODEL 3
REMARK VINA RESULT:     0.660      0.579      1.039
REMARK INTER + INTRA:           0.653
REMARK INTER:                   1.166
REMARK INTRA:                  -0.513
REMARK UNBOUND:                -0.392
REMARK SMILES CCCCCCCCCCCC(=O)[O-]
REMARK SMILES IDX 7 1 8 2 9 3 10 4 11 5 12 6 13 7 14 8 6 9 5 10 4 11 3 12 2 13
REMARK SMILES IDX 1 14
REMARK H PARENT
REMARK Flexibility Score: inf
ROOT
ATOM      1  C   UNL     1      -6.598  27.857 -16.372  1.00  0.00     0.000 C 
ENDROOT
BRANCH   1   2
ATOM      2  C   UNL     1      -7.757  28.866 -16.311  1.00  0.00     0.000 C 
BRANCH   2   3
ATOM      3  C   UNL     1      -8.023  29.379 -14.888  1.00  0.00     0.000 C 
BRANCH   3   4
ATOM      4  C   UNL     1      -9.149  30.419 -14.881  1.00  0.00     0.006 C 
BRANCH   4   5
ATOM      5  C   UNL     1      -9.397  30.973 -16.287  1.00  0.00     0.053 C 
BRANCH   5   6
ATOM      6  C   UNL     1      -9.027  32.421 -16.353  1.00  0.00     0.041 C 
ATOM      7  O   UNL     1      -8.624  33.019 -15.321  1.00  0.00    -0.550 OA
ATOM      8  O   UNL     1      -9.079  33.097 -17.565  1.00  0.00    -0.550 OA
ENDBRANCH   5   6
ENDBRANCH   4   5
ENDBRANCH   3   4
ENDBRANCH   2   3
ENDBRANCH   1   2
BRANCH   1   9
ATOM      9  C   UNL     1      -5.948  27.789 -17.764  1.00  0.00     0.000 C 
BRANCH   9  10
ATOM     10  C   UNL     1      -6.664  28.669 -18.805  1.00  0.00    -0.000 C 
BRANCH  10  11
ATOM     11  C   UNL     1      -6.745  28.076 -20.225  1.00  0.00    -0.000 C 
BRANCH  11  12
ATOM     12  C   UNL     1      -5.942  28.883 -21.259  1.00  0.00    -0.000 C 
BRANCH  12  13
ATOM     13  C   UNL     1      -5.989  28.254 -22.660  1.00  0.00    -0.003 C 
ATOM     14  C   UNL     1      -4.876  27.233 -22.889  1.00  0.00     0.004 C 
ENDBRANCH  12  13
ENDBRANCH  11  12
ENDBRANCH  10  11
ENDBRANCH   9  10
ENDBRANCH   1   9
TORSDOF 10
ENDMDL
MODEL 4
REMARK VINA RESULT:     1.308      3.623      7.215
REMARK INTER + INTRA:           1.680
REMARK INTER:                   1.104
REMARK INTRA:                   0.576
REMARK UNBOUND:                -0.392
REMARK SMILES CCCCCCCCCCCC(=O)[O-]
REMARK SMILES IDX 7 1 8 2 9 3 10 4 11 5 12 6 13 7 14 8 6 9 5 10 4 11 3 12 2 13
REMARK SMILES IDX 1 14
REMARK H PARENT
REMARK Flexibility Score: inf
ROOT
ATOM      1  C   UNL     1      -8.532  29.455 -17.598  1.00  0.00     0.000 C 
ENDROOT
BRANCH   1   2
ATOM      2  C   UNL     1      -7.887  29.053 -18.934  1.00  0.00     0.000 C 
BRANCH   2   3
ATOM      3  C   UNL     1      -6.454  28.526 -18.767  1.00  0.00     0.000 C 
BRANCH   3   4
ATOM      4  C   UNL     1      -5.961  27.857 -20.055  1.00  0.00     0.006 C 
BRANCH   4   5
ATOM      5  C   UNL     1      -6.251  28.732 -21.277  1.00  0.00     0.053 C 
BRANCH   5   6
ATOM      6  C   UNL     1      -5.999  27.970 -22.540  1.00  0.00     0.041 C 
ATOM      7  O   UNL     1      -4.875  28.030 -23.102  1.00  0.00    -0.550 OA
ATOM      8  O   UNL     1      -6.992  27.154 -23.069  1.00  0.00    -0.550 OA
ENDBRANCH   5   6
ENDBRANCH   4   5
ENDBRANCH   3   4
ENDBRANCH   2   3
ENDBRANCH   1   2
BRANCH   1   9
ATOM      9  C   UNL     1      -7.661  29.082 -16.387  1.00  0.00     0.000 C 
BRANCH   9  10
ATOM     10  C   UNL     1      -8.158  29.714 -15.073  1.00  0.00    -0.000 C 
BRANCH  10  11
ATOM     11  C   UNL     1      -9.439  30.561 -15.192  1.00  0.00    -0.000 C 
BRANCH  11  12
ATOM     12  C   UNL     1      -9.386  31.568 -16.354  1.00  0.00    -0.000 C 
BRANCH  12  13
ATOM     13  C   UNL     1      -8.653  32.864 -15.975  1.00  0.00    -0.003 C 
ATOM     14  C   UNL     1      -8.642  33.121 -14.469  1.00  0.00     0.004 C 
ENDBRANCH  12  13
ENDBRANCH  11  12
ENDBRANCH  10  11
ENDBRANCH   9  10
ENDBRANCH   1   9
TORSDOF 10
ENDMDL
MODEL 5
REMARK VINA RESULT:     1.623      1.765      2.245
REMARK INTER + INTRA:           2.179
REMARK INTER:                   2.305
REMARK INTRA:                  -0.126
REMARK UNBOUND:                -0.392
REMARK SMILES CCCCCCCCCCCC(=O)[O-]
REMARK SMILES IDX 7 1 8 2 9 3 10 4 11 5 12 6 13 7 14 8 6 9 5 10 4 11 3 12 2 13
REMARK SMILES IDX 1 14
REMARK H PARENT
REMARK Flexibility Score: inf
ROOT
ATOM      1  C   UNL     1      -8.317  29.364 -19.107  1.00  0.00     0.000 C 
ENDROOT
BRANCH   1   2
ATOM      2  C   UNL     1      -9.177  29.785 -17.904  1.00  0.00     0.000 C 
BRANCH   2   3
ATOM      3  C   UNL     1      -9.166  31.303 -17.669  1.00  0.00     0.000 C 
BRANCH   3   4
ATOM      4  C   UNL     1      -9.014  31.627 -16.178  1.00  0.00     0.006 C 
BRANCH   4   5
ATOM      5  C   UNL     1      -9.560  30.491 -15.309  1.00  0.00     0.053 C 
BRANCH   5   6
ATOM      6  C   UNL     1      -8.440  29.744 -14.657  1.00  0.00     0.041 C 
ATOM      7  O   UNL     1      -8.243  29.851 -13.419  1.00  0.00    -0.550 OA
ATOM      8  O   UNL     1      -7.643  28.890 -15.410  1.00  0.00    -0.550 OA
ENDBRANCH   5   6
ENDBRANCH   4   5
ENDBRANCH   3   4
ENDBRANCH   2   3
ENDBRANCH   1   2
BRANCH   1   9
ATOM      9  C   UNL     1      -7.041  28.615 -18.686  1.00  0.00     0.000 C 
BRANCH   9  10
ATOM     10  C   UNL     1      -6.004  28.510 -19.820  1.00  0.00    -0.000 C 
BRANCH  10  11
ATOM     11  C   UNL     1      -6.419  29.161 -21.153  1.00  0.00    -0.000 C 
BRANCH  11  12
ATOM     12  C   UNL     1      -6.535  28.149 -22.304  1.00  0.00    -0.000 C 
BRANCH  12  13
ATOM     13  C   UNL     1      -5.180  27.853 -22.966  1.00  0.00    -0.003 C 
ATOM     14  C   UNL     1      -4.892  26.357 -23.086  1.00  0.00     0.004 C 
ENDBRANCH  12  13
ENDBRANCH  11  12
ENDBRANCH  10  11
ENDBRANCH   9  10
ENDBRANCH   1   9
TORSDOF 10
ENDMDL
