MODEL 1
REMARK VINA RESULT:    -3.689      0.000      0.000
REMARK INTER + INTRA:          -4.850
REMARK INTER:                  -5.199
REMARK INTRA:                   0.349
REMARK UNBOUND:                 0.349
REMARK SMILES CC1=CCC(=C(C)C)C(=O)CC(C)=CCC1
REMARK SMILES IDX 12 1 14 2 13 3 15 4 16 5 2 6 1 7 3 8 11 10 9 11 10 12 5 13
REMARK SMILES IDX 6 14 7 15 8 16 4 17
REMARK H PARENT
REMARK Flexibility Score: 60.00
ROOT
ATOM      1  C   UNL     1       3.816  22.004   6.508  1.00  0.00    -0.070 C 
ATOM      2  C   UNL     1       3.391  23.268   6.739  1.00  0.00    -0.027 C 
ATOM      3  C   UNL     1       3.479  20.945   7.528  1.00  0.00     0.039 C 
ENDROOT
BRANCH   2   4
ATOM      4  C   UNL     1       3.585  24.436   5.799  1.00  0.00     0.032 C 
BRANCH   4   5
ATOM      5  C   UNL     1       2.540  24.435   4.673  1.00  0.00     0.034 C 
BRANCH   5   6
ATOM      6  C   UNL     1       3.104  24.851   3.322  1.00  0.00    -0.077 C 
ATOM      7  C   UNL     1       3.557  26.276   3.131  1.00  0.00     0.039 C 
ATOM      8  C   UNL     1       3.240  24.001   2.278  1.00  0.00    -0.023 CG0
ATOM      9  G   UNL     1       2.780  22.561   2.256  1.00  0.00     0.000 G0
ENDBRANCH   5   6
ENDBRANCH   4   5
ENDBRANCH   2   4
BRANCH   1  10
ATOM     10  C   UNL     1       4.612  21.611   5.280  1.00  0.00     0.111 C 
BRANCH  10  11
ATOM     11  C   UNL     1       3.712  21.084   4.197  1.00  0.00     0.163 C 
ATOM     12  O   UNL     1       2.828  20.236   4.488  1.00  0.00    -0.294 OA
BRANCH  11  13
ATOM     13  C   UNL     1       3.830  21.561   2.795  1.00  0.00    -0.002 C 
ATOM     14  C   UNL     1       4.851  21.126   2.006  1.00  0.00    -0.069 C 
ATOM     15  C   UNL     1       5.018  21.639   0.594  1.00  0.00     0.039 C 
ATOM     16  C   UNL     1       5.830  20.082   2.497  1.00  0.00     0.039 C 
BRANCH  13  17
ATOM     17  C   UNL     1       2.795  22.540   2.253  1.00  0.00     0.066 CG0
ATOM     18  G   UNL     1       3.246  23.983   2.290  1.00  0.00     0.000 G0
ENDBRANCH  13  17
ENDBRANCH  11  13
ENDBRANCH  10  11
ENDBRANCH   1  10
TORSDOF 0
ENDMDL
MODEL 2
REMARK VINA RESULT:    -3.562      1.672      3.525
REMARK INTER + INTRA:          -4.670
REMARK INTER:                  -5.000
REMARK INTRA:                   0.330
REMARK UNBOUND:                 0.349
REMARK SMILES CC1=CCC(=C(C)C)C(=O)CC(C)=CCC1
REMARK SMILES IDX 12 1 14 2 13 3 15 4 16 5 2 6 1 7 3 8 11 10 9 11 10 12 5 13
REMARK SMILES IDX 6 14 7 15 8 16 4 17
REMARK H PARENT
REMARK Flexibility Score: 60.00
ROOT
ATOM      1  C   UNL     1       2.882  24.021   5.819  1.00  0.00    -0.070 C 
ATOM      2  C   UNL     1       3.391  23.005   6.553  1.00  0.00    -0.027 C 
ATOM      3  C   UNL     1       1.666  24.738   6.348  1.00  0.00     0.039 C 
ENDROOT
BRANCH   2   4
ATOM      4  C   UNL     1       4.635  22.219   6.207  1.00  0.00     0.032 C 
BRANCH   4   5
ATOM      5  C   UNL     1       4.295  20.921   5.458  1.00  0.00     0.034 C 
BRANCH   5   6
ATOM      6  C   UNL     1       5.109  20.723   4.188  1.00  0.00    -0.077 C 
ATOM      7  C   UNL     1       6.524  20.214   4.304  1.00  0.00     0.039 C 
ATOM      8  C   UNL     1       4.624  20.960   2.948  1.00  0.00    -0.023 CG0
ATOM      9  G   UNL     1       3.262  21.536   2.636  1.00  0.00     0.000 G0
ENDBRANCH   5   6
ENDBRANCH   4   5
ENDBRANCH   2   4
BRANCH   1  10
ATOM     10  C   UNL     1       3.476  24.463   4.496  1.00  0.00     0.111 C 
BRANCH  10  11
ATOM     11  C   UNL     1       2.667  23.944   3.340  1.00  0.00     0.163 C 
ATOM     12  O   UNL     1       1.470  24.314   3.208  1.00  0.00    -0.294 OA
BRANCH  11  13
ATOM     13  C   UNL     1       3.258  23.022   2.336  1.00  0.00    -0.002 C 
ATOM     14  C   UNL     1       3.793  23.514   1.184  1.00  0.00    -0.069 C 
ATOM     15  C   UNL     1       4.352  22.590   0.127  1.00  0.00     0.039 C 
ATOM     16  C   UNL     1       3.887  25.004   0.939  1.00  0.00     0.039 C 
BRANCH  13  17
ATOM     17  C   UNL     1       3.258  21.523   2.612  1.00  0.00     0.066 CG0
ATOM     18  G   UNL     1       4.622  20.968   2.956  1.00  0.00     0.000 G0
ENDBRANCH  13  17
ENDBRANCH  11  13
ENDBRANCH  10  11
ENDBRANCH   1  10
TORSDOF 0
ENDMDL
MODEL 3
REMARK VINA RESULT:    -3.470      1.432      2.221
REMARK INTER + INTRA:          -4.541
REMARK INTER:                  -5.101
REMARK INTRA:                   0.560
REMARK UNBOUND:                 0.349
REMARK SMILES CC1=CCC(=C(C)C)C(=O)CC(C)=CCC1
REMARK SMILES IDX 12 1 14 2 13 3 15 4 16 5 2 6 1 7 3 8 11 10 9 11 10 12 5 13
REMARK SMILES IDX 6 14 7 15 8 16 4 17
REMARK H PARENT
REMARK Flexibility Score: 60.00
ROOT
ATOM      1  C   UNL     1       3.770  20.542   6.309  1.00  0.00    -0.070 C 
ATOM      2  C   UNL     1       3.889  21.648   7.079  1.00  0.00    -0.027 C 
ATOM      3  C   UNL     1       3.092  19.333   6.903  1.00  0.00     0.039 C 
ENDROOT
BRANCH   2   4
ATOM      4  C   UNL     1       4.483  22.963   6.629  1.00  0.00     0.032 C 
BRANCH   4   5
ATOM      5  C   UNL     1       3.414  24.062   6.529  1.00  0.00     0.034 C 
BRANCH   5   6
ATOM      6  C   UNL     1       2.084  23.568   5.979  1.00  0.00    -0.077 C 
ATOM      7  C   UNL     1       0.943  23.335   6.936  1.00  0.00     0.039 C 
ATOM      8  C   UNL     1       1.860  23.340   4.664  1.00  0.00    -0.023 CG0
ATOM      9  G   UNL     1       2.895  23.448   3.568  1.00  0.00     0.000 G0
ENDBRANCH   5   6
ENDBRANCH   4   5
ENDBRANCH   2   4
BRANCH   1  10
ATOM     10  C   UNL     1       4.289  20.466   4.886  1.00  0.00     0.111 C 
BRANCH  10  11
ATOM     11  C   UNL     1       3.234  20.887   3.902  1.00  0.00     0.163 C 
ATOM     12  O   UNL     1       2.171  20.215   3.811  1.00  0.00    -0.294 OA
BRANCH  11  13
ATOM     13  C   UNL     1       3.408  22.092   3.051  1.00  0.00    -0.002 C 
ATOM     14  C   UNL     1       4.020  21.993   1.839  1.00  0.00    -0.069 C 
ATOM     15  C   UNL     1       4.254  23.215   0.982  1.00  0.00     0.039 C 
ATOM     16  C   UNL     1       4.452  20.652   1.287  1.00  0.00     0.039 C 
BRANCH  13  17
ATOM     17  C   UNL     1       2.892  23.436   3.551  1.00  0.00     0.066 CG0
ATOM     18  G   UNL     1       1.876  23.321   4.665  1.00  0.00     0.000 G0
ENDBRANCH  13  17
ENDBRANCH  11  13
ENDBRANCH  10  11
ENDBRANCH   1  10
TORSDOF 0
ENDMDL
MODEL 4
REMARK VINA RESULT:    -3.403      1.406      3.890
REMARK INTER + INTRA:          -4.446
REMARK INTER:                  -5.115
REMARK INTRA:                   0.668
REMARK UNBOUND:                 0.349
REMARK SMILES CC1=CCC(=C(C)C)C(=O)CC(C)=CCC1
REMARK SMILES IDX 12 1 14 2 13 3 15 4 16 5 2 6 1 7 3 8 11 10 9 11 10 12 5 13
REMARK SMILES IDX 6 14 7 15 8 16 4 17
REMARK H PARENT
REMARK Flexibility Score: 60.00
ROOT
ATOM      1  C   UNL     1       4.552  21.195   5.747  1.00  0.00    -0.070 C 
ATOM      2  C   UNL     1       5.730  21.102   5.087  1.00  0.00    -0.027 C 
ATOM      3  C   UNL     1       4.398  22.292   6.771  1.00  0.00     0.039 C 
ENDROOT
BRANCH   2   4
ATOM      4  C   UNL     1       6.036  20.108   3.991  1.00  0.00     0.032 C 
BRANCH   4   5
ATOM      5  C   UNL     1       6.126  20.790   2.617  1.00  0.00     0.034 C 
BRANCH   5   6
ATOM      6  C   UNL     1       4.923  20.519   1.725  1.00  0.00    -0.077 C 
ATOM      7  C   UNL     1       5.000  19.397   0.721  1.00  0.00     0.039 C 
ATOM      8  C   UNL     1       3.769  21.223   1.796  1.00  0.00    -0.023 CG0
ATOM      9  G   UNL     1       3.529  22.422   2.685  1.00  0.00     0.000 G0
ENDBRANCH   5   6
ENDBRANCH   4   5
ENDBRANCH   2   4
BRANCH   1  10
ATOM     10  C   UNL     1       3.392  20.250   5.505  1.00  0.00     0.111 C 
BRANCH  10  11
ATOM     11  C   UNL     1       2.511  20.747   4.393  1.00  0.00     0.163 C 
ATOM     12  O   UNL     1       1.650  19.974   3.894  1.00  0.00    -0.294 OA
BRANCH  11  13
ATOM     13  C   UNL     1       2.618  22.140   3.887  1.00  0.00    -0.002 C 
ATOM     14  C   UNL     1       1.922  23.144   4.488  1.00  0.00    -0.069 C 
ATOM     15  C   UNL     1       1.977  24.557   3.956  1.00  0.00     0.039 C 
ATOM     16  C   UNL     1       1.102  22.891   5.734  1.00  0.00     0.039 C 
BRANCH  13  17
ATOM     17  C   UNL     1       3.517  22.429   2.690  1.00  0.00     0.066 CG0
ATOM     18  G   UNL     1       3.769  21.223   1.814  1.00  0.00     0.000 G0
ENDBRANCH  13  17
ENDBRANCH  11  13
ENDBRANCH  10  11
ENDBRANCH   1  10
TORSDOF 0
ENDMDL
MODEL 5
REMARK VINA RESULT:    -3.331      1.615      4.146
REMARK INTER + INTRA:          -4.345
REMARK INTER:                  -4.736
REMARK INTRA:                   0.391
REMARK UNBOUND:                 0.349
REMARK SMILES CC1=CCC(=C(C)C)C(=O)CC(C)=CCC1
REMARK SMILES IDX 12 1 14 2 13 3 15 4 16 5 2 6 1 7 3 8 11 10 9 11 10 12 5 13
REMARK SMILES IDX 6 14 7 15 8 16 4 17
REMARK H PARENT
REMARK Flexibility Score: 60.00
ROOT
ATOM      1  C   UNL     1       5.175  20.651   3.364  1.00  0.00    -0.070 C 
ATOM      2  C   UNL     1       5.047  21.024   2.070  1.00  0.00    -0.027 C 
ATOM      3  C   UNL     1       6.535  20.212   3.844  1.00  0.00     0.039 C 
ENDROOT
BRANCH   2   4
ATOM      4  C   UNL     1       3.778  21.547   1.436  1.00  0.00     0.032 C 
BRANCH   4   5
ATOM      5  C   UNL     1       3.491  22.996   1.859  1.00  0.00     0.034 C 
BRANCH   5   6
ATOM      6  C   UNL     1       2.058  23.221   2.317  1.00  0.00    -0.077 C 
ATOM      7  C   UNL     1       0.940  23.051   1.321  1.00  0.00     0.039 C 
ATOM      8  C   UNL     1       1.725  23.551   3.587  1.00  0.00    -0.023 CG0
ATOM      9  G   UNL     1       2.704  23.833   4.704  1.00  0.00     0.000 G0
ENDBRANCH   5   6
ENDBRANCH   4   5
ENDBRANCH   2   4
BRANCH   1  10
ATOM     10  C   UNL     1       4.017  20.653   4.342  1.00  0.00     0.111 C 
BRANCH  10  11
ATOM     11  C   UNL     1       4.145  21.778   5.331  1.00  0.00     0.163 C 
ATOM     12  O   UNL     1       5.251  21.975   5.902  1.00  0.00    -0.294 OA
BRANCH  11  13
ATOM     13  C   UNL     1       3.001  22.676   5.631  1.00  0.00    -0.002 C 
ATOM     14  C   UNL     1       2.217  22.448   6.721  1.00  0.00    -0.069 C 
ATOM     15  C   UNL     1       1.017  23.319   7.013  1.00  0.00     0.039 C 
ATOM     16  C   UNL     1       2.540  21.342   7.700  1.00  0.00     0.039 C 
BRANCH  13  17
ATOM     17  C   UNL     1       2.719  23.855   4.706  1.00  0.00     0.066 CG0
ATOM     18  G   UNL     1       1.744  23.535   3.596  1.00  0.00     0.000 G0
ENDBRANCH  13  17
ENDBRANCH  11  13
ENDBRANCH  10  11
ENDBRANCH   1  10
TORSDOF 0
ENDMDL
MODEL 6
REMARK VINA RESULT:    -3.307      1.614      4.089
REMARK INTER + INTRA:          -4.311
REMARK INTER:                  -4.843
REMARK INTRA:                   0.532
REMARK UNBOUND:                 0.349
REMARK SMILES CC1=CCC(=C(C)C)C(=O)CC(C)=CCC1
REMARK SMILES IDX 12 1 14 2 13 3 15 4 16 5 2 6 1 7 3 8 11 10 9 11 10 12 5 13
REMARK SMILES IDX 6 14 7 15 8 16 4 17
REMARK H PARENT
REMARK Flexibility Score: 60.00
ROOT
ATOM      1  C   UNL     1       3.913  21.113   6.604  1.00  0.00    -0.070 C 
ATOM      2  C   UNL     1       4.290  20.451   5.486  1.00  0.00    -0.027 C 
ATOM      3  C   UNL     1       3.242  20.327   7.702  1.00  0.00     0.039 C 
ENDROOT
BRANCH   2   4
ATOM      4  C   UNL     1       5.026  21.064   4.317  1.00  0.00     0.032 C 
BRANCH   4   5
ATOM      5  C   UNL     1       4.184  21.023   3.032  1.00  0.00     0.034 C 
BRANCH   5   6
ATOM      6  C   UNL     1       2.701  21.267   3.271  1.00  0.00    -0.077 C 
ATOM      7  C   UNL     1       1.741  20.114   3.119  1.00  0.00     0.039 C 
ATOM      8  C   UNL     1       2.192  22.467   3.633  1.00  0.00    -0.023 CG0
ATOM      9  G   UNL     1       2.982  23.749   3.766  1.00  0.00     0.000 G0
ENDBRANCH   5   6
ENDBRANCH   4   5
ENDBRANCH   2   4
BRANCH   1  10
ATOM     10  C   UNL     1       4.133  22.601   6.796  1.00  0.00     0.111 C 
BRANCH  10  11
ATOM     11  C   UNL     1       2.935  23.388   6.343  1.00  0.00     0.163 C 
ATOM     12  O   UNL     1       1.846  23.268   6.965  1.00  0.00    -0.294 OA
BRANCH  11  13
ATOM     13  C   UNL     1       3.016  24.322   5.191  1.00  0.00    -0.002 C 
ATOM     14  C   UNL     1       3.109  25.664   5.401  1.00  0.00    -0.069 C 
ATOM     15  C   UNL     1       3.139  26.634   4.243  1.00  0.00     0.039 C 
ATOM     16  C   UNL     1       3.228  26.231   6.799  1.00  0.00     0.039 C 
BRANCH  13  17
ATOM     17  C   UNL     1       2.994  23.759   3.774  1.00  0.00     0.066 CG0
ATOM     18  G   UNL     1       2.198  22.482   3.640  1.00  0.00     0.000 G0
ENDBRANCH  13  17
ENDBRANCH  11  13
ENDBRANCH  10  11
ENDBRANCH   1  10
TORSDOF 0
ENDMDL
MODEL 7
REMARK VINA RESULT:    -3.231      1.974      3.952
REMARK INTER + INTRA:          -4.204
REMARK INTER:                  -4.796
REMARK INTRA:                   0.592
REMARK UNBOUND:                 0.349
REMARK SMILES CC1=CCC(=C(C)C)C(=O)CC(C)=CCC1
REMARK SMILES IDX 12 1 14 2 13 3 15 4 16 5 2 6 1 7 3 8 11 10 9 11 10 12 5 13
REMARK SMILES IDX 6 14 7 15 8 16 4 17
REMARK H PARENT
REMARK Flexibility Score: 60.00
ROOT
ATOM      1  C   UNL     1       5.787  20.202   4.027  1.00  0.00    -0.070 C 
ATOM      2  C   UNL     1       5.630  20.173   2.683  1.00  0.00    -0.027 C 
ATOM      3  C   UNL     1       6.145  18.915   4.727  1.00  0.00     0.039 C 
ENDROOT
BRANCH   2   4
ATOM      4  C   UNL     1       5.333  21.375   1.816  1.00  0.00     0.032 C 
BRANCH   4   5
ATOM      5  C   UNL     1       3.953  21.264   1.149  1.00  0.00     0.034 C 
BRANCH   5   6
ATOM      6  C   UNL     1       2.891  22.136   1.802  1.00  0.00    -0.077 C 
ATOM      7  C   UNL     1       2.588  23.486   1.203  1.00  0.00     0.039 C 
ATOM      8  C   UNL     1       2.182  21.757   2.891  1.00  0.00    -0.023 CG0
ATOM      9  G   UNL     1       2.391  20.478   3.670  1.00  0.00     0.000 G0
ENDBRANCH   5   6
ENDBRANCH   4   5
ENDBRANCH   2   4
BRANCH   1  10
ATOM     10  C   UNL     1       5.614  21.462   4.852  1.00  0.00     0.111 C 
BRANCH  10  11
ATOM     11  C   UNL     1       4.160  21.755   5.094  1.00  0.00     0.163 C 
ATOM     12  O   UNL     1       3.803  22.933   5.363  1.00  0.00    -0.294 OA
BRANCH  11  13
ATOM     13  C   UNL     1       3.130  20.688   4.999  1.00  0.00    -0.002 C 
ATOM     14  C   UNL     1       2.849  19.908   6.079  1.00  0.00    -0.069 C 
ATOM     15  C   UNL     1       1.844  18.784   5.988  1.00  0.00     0.039 C 
ATOM     16  C   UNL     1       3.500  20.164   7.420  1.00  0.00     0.039 C 
BRANCH  13  17
ATOM     17  C   UNL     1       2.395  20.479   3.680  1.00  0.00     0.066 CG0
ATOM     18  G   UNL     1       2.179  21.754   2.896  1.00  0.00     0.000 G0
ENDBRANCH  13  17
ENDBRANCH  11  13
ENDBRANCH  10  11
ENDBRANCH   1  10
TORSDOF 0
ENDMDL
MODEL 8
REMARK VINA RESULT:    -3.036      2.759      5.157
REMARK INTER + INTRA:          -3.929
REMARK INTER:                  -4.462
REMARK INTRA:                   0.533
REMARK UNBOUND:                 0.349
REMARK SMILES CC1=CCC(=C(C)C)C(=O)CC(C)=CCC1
REMARK SMILES IDX 12 1 14 2 13 3 15 4 16 5 2 6 1 7 3 8 11 10 9 11 10 12 5 13
REMARK SMILES IDX 6 14 7 15 8 16 4 17
REMARK H PARENT
REMARK Flexibility Score: 60.00
ROOT
ATOM      1  C   UNL     1       4.881  21.074   5.512  1.00  0.00    -0.070 C 
ATOM      2  C   UNL     1       4.290  19.951   5.982  1.00  0.00    -0.027 C 
ATOM      3  C   UNL     1       5.814  20.944   4.335  1.00  0.00     0.039 C 
ENDROOT
BRANCH   2   4
ATOM      4  C   UNL     1       3.284  19.905   7.110  1.00  0.00     0.032 C 
BRANCH   4   5
ATOM      5  C   UNL     1       1.942  19.316   6.648  1.00  0.00     0.034 C 
BRANCH   5   6
ATOM      6  C   UNL     1       1.326  20.060   5.473  1.00  0.00    -0.077 C 
ATOM      7  C   UNL     1       1.077  19.312   4.188  1.00  0.00     0.039 C 
ATOM      8  C   UNL     1       0.966  21.364   5.523  1.00  0.00    -0.023 CG0
ATOM      9  G   UNL     1       1.199  22.292   6.693  1.00  0.00     0.000 G0
ENDBRANCH   5   6
ENDBRANCH   4   5
ENDBRANCH   2   4
BRANCH   1  10
ATOM     10  C   UNL     1       4.650  22.445   6.117  1.00  0.00     0.111 C 
BRANCH  10  11
ATOM     11  C   UNL     1       3.405  23.079   5.562  1.00  0.00     0.163 C 
ATOM     12  O   UNL     1       3.342  23.342   4.331  1.00  0.00    -0.294 OA
BRANCH  11  13
ATOM     13  C   UNL     1       2.238  23.379   6.431  1.00  0.00    -0.002 C 
ATOM     14  C   UNL     1       2.091  24.618   6.977  1.00  0.00    -0.069 C 
ATOM     15  C   UNL     1       0.940  24.928   7.906  1.00  0.00     0.039 C 
ATOM     16  C   UNL     1       3.049  25.740   6.643  1.00  0.00     0.039 C 
BRANCH  13  17
ATOM     17  C   UNL     1       1.211  22.286   6.701  1.00  0.00     0.066 CG0
ATOM     18  G   UNL     1       0.962  21.379   5.517  1.00  0.00     0.000 G0
ENDBRANCH  13  17
ENDBRANCH  11  13
ENDBRANCH  10  11
ENDBRANCH   1  10
TORSDOF 0
ENDMDL
MODEL 9
REMARK VINA RESULT:    -2.941      1.662      3.626
REMARK INTER + INTRA:          -3.796
REMARK INTER:                  -4.352
REMARK INTRA:                   0.556
REMARK UNBOUND:                 0.349
REMARK SMILES CC1=CCC(=C(C)C)C(=O)CC(C)=CCC1
REMARK SMILES IDX 12 1 14 2 13 3 15 4 16 5 2 6 1 7 3 8 11 10 9 11 10 12 5 13
REMARK SMILES IDX 6 14 7 15 8 16 4 17
REMARK H PARENT
REMARK Flexibility Score: 60.00
ROOT
ATOM      1  C   UNL     1       4.709  20.970   4.165  1.00  0.00    -0.070 C 
ATOM      2  C   UNL     1       4.907  21.159   5.490  1.00  0.00    -0.027 C 
ATOM      3  C   UNL     1       5.871  20.480   3.337  1.00  0.00     0.039 C 
ENDROOT
BRANCH   2   4
ATOM      4  C   UNL     1       3.844  21.586   6.476  1.00  0.00     0.032 C 
BRANCH   4   5
ATOM      5  C   UNL     1       3.820  23.111   6.659  1.00  0.00     0.034 C 
BRANCH   5   6
ATOM      6  C   UNL     1       2.491  23.747   6.280  1.00  0.00    -0.077 C 
ATOM      7  C   UNL     1       1.355  23.705   7.270  1.00  0.00     0.039 C 
ATOM      8  C   UNL     1       2.274  24.371   5.099  1.00  0.00    -0.023 CG0
ATOM      9  G   UNL     1       3.261  24.454   3.957  1.00  0.00     0.000 G0
ENDBRANCH   5   6
ENDBRANCH   4   5
ENDBRANCH   2   4
BRANCH   1  10
ATOM     10  C   UNL     1       3.381  21.230   3.482  1.00  0.00     0.111 C 
BRANCH  10  11
ATOM     11  C   UNL     1       3.496  22.344   2.480  1.00  0.00     0.163 C 
ATOM     12  O   UNL     1       4.121  22.145   1.404  1.00  0.00    -0.294 OA
BRANCH  11  13
ATOM     13  C   UNL     1       2.868  23.669   2.722  1.00  0.00    -0.002 C 
ATOM     14  C   UNL     1       1.947  24.161   1.847  1.00  0.00    -0.069 C 
ATOM     15  C   UNL     1       1.336  25.528   2.047  1.00  0.00     0.039 C 
ATOM     16  C   UNL     1       1.470  23.341   0.669  1.00  0.00     0.039 C 
BRANCH  13  17
ATOM     17  C   UNL     1       3.267  24.467   3.957  1.00  0.00     0.066 CG0
ATOM     18  G   UNL     1       2.271  24.371   5.090  1.00  0.00     0.000 G0
ENDBRANCH  13  17
ENDBRANCH  11  13
ENDBRANCH  10  11
ENDBRANCH   1  10
TORSDOF 0
ENDMDL
