MODEL 1
REMARK VINA RESULT:    -7.371      0.000      0.000
REMARK INTER + INTRA:          -9.010
REMARK INTER:                  -8.879
REMARK INTRA:                  -0.131
REMARK UNBOUND:                -0.131
REMARK SMILES O=c1c(O)c(-c2ccc(O)c(O)c2)oc2cc(O)cc(O)c12
REMARK SMILES IDX 5 1 3 2 2 3 1 4 22 5 20 6 19 7 17 8 16 9 15 10 14 11 6 12
REMARK SMILES IDX 7 13 8 14 9 15 13 16 11 17 10 18 12 20 4 22 21 24 18 26
REMARK H PARENT 10 19 12 21 4 23 21 25 18 27
REMARK Flexibility Score: inf
ROOT
ATOM      1  C   UNL     1      41.273  49.010 134.984  1.00  0.00     0.180 A 
ATOM      2  C   UNL     1      42.241  48.202 135.604  1.00  0.00     0.208 A 
ATOM      3  C   UNL     1      43.412  48.800 136.097  1.00  0.00     0.238 A 
ATOM      4  O   UNL     1      44.251  48.080 136.699  1.00  0.00    -0.285 OA
ATOM      5  C   UNL     1      43.606  50.195 135.950  1.00  0.00     0.111 A 
ATOM      6  C   UNL     1      44.772  50.899 136.376  1.00  0.00     0.134 A 
ATOM      7  C   UNL     1      44.801  52.298 136.298  1.00  0.00     0.093 A 
ATOM      8  C   UNL     1      43.735  53.010 135.750  1.00  0.00     0.123 A 
ATOM      9  C   UNL     1      42.615  52.327 135.276  1.00  0.00     0.094 A 
ATOM     10  C   UNL     1      42.542  50.935 135.373  1.00  0.00     0.146 A 
ATOM     11  O   UNL     1      41.454  50.323 134.920  1.00  0.00    -0.452 OA
ENDROOT
BRANCH   1  12
ATOM     12  C   UNL     1      40.024  48.448 134.417  1.00  0.00     0.025 A 
ATOM     13  C   UNL     1      40.054  47.471 133.407  1.00  0.00     0.016 A 
ATOM     14  C   UNL     1      38.864  46.973 132.869  1.00  0.00     0.051 A 
ATOM     15  C   UNL     1      37.629  47.454 133.325  1.00  0.00     0.157 A 
ATOM     16  C   UNL     1      38.784  48.940 134.855  1.00  0.00     0.062 A 
ATOM     17  C   UNL     1      37.589  48.441 134.317  1.00  0.00     0.158 A 
BRANCH  15  18
ATOM     18  O   UNL     1      36.439  46.959 132.793  1.00  0.00    -0.504 OA
ATOM     19  H   UNL     1      36.034  46.090 133.120  1.00  0.00     0.293 HD
ENDBRANCH  15  18
BRANCH  17  20
ATOM     20  O   UNL     1      36.359  48.922 134.763  1.00  0.00    -0.504 OA
ATOM     21  H   UNL     1      35.506  48.386 134.648  1.00  0.00     0.293 HD
ENDBRANCH  17  20
ENDBRANCH   1  12
BRANCH   2  22
ATOM     22  O   UNL     1      42.020  46.830 135.759  1.00  0.00    -0.502 OA
ATOM     23  H   UNL     1      41.232  46.355 135.337  1.00  0.00     0.293 HD
ENDBRANCH   2  22
BRANCH   6  24
ATOM     24  O   UNL     1      45.930  50.278 136.854  1.00  0.00    -0.507 OA
ATOM     25  H   UNL     1      46.867  50.506 136.559  1.00  0.00     0.293 HD
ENDBRANCH   6  24
BRANCH   8  26
ATOM     26  O   UNL     1      43.803  54.399 135.673  1.00  0.00    -0.508 OA
ATOM     27  H   UNL     1      44.377  54.864 134.979  1.00  0.00     0.293 HD
ENDBRANCH   8  26
TORSDOF 6
ENDMDL
MODEL 2
REMARK VINA RESULT:    -6.936      3.559      4.500
REMARK INTER + INTRA:          -8.486
REMARK INTER:                  -8.171
REMARK INTRA:                  -0.315
REMARK UNBOUND:                -0.131
REMARK SMILES O=c1c(O)c(-c2ccc(O)c(O)c2)oc2cc(O)cc(O)c12
REMARK SMILES IDX 5 1 3 2 2 3 1 4 22 5 20 6 19 7 17 8 16 9 15 10 14 11 6 12
REMARK SMILES IDX 7 13 8 14 9 15 13 16 11 17 10 18 12 20 4 22 21 24 18 26
REMARK H PARENT 10 19 12 21 4 23 21 25 18 27
REMARK Flexibility Score: inf
ROOT
ATOM      1  C   UNL     1      41.298  48.764 132.272  1.00  0.00     0.180 A 
ATOM      2  C   UNL     1      41.392  49.516 131.088  1.00  0.00     0.208 A 
ATOM      3  C   UNL     1      42.661  49.889 130.617  1.00  0.00     0.238 A 
ATOM      4  O   UNL     1      42.741  50.516 129.529  1.00  0.00    -0.285 OA
ATOM      5  C   UNL     1      43.819  49.520 131.344  1.00  0.00     0.111 A 
ATOM      6  C   UNL     1      45.151  49.879 130.981  1.00  0.00     0.134 A 
ATOM      7  C   UNL     1      46.230  49.349 131.702  1.00  0.00     0.093 A 
ATOM      8  C   UNL     1      46.022  48.528 132.809  1.00  0.00     0.123 A 
ATOM      9  C   UNL     1      44.721  48.219 133.209  1.00  0.00     0.094 A 
ATOM     10  C   UNL     1      43.626  48.703 132.488  1.00  0.00     0.146 A 
ATOM     11  O   UNL     1      42.405  48.378 132.895  1.00  0.00    -0.452 OA
ENDROOT
BRANCH   1  12
ATOM     12  C   UNL     1      39.994  48.355 132.844  1.00  0.00     0.025 A 
ATOM     13  C   UNL     1      39.428  47.102 132.549  1.00  0.00     0.016 A 
ATOM     14  C   UNL     1      38.185  46.746 133.081  1.00  0.00     0.051 A 
ATOM     15  C   UNL     1      37.487  47.641 133.902  1.00  0.00     0.157 A 
ATOM     16  C   UNL     1      39.280  49.255 133.652  1.00  0.00     0.062 A 
ATOM     17  C   UNL     1      38.034  48.898 134.186  1.00  0.00     0.158 A 
BRANCH  15  18
ATOM     18  O   UNL     1      36.247  47.289 134.435  1.00  0.00    -0.504 OA
ATOM     19  H   UNL     1      35.699  46.532 134.045  1.00  0.00     0.293 HD
ENDBRANCH  15  18
BRANCH  17  20
ATOM     20  O   UNL     1      37.333  49.788 134.998  1.00  0.00    -0.504 OA
ATOM     21  H   UNL     1      36.560  49.482 135.577  1.00  0.00     0.293 HD
ENDBRANCH  17  20
ENDBRANCH   1  12
BRANCH   2  22
ATOM     22  O   UNL     1      40.238  49.851 130.374  1.00  0.00    -0.502 OA
ATOM     23  H   UNL     1      40.242  50.526 129.619  1.00  0.00     0.293 HD
ENDBRANCH   2  22
BRANCH   6  24
ATOM     24  O   UNL     1      45.468  50.766 129.948  1.00  0.00    -0.507 OA
ATOM     25  H   UNL     1      46.023  51.601 130.058  1.00  0.00     0.293 HD
ENDBRANCH   6  24
BRANCH   8  26
ATOM     26  O   UNL     1      47.117  48.031 133.512  1.00  0.00    -0.508 OA
ATOM     27  H   UNL     1      47.617  48.600 134.186  1.00  0.00     0.293 HD
ENDBRANCH   8  26
TORSDOF 6
ENDMDL
MODEL 3
REMARK VINA RESULT:    -6.802      3.801      4.120
REMARK INTER + INTRA:          -8.325
REMARK INTER:                  -7.995
REMARK INTRA:                  -0.330
REMARK UNBOUND:                -0.131
REMARK SMILES O=c1c(O)c(-c2ccc(O)c(O)c2)oc2cc(O)cc(O)c12
REMARK SMILES IDX 5 1 3 2 2 3 1 4 22 5 20 6 19 7 17 8 16 9 15 10 14 11 6 12
REMARK SMILES IDX 7 13 8 14 9 15 13 16 11 17 10 18 12 20 4 22 21 24 18 26
REMARK H PARENT 10 19 12 21 4 23 21 25 18 27
REMARK Flexibility Score: inf
ROOT
ATOM      1  C   UNL     1      41.297  48.637 132.540  1.00  0.00     0.180 A 
ATOM      2  C   UNL     1      42.462  48.336 133.266  1.00  0.00     0.208 A 
ATOM      3  C   UNL     1      43.710  48.685 132.728  1.00  0.00     0.238 A 
ATOM      4  O   UNL     1      44.746  48.461 133.407  1.00  0.00    -0.285 OA
ATOM      5  C   UNL     1      43.779  49.317 131.462  1.00  0.00     0.111 A 
ATOM      6  C   UNL     1      44.992  49.678 130.803  1.00  0.00     0.134 A 
ATOM      7  C   UNL     1      44.938  50.416 129.613  1.00  0.00     0.093 A 
ATOM      8  C   UNL     1      43.718  50.748 129.027  1.00  0.00     0.123 A 
ATOM      9  C   UNL     1      42.526  50.348 129.632  1.00  0.00     0.094 A 
ATOM     10  C   UNL     1      42.548  49.642 130.838  1.00  0.00     0.146 A 
ATOM     11  O   UNL     1      41.392  49.289 131.387  1.00  0.00    -0.452 OA
ENDROOT
BRANCH   1  12
ATOM     12  C   UNL     1      39.946  48.278 133.031  1.00  0.00     0.025 A 
ATOM     13  C   UNL     1      39.349  47.051 132.695  1.00  0.00     0.016 A 
ATOM     14  C   UNL     1      38.063  46.744 133.150  1.00  0.00     0.051 A 
ATOM     15  C   UNL     1      37.354  47.663 133.935  1.00  0.00     0.157 A 
ATOM     16  C   UNL     1      39.223  49.203 133.801  1.00  0.00     0.062 A 
ATOM     17  C   UNL     1      37.934  48.895 134.259  1.00  0.00     0.158 A 
BRANCH  15  18
ATOM     18  O   UNL     1      36.072  47.359 134.392  1.00  0.00    -0.504 OA
ATOM     19  H   UNL     1      35.910  47.037 135.339  1.00  0.00     0.293 HD
ENDBRANCH  15  18
BRANCH  17  20
ATOM     20  O   UNL     1      37.223  49.809 135.034  1.00  0.00    -0.504 OA
ATOM     21  H   UNL     1      36.815  50.644 134.630  1.00  0.00     0.293 HD
ENDBRANCH  17  20
ENDBRANCH   1  12
BRANCH   2  22
ATOM     22  O   UNL     1      42.371  47.731 134.523  1.00  0.00    -0.502 OA
ATOM     23  H   UNL     1      41.795  48.106 135.267  1.00  0.00     0.293 HD
ENDBRANCH   2  22
BRANCH   6  24
ATOM     24  O   UNL     1      46.266  49.317 131.255  1.00  0.00    -0.507 OA
ATOM     25  H   UNL     1      46.529  49.238 132.225  1.00  0.00     0.293 HD
ENDBRANCH   6  24
BRANCH   8  26
ATOM     26  O   UNL     1      43.701  51.469 127.835  1.00  0.00    -0.508 OA
ATOM     27  H   UNL     1      43.665  52.482 127.828  1.00  0.00     0.293 HD
ENDBRANCH   8  26
TORSDOF 6
ENDMDL
MODEL 4
REMARK VINA RESULT:    -6.740      3.199      4.531
REMARK INTER + INTRA:          -8.250
REMARK INTER:                  -7.992
REMARK INTRA:                  -0.257
REMARK UNBOUND:                -0.131
REMARK SMILES O=c1c(O)c(-c2ccc(O)c(O)c2)oc2cc(O)cc(O)c12
REMARK SMILES IDX 5 1 3 2 2 3 1 4 22 5 20 6 19 7 17 8 16 9 15 10 14 11 6 12
REMARK SMILES IDX 7 13 8 14 9 15 13 16 11 17 10 18 12 20 4 22 21 24 18 26
REMARK H PARENT 10 19 12 21 4 23 21 25 18 27
REMARK Flexibility Score: inf
ROOT
ATOM      1  C   UNL     1      42.594  48.602 134.699  1.00  0.00     0.180 A 
ATOM      2  C   UNL     1      41.809  47.911 135.638  1.00  0.00     0.208 A 
ATOM      3  C   UNL     1      42.446  47.207 136.673  1.00  0.00     0.238 A 
ATOM      4  O   UNL     1      41.737  46.635 137.541  1.00  0.00    -0.285 OA
ATOM      5  C   UNL     1      43.861  47.190 136.746  1.00  0.00     0.111 A 
ATOM      6  C   UNL     1      44.611  46.477 137.728  1.00  0.00     0.134 A 
ATOM      7  C   UNL     1      46.002  46.637 137.784  1.00  0.00     0.093 A 
ATOM      8  C   UNL     1      46.673  47.431 136.855  1.00  0.00     0.123 A 
ATOM      9  C   UNL     1      45.954  48.086 135.854  1.00  0.00     0.094 A 
ATOM     10  C   UNL     1      44.563  47.974 135.795  1.00  0.00     0.146 A 
ATOM     11  O   UNL     1      43.915  48.621 134.834  1.00  0.00    -0.452 OA
ENDROOT
BRANCH   1  12
ATOM     12  C   UNL     1      41.996  49.346 133.566  1.00  0.00     0.025 A 
ATOM     13  C   UNL     1      41.908  50.749 133.579  1.00  0.00     0.016 A 
ATOM     14  C   UNL     1      41.317  51.429 132.510  1.00  0.00     0.051 A 
ATOM     15  C   UNL     1      40.795  50.715 131.422  1.00  0.00     0.157 A 
ATOM     16  C   UNL     1      41.453  48.636 132.483  1.00  0.00     0.062 A 
ATOM     17  C   UNL     1      40.861  49.317 131.410  1.00  0.00     0.158 A 
BRANCH  15  18
ATOM     18  O   UNL     1      40.206  51.390 130.353  1.00  0.00    -0.504 OA
ATOM     19  H   UNL     1      39.216  51.309 130.157  1.00  0.00     0.293 HD
ENDBRANCH  15  18
BRANCH  17  20
ATOM     20  O   UNL     1      40.335  48.611 130.330  1.00  0.00    -0.504 OA
ATOM     21  H   UNL     1      40.195  49.049 129.426  1.00  0.00     0.293 HD
ENDBRANCH  17  20
ENDBRANCH   1  12
BRANCH   2  22
ATOM     22  O   UNL     1      40.414  47.958 135.560  1.00  0.00    -0.502 OA
ATOM     23  H   UNL     1      39.824  47.215 135.914  1.00  0.00     0.293 HD
ENDBRANCH   2  22
BRANCH   6  24
ATOM     24  O   UNL     1      44.049  45.584 138.646  1.00  0.00    -0.507 OA
ATOM     25  H   UNL     1      43.256  45.790 139.234  1.00  0.00     0.293 HD
ENDBRANCH   6  24
BRANCH   8  26
ATOM     26  O   UNL     1      48.059  47.555 136.930  1.00  0.00    -0.508 OA
ATOM     27  H   UNL     1      48.535  47.652 137.820  1.00  0.00     0.293 HD
ENDBRANCH   8  26
TORSDOF 6
ENDMDL
MODEL 5
REMARK VINA RESULT:    -6.660      1.538      3.067
REMARK INTER + INTRA:          -8.154
REMARK INTER:                  -7.892
REMARK INTRA:                  -0.262
REMARK UNBOUND:                -0.131
REMARK SMILES O=c1c(O)c(-c2ccc(O)c(O)c2)oc2cc(O)cc(O)c12
REMARK SMILES IDX 5 1 3 2 2 3 1 4 22 5 20 6 19 7 17 8 16 9 15 10 14 11 6 12
REMARK SMILES IDX 7 13 8 14 9 15 13 16 11 17 10 18 12 20 4 22 21 24 18 26
REMARK H PARENT 10 19 12 21 4 23 21 25 18 27
REMARK Flexibility Score: inf
ROOT
ATOM      1  C   UNL     1      41.489  48.943 134.403  1.00  0.00     0.180 A 
ATOM      2  C   UNL     1      41.941  50.180 133.911  1.00  0.00     0.208 A 
ATOM      3  C   UNL     1      43.226  50.623 134.260  1.00  0.00     0.238 A 
ATOM      4  O   UNL     1      43.646  51.705 133.774  1.00  0.00    -0.285 OA
ATOM      5  C   UNL     1      44.037  49.831 135.110  1.00  0.00     0.111 A 
ATOM      6  C   UNL     1      45.339  50.201 135.562  1.00  0.00     0.134 A 
ATOM      7  C   UNL     1      46.104  49.283 136.294  1.00  0.00     0.093 A 
ATOM      8  C   UNL     1      45.588  48.036 136.645  1.00  0.00     0.123 A 
ATOM      9  C   UNL     1      44.293  47.688 136.260  1.00  0.00     0.094 A 
ATOM     10  C   UNL     1      43.520  48.569 135.498  1.00  0.00     0.146 A 
ATOM     11  O   UNL     1      42.297  48.195 135.143  1.00  0.00    -0.452 OA
ENDROOT
BRANCH   1  12
ATOM     12  C   UNL     1      40.136  48.421 134.098  1.00  0.00     0.025 A 
ATOM     13  C   UNL     1      39.943  47.406 133.144  1.00  0.00     0.016 A 
ATOM     14  C   UNL     1      38.655  46.945 132.855  1.00  0.00     0.051 A 
ATOM     15  C   UNL     1      37.544  47.501 133.503  1.00  0.00     0.157 A 
ATOM     16  C   UNL     1      39.017  48.988 134.729  1.00  0.00     0.062 A 
ATOM     17  C   UNL     1      37.726  48.525 134.440  1.00  0.00     0.158 A 
BRANCH  15  18
ATOM     18  O   UNL     1      36.259  47.043 133.218  1.00  0.00    -0.504 OA
ATOM     19  H   UNL     1      35.787  46.380 133.822  1.00  0.00     0.293 HD
ENDBRANCH  15  18
BRANCH  17  20
ATOM     20  O   UNL     1      36.618  49.081 135.078  1.00  0.00    -0.504 OA
ATOM     21  H   UNL     1      36.065  49.811 134.643  1.00  0.00     0.293 HD
ENDBRANCH  17  20
ENDBRANCH   1  12
BRANCH   2  22
ATOM     22  O   UNL     1      41.133  50.935 133.056  1.00  0.00    -0.502 OA
ATOM     23  H   UNL     1      40.978  51.927 133.189  1.00  0.00     0.293 HD
ENDBRANCH   2  22
BRANCH   6  24
ATOM     24  O   UNL     1      45.914  51.457 135.344  1.00  0.00    -0.507 OA
ATOM     25  H   UNL     1      46.846  51.608 134.988  1.00  0.00     0.293 HD
ENDBRANCH   6  24
BRANCH   8  26
ATOM     26  O   UNL     1      46.369  47.154 137.388  1.00  0.00    -0.508 OA
ATOM     27  H   UNL     1      47.011  46.510 136.941  1.00  0.00     0.293 HD
ENDBRANCH   8  26
TORSDOF 6
ENDMDL
MODEL 6
REMARK VINA RESULT:    -6.619      2.538      3.393
REMARK INTER + INTRA:          -8.104
REMARK INTER:                  -7.892
REMARK INTRA:                  -0.213
REMARK UNBOUND:                -0.131
REMARK SMILES O=c1c(O)c(-c2ccc(O)c(O)c2)oc2cc(O)cc(O)c12
REMARK SMILES IDX 5 1 3 2 2 3 1 4 22 5 20 6 19 7 17 8 16 9 15 10 14 11 6 12
REMARK SMILES IDX 7 13 8 14 9 15 13 16 11 17 10 18 12 20 4 22 21 24 18 26
REMARK H PARENT 10 19 12 21 4 23 21 25 18 27
REMARK Flexibility Score: inf
ROOT
ATOM      1  C   UNL     1      41.561  48.544 133.262  1.00  0.00     0.180 A 
ATOM      2  C   UNL     1      42.081  48.972 132.028  1.00  0.00     0.208 A 
ATOM      3  C   UNL     1      43.432  49.345 131.953  1.00  0.00     0.238 A 
ATOM      4  O   UNL     1      43.907  49.677 130.835  1.00  0.00    -0.285 OA
ATOM      5  C   UNL     1      44.242  49.301 133.115  1.00  0.00     0.111 A 
ATOM      6  C   UNL     1      45.612  49.695 133.162  1.00  0.00     0.134 A 
ATOM      7  C   UNL     1      46.351  49.485 134.334  1.00  0.00     0.093 A 
ATOM      8  C   UNL     1      45.753  48.958 135.477  1.00  0.00     0.123 A 
ATOM      9  C   UNL     1      44.398  48.625 135.460  1.00  0.00     0.094 A 
ATOM     10  C   UNL     1      43.644  48.789 134.295  1.00  0.00     0.146 A 
ATOM     11  O   UNL     1      42.360  48.450 134.316  1.00  0.00    -0.452 OA
ENDROOT
BRANCH   1  12
ATOM     12  C   UNL     1      40.139  48.157 133.425  1.00  0.00     0.025 A 
ATOM     13  C   UNL     1      39.630  46.982 132.846  1.00  0.00     0.016 A 
ATOM     14  C   UNL     1      38.280  46.649 132.993  1.00  0.00     0.051 A 
ATOM     15  C   UNL     1      37.420  47.493 133.708  1.00  0.00     0.157 A 
ATOM     16  C   UNL     1      39.268  49.008 134.123  1.00  0.00     0.062 A 
ATOM     17  C   UNL     1      37.914  48.675 134.272  1.00  0.00     0.158 A 
BRANCH  15  18
ATOM     18  O   UNL     1      36.073  47.164 133.858  1.00  0.00    -0.504 OA
ATOM     19  H   UNL     1      35.378  47.457 133.182  1.00  0.00     0.293 HD
ENDBRANCH  15  18
BRANCH  17  20
ATOM     20  O   UNL     1      37.053  49.515 134.977  1.00  0.00    -0.504 OA
ATOM     21  H   UNL     1      36.158  49.189 135.322  1.00  0.00     0.293 HD
ENDBRANCH  17  20
ENDBRANCH   1  12
BRANCH   2  22
ATOM     22  O   UNL     1      41.271  48.988 130.889  1.00  0.00    -0.502 OA
ATOM     23  H   UNL     1      41.488  48.449 130.060  1.00  0.00     0.293 HD
ENDBRANCH   2  22
BRANCH   6  24
ATOM     24  O   UNL     1      46.284  50.316 132.104  1.00  0.00    -0.507 OA
ATOM     25  H   UNL     1      46.806  49.830 131.391  1.00  0.00     0.293 HD
ENDBRANCH   6  24
BRANCH   8  26
ATOM     26  O   UNL     1      46.513  48.778 136.630  1.00  0.00    -0.508 OA
ATOM     27  H   UNL     1      46.101  48.428 137.488  1.00  0.00     0.293 HD
ENDBRANCH   8  26
TORSDOF 6
ENDMDL
MODEL 7
REMARK VINA RESULT:    -6.577      2.073      7.142
REMARK INTER + INTRA:          -8.053
REMARK INTER:                  -7.872
REMARK INTRA:                  -0.181
REMARK UNBOUND:                -0.131
REMARK SMILES O=c1c(O)c(-c2ccc(O)c(O)c2)oc2cc(O)cc(O)c12
REMARK SMILES IDX 5 1 3 2 2 3 1 4 22 5 20 6 19 7 17 8 16 9 15 10 14 11 6 12
REMARK SMILES IDX 7 13 8 14 9 15 13 16 11 17 10 18 12 20 4 22 21 24 18 26
REMARK H PARENT 10 19 12 21 4 23 21 25 18 27
REMARK Flexibility Score: inf
ROOT
ATOM      1  C   UNL     1      43.724  50.584 135.971  1.00  0.00     0.180 A 
ATOM      2  C   UNL     1      43.275  49.355 136.485  1.00  0.00     0.208 A 
ATOM      3  C   UNL     1      42.175  48.726 135.882  1.00  0.00     0.238 A 
ATOM      4  O   UNL     1      41.811  47.601 136.314  1.00  0.00    -0.285 OA
ATOM      5  C   UNL     1      41.528  49.340 134.782  1.00  0.00     0.111 A 
ATOM      6  C   UNL     1      40.379  48.811 134.121  1.00  0.00     0.134 A 
ATOM      7  C   UNL     1      39.901  49.437 132.962  1.00  0.00     0.093 A 
ATOM      8  C   UNL     1      40.488  50.606 132.480  1.00  0.00     0.123 A 
ATOM      9  C   UNL     1      41.575  51.165 133.154  1.00  0.00     0.094 A 
ATOM     10  C   UNL     1      42.097  50.543 134.292  1.00  0.00     0.146 A 
ATOM     11  O   UNL     1      43.138  51.101 134.898  1.00  0.00    -0.452 OA
ENDROOT
BRANCH   1  12
ATOM     12  C   UNL     1      44.863  51.320 136.569  1.00  0.00     0.025 A 
ATOM     13  C   UNL     1      44.681  52.567 137.190  1.00  0.00     0.016 A 
ATOM     14  C   UNL     1      45.774  53.255 137.726  1.00  0.00     0.051 A 
ATOM     15  C   UNL     1      47.063  52.713 137.636  1.00  0.00     0.157 A 
ATOM     16  C   UNL     1      46.159  50.791 136.463  1.00  0.00     0.062 A 
ATOM     17  C   UNL     1      47.256  51.480 137.001  1.00  0.00     0.158 A 
BRANCH  15  18
ATOM     18  O   UNL     1      48.154  53.395 138.170  1.00  0.00    -0.504 OA
ATOM     19  H   UNL     1      48.782  52.954 138.832  1.00  0.00     0.293 HD
ENDBRANCH  15  18
BRANCH  17  20
ATOM     20  O   UNL     1      48.540  50.946 136.907  1.00  0.00    -0.504 OA
ATOM     21  H   UNL     1      48.879  50.258 137.570  1.00  0.00     0.293 HD
ENDBRANCH  17  20
ENDBRANCH   1  12
BRANCH   2  22
ATOM     22  O   UNL     1      43.942  48.756 137.558  1.00  0.00    -0.502 OA
ATOM     23  H   UNL     1      44.931  48.541 137.532  1.00  0.00     0.293 HD
ENDBRANCH   2  22
BRANCH   6  24
ATOM     24  O   UNL     1      39.660  47.700 134.571  1.00  0.00    -0.507 OA
ATOM     25  H   UNL     1      39.280  47.600 135.500  1.00  0.00     0.293 HD
ENDBRANCH   6  24
BRANCH   8  26
ATOM     26  O   UNL     1      39.977  51.211 131.334  1.00  0.00    -0.508 OA
ATOM     27  H   UNL     1      39.035  51.025 131.012  1.00  0.00     0.293 HD
ENDBRANCH   8  26
TORSDOF 6
ENDMDL
MODEL 8
REMARK VINA RESULT:    -6.556      0.621      1.435
REMARK INTER + INTRA:          -8.028
REMARK INTER:                  -8.149
REMARK INTRA:                   0.121
REMARK UNBOUND:                -0.131
REMARK SMILES O=c1c(O)c(-c2ccc(O)c(O)c2)oc2cc(O)cc(O)c12
REMARK SMILES IDX 5 1 3 2 2 3 1 4 22 5 20 6 19 7 17 8 16 9 15 10 14 11 6 12
REMARK SMILES IDX 7 13 8 14 9 15 13 16 11 17 10 18 12 20 4 22 21 24 18 26
REMARK H PARENT 10 19 12 21 4 23 21 25 18 27
REMARK Flexibility Score: inf
ROOT
ATOM      1  C   UNL     1      41.255  49.200 135.107  1.00  0.00     0.180 A 
ATOM      2  C   UNL     1      42.230  48.368 135.685  1.00  0.00     0.208 A 
ATOM      3  C   UNL     1      43.417  48.942 136.165  1.00  0.00     0.238 A 
ATOM      4  O   UNL     1      44.262  48.200 136.730  1.00  0.00    -0.285 OA
ATOM      5  C   UNL     1      43.623  50.338 136.046  1.00  0.00     0.111 A 
ATOM      6  C   UNL     1      44.805  51.020 136.462  1.00  0.00     0.134 A 
ATOM      7  C   UNL     1      44.847  52.420 136.416  1.00  0.00     0.093 A 
ATOM      8  C   UNL     1      43.777  53.156 135.911  1.00  0.00     0.123 A 
ATOM      9  C   UNL     1      42.639  52.495 135.446  1.00  0.00     0.094 A 
ATOM     10  C   UNL     1      42.554  51.102 135.513  1.00  0.00     0.146 A 
ATOM     11  O   UNL     1      41.449  50.512 135.070  1.00  0.00    -0.452 OA
ENDROOT
BRANCH   1  12
ATOM     12  C   UNL     1      39.988  48.665 134.556  1.00  0.00     0.025 A 
ATOM     13  C   UNL     1      38.753  49.275 134.838  1.00  0.00     0.016 A 
ATOM     14  C   UNL     1      37.568  48.739 134.328  1.00  0.00     0.051 A 
ATOM     15  C   UNL     1      37.599  47.579 133.541  1.00  0.00     0.157 A 
ATOM     16  C   UNL     1      40.010  47.492 133.784  1.00  0.00     0.062 A 
ATOM     17  C   UNL     1      38.822  46.954 133.271  1.00  0.00     0.158 A 
BRANCH  15  18
ATOM     18  O   UNL     1      36.418  47.043 133.029  1.00  0.00    -0.504 OA
ATOM     19  H   UNL     1      35.911  47.498 132.280  1.00  0.00     0.293 HD
ENDBRANCH  15  18
BRANCH  17  20
ATOM     20  O   UNL     1      38.848  45.798 132.494  1.00  0.00    -0.504 OA
ATOM     21  H   UNL     1      38.297  44.982 132.736  1.00  0.00     0.293 HD
ENDBRANCH  17  20
ENDBRANCH   1  12
BRANCH   2  22
ATOM     22  O   UNL     1      41.997  46.995 135.812  1.00  0.00    -0.502 OA
ATOM     23  H   UNL     1      42.672  46.366 136.229  1.00  0.00     0.293 HD
ENDBRANCH   2  22
BRANCH   6  24
ATOM     24  O   UNL     1      45.968  50.376 136.898  1.00  0.00    -0.507 OA
ATOM     25  H   UNL     1      46.805  50.847 137.201  1.00  0.00     0.293 HD
ENDBRANCH   6  24
BRANCH   8  26
ATOM     26  O   UNL     1      43.858  54.546 135.865  1.00  0.00    -0.508 OA
ATOM     27  H   UNL     1      44.404  55.068 136.541  1.00  0.00     0.293 HD
ENDBRANCH   8  26
TORSDOF 6
ENDMDL
MODEL 9
REMARK VINA RESULT:    -6.205      2.911      6.147
REMARK INTER + INTRA:          -7.606
REMARK INTER:                  -7.317
REMARK INTRA:                  -0.289
REMARK UNBOUND:                -0.131
REMARK SMILES O=c1c(O)c(-c2ccc(O)c(O)c2)oc2cc(O)cc(O)c12
REMARK SMILES IDX 5 1 3 2 2 3 1 4 22 5 20 6 19 7 17 8 16 9 15 10 14 11 6 12
REMARK SMILES IDX 7 13 8 14 9 15 13 16 11 17 10 18 12 20 4 22 21 24 18 26
REMARK H PARENT 10 19 12 21 4 23 21 25 18 27
REMARK Flexibility Score: inf
ROOT
ATOM      1  C   UNL     1      43.515  48.795 135.615  1.00  0.00     0.180 A 
ATOM      2  C   UNL     1      43.439  50.152 135.970  1.00  0.00     0.208 A 
ATOM      3  C   UNL     1      42.807  51.050 135.095  1.00  0.00     0.238 A 
ATOM      4  O   UNL     1      42.695  52.255 135.443  1.00  0.00    -0.285 OA
ATOM      5  C   UNL     1      42.273  50.582 133.870  1.00  0.00     0.111 A 
ATOM      6  C   UNL     1      41.648  51.410 132.891  1.00  0.00     0.134 A 
ATOM      7  C   UNL     1      41.039  50.821 131.775  1.00  0.00     0.093 A 
ATOM      8  C   UNL     1      41.091  49.443 131.571  1.00  0.00     0.123 A 
ATOM      9  C   UNL     1      41.752  48.630 132.492  1.00  0.00     0.094 A 
ATOM     10  C   UNL     1      42.337  49.185 133.633  1.00  0.00     0.146 A 
ATOM     11  O   UNL     1      42.947  48.376 134.491  1.00  0.00    -0.452 OA
ENDROOT
BRANCH   1  12
ATOM     12  C   UNL     1      44.188  47.792 136.474  1.00  0.00     0.025 A 
ATOM     13  C   UNL     1      45.589  47.701 136.532  1.00  0.00     0.016 A 
ATOM     14  C   UNL     1      46.202  46.731 137.330  1.00  0.00     0.051 A 
ATOM     15  C   UNL     1      45.423  45.832 138.070  1.00  0.00     0.157 A 
ATOM     16  C   UNL     1      43.413  46.875 137.202  1.00  0.00     0.062 A 
ATOM     17  C   UNL     1      44.027  45.902 138.004  1.00  0.00     0.158 A 
BRANCH  15  18
ATOM     18  O   UNL     1      46.031  44.864 138.869  1.00  0.00    -0.504 OA
ATOM     19  H   UNL     1      45.711  44.680 139.813  1.00  0.00     0.293 HD
ENDBRANCH  15  18
BRANCH  17  20
ATOM     20  O   UNL     1      43.255  45.001 138.737  1.00  0.00    -0.504 OA
ATOM     21  H   UNL     1      42.299  45.212 138.997  1.00  0.00     0.293 HD
ENDBRANCH  17  20
ENDBRANCH   1  12
BRANCH   2  22
ATOM     22  O   UNL     1      43.954  50.590 137.194  1.00  0.00    -0.502 OA
ATOM     23  H   UNL     1      44.474  51.454 137.288  1.00  0.00     0.293 HD
ENDBRANCH   2  22
BRANCH   6  24
ATOM     24  O   UNL     1      41.620  52.807 132.950  1.00  0.00    -0.507 OA
ATOM     25  H   UNL     1      41.400  53.411 132.173  1.00  0.00     0.293 HD
ENDBRANCH   6  24
BRANCH   8  26
ATOM     26  O   UNL     1      40.489  48.892 130.442  1.00  0.00    -0.508 OA
ATOM     27  H   UNL     1      39.992  49.467 129.772  1.00  0.00     0.293 HD
ENDBRANCH   8  26
TORSDOF 6
ENDMDL
