MODEL 1
REMARK VINA RESULT:    -4.685      0.000      0.000
REMARK INTER + INTRA:          -7.706
REMARK INTER:                  -6.328
REMARK INTRA:                  -1.378
REMARK UNBOUND:                -1.378
REMARK SMILES CC(=O)CCC=C(C)CCC=C(C)C
REMARK SMILES IDX 7 1 6 2 8 3 9 4 10 5 11 6 13 7 12 8 14 9 5 10 4 11 2 12 3 13
REMARK SMILES IDX 1 14
REMARK H PARENT
REMARK Flexibility Score: inf
ROOT
ATOM      1  C   UNL     1     -12.969  15.622 -30.607  1.00  0.00    -0.077 C 
ATOM      2  C   UNL     1     -13.016  14.712 -31.607  1.00  0.00    -0.028 C 
ATOM      3  C   UNL     1     -13.874  16.832 -30.587  1.00  0.00     0.039 C 
ENDROOT
BRANCH   1   4
ATOM      4  C   UNL     1     -11.995  15.413 -29.468  1.00  0.00     0.034 C 
BRANCH   4   5
ATOM      5  C   UNL     1     -11.883  13.925 -29.115  1.00  0.00     0.032 C 
BRANCH   5   6
ATOM      6  C   UNL     1     -12.892  13.548 -28.059  1.00  0.00    -0.028 C 
ATOM      7  C   UNL     1     -14.082  11.922 -29.546  1.00  0.00     0.039 C 
ATOM      8  C   UNL     1     -13.870  12.632 -28.229  1.00  0.00    -0.080 C 
ATOM      9  C   UNL     1     -14.781  12.330 -27.067  1.00  0.00     0.039 C 
ENDBRANCH   5   6
ENDBRANCH   4   5
ENDBRANCH   1   4
BRANCH   2  10
ATOM     10  C   UNL     1     -13.903  14.824 -32.821  1.00  0.00     0.035 C 
BRANCH  10  11
ATOM     11  C   UNL     1     -15.074  13.841 -32.727  1.00  0.00     0.079 C 
BRANCH  11  12
ATOM     12  C   UNL     1     -16.287  14.509 -32.138  1.00  0.00     0.130 C 
ATOM     13  O   UNL     1     -16.983  15.229 -32.840  1.00  0.00    -0.300 OA
ATOM     14  C   UNL     1     -16.660  14.278 -30.706  1.00  0.00     0.087 C 
ENDBRANCH  11  12
ENDBRANCH  10  11
ENDBRANCH   2  10
TORSDOF 6
ENDMDL
MODEL 2
REMARK VINA RESULT:    -4.428      1.145      1.964
REMARK INTER + INTRA:          -7.358
REMARK INTER:                  -6.230
REMARK INTRA:                  -1.128
REMARK UNBOUND:                -1.378
REMARK SMILES CC(=O)CCC=C(C)CCC=C(C)C
REMARK SMILES IDX 7 1 6 2 8 3 9 4 10 5 11 6 13 7 12 8 14 9 5 10 4 11 2 12 3 13
REMARK SMILES IDX 1 14
REMARK H PARENT
REMARK Flexibility Score: inf
ROOT
ATOM      1  C   UNL     1     -12.074  15.394 -30.991  1.00  0.00    -0.077 C 
ATOM      2  C   UNL     1     -13.076  16.134 -30.467  1.00  0.00    -0.028 C 
ATOM      3  C   UNL     1     -12.075  14.961 -32.439  1.00  0.00     0.039 C 
ENDROOT
BRANCH   1   4
ATOM      4  C   UNL     1     -10.910  15.002 -30.108  1.00  0.00     0.034 C 
BRANCH   4   5
ATOM      5  C   UNL     1     -10.990  13.519 -29.731  1.00  0.00     0.032 C 
BRANCH   5   6
ATOM      6  C   UNL     1     -12.393  13.145 -29.321  1.00  0.00    -0.028 C 
ATOM      7  C   UNL     1     -12.014  13.714 -26.911  1.00  0.00     0.039 C 
ATOM      8  C   UNL     1     -12.876  13.251 -28.063  1.00  0.00    -0.080 C 
ATOM      9  C   UNL     1     -14.314  12.877 -27.812  1.00  0.00     0.039 C 
ENDBRANCH   5   6
ENDBRANCH   4   5
ENDBRANCH   1   4
BRANCH   2  10
ATOM     10  C   UNL     1     -14.313  16.551 -31.221  1.00  0.00     0.035 C 
BRANCH  10  11
ATOM     11  C   UNL     1     -15.527  15.741 -30.759  1.00  0.00     0.079 C 
BRANCH  11  12
ATOM     12  C   UNL     1     -15.886  14.690 -31.774  1.00  0.00     0.130 C 
ATOM     13  O   UNL     1     -16.600  14.981 -32.722  1.00  0.00    -0.300 OA
ATOM     14  C   UNL     1     -15.354  13.295 -31.643  1.00  0.00     0.087 C 
ENDBRANCH  11  12
ENDBRANCH  10  11
ENDBRANCH   2  10
TORSDOF 6
ENDMDL
MODEL 3
REMARK VINA RESULT:    -4.332      1.320      3.721
REMARK INTER + INTRA:          -7.229
REMARK INTER:                  -6.107
REMARK INTRA:                  -1.123
REMARK UNBOUND:                -1.378
REMARK SMILES CC(=O)CCC=C(C)CCC=C(C)C
REMARK SMILES IDX 7 1 6 2 8 3 9 4 10 5 11 6 13 7 12 8 14 9 5 10 4 11 2 12 3 13
REMARK SMILES IDX 1 14
REMARK H PARENT
REMARK Flexibility Score: inf
ROOT
ATOM      1  C   UNL     1     -13.326  13.482 -29.355  1.00  0.00    -0.077 C 
ATOM      2  C   UNL     1     -14.518  14.120 -29.364  1.00  0.00    -0.028 C 
ATOM      3  C   UNL     1     -13.148  12.115 -29.973  1.00  0.00     0.039 C 
ENDROOT
BRANCH   1   4
ATOM      4  C   UNL     1     -12.131  14.165 -28.724  1.00  0.00     0.034 C 
BRANCH   4   5
ATOM      5  C   UNL     1     -11.720  15.398 -29.535  1.00  0.00     0.032 C 
BRANCH   5   6
ATOM      6  C   UNL     1     -11.294  15.005 -30.929  1.00  0.00    -0.028 C 
ATOM      7  C   UNL     1     -13.104  16.341 -32.031  1.00  0.00     0.039 C 
ATOM      8  C   UNL     1     -11.890  15.441 -32.061  1.00  0.00    -0.080 C 
ATOM      9  C   UNL     1     -11.329  14.994 -33.386  1.00  0.00     0.039 C 
ENDBRANCH   5   6
ENDBRANCH   4   5
ENDBRANCH   1   4
BRANCH   2  10
ATOM     10  C   UNL     1     -15.793  13.535 -29.915  1.00  0.00     0.035 C 
BRANCH  10  11
ATOM     11  C   UNL     1     -16.616  14.610 -30.630  1.00  0.00     0.079 C 
BRANCH  11  12
ATOM     12  C   UNL     1     -16.384  14.561 -32.116  1.00  0.00     0.130 C 
ATOM     13  O   UNL     1     -17.105  15.206 -32.864  1.00  0.00    -0.300 OA
ATOM     14  C   UNL     1     -15.262  13.745 -32.683  1.00  0.00     0.087 C 
ENDBRANCH  11  12
ENDBRANCH  10  11
ENDBRANCH   2  10
TORSDOF 6
ENDMDL
MODEL 4
REMARK VINA RESULT:    -4.325      2.365      4.219
REMARK INTER + INTRA:          -7.220
REMARK INTER:                  -5.908
REMARK INTRA:                  -1.312
REMARK UNBOUND:                -1.378
REMARK SMILES CC(=O)CCC=C(C)CCC=C(C)C
REMARK SMILES IDX 7 1 6 2 8 3 9 4 10 5 11 6 13 7 12 8 14 9 5 10 4 11 2 12 3 13
REMARK SMILES IDX 1 14
REMARK H PARENT
REMARK Flexibility Score: inf
ROOT
ATOM      1  C   UNL     1     -13.612  15.384 -31.371  1.00  0.00    -0.077 C 
ATOM      2  C   UNL     1     -13.090  15.600 -30.142  1.00  0.00    -0.028 C 
ATOM      3  C   UNL     1     -12.794  14.780 -32.489  1.00  0.00     0.039 C 
ENDROOT
BRANCH   1   4
ATOM      4  C   UNL     1     -15.060  15.740 -31.628  1.00  0.00     0.034 C 
BRANCH   4   5
ATOM      5  C   UNL     1     -15.926  14.477 -31.693  1.00  0.00     0.032 C 
BRANCH   5   6
ATOM      6  C   UNL     1     -16.417  14.093 -30.319  1.00  0.00    -0.028 C 
ATOM      7  C   UNL     1     -14.861  12.139 -30.134  1.00  0.00     0.039 C 
ATOM      8  C   UNL     1     -15.930  13.061 -29.595  1.00  0.00    -0.080 C 
ATOM      9  C   UNL     1     -16.493  12.821 -28.218  1.00  0.00     0.039 C 
ENDBRANCH   5   6
ENDBRANCH   4   5
ENDBRANCH   1   4
BRANCH   2  10
ATOM     10  C   UNL     1     -11.654  15.335 -29.767  1.00  0.00     0.035 C 
BRANCH  10  11
ATOM     11  C   UNL     1     -11.527  14.007 -29.017  1.00  0.00     0.079 C 
BRANCH  11  12
ATOM     12  C   UNL     1     -12.077  14.126 -27.622  1.00  0.00     0.130 C 
ATOM     13  O   UNL     1     -11.847  15.130 -26.963  1.00  0.00    -0.300 OA
ATOM     14  C   UNL     1     -12.925  13.034 -27.044  1.00  0.00     0.087 C 
ENDBRANCH  11  12
ENDBRANCH  10  11
ENDBRANCH   2  10
TORSDOF 6
ENDMDL
MODEL 5
REMARK VINA RESULT:    -4.254      1.572      2.413
REMARK INTER + INTRA:          -7.124
REMARK INTER:                  -5.879
REMARK INTRA:                  -1.244
REMARK UNBOUND:                -1.378
REMARK SMILES CC(=O)CCC=C(C)CCC=C(C)C
REMARK SMILES IDX 7 1 6 2 8 3 9 4 10 5 11 6 13 7 12 8 14 9 5 10 4 11 2 12 3 13
REMARK SMILES IDX 1 14
REMARK H PARENT
REMARK Flexibility Score: inf
ROOT
ATOM      1  C   UNL     1     -13.751  15.868 -31.541  1.00  0.00    -0.077 C 
ATOM      2  C   UNL     1     -14.651  14.931 -31.916  1.00  0.00    -0.028 C 
ATOM      3  C   UNL     1     -14.156  17.096 -30.759  1.00  0.00     0.039 C 
ENDROOT
BRANCH   1   4
ATOM      4  C   UNL     1     -12.294  15.672 -31.898  1.00  0.00     0.034 C 
BRANCH   4   5
ATOM      5  C   UNL     1     -11.730  14.422 -31.214  1.00  0.00     0.032 C 
BRANCH   5   6
ATOM      6  C   UNL     1     -11.563  14.652 -29.732  1.00  0.00    -0.028 C 
ATOM      7  C   UNL     1     -13.200  12.863 -29.106  1.00  0.00     0.039 C 
ATOM      8  C   UNL     1     -12.197  13.943 -28.772  1.00  0.00    -0.080 C 
ATOM      9  C   UNL     1     -11.900  14.261 -27.329  1.00  0.00     0.039 C 
ENDBRANCH   5   6
ENDBRANCH   4   5
ENDBRANCH   1   4
BRANCH   2  10
ATOM     10  C   UNL     1     -16.135  15.026 -31.666  1.00  0.00     0.035 C 
BRANCH  10  11
ATOM     11  C   UNL     1     -16.625  13.824 -30.854  1.00  0.00     0.079 C 
BRANCH  11  12
ATOM     12  C   UNL     1     -16.694  14.162 -29.389  1.00  0.00     0.130 C 
ATOM     13  O   UNL     1     -16.627  15.329 -29.032  1.00  0.00    -0.300 OA
ATOM     14  C   UNL     1     -16.869  13.080 -28.368  1.00  0.00     0.087 C 
ENDBRANCH  11  12
ENDBRANCH  10  11
ENDBRANCH   2  10
TORSDOF 6
ENDMDL
MODEL 6
REMARK VINA RESULT:    -4.227      2.168      5.069
REMARK INTER + INTRA:          -7.087
REMARK INTER:                  -5.699
REMARK INTRA:                  -1.387
REMARK UNBOUND:                -1.378
REMARK SMILES CC(=O)CCC=C(C)CCC=C(C)C
REMARK SMILES IDX 7 1 6 2 8 3 9 4 10 5 11 6 13 7 12 8 14 9 5 10 4 11 2 12 3 13
REMARK SMILES IDX 1 14
REMARK H PARENT
REMARK Flexibility Score: inf
ROOT
ATOM      1  C   UNL     1     -16.442  13.053 -29.812  1.00  0.00    -0.077 C 
ATOM      2  C   UNL     1     -15.367  12.311 -30.158  1.00  0.00    -0.028 C 
ATOM      3  C   UNL     1     -16.739  13.405 -28.372  1.00  0.00     0.039 C 
ENDROOT
BRANCH   1   4
ATOM      4  C   UNL     1     -17.366  13.560 -30.897  1.00  0.00     0.034 C 
BRANCH   4   5
ATOM      5  C   UNL     1     -16.589  14.381 -31.932  1.00  0.00     0.032 C 
BRANCH   5   6
ATOM      6  C   UNL     1     -15.901  15.554 -31.278  1.00  0.00    -0.028 C 
ATOM      7  C   UNL     1     -13.648  14.948 -32.189  1.00  0.00     0.039 C 
ATOM      8  C   UNL     1     -14.586  15.836 -31.404  1.00  0.00    -0.080 C 
ATOM      9  C   UNL     1     -14.046  17.067 -30.723  1.00  0.00     0.039 C 
ENDBRANCH   5   6
ENDBRANCH   4   5
ENDBRANCH   1   4
BRANCH   2  10
ATOM     10  C   UNL     1     -14.396  11.705 -29.176  1.00  0.00     0.035 C 
BRANCH  10  11
ATOM     11  C   UNL     1     -13.003  12.319 -29.344  1.00  0.00     0.079 C 
BRANCH  11  12
ATOM     12  C   UNL     1     -12.819  13.490 -28.418  1.00  0.00     0.130 C 
ATOM     13  O   UNL     1     -13.353  13.482 -27.318  1.00  0.00    -0.300 OA
ATOM     14  C   UNL     1     -11.967  14.653 -28.824  1.00  0.00     0.087 C 
ENDBRANCH  11  12
ENDBRANCH  10  11
ENDBRANCH   2  10
TORSDOF 6
ENDMDL
MODEL 7
REMARK VINA RESULT:    -4.226      1.991      4.000
REMARK INTER + INTRA:          -7.086
REMARK INTER:                  -5.780
REMARK INTRA:                  -1.306
REMARK UNBOUND:                -1.378
REMARK SMILES CC(=O)CCC=C(C)CCC=C(C)C
REMARK SMILES IDX 7 1 6 2 8 3 9 4 10 5 11 6 13 7 12 8 14 9 5 10 4 11 2 12 3 13
REMARK SMILES IDX 1 14
REMARK H PARENT
REMARK Flexibility Score: inf
ROOT
ATOM      1  C   UNL     1     -17.732  13.501 -29.910  1.00  0.00    -0.077 C 
ATOM      2  C   UNL     1     -17.522  13.548 -31.245  1.00  0.00    -0.028 C 
ATOM      3  C   UNL     1     -17.219  14.577 -28.983  1.00  0.00     0.039 C 
ENDROOT
BRANCH   1   4
ATOM      4  C   UNL     1     -18.519  12.345 -29.331  1.00  0.00     0.034 C 
BRANCH   4   5
ATOM      5  C   UNL     1     -17.703  11.050 -29.387  1.00  0.00     0.032 C 
BRANCH   5   6
ATOM      6  C   UNL     1     -16.758  10.961 -28.214  1.00  0.00    -0.028 C 
ATOM      7  C   UNL     1     -14.737  11.489 -29.596  1.00  0.00     0.039 C 
ATOM      8  C   UNL     1     -15.427  11.181 -28.287  1.00  0.00    -0.080 C 
ATOM      9  C   UNL     1     -14.614  11.096 -27.021  1.00  0.00     0.039 C 
ENDBRANCH   5   6
ENDBRANCH   4   5
ENDBRANCH   1   4
BRANCH   2  10
ATOM     10  C   UNL     1     -16.717  14.614 -31.944  1.00  0.00     0.035 C 
BRANCH  10  11
ATOM     11  C   UNL     1     -15.345  14.073 -32.356  1.00  0.00     0.079 C 
BRANCH  11  12
ATOM     12  C   UNL     1     -14.249  15.006 -31.918  1.00  0.00     0.130 C 
ATOM     13  O   UNL     1     -13.733  15.758 -32.732  1.00  0.00    -0.300 OA
ATOM     14  C   UNL     1     -13.802  15.036 -30.489  1.00  0.00     0.087 C 
ENDBRANCH  11  12
ENDBRANCH  10  11
ENDBRANCH   2  10
TORSDOF 6
ENDMDL
MODEL 8
REMARK VINA RESULT:    -4.179      1.266      3.436
REMARK INTER + INTRA:          -7.023
REMARK INTER:                  -5.785
REMARK INTRA:                  -1.238
REMARK UNBOUND:                -1.378
REMARK SMILES CC(=O)CCC=C(C)CCC=C(C)C
REMARK SMILES IDX 7 1 6 2 8 3 9 4 10 5 11 6 13 7 12 8 14 9 5 10 4 11 2 12 3 13
REMARK SMILES IDX 1 14
REMARK H PARENT
REMARK Flexibility Score: inf
ROOT
ATOM      1  C   UNL     1     -15.220  12.371 -28.748  1.00  0.00    -0.077 C 
ATOM      2  C   UNL     1     -15.891  13.545 -28.776  1.00  0.00    -0.028 C 
ATOM      3  C   UNL     1     -15.291  11.384 -29.890  1.00  0.00     0.039 C 
ENDROOT
BRANCH   1   4
ATOM      4  C   UNL     1     -14.359  12.045 -27.547  1.00  0.00     0.034 C 
BRANCH   4   5
ATOM      5  C   UNL     1     -12.873  12.073 -27.920  1.00  0.00     0.032 C 
BRANCH   5   6
ATOM      6  C   UNL     1     -12.406  13.488 -28.156  1.00  0.00    -0.028 C 
ATOM      7  C   UNL     1     -12.095  13.147 -30.617  1.00  0.00     0.039 C 
ATOM      8  C   UNL     1     -12.078  13.993 -29.365  1.00  0.00    -0.080 C 
ATOM      9  C   UNL     1     -11.666  15.440 -29.452  1.00  0.00     0.039 C 
ENDBRANCH   5   6
ENDBRANCH   4   5
ENDBRANCH   1   4
BRANCH   2  10
ATOM     10  C   UNL     1     -16.817  13.971 -29.887  1.00  0.00     0.035 C 
BRANCH  10  11
ATOM     11  C   UNL     1     -16.209  15.126 -30.686  1.00  0.00     0.079 C 
BRANCH  11  12
ATOM     12  C   UNL     1     -16.196  14.812 -32.157  1.00  0.00     0.130 C 
ATOM     13  O   UNL     1     -17.065  15.272 -32.882  1.00  0.00    -0.300 OA
ATOM     14  C   UNL     1     -15.113  13.958 -32.742  1.00  0.00     0.087 C 
ENDBRANCH  11  12
ENDBRANCH  10  11
ENDBRANCH   2  10
TORSDOF 6
ENDMDL
MODEL 9
REMARK VINA RESULT:    -4.133      2.109      3.649
REMARK INTER + INTRA:          -6.960
REMARK INTER:                  -5.554
REMARK INTRA:                  -1.407
REMARK UNBOUND:                -1.378
REMARK SMILES CC(=O)CCC=C(C)CCC=C(C)C
REMARK SMILES IDX 7 1 6 2 8 3 9 4 10 5 11 6 13 7 12 8 14 9 5 10 4 11 2 12 3 13
REMARK SMILES IDX 1 14
REMARK H PARENT
REMARK Flexibility Score: inf
ROOT
ATOM      1  C   UNL     1     -15.232  15.243 -31.241  1.00  0.00    -0.077 C 
ATOM      2  C   UNL     1     -16.025  15.235 -30.146  1.00  0.00    -0.028 C 
ATOM      3  C   UNL     1     -15.365  14.204 -32.330  1.00  0.00     0.039 C 
ENDROOT
BRANCH   1   4
ATOM      4  C   UNL     1     -14.194  16.333 -31.388  1.00  0.00     0.034 C 
BRANCH   4   5
ATOM      5  C   UNL     1     -12.779  15.756 -31.269  1.00  0.00     0.032 C 
BRANCH   5   6
ATOM      6  C   UNL     1     -12.429  15.491 -29.825  1.00  0.00    -0.028 C 
ATOM      7  C   UNL     1     -12.468  13.002 -30.105  1.00  0.00     0.039 C 
ATOM      8  C   UNL     1     -12.261  14.261 -29.293  1.00  0.00    -0.080 C 
ATOM      9  C   UNL     1     -11.872  14.153 -27.841  1.00  0.00     0.039 C 
ENDBRANCH   5   6
ENDBRANCH   4   5
ENDBRANCH   1   4
BRANCH   2  10
ATOM     10  C   UNL     1     -17.064  14.182 -29.853  1.00  0.00     0.035 C 
BRANCH  10  11
ATOM     11  C   UNL     1     -16.906  13.648 -28.427  1.00  0.00     0.079 C 
BRANCH  11  12
ATOM     12  C   UNL     1     -15.825  12.604 -28.363  1.00  0.00     0.130 C 
ATOM     13  O   UNL     1     -15.014  12.626 -27.449  1.00  0.00    -0.300 OA
ATOM     14  C   UNL     1     -15.751  11.524 -29.399  1.00  0.00     0.087 C 
ENDBRANCH  11  12
ENDBRANCH  10  11
ENDBRANCH   2  10
TORSDOF 6
ENDMDL
