MODEL 1
REMARK VINA RESULT:    -4.718      0.000      0.000
REMARK INTER + INTRA:          -7.773
REMARK INTER:                  -7.200
REMARK INTRA:                  -0.573
REMARK UNBOUND:                -0.573
REMARK SMILES O=C([O-])CCCCCCCCC(=O)[O-]
REMARK SMILES IDX 7 1 6 2 5 3 4 4 2 5 1 6 3 7 8 8 9 9 10 10 11 11 12 12 13 13
REMARK SMILES IDX 14 14
REMARK H PARENT
REMARK Flexibility Score: inf
ROOT
ATOM      1  C   UNL     1      -1.099 -36.244  20.670  1.00  0.00     0.000 C 
ENDROOT
BRANCH   1   2
ATOM      2  C   UNL     1      -0.320 -37.552  20.898  1.00  0.00     0.000 C 
BRANCH   2   3
ATOM      3  C   UNL     1       1.188 -37.315  21.084  1.00  0.00     0.006 C 
BRANCH   3   4
ATOM      4  C   UNL     1       1.553 -35.827  21.135  1.00  0.00     0.053 C 
BRANCH   4   5
ATOM      5  C   UNL     1       2.771 -35.617  21.978  1.00  0.00     0.041 C 
ATOM      6  O   UNL     1       3.823 -36.266  21.744  1.00  0.00    -0.550 OA
ATOM      7  O   UNL     1       2.759 -34.666  22.991  1.00  0.00    -0.550 OA
ENDBRANCH   4   5
ENDBRANCH   3   4
ENDBRANCH   2   3
ENDBRANCH   1   2
BRANCH   1   8
ATOM      8  C   UNL     1      -2.560 -36.339  21.138  1.00  0.00     0.000 C 
BRANCH   8   9
ATOM      9  C   UNL     1      -2.862 -35.424  22.334  1.00  0.00     0.000 C 
BRANCH   9  10
ATOM     10  C   UNL     1      -1.736 -34.405  22.543  1.00  0.00     0.006 C 
BRANCH  10  11
ATOM     11  C   UNL     1      -2.278 -33.095  23.122  1.00  0.00     0.053 C 
BRANCH  11  12
ATOM     12  C   UNL     1      -1.434 -32.638  24.269  1.00  0.00     0.041 C 
ATOM     13  O   UNL     1      -1.655 -33.070  25.431  1.00  0.00    -0.550 OA
ATOM     14  O   UNL     1      -0.434 -31.697  24.064  1.00  0.00    -0.550 OA
ENDBRANCH  11  12
ENDBRANCH  10  11
ENDBRANCH   9  10
ENDBRANCH   8   9
ENDBRANCH   1   8
TORSDOF 9
ENDMDL
MODEL 2
REMARK VINA RESULT:    -4.552      1.154      1.676
REMARK INTER + INTRA:          -7.520
REMARK INTER:                  -7.036
REMARK INTRA:                  -0.484
REMARK UNBOUND:                -0.573
REMARK SMILES O=C([O-])CCCCCCCCC(=O)[O-]
REMARK SMILES IDX 7 1 6 2 5 3 4 4 2 5 1 6 3 7 8 8 9 9 10 10 11 11 12 12 13 13
REMARK SMILES IDX 14 14
REMARK H PARENT
REMARK Flexibility Score: inf
ROOT
ATOM      1  C   UNL     1       0.171 -37.074  20.682  1.00  0.00     0.000 C 
ENDROOT
BRANCH   1   2
ATOM      2  C   UNL     1       1.687 -37.224  20.903  1.00  0.00     0.000 C 
BRANCH   2   3
ATOM      3  C   UNL     1       2.480 -36.009  20.395  1.00  0.00     0.006 C 
BRANCH   3   4
ATOM      4  C   UNL     1       3.821 -35.831  21.118  1.00  0.00     0.053 C 
BRANCH   4   5
ATOM      5  C   UNL     1       3.598 -35.483  22.555  1.00  0.00     0.041 C 
ATOM      6  O   UNL     1       4.354 -35.950  23.445  1.00  0.00    -0.550 OA
ATOM      7  O   UNL     1       2.583 -34.600  22.906  1.00  0.00    -0.550 OA
ENDBRANCH   4   5
ENDBRANCH   3   4
ENDBRANCH   2   3
ENDBRANCH   1   2
BRANCH   1   8
ATOM      8  C   UNL     1      -0.365 -35.719  21.171  1.00  0.00     0.000 C 
BRANCH   8   9
ATOM      9  C   UNL     1      -1.895 -35.699  21.308  1.00  0.00     0.000 C 
BRANCH   9  10
ATOM     10  C   UNL     1      -2.323 -34.945  22.573  1.00  0.00     0.006 C 
BRANCH  10  11
ATOM     11  C   UNL     1      -1.393 -33.760  22.849  1.00  0.00     0.053 C 
BRANCH  11  12
ATOM     12  C   UNL     1      -2.002 -32.838  23.856  1.00  0.00     0.041 C 
ATOM     13  O   UNL     1      -2.944 -32.070  23.526  1.00  0.00    -0.550 OA
ATOM     14  O   UNL     1      -1.496 -32.790  25.149  1.00  0.00    -0.550 OA
ENDBRANCH  11  12
ENDBRANCH  10  11
ENDBRANCH   9  10
ENDBRANCH   8   9
ENDBRANCH   1   8
TORSDOF 9
ENDMDL
MODEL 3
REMARK VINA RESULT:    -4.539      1.139      1.328
REMARK INTER + INTRA:          -7.501
REMARK INTER:                  -6.854
REMARK INTRA:                  -0.646
REMARK UNBOUND:                -0.573
REMARK SMILES O=C([O-])CCCCCCCCC(=O)[O-]
REMARK SMILES IDX 7 1 6 2 5 3 4 4 2 5 1 6 3 7 8 8 9 9 10 10 11 11 12 12 13 13
REMARK SMILES IDX 14 14
REMARK H PARENT
REMARK Flexibility Score: inf
ROOT
ATOM      1  C   UNL     1      -1.458 -38.073  20.576  1.00  0.00     0.000 C 
ENDROOT
BRANCH   1   2
ATOM      2  C   UNL     1      -0.020 -37.853  21.077  1.00  0.00     0.000 C 
BRANCH   2   3
ATOM      3  C   UNL     1       0.987 -37.690  19.927  1.00  0.00     0.006 C 
BRANCH   3   4
ATOM      4  C   UNL     1       1.720 -36.343  19.967  1.00  0.00     0.053 C 
BRANCH   4   5
ATOM      5  C   UNL     1       2.365 -36.139  21.301  1.00  0.00     0.041 C 
ATOM      6  O   UNL     1       3.338 -36.856  21.651  1.00  0.00    -0.550 OA
ATOM      7  O   UNL     1       1.922 -35.123  22.139  1.00  0.00    -0.550 OA
ENDBRANCH   4   5
ENDBRANCH   3   4
ENDBRANCH   2   3
ENDBRANCH   1   2
BRANCH   1   8
ATOM      8  C   UNL     1      -2.435 -37.010  21.104  1.00  0.00     0.000 C 
BRANCH   8   9
ATOM      9  C   UNL     1      -1.800 -35.615  21.205  1.00  0.00     0.000 C 
BRANCH   9  10
ATOM     10  C   UNL     1      -2.232 -34.908  22.495  1.00  0.00     0.006 C 
BRANCH  10  11
ATOM     11  C   UNL     1      -1.345 -33.692  22.779  1.00  0.00     0.053 C 
BRANCH  11  12
ATOM     12  C   UNL     1      -1.983 -32.804  23.800  1.00  0.00     0.041 C 
ATOM     13  O   UNL     1      -3.000 -32.124  23.501  1.00  0.00    -0.550 OA
ATOM     14  O   UNL     1      -1.424 -32.688  25.066  1.00  0.00    -0.550 OA
ENDBRANCH  11  12
ENDBRANCH  10  11
ENDBRANCH   9  10
ENDBRANCH   8   9
ENDBRANCH   1   8
TORSDOF 9
ENDMDL
MODEL 4
REMARK VINA RESULT:    -4.516      1.189      5.241
REMARK INTER + INTRA:          -7.465
REMARK INTER:                  -6.867
REMARK INTRA:                  -0.597
REMARK UNBOUND:                -0.573
REMARK SMILES O=C([O-])CCCCCCCCC(=O)[O-]
REMARK SMILES IDX 7 1 6 2 5 3 4 4 2 5 1 6 3 7 8 8 9 9 10 10 11 11 12 12 13 13
REMARK SMILES IDX 14 14
REMARK H PARENT
REMARK Flexibility Score: inf
ROOT
ATOM      1  C   UNL     1      -2.127 -36.114  20.798  1.00  0.00     0.000 C 
ENDROOT
BRANCH   1   2
ATOM      2  C   UNL     1      -2.592 -35.490  22.125  1.00  0.00     0.000 C 
BRANCH   2   3
ATOM      3  C   UNL     1      -1.689 -34.331  22.580  1.00  0.00     0.006 C 
BRANCH   3   4
ATOM      4  C   UNL     1      -2.467 -33.219  23.294  1.00  0.00     0.053 C 
BRANCH   4   5
ATOM      5  C   UNL     1      -1.525 -32.288  23.990  1.00  0.00     0.041 C 
ATOM      6  O   UNL     1      -0.341 -32.644  24.226  1.00  0.00    -0.550 OA
ATOM      7  O   UNL     1      -1.941 -31.008  24.336  1.00  0.00    -0.550 OA
ENDBRANCH   4   5
ENDBRANCH   3   4
ENDBRANCH   2   3
ENDBRANCH   1   2
BRANCH   1   8
ATOM      8  C   UNL     1      -1.572 -37.536  20.978  1.00  0.00     0.000 C 
BRANCH   8   9
ATOM      9  C   UNL     1      -0.043 -37.563  21.123  1.00  0.00     0.000 C 
BRANCH   9  10
ATOM     10  C   UNL     1       0.588 -36.305  20.516  1.00  0.00     0.006 C 
BRANCH  10  11
ATOM     11  C   UNL     1       1.698 -35.755  21.417  1.00  0.00     0.053 C 
BRANCH  11  12
ATOM     12  C   UNL     1       3.014 -36.372  21.065  1.00  0.00     0.041 C 
ATOM     13  O   UNL     1       3.608 -36.038  20.005  1.00  0.00    -0.550 OA
ATOM     14  O   UNL     1       3.563 -37.353  21.881  1.00  0.00    -0.550 OA
ENDBRANCH  11  12
ENDBRANCH  10  11
ENDBRANCH   9  10
ENDBRANCH   8   9
ENDBRANCH   1   8
TORSDOF 9
ENDMDL
MODEL 5
REMARK VINA RESULT:    -4.497      1.113      5.310
REMARK INTER + INTRA:          -7.436
REMARK INTER:                  -6.844
REMARK INTRA:                  -0.592
REMARK UNBOUND:                -0.573
REMARK SMILES O=C([O-])CCCCCCCCC(=O)[O-]
REMARK SMILES IDX 7 1 6 2 5 3 4 4 2 5 1 6 3 7 8 8 9 9 10 10 11 11 12 12 13 13
REMARK SMILES IDX 14 14
REMARK H PARENT
REMARK Flexibility Score: inf
ROOT
ATOM      1  C   UNL     1      -0.580 -35.900  21.147  1.00  0.00     0.000 C 
ENDROOT
BRANCH   1   2
ATOM      2  C   UNL     1      -2.096 -35.923  21.408  1.00  0.00     0.000 C 
BRANCH   2   3
ATOM      3  C   UNL     1      -2.520 -34.934  22.505  1.00  0.00     0.006 C 
BRANCH   3   4
ATOM      4  C   UNL     1      -1.429 -33.906  22.832  1.00  0.00     0.053 C 
BRANCH   4   5
ATOM      5  C   UNL     1      -1.944 -32.889  23.800  1.00  0.00     0.041 C 
ATOM      6  O   UNL     1      -2.939 -32.177  23.503  1.00  0.00    -0.550 OA
ATOM      7  O   UNL     1      -1.355 -32.760  25.052  1.00  0.00    -0.550 OA
ENDBRANCH   4   5
ENDBRANCH   3   4
ENDBRANCH   2   3
ENDBRANCH   1   2
BRANCH   1   8
ATOM      8  C   UNL     1       0.015 -37.311  21.001  1.00  0.00     0.000 C 
BRANCH   8   9
ATOM      9  C   UNL     1       1.223 -37.351  20.053  1.00  0.00     0.000 C 
BRANCH   9  10
ATOM     10  C   UNL     1       1.795 -35.946  19.833  1.00  0.00     0.006 C 
BRANCH  10  11
ATOM     11  C   UNL     1       3.276 -35.887  20.220  1.00  0.00     0.053 C 
BRANCH  11  12
ATOM     12  C   UNL     1       3.432 -35.912  21.707  1.00  0.00     0.041 C 
ATOM     13  O   UNL     1       2.740 -35.146  22.430  1.00  0.00    -0.550 OA
ATOM     14  O   UNL     1       4.376 -36.744  22.293  1.00  0.00    -0.550 OA
ENDBRANCH  11  12
ENDBRANCH  10  11
ENDBRANCH   9  10
ENDBRANCH   8   9
ENDBRANCH   1   8
TORSDOF 9
ENDMDL
MODEL 6
REMARK VINA RESULT:    -4.377      1.472      1.851
REMARK INTER + INTRA:          -7.252
REMARK INTER:                  -6.837
REMARK INTRA:                  -0.415
REMARK UNBOUND:                -0.573
REMARK SMILES O=C([O-])CCCCCCCCC(=O)[O-]
REMARK SMILES IDX 7 1 6 2 5 3 4 4 2 5 1 6 3 7 8 8 9 9 10 10 11 11 12 12 13 13
REMARK SMILES IDX 14 14
REMARK H PARENT
REMARK Flexibility Score: inf
ROOT
ATOM      1  C   UNL     1      -0.181 -36.075  21.093  1.00  0.00     0.000 C 
ENDROOT
BRANCH   1   2
ATOM      2  C   UNL     1       0.569 -37.413  20.967  1.00  0.00     0.000 C 
BRANCH   2   3
ATOM      3  C   UNL     1       1.473 -37.468  19.725  1.00  0.00     0.006 C 
BRANCH   3   4
ATOM      4  C   UNL     1       2.091 -36.107  19.380  1.00  0.00     0.053 C 
BRANCH   4   5
ATOM      5  C   UNL     1       3.573 -36.141  19.581  1.00  0.00     0.041 C 
ATOM      6  O   UNL     1       4.054 -36.198  20.743  1.00  0.00    -0.550 OA
ATOM      7  O   UNL     1       4.423 -36.161  18.482  1.00  0.00    -0.550 OA
ENDBRANCH   4   5
ENDBRANCH   3   4
ENDBRANCH   2   3
ENDBRANCH   1   2
BRANCH   1   8
ATOM      8  C   UNL     1      -1.707 -36.248  21.042  1.00  0.00     0.000 C 
BRANCH   8   9
ATOM      9  C   UNL     1      -2.437 -35.407  22.100  1.00  0.00     0.000 C 
BRANCH   9  10
ATOM     10  C   UNL     1      -1.615 -34.170  22.480  1.00  0.00     0.006 C 
BRANCH  10  11
ATOM     11  C   UNL     1      -2.161 -33.515  23.753  1.00  0.00     0.053 C 
BRANCH  11  12
ATOM     12  C   UNL     1      -1.370 -32.292  24.095  1.00  0.00     0.041 C 
ATOM     13  O   UNL     1      -1.944 -31.177  24.210  1.00  0.00    -0.550 OA
ATOM     14  O   UNL     1       0.009 -32.374  24.236  1.00  0.00    -0.550 OA
ENDBRANCH  11  12
ENDBRANCH  10  11
ENDBRANCH   9  10
ENDBRANCH   8   9
ENDBRANCH   1   8
TORSDOF 9
ENDMDL
MODEL 7
REMARK VINA RESULT:    -4.214      3.071      6.308
REMARK INTER + INTRA:          -7.004
REMARK INTER:                  -6.245
REMARK INTRA:                  -0.760
REMARK UNBOUND:                -0.573
REMARK SMILES O=C([O-])CCCCCCCCC(=O)[O-]
REMARK SMILES IDX 7 1 6 2 5 3 4 4 2 5 1 6 3 7 8 8 9 9 10 10 11 11 12 12 13 13
REMARK SMILES IDX 14 14
REMARK H PARENT
REMARK Flexibility Score: inf
ROOT
ATOM      1  C   UNL     1       2.023 -37.095  18.842  1.00  0.00     0.000 C 
ENDROOT
BRANCH   1   2
ATOM      2  C   UNL     1       1.709 -35.817  19.640  1.00  0.00     0.000 C 
BRANCH   2   3
ATOM      3  C   UNL     1       1.132 -36.119  21.033  1.00  0.00     0.006 C 
BRANCH   3   4
ATOM      4  C   UNL     1      -0.191 -36.893  20.971  1.00  0.00     0.053 C 
BRANCH   4   5
ATOM      5  C   UNL     1      -1.351 -35.954  21.076  1.00  0.00     0.041 C 
ATOM      6  O   UNL     1      -1.303 -34.974  21.864  1.00  0.00    -0.550 OA
ATOM      7  O   UNL     1      -2.465 -36.133  20.265  1.00  0.00    -0.550 OA
ENDBRANCH   4   5
ENDBRANCH   3   4
ENDBRANCH   2   3
ENDBRANCH   1   2
BRANCH   1   8
ATOM      8  C   UNL     1       3.071 -36.860  17.742  1.00  0.00     0.000 C 
BRANCH   8   9
ATOM      9  C   UNL     1       4.479 -36.616  18.304  1.00  0.00     0.000 C 
BRANCH   9  10
ATOM     10  C   UNL     1       4.844 -37.678  19.349  1.00  0.00     0.006 C 
BRANCH  10  11
ATOM     11  C   UNL     1       5.692 -37.077  20.473  1.00  0.00     0.053 C 
BRANCH  11  12
ATOM     12  C   UNL     1       4.828 -36.674  21.626  1.00  0.00     0.041 C 
ATOM     13  O   UNL     1       4.516 -35.465  21.793  1.00  0.00    -0.550 OA
ATOM     14  O   UNL     1       4.407 -37.627  22.545  1.00  0.00    -0.550 OA
ENDBRANCH  11  12
ENDBRANCH  10  11
ENDBRANCH   9  10
ENDBRANCH   8   9
ENDBRANCH   1   8
TORSDOF 9
ENDMDL
MODEL 8
REMARK VINA RESULT:    -4.183      3.681      4.692
REMARK INTER + INTRA:          -6.957
REMARK INTER:                  -6.509
REMARK INTRA:                  -0.448
REMARK UNBOUND:                -0.573
REMARK SMILES O=C([O-])CCCCCCCCC(=O)[O-]
REMARK SMILES IDX 7 1 6 2 5 3 4 4 2 5 1 6 3 7 8 8 9 9 10 10 11 11 12 12 13 13
REMARK SMILES IDX 14 14
REMARK H PARENT
REMARK Flexibility Score: inf
ROOT
ATOM      1  C   UNL     1       0.196 -35.974  20.846  1.00  0.00     0.000 C 
ENDROOT
BRANCH   1   2
ATOM      2  C   UNL     1       0.957 -37.197  20.304  1.00  0.00     0.000 C 
BRANCH   2   3
ATOM      3  C   UNL     1       2.132 -37.607  21.207  1.00  0.00     0.006 C 
BRANCH   3   4
ATOM      4  C   UNL     1       3.432 -36.870  20.861  1.00  0.00     0.053 C 
BRANCH   4   5
ATOM      5  C   UNL     1       3.815 -35.941  21.969  1.00  0.00     0.041 C 
ATOM      6  O   UNL     1       5.010 -35.883  22.362  1.00  0.00    -0.550 OA
ATOM      7  O   UNL     1       2.863 -35.102  22.534  1.00  0.00    -0.550 OA
ENDBRANCH   4   5
ENDBRANCH   3   4
ENDBRANCH   2   3
ENDBRANCH   1   2
BRANCH   1   8
ATOM      8  C   UNL     1      -1.302 -36.255  21.050  1.00  0.00     0.000 C 
BRANCH   8   9
ATOM      9  C   UNL     1      -1.640 -37.752  20.986  1.00  0.00     0.000 C 
BRANCH   9  10
ATOM     10  C   UNL     1      -2.799 -38.011  20.016  1.00  0.00     0.006 C 
BRANCH  10  11
ATOM     11  C   UNL     1      -3.391 -36.696  19.501  1.00  0.00     0.053 C 
BRANCH  11  12
ATOM     12  C   UNL     1      -3.985 -36.885  18.141  1.00  0.00     0.041 C 
ATOM     13  O   UNL     1      -4.587 -35.935  17.575  1.00  0.00    -0.550 OA
ATOM     14  O   UNL     1      -3.917 -38.125  17.520  1.00  0.00    -0.550 OA
ENDBRANCH  11  12
ENDBRANCH  10  11
ENDBRANCH   9  10
ENDBRANCH   8   9
ENDBRANCH   1   8
TORSDOF 9
ENDMDL
MODEL 9
REMARK VINA RESULT:    -4.061      2.717      3.902
REMARK INTER + INTRA:          -6.771
REMARK INTER:                  -6.127
REMARK INTRA:                  -0.644
REMARK UNBOUND:                -0.573
REMARK SMILES O=C([O-])CCCCCCCCC(=O)[O-]
REMARK SMILES IDX 7 1 6 2 5 3 4 4 2 5 1 6 3 7 8 8 9 9 10 10 11 11 12 12 13 13
REMARK SMILES IDX 14 14
REMARK H PARENT
REMARK Flexibility Score: inf
ROOT
ATOM      1  C   UNL     1       1.854 -35.691  21.352  1.00  0.00     0.000 C 
ENDROOT
BRANCH   1   2
ATOM      2  C   UNL     1       2.833 -36.877  21.418  1.00  0.00     0.000 C 
BRANCH   2   3
ATOM      3  C   UNL     1       4.138 -36.607  20.652  1.00  0.00     0.006 C 
BRANCH   3   4
ATOM      4  C   UNL     1       3.896 -36.038  19.248  1.00  0.00     0.053 C 
BRANCH   4   5
ATOM      5  C   UNL     1       3.582 -37.139  18.286  1.00  0.00     0.041 C 
ATOM      6  O   UNL     1       4.480 -37.948  17.933  1.00  0.00    -0.550 OA
ATOM      7  O   UNL     1       2.285 -37.303  17.817  1.00  0.00    -0.550 OA
ENDBRANCH   4   5
ENDBRANCH   3   4
ENDBRANCH   2   3
ENDBRANCH   1   2
BRANCH   1   8
ATOM      8  C   UNL     1       0.544 -36.047  20.631  1.00  0.00     0.000 C 
BRANCH   8   9
ATOM      9  C   UNL     1       0.063 -37.473  20.942  1.00  0.00     0.000 C 
BRANCH   9  10
ATOM     10  C   UNL     1      -1.469 -37.545  20.953  1.00  0.00     0.006 C 
BRANCH  10  11
ATOM     11  C   UNL     1      -2.087 -36.162  20.726  1.00  0.00     0.053 C 
BRANCH  11  12
ATOM     12  C   UNL     1      -2.752 -35.673  21.974  1.00  0.00     0.041 C 
ATOM     13  O   UNL     1      -3.879 -36.123  22.310  1.00  0.00    -0.550 OA
ATOM     14  O   UNL     1      -2.150 -34.683  22.740  1.00  0.00    -0.550 OA
ENDBRANCH  11  12
ENDBRANCH  10  11
ENDBRANCH   9  10
ENDBRANCH   8   9
ENDBRANCH   1   8
TORSDOF 9
ENDMDL
