MODEL 1
REMARK VINA RESULT:    -3.431      0.000      0.000
REMARK INTER + INTRA:          -3.643
REMARK INTER:                  -3.631
REMARK INTRA:                  -0.012
REMARK UNBOUND:                -0.012
REMARK SMILES O=Cc1ccco1
REMARK SMILES IDX 5 1 6 2 7 3 3 4 4 5 2 6 1 7
REMARK H PARENT
REMARK Flexibility Score: inf
ROOT
ATOM      1  C   UNL     1     204.323 202.898 229.483  1.00  0.00     0.043 A 
ATOM      2  C   UNL     1     204.538 204.196 229.901  1.00  0.00     0.196 A 
ATOM      3  O   UNL     1     203.385 204.779 230.143  1.00  0.00    -0.462 OA
ATOM      4  C   UNL     1     202.424 203.919 229.901  1.00  0.00     0.166 A 
ATOM      5  C   UNL     1     202.956 202.716 229.482  1.00  0.00     0.054 A 
ENDROOT
BRANCH   4   6
ATOM      6  C   UNL     1     200.999 204.209 230.059  1.00  0.00     0.298 C 
ATOM      7  O   UNL     1     200.490 204.281 231.208  1.00  0.00    -0.294 OA
ENDBRANCH   4   6
TORSDOF 1
ENDMDL
MODEL 2
REMARK VINA RESULT:    -3.416     12.109     12.451
REMARK INTER + INTRA:          -3.627
REMARK INTER:                  -3.615
REMARK INTRA:                  -0.012
REMARK UNBOUND:                -0.012
REMARK SMILES O=Cc1ccco1
REMARK SMILES IDX 5 1 6 2 7 3 3 4 4 5 2 6 1 7
REMARK H PARENT
REMARK Flexibility Score: inf
ROOT
ATOM      1  C   UNL     1     203.648 203.750 243.901  1.00  0.00     0.043 A 
ATOM      2  C   UNL     1     202.530 202.941 243.832  1.00  0.00     0.196 A 
ATOM      3  O   UNL     1     202.394 202.479 242.609  1.00  0.00    -0.462 OA
ATOM      4  C   UNL     1     203.375 202.950 241.875  1.00  0.00     0.166 A 
ATOM      5  C   UNL     1     204.196 203.756 242.637  1.00  0.00     0.054 A 
ENDROOT
BRANCH   4   6
ATOM      6  C   UNL     1     203.557 202.651 240.454  1.00  0.00     0.298 C 
ATOM      7  O   UNL     1     202.817 203.195 239.592  1.00  0.00    -0.294 OA
ENDBRANCH   4   6
TORSDOF 1
ENDMDL
MODEL 3
REMARK VINA RESULT:    -3.410      2.457      4.005
REMARK INTER + INTRA:          -3.621
REMARK INTER:                  -3.608
REMARK INTRA:                  -0.013
REMARK UNBOUND:                -0.012
REMARK SMILES O=Cc1ccco1
REMARK SMILES IDX 5 1 6 2 7 3 3 4 4 5 2 6 1 7
REMARK H PARENT
REMARK Flexibility Score: inf
ROOT
ATOM      1  C   UNL     1     202.875 203.138 229.489  1.00  0.00     0.043 A 
ATOM      2  C   UNL     1     202.700 201.843 229.936  1.00  0.00     0.196 A 
ATOM      3  O   UNL     1     203.869 201.309 230.210  1.00  0.00    -0.462 OA
ATOM      4  C   UNL     1     204.802 202.198 229.962  1.00  0.00     0.166 A 
ATOM      5  C   UNL     1     204.234 203.370 229.506  1.00  0.00     0.054 A 
ENDROOT
BRANCH   4   6
ATOM      6  C   UNL     1     206.234 201.964 230.150  1.00  0.00     0.298 C 
ATOM      7  O   UNL     1     206.666 201.520 231.246  1.00  0.00    -0.294 OA
ENDBRANCH   4   6
TORSDOF 1
ENDMDL
MODEL 4
REMARK VINA RESULT:    -3.395     14.165     14.438
REMARK INTER + INTRA:          -3.605
REMARK INTER:                  -3.594
REMARK INTRA:                  -0.011
REMARK UNBOUND:                -0.012
REMARK SMILES O=Cc1ccco1
REMARK SMILES IDX 5 1 6 2 7 3 3 4 4 5 2 6 1 7
REMARK H PARENT
REMARK Flexibility Score: inf
ROOT
ATOM      1  C   UNL     1     204.104 202.097 242.153  1.00  0.00     0.043 A 
ATOM      2  C   UNL     1     202.986 201.450 242.643  1.00  0.00     0.196 A 
ATOM      3  O   UNL     1     202.956 201.551 243.953  1.00  0.00    -0.462 OA
ATOM      4  C   UNL     1     204.006 202.235 244.342  1.00  0.00     0.166 A 
ATOM      5  C   UNL     1     204.765 202.606 243.251  1.00  0.00     0.054 A 
ENDROOT
BRANCH   4   6
ATOM      6  C   UNL     1     204.312 202.553 245.738  1.00  0.00     0.298 C 
ATOM      7  O   UNL     1     205.087 201.814 246.400  1.00  0.00    -0.294 OA
ENDBRANCH   4   6
TORSDOF 1
ENDMDL
MODEL 5
REMARK VINA RESULT:    -3.333      2.144      3.462
REMARK INTER + INTRA:          -3.540
REMARK INTER:                  -3.525
REMARK INTRA:                  -0.015
REMARK UNBOUND:                -0.012
REMARK SMILES O=Cc1ccco1
REMARK SMILES IDX 5 1 6 2 7 3 3 4 4 5 2 6 1 7
REMARK H PARENT
REMARK Flexibility Score: inf
ROOT
ATOM      1  C   UNL     1     200.963 204.531 230.640  1.00  0.00     0.043 A 
ATOM      2  C   UNL     1     200.475 203.660 231.595  1.00  0.00     0.196 A 
ATOM      3  O   UNL     1     201.027 202.478 231.438  1.00  0.00    -0.462 OA
ATOM      4  C   UNL     1     201.856 202.537 230.422  1.00  0.00     0.166 A 
ATOM      5  C   UNL     1     201.857 203.806 229.881  1.00  0.00     0.054 A 
ENDROOT
BRANCH   4   6
ATOM      6  C   UNL     1     202.657 201.409 229.945  1.00  0.00     0.298 C 
ATOM      7  O   UNL     1     202.182 200.243 229.960  1.00  0.00    -0.294 OA
ENDBRANCH   4   6
TORSDOF 1
ENDMDL
MODEL 6
REMARK VINA RESULT:    -3.318      2.503      2.906
REMARK INTER + INTRA:          -3.523
REMARK INTER:                  -3.509
REMARK INTRA:                  -0.015
REMARK UNBOUND:                -0.012
REMARK SMILES O=Cc1ccco1
REMARK SMILES IDX 5 1 6 2 7 3 3 4 4 5 2 6 1 7
REMARK H PARENT
REMARK Flexibility Score: inf
ROOT
ATOM      1  C   UNL     1     204.128 203.502 229.472  1.00  0.00     0.043 A 
ATOM      2  C   UNL     1     205.043 202.617 230.010  1.00  0.00     0.196 A 
ATOM      3  O   UNL     1     204.439 201.491 230.319  1.00  0.00    -0.462 OA
ATOM      4  C   UNL     1     203.169 201.600 230.006  1.00  0.00     0.166 A 
ATOM      5  C   UNL     1     202.916 202.846 229.469  1.00  0.00     0.054 A 
ENDROOT
BRANCH   4   6
ATOM      6  C   UNL     1     202.178 200.543 230.205  1.00  0.00     0.298 C 
ATOM      7  O   UNL     1     202.242 199.796 231.217  1.00  0.00    -0.294 OA
ENDBRANCH   4   6
TORSDOF 1
ENDMDL
MODEL 7
REMARK VINA RESULT:    -3.311     14.441     14.703
REMARK INTER + INTRA:          -3.516
REMARK INTER:                  -3.504
REMARK INTRA:                  -0.012
REMARK UNBOUND:                -0.012
REMARK SMILES O=Cc1ccco1
REMARK SMILES IDX 5 1 6 2 7 3 3 4 4 5 2 6 1 7
REMARK H PARENT
REMARK Flexibility Score: inf
ROOT
ATOM      1  C   UNL     1     204.537 202.288 245.746  1.00  0.00     0.043 A 
ATOM      2  C   UNL     1     203.303 202.461 246.340  1.00  0.00     0.196 A 
ATOM      3  O   UNL     1     202.386 202.628 245.414  1.00  0.00    -0.462 OA
ATOM      4  C   UNL     1     202.967 202.572 244.238  1.00  0.00     0.166 A 
ATOM      5  C   UNL     1     204.322 202.360 244.386  1.00  0.00     0.054 A 
ENDROOT
BRANCH   4   6
ATOM      6  C   UNL     1     202.263 202.716 242.963  1.00  0.00     0.298 C 
ATOM      7  O   UNL     1     201.739 203.817 242.649  1.00  0.00    -0.294 OA
ENDBRANCH   4   6
TORSDOF 1
ENDMDL
MODEL 8
REMARK VINA RESULT:    -3.248      1.668      2.234
REMARK INTER + INTRA:          -3.449
REMARK INTER:                  -3.438
REMARK INTRA:                  -0.011
REMARK UNBOUND:                -0.012
REMARK SMILES O=Cc1ccco1
REMARK SMILES IDX 5 1 6 2 7 3 3 4 4 5 2 6 1 7
REMARK H PARENT
REMARK Flexibility Score: inf
ROOT
ATOM      1  C   UNL     1     204.387 205.976 231.710  1.00  0.00     0.043 A 
ATOM      2  C   UNL     1     205.137 205.561 230.627  1.00  0.00     0.196 A 
ATOM      3  O   UNL     1     204.418 204.761 229.872  1.00  0.00    -0.462 OA
ATOM      4  C   UNL     1     203.230 204.634 230.414  1.00  0.00     0.166 A 
ATOM      5  C   UNL     1     203.153 205.378 231.574  1.00  0.00     0.054 A 
ENDROOT
BRANCH   4   6
ATOM      6  C   UNL     1     202.151 203.817 229.855  1.00  0.00     0.298 C 
ATOM      7  O   UNL     1     200.974 204.261 229.819  1.00  0.00    -0.294 OA
ENDBRANCH   4   6
TORSDOF 1
ENDMDL
MODEL 9
REMARK VINA RESULT:    -3.247      2.691      3.616
REMARK INTER + INTRA:          -3.448
REMARK INTER:                  -3.437
REMARK INTRA:                  -0.011
REMARK UNBOUND:                -0.012
REMARK SMILES O=Cc1ccco1
REMARK SMILES IDX 5 1 6 2 7 3 3 4 4 5 2 6 1 7
REMARK H PARENT
REMARK Flexibility Score: inf
ROOT
ATOM      1  C   UNL     1     206.632 202.191 231.746  1.00  0.00     0.043 A 
ATOM      2  C   UNL     1     206.253 201.473 230.629  1.00  0.00     0.196 A 
ATOM      3  O   UNL     1     205.462 202.207 229.879  1.00  0.00    -0.462 OA
ATOM      4  C   UNL     1     205.306 203.375 230.457  1.00  0.00     0.166 A 
ATOM      5  C   UNL     1     206.021 203.422 231.637  1.00  0.00     0.054 A 
ENDROOT
BRANCH   4   6
ATOM      6  C   UNL     1     204.490 204.462 229.915  1.00  0.00     0.298 C 
ATOM      7  O   UNL     1     204.908 205.648 229.953  1.00  0.00    -0.294 OA
ENDBRANCH   4   6
TORSDOF 1
ENDMDL
