MODEL 1
REMARK VINA RESULT:    74.475      0.000      0.000
REMARK INTER + INTRA:          81.129
REMARK INTER:                  81.005
REMARK INTRA:                   0.124
REMARK UNBOUND:                 0.124
REMARK SMILES C[C@@H]1[C@H]2C3=CC[C@H]4[C@]5(C)CC[C@@H](O)C(C)(C)[C@@H]5CC[C@@]4(C)[C@]3(C)CC[C@]2(C(=O)[O-])CC[C@@H]1C
REMARK SMILES IDX 26 1 30 2 25 3 3 4 31 5 24 6 4 7 2 8 32 9 22 10 5 11 1 12
REMARK SMILES IDX 33 13 23 14 20 15 6 16 7 17 19 18 21 19 8 20 18 21 17 22
REMARK SMILES IDX 10 23 9 24 14 25 11 26 12 27 15 28 16 29 27 30 28 31 29 32
REMARK SMILES IDX 13 33
REMARK H PARENT 13 34
REMARK Flexibility Score: inf
ROOT
ATOM      1  C   UNL     1      -7.092  14.326 -13.571  1.00  0.00     0.017 C 
ATOM      2  C   UNL     1      -6.554  15.194 -14.737  1.00  0.00     0.014 C 
ATOM      3  C   UNL     1      -5.973  13.303 -13.125  1.00  0.00     0.014 C 
ATOM      4  C   UNL     1      -7.465  15.235 -12.353  1.00  0.00     0.030 C 
ATOM      5  C   UNL     1      -7.536  16.307 -15.125  1.00  0.00     0.004 C 
ATOM      6  C   UNL     1      -5.716  13.238 -11.592  1.00  0.00     0.013 C 
ATOM      7  C   UNL     1      -7.970  14.305 -11.232  1.00  0.00    -0.063 C 
ATOM      8  C   UNL     1      -8.317  16.508 -12.692  1.00  0.00    -0.003 C 
ATOM      9  C   UNL     1      -7.779  17.268 -13.950  1.00  0.00    -0.011 C 
ATOM     10  C   UNL     1      -7.047  13.178 -10.750  1.00  0.00    -0.006 C 
ATOM     11  C   UNL     1      -9.160  14.447 -10.632  1.00  0.00    -0.027 C 
ATOM     12  C   UNL     1      -8.402  17.482 -11.489  1.00  0.00     0.008 C 
ATOM     13  C   UNL     1      -6.523  18.131 -13.685  1.00  0.00     0.008 C 
ATOM     14  C   UNL     1      -7.682  11.789 -11.084  1.00  0.00     0.017 C 
ATOM     15  C   UNL     1      -6.855  13.376  -9.162  1.00  0.00    -0.020 C 
ATOM     16  C   UNL     1      -9.484  13.689  -9.384  1.00  0.00     0.032 C 
ATOM     17  C   UNL     1      -8.258  13.599  -8.401  1.00  0.00     0.006 C 
ATOM     18  C   UNL     1      -6.038  12.207  -8.550  1.00  0.00     0.008 C 
ATOM     19  C   UNL     1      -5.998  14.659  -8.915  1.00  0.00     0.012 C 
ATOM     20  C   UNL     1      -8.525  12.704  -7.097  1.00  0.00    -0.025 C 
ATOM     21  C   UNL     1      -6.818  10.971  -8.096  1.00  0.00     0.005 C 
ATOM     22  C   UNL     1      -8.197  11.178  -7.369  1.00  0.00     0.003 C 
ATOM     23  C   UNL     1      -7.673  13.214  -5.889  1.00  0.00     0.010 C 
ATOM     24  C   UNL     1     -10.025  12.920  -6.694  1.00  0.00     0.012 C 
ATOM     25  C   UNL     1      -8.307  10.234  -6.082  1.00  0.00    -0.006 C 
ATOM     26  C   UNL     1      -7.754  12.320  -4.633  1.00  0.00     0.033 C 
ATOM     27  C   UNL     1      -7.438  10.837  -4.927  1.00  0.00     0.120 C 
ATOM     28  C   UNL     1      -9.791  10.033  -5.636  1.00  0.00     0.014 C 
ATOM     29  C   UNL     1      -7.787   8.789  -6.398  1.00  0.00     0.014 C 
ENDROOT
BRANCH   1  30
ATOM     30  C   UNL     1      -8.303  13.546 -14.098  1.00  0.00     0.048 C 
ATOM     31  O   UNL     1      -8.161  12.366 -14.522  1.00  0.00    -0.550 OA
ATOM     32  O   UNL     1      -9.557  14.137 -14.195  1.00  0.00    -0.550 OA
ENDBRANCH   1  30
BRANCH  27  33
ATOM     33  O   UNL     1      -7.513  10.055  -3.760  1.00  0.00    -0.393 OA
ATOM     34  H   UNL     1      -7.146   9.153  -3.968  1.00  0.00     0.210 HD
ENDBRANCH  27  33
TORSDOF 2
ENDMDL
