MODEL 1
REMARK VINA RESULT:    -3.995      0.000      0.000
REMARK INTER + INTRA:          -9.089
REMARK INTER:                  -7.499
REMARK INTRA:                  -1.590
REMARK UNBOUND:                -1.590
REMARK SMILES O=C([O-])CCCCCCCCCCCCCCC(=O)[O-]
REMARK SMILES IDX 10 1 9 2 8 3 7 4 6 5 5 6 4 7 2 8 1 9 3 10 11 11 12 12 13 13
REMARK SMILES IDX 14 14 15 15 16 16 17 17 18 18 19 19 20 20
REMARK H PARENT
REMARK Flexibility Score: inf
ROOT
ATOM      1  C   UNL     1      16.945 132.696  61.414  1.00  0.00     0.000 C 
ENDROOT
BRANCH   1   2
ATOM      2  C   UNL     1      17.015 133.741  62.538  1.00  0.00     0.000 C 
BRANCH   2   3
ATOM      3  C   UNL     1      18.208 133.472  63.464  1.00  0.00     0.000 C 
BRANCH   3   4
ATOM      4  C   UNL     1      19.272 132.619  62.757  1.00  0.00     0.000 C 
BRANCH   4   5
ATOM      5  C   UNL     1      19.610 131.327  63.523  1.00  0.00     0.000 C 
BRANCH   5   6
ATOM      6  C   UNL     1      18.517 130.835  64.492  1.00  0.00     0.006 C 
BRANCH   6   7
ATOM      7  C   UNL     1      17.441 129.950  63.844  1.00  0.00     0.053 C 
BRANCH   7   8
ATOM      8  C   UNL     1      17.590 128.511  64.233  1.00  0.00     0.041 C 
ATOM      9  O   UNL     1      16.735 127.963  64.977  1.00  0.00    -0.550 OA
ATOM     10  O   UNL     1      18.692 127.784  63.801  1.00  0.00    -0.550 OA
ENDBRANCH   7   8
ENDBRANCH   6   7
ENDBRANCH   5   6
ENDBRANCH   4   5
ENDBRANCH   3   4
ENDBRANCH   2   3
ENDBRANCH   1   2
BRANCH   1  11
ATOM     11  C   UNL     1      15.624 132.761  60.631  1.00  0.00     0.000 C 
BRANCH  11  12
ATOM     12  C   UNL     1      15.059 131.367  60.308  1.00  0.00     0.000 C 
BRANCH  12  13
ATOM     13  C   UNL     1      14.292 131.331  58.974  1.00  0.00     0.000 C 
BRANCH  13  14
ATOM     14  C   UNL     1      15.040 131.959  57.780  1.00  0.00     0.000 C 
BRANCH  14  15
ATOM     15  C   UNL     1      15.912 130.984  56.966  1.00  0.00     0.000 C 
BRANCH  15  16
ATOM     16  C   UNL     1      17.402 131.361  56.883  1.00  0.00     0.006 C 
BRANCH  16  17
ATOM     17  C   UNL     1      17.716 132.698  57.563  1.00  0.00     0.053 C 
BRANCH  17  18
ATOM     18  C   UNL     1      19.166 132.773  57.924  1.00  0.00     0.041 C 
ATOM     19  O   UNL     1      19.513 133.092  59.091  1.00  0.00    -0.550 OA
ATOM     20  O   UNL     1      20.135 132.439  56.985  1.00  0.00    -0.550 OA
ENDBRANCH  17  18
ENDBRANCH  16  17
ENDBRANCH  15  16
ENDBRANCH  14  15
ENDBRANCH  13  14
ENDBRANCH  12  13
ENDBRANCH  11  12
ENDBRANCH   1  11
TORSDOF 15
ENDMDL
MODEL 2
REMARK VINA RESULT:    -3.944      1.514      6.709
REMARK INTER + INTRA:          -8.993
REMARK INTER:                  -7.241
REMARK INTRA:                  -1.752
REMARK UNBOUND:                -1.590
REMARK SMILES O=C([O-])CCCCCCCCCCCCCCC(=O)[O-]
REMARK SMILES IDX 10 1 9 2 8 3 7 4 6 5 5 6 4 7 2 8 1 9 3 10 11 11 12 12 13 13
REMARK SMILES IDX 14 14 15 15 16 16 17 17 18 18 19 19 20 20
REMARK H PARENT
REMARK Flexibility Score: inf
ROOT
ATOM      1  C   UNL     1      13.860 132.722  61.265  1.00  0.00     0.000 C 
ENDROOT
BRANCH   1   2
ATOM      2  C   UNL     1      13.633 133.443  59.927  1.00  0.00     0.000 C 
BRANCH   2   3
ATOM      3  C   UNL     1      13.660 132.451  58.758  1.00  0.00     0.000 C 
BRANCH   3   4
ATOM      4  C   UNL     1      14.639 132.912  57.668  1.00  0.00     0.000 C 
BRANCH   4   5
ATOM      5  C   UNL     1      15.972 133.428  58.238  1.00  0.00     0.000 C 
BRANCH   5   6
ATOM      6  C   UNL     1      17.112 132.391  58.277  1.00  0.00     0.006 C 
BRANCH   6   7
ATOM      7  C   UNL     1      16.880 131.154  57.395  1.00  0.00     0.053 C 
BRANCH   7   8
ATOM      8  C   UNL     1      17.639 131.233  56.106  1.00  0.00     0.041 C 
ATOM      9  O   UNL     1      17.124 130.805  55.040  1.00  0.00    -0.550 OA
ATOM     10  O   UNL     1      18.929 131.749  56.089  1.00  0.00    -0.550 OA
ENDBRANCH   7   8
ENDBRANCH   6   7
ENDBRANCH   5   6
ENDBRANCH   4   5
ENDBRANCH   3   4
ENDBRANCH   2   3
ENDBRANCH   1   2
BRANCH   1  11
ATOM     11  C   UNL     1      14.867 131.568  61.149  1.00  0.00     0.000 C 
BRANCH  11  12
ATOM     12  C   UNL     1      16.019 131.683  62.162  1.00  0.00     0.000 C 
BRANCH  12  13
ATOM     13  C   UNL     1      16.767 133.024  62.061  1.00  0.00     0.000 C 
BRANCH  13  14
ATOM     14  C   UNL     1      18.305 132.910  62.070  1.00  0.00     0.000 C 
BRANCH  14  15
ATOM     15  C   UNL     1      18.932 132.598  63.443  1.00  0.00     0.000 C 
BRANCH  15  16
ATOM     16  C   UNL     1      19.479 131.168  63.596  1.00  0.00     0.006 C 
BRANCH  16  17
ATOM     17  C   UNL     1      18.786 130.382  64.715  1.00  0.00     0.053 C 
BRANCH  17  18
ATOM     18  C   UNL     1      18.596 128.954  64.312  1.00  0.00     0.041 C 
ATOM     19  O   UNL     1      17.499 128.573  63.827  1.00  0.00    -0.550 OA
ATOM     20  O   UNL     1      19.649 128.054  64.424  1.00  0.00    -0.550 OA
ENDBRANCH  17  18
ENDBRANCH  16  17
ENDBRANCH  15  16
ENDBRANCH  14  15
ENDBRANCH  13  14
ENDBRANCH  12  13
ENDBRANCH  11  12
ENDBRANCH   1  11
TORSDOF 15
ENDMDL
MODEL 3
REMARK VINA RESULT:    -3.854      1.439      6.861
REMARK INTER + INTRA:          -8.823
REMARK INTER:                  -7.077
REMARK INTRA:                  -1.747
REMARK UNBOUND:                -1.590
REMARK SMILES O=C([O-])CCCCCCCCCCCCCCC(=O)[O-]
REMARK SMILES IDX 10 1 9 2 8 3 7 4 6 5 5 6 4 7 2 8 1 9 3 10 11 11 12 12 13 13
REMARK SMILES IDX 14 14 15 15 16 16 17 17 18 18 19 19 20 20
REMARK H PARENT
REMARK Flexibility Score: inf
ROOT
ATOM      1  C   UNL     1      14.237 132.437  60.040  1.00  0.00     0.000 C 
ENDROOT
BRANCH   1   2
ATOM      2  C   UNL     1      14.376 131.278  59.040  1.00  0.00     0.000 C 
BRANCH   2   3
ATOM      3  C   UNL     1      15.224 131.694  57.832  1.00  0.00     0.000 C 
BRANCH   3   4
ATOM      4  C   UNL     1      16.723 131.579  58.147  1.00  0.00     0.000 C 
BRANCH   4   5
ATOM      5  C   UNL     1      17.473 132.915  57.994  1.00  0.00     0.000 C 
BRANCH   5   6
ATOM      6  C   UNL     1      18.932 132.907  58.492  1.00  0.00     0.006 C 
BRANCH   6   7
ATOM      7  C   UNL     1      19.963 133.371  57.451  1.00  0.00     0.053 C 
BRANCH   7   8
ATOM      8  C   UNL     1      19.681 134.758  56.961  1.00  0.00     0.041 C 
ATOM      9  O   UNL     1      19.316 134.948  55.772  1.00  0.00    -0.550 OA
ATOM     10  O   UNL     1      19.855 135.845  57.809  1.00  0.00    -0.550 OA
ENDBRANCH   7   8
ENDBRANCH   6   7
ENDBRANCH   5   6
ENDBRANCH   4   5
ENDBRANCH   3   4
ENDBRANCH   2   3
ENDBRANCH   1   2
BRANCH   1  11
ATOM     11  C   UNL     1      14.518 132.003  61.487  1.00  0.00     0.000 C 
BRANCH  11  12
ATOM     12  C   UNL     1      16.017 131.798  61.763  1.00  0.00     0.000 C 
BRANCH  12  13
ATOM     13  C   UNL     1      16.825 133.103  61.649  1.00  0.00     0.000 C 
BRANCH  13  14
ATOM     14  C   UNL     1      17.976 133.243  62.666  1.00  0.00     0.000 C 
BRANCH  14  15
ATOM     15  C   UNL     1      19.321 132.637  62.223  1.00  0.00     0.000 C 
BRANCH  15  16
ATOM     16  C   UNL     1      19.948 131.648  63.223  1.00  0.00     0.006 C 
BRANCH  16  17
ATOM     17  C   UNL     1      19.005 131.293  64.379  1.00  0.00     0.053 C 
BRANCH  17  18
ATOM     18  C   UNL     1      18.585 129.860  64.290  1.00  0.00     0.041 C 
ATOM     19  O   UNL     1      19.444 128.943  64.356  1.00  0.00    -0.550 OA
ATOM     20  O   UNL     1      17.238 129.535  64.186  1.00  0.00    -0.550 OA
ENDBRANCH  17  18
ENDBRANCH  16  17
ENDBRANCH  15  16
ENDBRANCH  14  15
ENDBRANCH  13  14
ENDBRANCH  12  13
ENDBRANCH  11  12
ENDBRANCH   1  11
TORSDOF 15
ENDMDL
MODEL 4
REMARK VINA RESULT:    -3.852      1.204      1.951
REMARK INTER + INTRA:          -8.820
REMARK INTER:                  -7.210
REMARK INTRA:                  -1.609
REMARK UNBOUND:                -1.590
REMARK SMILES O=C([O-])CCCCCCCCCCCCCCC(=O)[O-]
REMARK SMILES IDX 10 1 9 2 8 3 7 4 6 5 5 6 4 7 2 8 1 9 3 10 11 11 12 12 13 13
REMARK SMILES IDX 14 14 15 15 16 16 17 17 18 18 19 19 20 20
REMARK H PARENT
REMARK Flexibility Score: inf
ROOT
ATOM      1  C   UNL     1      14.798 131.571  60.660  1.00  0.00     0.000 C 
ENDROOT
BRANCH   1   2
ATOM      2  C   UNL     1      16.051 131.975  61.452  1.00  0.00     0.000 C 
BRANCH   2   3
ATOM      3  C   UNL     1      16.748 133.176  60.802  1.00  0.00     0.000 C 
BRANCH   3   4
ATOM      4  C   UNL     1      18.259 133.149  61.075  1.00  0.00     0.000 C 
BRANCH   4   5
ATOM      5  C   UNL     1      18.599 133.214  62.575  1.00  0.00     0.000 C 
BRANCH   5   6
ATOM      6  C   UNL     1      19.447 132.041  63.106  1.00  0.00     0.006 C 
BRANCH   6   7
ATOM      7  C   UNL     1      18.897 131.381  64.380  1.00  0.00     0.053 C 
BRANCH   7   8
ATOM      8  C   UNL     1      18.584 129.932  64.171  1.00  0.00     0.041 C 
ATOM      9  O   UNL     1      17.388 129.542  64.125  1.00  0.00    -0.550 OA
ATOM     10  O   UNL     1      19.615 129.006  64.061  1.00  0.00    -0.550 OA
ENDBRANCH   7   8
ENDBRANCH   6   7
ENDBRANCH   5   6
ENDBRANCH   4   5
ENDBRANCH   3   4
ENDBRANCH   2   3
ENDBRANCH   1   2
BRANCH   1  11
ATOM     11  C   UNL     1      14.049 132.784  60.085  1.00  0.00     0.000 C 
BRANCH  11  12
ATOM     12  C   UNL     1      13.508 132.527  58.668  1.00  0.00     0.000 C 
BRANCH  12  13
ATOM     13  C   UNL     1      14.371 133.182  57.575  1.00  0.00     0.000 C 
BRANCH  13  14
ATOM     14  C   UNL     1      14.962 132.202  56.541  1.00  0.00     0.000 C 
BRANCH  14  15
ATOM     15  C   UNL     1      15.951 131.166  57.111  1.00  0.00     0.000 C 
BRANCH  15  16
ATOM     16  C   UNL     1      17.295 131.746  57.587  1.00  0.00     0.006 C 
BRANCH  16  17
ATOM     17  C   UNL     1      18.299 131.938  56.445  1.00  0.00     0.053 C 
BRANCH  17  18
ATOM     18  C   UNL     1      19.404 132.854  56.867  1.00  0.00     0.041 C 
ATOM     19  O   UNL     1      20.376 132.410  57.531  1.00  0.00    -0.550 OA
ATOM     20  O   UNL     1      19.384 134.190  56.483  1.00  0.00    -0.550 OA
ENDBRANCH  17  18
ENDBRANCH  16  17
ENDBRANCH  15  16
ENDBRANCH  14  15
ENDBRANCH  13  14
ENDBRANCH  12  13
ENDBRANCH  11  12
ENDBRANCH   1  11
TORSDOF 15
ENDMDL
MODEL 5
REMARK VINA RESULT:    -3.816      1.705      2.149
REMARK INTER + INTRA:          -8.751
REMARK INTER:                  -7.321
REMARK INTRA:                  -1.430
REMARK UNBOUND:                -1.590
REMARK SMILES O=C([O-])CCCCCCCCCCCCCCC(=O)[O-]
REMARK SMILES IDX 10 1 9 2 8 3 7 4 6 5 5 6 4 7 2 8 1 9 3 10 11 11 12 12 13 13
REMARK SMILES IDX 14 14 15 15 16 16 17 17 18 18 19 19 20 20
REMARK H PARENT
REMARK Flexibility Score: inf
ROOT
ATOM      1  C   UNL     1      16.327 132.997  61.384  1.00  0.00     0.000 C 
ENDROOT
BRANCH   1   2
ATOM      2  C   UNL     1      17.847 132.816  61.250  1.00  0.00     0.000 C 
BRANCH   2   3
ATOM      3  C   UNL     1      18.572 133.320  62.504  1.00  0.00     0.000 C 
BRANCH   3   4
ATOM      4  C   UNL     1      19.307 132.173  63.213  1.00  0.00     0.000 C 
BRANCH   4   5
ATOM      5  C   UNL     1      19.037 132.134  64.728  1.00  0.00     0.000 C 
BRANCH   5   6
ATOM      6  C   UNL     1      17.989 131.096  65.179  1.00  0.00     0.006 C 
BRANCH   6   7
ATOM      7  C   UNL     1      17.457 130.195  64.053  1.00  0.00     0.053 C 
BRANCH   7   8
ATOM      8  C   UNL     1      17.949 128.786  64.183  1.00  0.00     0.041 C 
ATOM      9  O   UNL     1      17.140 127.853  64.429  1.00  0.00    -0.550 OA
ATOM     10  O   UNL     1      19.305 128.509  64.065  1.00  0.00    -0.550 OA
ENDBRANCH   7   8
ENDBRANCH   6   7
ENDBRANCH   5   6
ENDBRANCH   4   5
ENDBRANCH   3   4
ENDBRANCH   2   3
ENDBRANCH   1   2
BRANCH   1  11
ATOM     11  C   UNL     1      15.580 131.657  61.472  1.00  0.00     0.000 C 
BRANCH  11  12
ATOM     12  C   UNL     1      14.745 131.362  60.214  1.00  0.00     0.000 C 
BRANCH  12  13
ATOM     13  C   UNL     1      14.412 132.632  59.411  1.00  0.00     0.000 C 
BRANCH  13  14
ATOM     14  C   UNL     1      14.690 132.532  57.897  1.00  0.00     0.000 C 
BRANCH  14  15
ATOM     15  C   UNL     1      15.389 131.237  57.442  1.00  0.00     0.000 C 
BRANCH  15  16
ATOM     16  C   UNL     1      16.900 131.372  57.182  1.00  0.00     0.006 C 
BRANCH  16  17
ATOM     17  C   UNL     1      17.314 130.861  55.797  1.00  0.00     0.053 C 
BRANCH  17  18
ATOM     18  C   UNL     1      16.997 131.879  54.747  1.00  0.00     0.041 C 
ATOM     19  O   UNL     1      16.576 131.515  53.618  1.00  0.00    -0.550 OA
ATOM     20  O   UNL     1      17.117 133.234  55.034  1.00  0.00    -0.550 OA
ENDBRANCH  17  18
ENDBRANCH  16  17
ENDBRANCH  15  16
ENDBRANCH  14  15
ENDBRANCH  13  14
ENDBRANCH  12  13
ENDBRANCH  11  12
ENDBRANCH   1  11
TORSDOF 15
ENDMDL
MODEL 6
REMARK VINA RESULT:    -3.805      1.284      2.180
REMARK INTER + INTRA:          -8.731
REMARK INTER:                  -6.704
REMARK INTRA:                  -2.027
REMARK UNBOUND:                -1.590
REMARK SMILES O=C([O-])CCCCCCCCCCCCCCC(=O)[O-]
REMARK SMILES IDX 10 1 9 2 8 3 7 4 6 5 5 6 4 7 2 8 1 9 3 10 11 11 12 12 13 13
REMARK SMILES IDX 14 14 15 15 16 16 17 17 18 18 19 19 20 20
REMARK H PARENT
REMARK Flexibility Score: inf
ROOT
ATOM      1  C   UNL     1      18.838 133.380  62.112  1.00  0.00     0.000 C 
ENDROOT
BRANCH   1   2
ATOM      2  C   UNL     1      18.101 134.138  63.228  1.00  0.00     0.000 C 
BRANCH   2   3
ATOM      3  C   UNL     1      18.244 133.413  64.571  1.00  0.00     0.000 C 
BRANCH   3   4
ATOM      4  C   UNL     1      16.945 132.684  64.944  1.00  0.00     0.000 C 
BRANCH   4   5
ATOM      5  C   UNL     1      17.155 131.182  65.208  1.00  0.00     0.000 C 
BRANCH   5   6
ATOM      6  C   UNL     1      17.670 130.370  64.003  1.00  0.00     0.006 C 
BRANCH   6   7
ATOM      7  C   UNL     1      19.127 129.898  64.128  1.00  0.00     0.053 C 
BRANCH   7   8
ATOM      8  C   UNL     1      19.244 128.408  64.033  1.00  0.00     0.041 C 
ATOM      9  O   UNL     1      18.227 127.706  63.792  1.00  0.00    -0.550 OA
ATOM     10  O   UNL     1      20.471 127.791  64.245  1.00  0.00    -0.550 OA
ENDBRANCH   7   8
ENDBRANCH   6   7
ENDBRANCH   5   6
ENDBRANCH   4   5
ENDBRANCH   3   4
ENDBRANCH   2   3
ENDBRANCH   1   2
BRANCH   1  11
ATOM     11  C   UNL     1      17.880 132.819  61.050  1.00  0.00     0.000 C 
BRANCH  11  12
ATOM     12  C   UNL     1      16.425 133.269  61.268  1.00  0.00     0.000 C 
BRANCH  12  13
ATOM     13  C   UNL     1      15.435 132.092  61.282  1.00  0.00     0.000 C 
BRANCH  13  14
ATOM     14  C   UNL     1      14.354 132.142  60.182  1.00  0.00     0.000 C 
BRANCH  14  15
ATOM     15  C   UNL     1      14.522 131.110  59.050  1.00  0.00     0.000 C 
BRANCH  15  16
ATOM     16  C   UNL     1      15.114 131.670  57.745  1.00  0.00     0.006 C 
BRANCH  16  17
ATOM     17  C   UNL     1      16.574 131.254  57.527  1.00  0.00     0.053 C 
BRANCH  17  18
ATOM     18  C   UNL     1      17.462 132.457  57.497  1.00  0.00     0.041 C 
ATOM     19  O   UNL     1      16.987 133.601  57.721  1.00  0.00    -0.550 OA
ATOM     20  O   UNL     1      18.826 132.309  57.274  1.00  0.00    -0.550 OA
ENDBRANCH  17  18
ENDBRANCH  16  17
ENDBRANCH  15  16
ENDBRANCH  14  15
ENDBRANCH  13  14
ENDBRANCH  12  13
ENDBRANCH  11  12
ENDBRANCH   1  11
TORSDOF 15
ENDMDL
MODEL 7
REMARK VINA RESULT:    -3.799      1.443      7.456
REMARK INTER + INTRA:          -8.720
REMARK INTER:                  -7.322
REMARK INTRA:                  -1.398
REMARK UNBOUND:                -1.590
REMARK SMILES O=C([O-])CCCCCCCCCCCCCCC(=O)[O-]
REMARK SMILES IDX 10 1 9 2 8 3 7 4 6 5 5 6 4 7 2 8 1 9 3 10 11 11 12 12 13 13
REMARK SMILES IDX 14 14 15 15 16 16 17 17 18 18 19 19 20 20
REMARK H PARENT
REMARK Flexibility Score: inf
ROOT
ATOM      1  C   UNL     1      16.416 132.739  62.012  1.00  0.00     0.000 C 
ENDROOT
BRANCH   1   2
ATOM      2  C   UNL     1      15.719 131.541  61.351  1.00  0.00     0.000 C 
BRANCH   2   3
ATOM      3  C   UNL     1      14.417 131.973  60.665  1.00  0.00     0.000 C 
BRANCH   3   4
ATOM      4  C   UNL     1      14.371 131.478  59.212  1.00  0.00     0.000 C 
BRANCH   4   5
ATOM      5  C   UNL     1      15.719 131.626  58.484  1.00  0.00     0.000 C 
BRANCH   5   6
ATOM      6  C   UNL     1      15.694 131.279  56.982  1.00  0.00     0.006 C 
BRANCH   6   7
ATOM      7  C   UNL     1      17.033 130.775  56.421  1.00  0.00     0.053 C 
BRANCH   7   8
ATOM      8  C   UNL     1      17.958 131.902  56.079  1.00  0.00     0.041 C 
ATOM      9  O   UNL     1      17.809 132.540  55.003  1.00  0.00    -0.550 OA
ATOM     10  O   UNL     1      19.005 132.226  56.932  1.00  0.00    -0.550 OA
ENDBRANCH   7   8
ENDBRANCH   6   7
ENDBRANCH   5   6
ENDBRANCH   4   5
ENDBRANCH   3   4
ENDBRANCH   2   3
ENDBRANCH   1   2
BRANCH   1  11
ATOM     11  C   UNL     1      17.893 132.861  61.602  1.00  0.00     0.000 C 
BRANCH  11  12
ATOM     12  C   UNL     1      18.816 133.152  62.798  1.00  0.00     0.000 C 
BRANCH  12  13
ATOM     13  C   UNL     1      19.654 131.930  63.212  1.00  0.00     0.000 C 
BRANCH  13  14
ATOM     14  C   UNL     1      19.149 131.194  64.470  1.00  0.00     0.000 C 
BRANCH  14  15
ATOM     15  C   UNL     1      18.941 129.676  64.303  1.00  0.00     0.000 C 
BRANCH  15  16
ATOM     16  C   UNL     1      17.480 129.240  64.097  1.00  0.00     0.006 C 
BRANCH  16  17
ATOM     17  C   UNL     1      16.482 130.125  64.854  1.00  0.00     0.053 C 
BRANCH  17  18
ATOM     18  C   UNL     1      15.674 129.304  65.808  1.00  0.00     0.041 C 
ATOM     19  O   UNL     1      14.905 129.864  66.632  1.00  0.00    -0.550 OA
ATOM     20  O   UNL     1      15.731 127.916  65.753  1.00  0.00    -0.550 OA
ENDBRANCH  17  18
ENDBRANCH  16  17
ENDBRANCH  15  16
ENDBRANCH  14  15
ENDBRANCH  13  14
ENDBRANCH  12  13
ENDBRANCH  11  12
ENDBRANCH   1  11
TORSDOF 15
ENDMDL
MODEL 8
REMARK VINA RESULT:    -3.766      1.603      6.370
REMARK INTER + INTRA:          -8.659
REMARK INTER:                  -6.547
REMARK INTRA:                  -2.112
REMARK UNBOUND:                -1.590
REMARK SMILES O=C([O-])CCCCCCCCCCCCCCC(=O)[O-]
REMARK SMILES IDX 10 1 9 2 8 3 7 4 6 5 5 6 4 7 2 8 1 9 3 10 11 11 12 12 13 13
REMARK SMILES IDX 14 14 15 15 16 16 17 17 18 18 19 19 20 20
REMARK H PARENT
REMARK Flexibility Score: inf
ROOT
ATOM      1  C   UNL     1      13.693 132.869  59.821  1.00  0.00     0.000 C 
ENDROOT
BRANCH   1   2
ATOM      2  C   UNL     1      13.977 131.779  58.776  1.00  0.00     0.000 C 
BRANCH   2   3
ATOM      3  C   UNL     1      14.610 132.379  57.514  1.00  0.00     0.000 C 
BRANCH   3   4
ATOM      4  C   UNL     1      15.751 131.492  56.995  1.00  0.00     0.000 C 
BRANCH   4   5
ATOM      5  C   UNL     1      17.002 131.538  57.892  1.00  0.00     0.000 C 
BRANCH   5   6
ATOM      6  C   UNL     1      17.471 132.952  58.288  1.00  0.00     0.006 C 
BRANCH   6   7
ATOM      7  C   UNL     1      18.279 133.013  59.594  1.00  0.00     0.053 C 
BRANCH   7   8
ATOM      8  C   UNL     1      18.171 134.351  60.259  1.00  0.00     0.041 C 
ATOM      9  O   UNL     1      19.199 134.914  60.720  1.00  0.00    -0.550 OA
ATOM     10  O   UNL     1      16.931 134.961  60.398  1.00  0.00    -0.550 OA
ENDBRANCH   7   8
ENDBRANCH   6   7
ENDBRANCH   5   6
ENDBRANCH   4   5
ENDBRANCH   3   4
ENDBRANCH   2   3
ENDBRANCH   1   2
BRANCH   1  11
ATOM     11  C   UNL     1      14.390 132.595  61.162  1.00  0.00     0.000 C 
BRANCH  11  12
ATOM     12  C   UNL     1      15.313 131.365  61.109  1.00  0.00     0.000 C 
BRANCH  12  13
ATOM     13  C   UNL     1      16.310 131.320  62.280  1.00  0.00     0.000 C 
BRANCH  13  14
ATOM     14  C   UNL     1      16.481 132.652  63.038  1.00  0.00     0.000 C 
BRANCH  14  15
ATOM     15  C   UNL     1      17.824 132.820  63.774  1.00  0.00     0.000 C 
BRANCH  15  16
ATOM     16  C   UNL     1      18.823 131.666  63.573  1.00  0.00     0.006 C 
BRANCH  16  17
ATOM     17  C   UNL     1      18.854 130.692  64.757  1.00  0.00     0.053 C 
BRANCH  17  18
ATOM     18  C   UNL     1      18.760 129.279  64.275  1.00  0.00     0.041 C 
ATOM     19  O   UNL     1      19.797 128.660  63.921  1.00  0.00    -0.550 OA
ATOM     20  O   UNL     1      17.532 128.628  64.265  1.00  0.00    -0.550 OA
ENDBRANCH  17  18
ENDBRANCH  16  17
ENDBRANCH  15  16
ENDBRANCH  14  15
ENDBRANCH  13  14
ENDBRANCH  12  13
ENDBRANCH  11  12
ENDBRANCH   1  11
TORSDOF 15
ENDMDL
MODEL 9
REMARK VINA RESULT:    -3.761      1.675      3.056
REMARK INTER + INTRA:          -8.649
REMARK INTER:                  -6.578
REMARK INTRA:                  -2.071
REMARK UNBOUND:                -1.590
REMARK SMILES O=C([O-])CCCCCCCCCCCCCCC(=O)[O-]
REMARK SMILES IDX 10 1 9 2 8 3 7 4 6 5 5 6 4 7 2 8 1 9 3 10 11 11 12 12 13 13
REMARK SMILES IDX 14 14 15 15 16 16 17 17 18 18 19 19 20 20
REMARK H PARENT
REMARK Flexibility Score: inf
ROOT
ATOM      1  C   UNL     1      14.053 131.344  59.020  1.00  0.00     0.000 C 
ENDROOT
BRANCH   1   2
ATOM      2  C   UNL     1      14.887 131.271  60.308  1.00  0.00     0.000 C 
BRANCH   2   3
ATOM      3  C   UNL     1      14.442 132.342  61.312  1.00  0.00     0.000 C 
BRANCH   3   4
ATOM      4  C   UNL     1      15.100 132.120  62.681  1.00  0.00     0.000 C 
BRANCH   4   5
ATOM      5  C   UNL     1      16.487 131.459  62.580  1.00  0.00     0.000 C 
BRANCH   5   6
ATOM      6  C   UNL     1      17.396 131.654  63.810  1.00  0.00     0.006 C 
BRANCH   6   7
ATOM      7  C   UNL     1      18.327 130.468  64.110  1.00  0.00     0.053 C 
BRANCH   7   8
ATOM      8  C   UNL     1      17.562 129.230  64.465  1.00  0.00     0.041 C 
ATOM      9  O   UNL     1      16.551 129.303  65.212  1.00  0.00    -0.550 OA
ATOM     10  O   UNL     1      17.986 127.992  63.999  1.00  0.00    -0.550 OA
ENDBRANCH   7   8
ENDBRANCH   6   7
ENDBRANCH   5   6
ENDBRANCH   4   5
ENDBRANCH   3   4
ENDBRANCH   2   3
ENDBRANCH   1   2
BRANCH   1  11
ATOM     11  C   UNL     1      14.137 132.720  58.341  1.00  0.00     0.000 C 
BRANCH  11  12
ATOM     12  C   UNL     1      14.917 132.679  57.015  1.00  0.00     0.000 C 
BRANCH  12  13
ATOM     13  C   UNL     1      15.576 131.313  56.757  1.00  0.00     0.000 C 
BRANCH  13  14
ATOM     14  C   UNL     1      17.051 131.211  57.198  1.00  0.00     0.000 C 
BRANCH  14  15
ATOM     15  C   UNL     1      17.732 132.555  57.523  1.00  0.00     0.000 C 
BRANCH  15  16
ATOM     16  C   UNL     1      18.086 132.760  59.007  1.00  0.00     0.006 C 
BRANCH  16  17
ATOM     17  C   UNL     1      17.386 133.978  59.623  1.00  0.00     0.053 C 
BRANCH  17  18
ATOM     18  C   UNL     1      17.984 134.307  60.954  1.00  0.00     0.041 C 
ATOM     19  O   UNL     1      17.312 134.938  61.811  1.00  0.00    -0.550 OA
ATOM     20  O   UNL     1      19.265 133.870  61.268  1.00  0.00    -0.550 OA
ENDBRANCH  17  18
ENDBRANCH  16  17
ENDBRANCH  15  16
ENDBRANCH  14  15
ENDBRANCH  13  14
ENDBRANCH  12  13
ENDBRANCH  11  12
ENDBRANCH   1  11
TORSDOF 15
ENDMDL
