MODEL 1
REMARK VINA RESULT:    -3.993      0.000      0.000
REMARK INTER + INTRA:          -4.820
REMARK INTER:                  -4.811
REMARK INTRA:                  -0.009
REMARK UNBOUND:                -0.009
REMARK SMILES OCC(O)CO
REMARK SMILES IDX 3 1 5 2 6 3 2 5 1 6 4 8
REMARK H PARENT 6 4 1 7 4 9
REMARK Flexibility Score: inf
ROOT
ATOM      1  C   UNL     1      59.148  28.576  11.445  1.00  0.00     0.165 C 
ENDROOT
BRANCH   1   2
ATOM      2  C   UNL     1      58.698  27.895  12.747  1.00  0.00     0.190 C 
BRANCH   2   3
ATOM      3  O   UNL     1      57.543  27.126  12.539  1.00  0.00    -0.394 OA
ATOM      4  H   UNL     1      56.802  27.594  13.006  1.00  0.00     0.210 HD
ENDBRANCH   2   3
ENDBRANCH   1   2
BRANCH   1   5
ATOM      5  C   UNL     1      60.603  28.232  11.094  1.00  0.00     0.190 C 
BRANCH   5   6
ATOM      6  O   UNL     1      60.649  27.333  10.020  1.00  0.00    -0.394 OA
ATOM      7  H   UNL     1      59.945  27.625   9.386  1.00  0.00     0.210 HD
ENDBRANCH   5   6
ENDBRANCH   1   5
BRANCH   1   8
ATOM      8  O   UNL     1      59.003  29.966  11.585  1.00  0.00    -0.388 OA
ATOM      9  H   UNL     1      59.134  30.361  10.683  1.00  0.00     0.211 HD
ENDBRANCH   1   8
TORSDOF 5
ENDMDL
MODEL 2
REMARK VINA RESULT:    -3.915     14.454     15.542
REMARK INTER + INTRA:          -4.726
REMARK INTER:                  -4.715
REMARK INTRA:                  -0.011
REMARK UNBOUND:                -0.009
REMARK SMILES OCC(O)CO
REMARK SMILES IDX 3 1 5 2 6 3 2 5 1 6 4 8
REMARK H PARENT 6 4 1 7 4 9
REMARK Flexibility Score: inf
ROOT
ATOM      1  C   UNL     1      60.588  26.824  26.932  1.00  0.00     0.165 C 
ENDROOT
BRANCH   1   2
ATOM      2  C   UNL     1      59.748  26.700  25.651  1.00  0.00     0.190 C 
BRANCH   2   3
ATOM      3  O   UNL     1      58.540  26.034  25.904  1.00  0.00    -0.394 OA
ATOM      4  H   UNL     1      57.893  26.724  26.208  1.00  0.00     0.210 HD
ENDBRANCH   2   3
ENDBRANCH   1   2
BRANCH   1   5
ATOM      5  C   UNL     1      60.886  28.290  27.281  1.00  0.00     0.190 C 
BRANCH   5   6
ATOM      6  O   UNL     1      60.128  28.693  28.389  1.00  0.00    -0.394 OA
ATOM      7  H   UNL     1      59.205  28.837  28.053  1.00  0.00     0.210 HD
ENDBRANCH   5   6
ENDBRANCH   1   5
BRANCH   1   8
ATOM      8  O   UNL     1      61.790  26.119  26.758  1.00  0.00    -0.388 OA
ATOM      9  H   UNL     1      61.629  25.192  27.076  1.00  0.00     0.211 HD
ENDBRANCH   1   8
TORSDOF 5
ENDMDL
MODEL 3
REMARK VINA RESULT:    -3.819     14.267     15.000
REMARK INTER + INTRA:          -4.610
REMARK INTER:                  -4.605
REMARK INTRA:                  -0.005
REMARK UNBOUND:                -0.009
REMARK SMILES OCC(O)CO
REMARK SMILES IDX 3 1 5 2 6 3 2 5 1 6 4 8
REMARK H PARENT 6 4 1 7 4 9
REMARK Flexibility Score: inf
ROOT
ATOM      1  C   UNL     1      60.551  26.890  26.561  1.00  0.00     0.165 C 
ENDROOT
BRANCH   1   2
ATOM      2  C   UNL     1      62.001  26.964  26.056  1.00  0.00     0.190 C 
BRANCH   2   3
ATOM      3  O   UNL     1      62.616  25.705  26.108  1.00  0.00    -0.394 OA
ATOM      4  H   UNL     1      63.384  25.736  25.479  1.00  0.00     0.210 HD
ENDBRANCH   2   3
ENDBRANCH   1   2
BRANCH   1   5
ATOM      5  C   UNL     1      59.550  26.739  25.406  1.00  0.00     0.190 C 
BRANCH   5   6
ATOM      6  O   UNL     1      58.462  25.949  25.801  1.00  0.00    -0.394 OA
ATOM      7  H   UNL     1      57.672  26.309  25.321  1.00  0.00     0.210 HD
ENDBRANCH   5   6
ENDBRANCH   1   5
BRANCH   1   8
ATOM      8  O   UNL     1      60.265  28.053  27.294  1.00  0.00    -0.388 OA
ATOM      9  H   UNL     1      60.993  28.159  27.962  1.00  0.00     0.211 HD
ENDBRANCH   1   8
TORSDOF 5
ENDMDL
MODEL 4
REMARK VINA RESULT:    -3.808      2.146      3.027
REMARK INTER + INTRA:          -4.597
REMARK INTER:                  -4.373
REMARK INTRA:                  -0.224
REMARK UNBOUND:                -0.009
REMARK SMILES OCC(O)CO
REMARK SMILES IDX 3 1 5 2 6 3 2 5 1 6 4 8
REMARK H PARENT 6 4 1 7 4 9
REMARK Flexibility Score: inf
ROOT
ATOM      1  C   UNL     1      59.596  28.900  10.168  1.00  0.00     0.165 C 
ENDROOT
BRANCH   1   2
ATOM      2  C   UNL     1      60.968  28.211  10.105  1.00  0.00     0.190 C 
BRANCH   2   3
ATOM      3  O   UNL     1      60.934  27.101   9.248  1.00  0.00    -0.394 OA
ATOM      4  H   UNL     1      60.173  27.244   8.626  1.00  0.00     0.210 HD
ENDBRANCH   2   3
ENDBRANCH   1   2
BRANCH   1   5
ATOM      5  C   UNL     1      58.791  28.690   8.876  1.00  0.00     0.190 C 
BRANCH   5   6
ATOM      6  O   UNL     1      58.045  27.506   8.951  1.00  0.00    -0.394 OA
ATOM      7  H   UNL     1      58.525  26.918   9.589  1.00  0.00     0.210 HD
ENDBRANCH   5   6
ENDBRANCH   1   5
BRANCH   1   8
ATOM      8  O   UNL     1      59.785  30.273  10.396  1.00  0.00    -0.388 OA
ATOM      9  H   UNL     1      60.619  30.531   9.923  1.00  0.00     0.211 HD
ENDBRANCH   1   8
TORSDOF 5
ENDMDL
MODEL 5
REMARK VINA RESULT:    -3.806      1.063      2.990
REMARK INTER + INTRA:          -4.594
REMARK INTER:                  -4.591
REMARK INTRA:                  -0.003
REMARK UNBOUND:                -0.009
REMARK SMILES OCC(O)CO
REMARK SMILES IDX 3 1 5 2 6 3 2 5 1 6 4 8
REMARK H PARENT 6 4 1 7 4 9
REMARK Flexibility Score: inf
ROOT
ATOM      1  C   UNL     1      59.107  28.534  11.933  1.00  0.00     0.165 C 
ENDROOT
BRANCH   1   2
ATOM      2  C   UNL     1      59.798  29.770  12.530  1.00  0.00     0.190 C 
BRANCH   2   3
ATOM      3  O   UNL     1      59.073  30.937  12.248  1.00  0.00    -0.394 OA
ATOM      4  H   UNL     1      59.566  31.688  12.672  1.00  0.00     0.210 HD
ENDBRANCH   2   3
ENDBRANCH   1   2
BRANCH   1   5
ATOM      5  C   UNL     1      58.551  27.607  13.025  1.00  0.00     0.190 C 
BRANCH   5   6
ATOM      6  O   UNL     1      57.360  27.006  12.597  1.00  0.00    -0.394 OA
ATOM      7  H   UNL     1      57.256  26.183  13.141  1.00  0.00     0.210 HD
ENDBRANCH   5   6
ENDBRANCH   1   5
BRANCH   1   8
ATOM      8  O   UNL     1      60.030  27.836  11.137  1.00  0.00    -0.388 OA
ATOM      9  H   UNL     1      60.855  28.388  11.101  1.00  0.00     0.211 HD
ENDBRANCH   1   8
TORSDOF 5
ENDMDL
MODEL 6
REMARK VINA RESULT:    -3.748      1.802      1.994
REMARK INTER + INTRA:          -4.525
REMARK INTER:                  -4.309
REMARK INTRA:                  -0.216
REMARK UNBOUND:                -0.009
REMARK SMILES OCC(O)CO
REMARK SMILES IDX 3 1 5 2 6 3 2 5 1 6 4 8
REMARK H PARENT 6 4 1 7 4 9
REMARK Flexibility Score: inf
ROOT
ATOM      1  C   UNL     1      59.613  29.169   9.554  1.00  0.00     0.165 C 
ENDROOT
BRANCH   1   2
ATOM      2  C   UNL     1      59.419  29.177  11.078  1.00  0.00     0.190 C 
BRANCH   2   3
ATOM      3  O   UNL     1      58.821  27.985  11.515  1.00  0.00    -0.394 OA
ATOM      4  H   UNL     1      58.504  28.148  12.442  1.00  0.00     0.210 HD
ENDBRANCH   2   3
ENDBRANCH   1   2
BRANCH   1   5
ATOM      5  C   UNL     1      60.895  28.428   9.145  1.00  0.00     0.190 C 
BRANCH   5   6
ATOM      6  O   UNL     1      60.759  27.052   9.373  1.00  0.00    -0.394 OA
ATOM      7  H   UNL     1      60.097  26.958  10.106  1.00  0.00     0.210 HD
ENDBRANCH   5   6
ENDBRANCH   1   5
BRANCH   1   8
ATOM      8  O   UNL     1      59.659  30.495   9.094  1.00  0.00    -0.388 OA
ATOM      9  H   UNL     1      60.582  30.824   9.256  1.00  0.00     0.211 HD
ENDBRANCH   1   8
TORSDOF 5
ENDMDL
MODEL 7
REMARK VINA RESULT:    -3.736      1.326      2.586
REMARK INTER + INTRA:          -4.510
REMARK INTER:                  -4.286
REMARK INTRA:                  -0.224
REMARK UNBOUND:                -0.009
REMARK SMILES OCC(O)CO
REMARK SMILES IDX 3 1 5 2 6 3 2 5 1 6 4 8
REMARK H PARENT 6 4 1 7 4 9
REMARK Flexibility Score: inf
ROOT
ATOM      1  C   UNL     1      59.554  28.970  12.632  1.00  0.00     0.165 C 
ENDROOT
BRANCH   1   2
ATOM      2  C   UNL     1      59.326  29.202  11.131  1.00  0.00     0.190 C 
BRANCH   2   3
ATOM      3  O   UNL     1      59.035  27.997  10.474  1.00  0.00    -0.394 OA
ATOM      4  H   UNL     1      58.306  27.560  10.989  1.00  0.00     0.210 HD
ENDBRANCH   2   3
ENDBRANCH   1   2
BRANCH   1   5
ATOM      5  C   UNL     1      59.257  27.518  13.038  1.00  0.00     0.190 C 
BRANCH   5   6
ATOM      6  O   UNL     1      57.875  27.294  13.084  1.00  0.00    -0.394 OA
ATOM      7  H   UNL     1      57.758  26.345  13.348  1.00  0.00     0.210 HD
ENDBRANCH   5   6
ENDBRANCH   1   5
BRANCH   1   8
ATOM      8  O   UNL     1      58.733  29.847  13.359  1.00  0.00    -0.388 OA
ATOM      9  H   UNL     1      59.283  30.206  14.104  1.00  0.00     0.211 HD
ENDBRANCH   1   8
TORSDOF 5
ENDMDL
MODEL 8
REMARK VINA RESULT:    -3.733     13.927     14.896
REMARK INTER + INTRA:          -4.506
REMARK INTER:                  -4.289
REMARK INTRA:                  -0.217
REMARK UNBOUND:                -0.009
REMARK SMILES OCC(O)CO
REMARK SMILES IDX 3 1 5 2 6 3 2 5 1 6 4 8
REMARK H PARENT 6 4 1 7 4 9
REMARK Flexibility Score: inf
ROOT
ATOM      1  C   UNL     1      60.947  27.003  25.697  1.00  0.00     0.165 C 
ENDROOT
BRANCH   1   2
ATOM      2  C   UNL     1      61.184  26.782  27.199  1.00  0.00     0.190 C 
BRANCH   2   3
ATOM      3  O   UNL     1      60.100  27.252  27.955  1.00  0.00    -0.394 OA
ATOM      4  H   UNL     1      60.482  27.770  28.711  1.00  0.00     0.210 HD
ENDBRANCH   2   3
ENDBRANCH   1   2
BRANCH   1   5
ATOM      5  C   UNL     1      59.455  27.188  25.376  1.00  0.00     0.190 C 
BRANCH   5   6
ATOM      6  O   UNL     1      58.725  26.059  25.771  1.00  0.00    -0.394 OA
ATOM      7  H   UNL     1      58.063  25.893  25.052  1.00  0.00     0.210 HD
ENDBRANCH   5   6
ENDBRANCH   1   5
BRANCH   1   8
ATOM      8  O   UNL     1      61.457  25.903  24.988  1.00  0.00    -0.388 OA
ATOM      9  H   UNL     1      61.102  25.087  25.430  1.00  0.00     0.211 HD
ENDBRANCH   1   8
TORSDOF 5
ENDMDL
MODEL 9
REMARK VINA RESULT:    -3.622     15.941     16.970
REMARK INTER + INTRA:          -4.372
REMARK INTER:                  -4.370
REMARK INTRA:                  -0.002
REMARK UNBOUND:                -0.009
REMARK SMILES OCC(O)CO
REMARK SMILES IDX 3 1 5 2 6 3 2 5 1 6 4 8
REMARK H PARENT 6 4 1 7 4 9
REMARK Flexibility Score: inf
ROOT
ATOM      1  C   UNL     1      61.455  27.179  28.439  1.00  0.00     0.165 C 
ENDROOT
BRANCH   1   2
ATOM      2  C   UNL     1      61.411  26.927  26.924  1.00  0.00     0.190 C 
BRANCH   2   3
ATOM      3  O   UNL     1      62.277  25.884  26.562  1.00  0.00    -0.394 OA
ATOM      4  H   UNL     1      62.603  26.089  25.647  1.00  0.00     0.210 HD
ENDBRANCH   2   3
ENDBRANCH   1   2
BRANCH   1   5
ATOM      5  C   UNL     1      61.392  28.678  28.771  1.00  0.00     0.190 C 
BRANCH   5   6
ATOM      6  O   UNL     1      60.064  29.080  28.967  1.00  0.00    -0.394 OA
ATOM      7  H   UNL     1      59.899  29.812  28.318  1.00  0.00     0.210 HD
ENDBRANCH   5   6
ENDBRANCH   1   5
BRANCH   1   8
ATOM      8  O   UNL     1      62.635  26.623  28.959  1.00  0.00    -0.388 OA
ATOM      9  H   UNL     1      63.289  26.585  28.213  1.00  0.00     0.211 HD
ENDBRANCH   1   8
TORSDOF 5
ENDMDL
