MODEL 1
REMARK VINA RESULT:    -3.606      0.000      0.000
REMARK INTER + INTRA:          -5.332
REMARK INTER:                  -4.871
REMARK INTRA:                  -0.460
REMARK UNBOUND:                -0.460
REMARK SMILES CCCCCCC=CC(=O)[O-]
REMARK SMILES IDX 5 1 6 2 7 3 8 4 9 5 10 6 11 7 4 8 3 9 2 10 1 11
REMARK H PARENT
REMARK Flexibility Score: inf
ROOT
ATOM      1  C   UNL     1      56.642  29.438  51.085  1.00  0.00     0.004 C 
ENDROOT
BRANCH   1   2
ATOM      2  C   UNL     1      58.162  29.306  51.275  1.00  0.00     0.027 C 
BRANCH   2   3
ATOM      3  C   UNL     1      58.856  29.100  49.955  1.00  0.00    -0.025 C 
ATOM      4  C   UNL     1      59.489  27.980  49.565  1.00  0.00     0.020 C 
BRANCH   4   5
ATOM      5  C   UNL     1      59.600  26.719  50.326  1.00  0.00     0.064 C 
ATOM      6  O   UNL     1      58.754  25.795  50.220  1.00  0.00    -0.545 OA
ATOM      7  O   UNL     1      60.688  26.539  51.171  1.00  0.00    -0.545 OA
ENDBRANCH   4   5
ENDBRANCH   2   3
ENDBRANCH   1   2
BRANCH   1   8
ATOM      8  C   UNL     1      55.964  28.087  50.809  1.00  0.00     0.000 C 
BRANCH   8   9
ATOM      9  C   UNL     1      54.482  28.239  50.436  1.00  0.00    -0.000 C 
BRANCH   9  10
ATOM     10  C   UNL     1      53.880  26.891  50.022  1.00  0.00    -0.003 C 
ATOM     11  C   UNL     1      54.958  25.816  49.910  1.00  0.00     0.004 C 
ENDBRANCH   9  10
ENDBRANCH   8   9
ENDBRANCH   1   8
TORSDOF 6
ENDMDL
MODEL 2
REMARK VINA RESULT:    -3.333      3.025      4.864
REMARK INTER + INTRA:          -4.963
REMARK INTER:                  -4.388
REMARK INTRA:                  -0.575
REMARK UNBOUND:                -0.460
REMARK SMILES CCCCCCC=CC(=O)[O-]
REMARK SMILES IDX 5 1 6 2 7 3 8 4 9 5 10 6 11 7 4 8 3 9 2 10 1 11
REMARK H PARENT
REMARK Flexibility Score: inf
ROOT
ATOM      1  C   UNL     1      56.052  29.163  51.438  1.00  0.00     0.004 C 
ENDROOT
BRANCH   1   2
ATOM      2  C   UNL     1      55.118  28.182  50.712  1.00  0.00     0.027 C 
BRANCH   2   3
ATOM      3  C   UNL     1      55.783  26.847  50.514  1.00  0.00    -0.025 C 
ATOM      4  C   UNL     1      55.160  25.694  50.216  1.00  0.00     0.020 C 
BRANCH   4   5
ATOM      5  C   UNL     1      53.713  25.507  49.984  1.00  0.00     0.064 C 
ATOM      6  O   UNL     1      53.215  25.494  48.829  1.00  0.00    -0.545 OA
ATOM      7  O   UNL     1      52.878  25.317  51.078  1.00  0.00    -0.545 OA
ENDBRANCH   4   5
ENDBRANCH   2   3
ENDBRANCH   1   2
BRANCH   1   8
ATOM      8  C   UNL     1      57.427  28.549  51.744  1.00  0.00     0.000 C 
BRANCH   8   9
ATOM      9  C   UNL     1      58.586  29.404  51.209  1.00  0.00    -0.000 C 
BRANCH   9  10
ATOM     10  C   UNL     1      58.940  29.010  49.770  1.00  0.00    -0.003 C 
ATOM     11  C   UNL     1      59.702  27.688  49.732  1.00  0.00     0.004 C 
ENDBRANCH   9  10
ENDBRANCH   8   9
ENDBRANCH   1   8
TORSDOF 6
ENDMDL
MODEL 3
REMARK VINA RESULT:    -3.328      1.692      2.054
REMARK INTER + INTRA:          -4.956
REMARK INTER:                  -4.545
REMARK INTRA:                  -0.411
REMARK UNBOUND:                -0.460
REMARK SMILES CCCCCCC=CC(=O)[O-]
REMARK SMILES IDX 5 1 6 2 7 3 8 4 9 5 10 6 11 7 4 8 3 9 2 10 1 11
REMARK H PARENT
REMARK Flexibility Score: inf
ROOT
ATOM      1  C   UNL     1      57.805  29.302  50.771  1.00  0.00     0.004 C 
ENDROOT
BRANCH   1   2
ATOM      2  C   UNL     1      58.961  29.032  49.794  1.00  0.00     0.027 C 
BRANCH   2   3
ATOM      3  C   UNL     1      59.387  27.589  49.846  1.00  0.00    -0.025 C 
ATOM      4  C   UNL     1      60.636  27.145  50.068  1.00  0.00     0.020 C 
BRANCH   4   5
ATOM      5  C   UNL     1      61.830  27.971  50.343  1.00  0.00     0.064 C 
ATOM      6  O   UNL     1      62.748  28.125  49.497  1.00  0.00    -0.545 OA
ATOM      7  O   UNL     1      61.932  28.614  51.570  1.00  0.00    -0.545 OA
ENDBRANCH   4   5
ENDBRANCH   2   3
ENDBRANCH   1   2
BRANCH   1   8
ATOM      8  C   UNL     1      56.853  28.103  50.901  1.00  0.00     0.000 C 
BRANCH   8   9
ATOM      9  C   UNL     1      55.386  28.488  50.658  1.00  0.00    -0.000 C 
BRANCH   9  10
ATOM     10  C   UNL     1      54.501  27.240  50.557  1.00  0.00    -0.003 C 
ATOM     11  C   UNL     1      55.309  26.025  50.109  1.00  0.00     0.004 C 
ENDBRANCH   9  10
ENDBRANCH   8   9
ENDBRANCH   1   8
TORSDOF 6
ENDMDL
MODEL 4
REMARK VINA RESULT:    -3.295      1.711      3.022
REMARK INTER + INTRA:          -4.911
REMARK INTER:                  -4.471
REMARK INTRA:                  -0.440
REMARK UNBOUND:                -0.460
REMARK SMILES CCCCCCC=CC(=O)[O-]
REMARK SMILES IDX 5 1 6 2 7 3 8 4 9 5 10 6 11 7 4 8 3 9 2 10 1 11
REMARK H PARENT
REMARK Flexibility Score: inf
ROOT
ATOM      1  C   UNL     1      56.014  25.940  50.533  1.00  0.00     0.004 C 
ENDROOT
BRANCH   1   2
ATOM      2  C   UNL     1      57.336  26.303  51.229  1.00  0.00     0.027 C 
BRANCH   2   3
ATOM      3  C   UNL     1      58.518  25.876  50.402  1.00  0.00    -0.025 C 
ATOM      4  C   UNL     1      59.506  26.678  49.969  1.00  0.00     0.020 C 
BRANCH   4   5
ATOM      5  C   UNL     1      59.656  28.121  50.245  1.00  0.00     0.064 C 
ATOM      6  O   UNL     1      60.440  28.557  51.128  1.00  0.00    -0.545 OA
ATOM      7  O   UNL     1      58.924  29.028  49.490  1.00  0.00    -0.545 OA
ENDBRANCH   4   5
ENDBRANCH   2   3
ENDBRANCH   1   2
BRANCH   1   8
ATOM      8  C   UNL     1      55.075  27.147  50.387  1.00  0.00     0.000 C 
BRANCH   8   9
ATOM      9  C   UNL     1      55.704  28.448  50.908  1.00  0.00    -0.000 C 
BRANCH   9  10
ATOM     10  C   UNL     1      54.690  29.597  50.881  1.00  0.00    -0.003 C 
ATOM     11  C   UNL     1      55.392  30.952  50.877  1.00  0.00     0.004 C 
ENDBRANCH   9  10
ENDBRANCH   8   9
ENDBRANCH   1   8
TORSDOF 6
ENDMDL
MODEL 5
REMARK VINA RESULT:    -3.276      2.517      4.674
REMARK INTER + INTRA:          -4.886
REMARK INTER:                  -4.266
REMARK INTRA:                  -0.619
REMARK UNBOUND:                -0.460
REMARK SMILES CCCCCCC=CC(=O)[O-]
REMARK SMILES IDX 5 1 6 2 7 3 8 4 9 5 10 6 11 7 4 8 3 9 2 10 1 11
REMARK H PARENT
REMARK Flexibility Score: inf
ROOT
ATOM      1  C   UNL     1      59.170  26.727  50.804  1.00  0.00     0.004 C 
ENDROOT
BRANCH   1   2
ATOM      2  C   UNL     1      57.954  25.912  50.335  1.00  0.00     0.027 C 
BRANCH   2   3
ATOM      3  C   UNL     1      57.007  25.649  51.474  1.00  0.00    -0.025 C 
ATOM      4  C   UNL     1      55.677  25.846  51.454  1.00  0.00     0.020 C 
BRANCH   4   5
ATOM      5  C   UNL     1      54.873  26.319  50.309  1.00  0.00     0.064 C 
ATOM      6  O   UNL     1      54.594  27.534  50.142  1.00  0.00    -0.545 OA
ATOM      7  O   UNL     1      54.427  25.393  49.374  1.00  0.00    -0.545 OA
ENDBRANCH   4   5
ENDBRANCH   2   3
ENDBRANCH   1   2
BRANCH   1   8
ATOM      8  C   UNL     1      59.699  27.674  49.715  1.00  0.00     0.000 C 
BRANCH   8   9
ATOM      9  C   UNL     1      58.988  29.035  49.723  1.00  0.00    -0.000 C 
BRANCH   9  10
ATOM     10  C   UNL     1      58.491  29.386  51.130  1.00  0.00    -0.003 C 
ATOM     11  C   UNL     1      57.025  29.813  51.106  1.00  0.00     0.004 C 
ENDBRANCH   9  10
ENDBRANCH   8   9
ENDBRANCH   1   8
TORSDOF 6
ENDMDL
MODEL 6
REMARK VINA RESULT:    -3.230      2.263      4.584
REMARK INTER + INTRA:          -4.824
REMARK INTER:                  -4.348
REMARK INTRA:                  -0.476
REMARK UNBOUND:                -0.460
REMARK SMILES CCCCCCC=CC(=O)[O-]
REMARK SMILES IDX 5 1 6 2 7 3 8 4 9 5 10 6 11 7 4 8 3 9 2 10 1 11
REMARK H PARENT
REMARK Flexibility Score: inf
ROOT
ATOM      1  C   UNL     1      57.275  29.680  51.014  1.00  0.00     0.004 C 
ENDROOT
BRANCH   1   2
ATOM      2  C   UNL     1      56.174  28.727  51.508  1.00  0.00     0.027 C 
BRANCH   2   3
ATOM      3  C   UNL     1      54.911  28.899  50.708  1.00  0.00    -0.025 C 
ATOM      4  C   UNL     1      54.114  27.907  50.274  1.00  0.00     0.020 C 
BRANCH   4   5
ATOM      5  C   UNL     1      54.290  26.461  50.522  1.00  0.00     0.064 C 
ATOM      6  O   UNL     1      53.791  25.888  51.524  1.00  0.00    -0.545 OA
ATOM      7  O   UNL     1      55.011  25.706  49.606  1.00  0.00    -0.545 OA
ENDBRANCH   4   5
ENDBRANCH   2   3
ENDBRANCH   1   2
BRANCH   1   8
ATOM      8  C   UNL     1      58.435  28.936  50.335  1.00  0.00     0.000 C 
BRANCH   8   9
ATOM      9  C   UNL     1      58.240  27.412  50.340  1.00  0.00    -0.000 C 
BRANCH   9  10
ATOM     10  C   UNL     1      59.568  26.688  50.086  1.00  0.00    -0.003 C 
ATOM     11  C   UNL     1      60.703  27.682  49.860  1.00  0.00     0.004 C 
ENDBRANCH   9  10
ENDBRANCH   8   9
ENDBRANCH   1   8
TORSDOF 6
ENDMDL
MODEL 7
REMARK VINA RESULT:    -3.194      2.029      2.986
REMARK INTER + INTRA:          -4.775
REMARK INTER:                  -4.335
REMARK INTRA:                  -0.440
REMARK UNBOUND:                -0.460
REMARK SMILES CCCCCCC=CC(=O)[O-]
REMARK SMILES IDX 5 1 6 2 7 3 8 4 9 5 10 6 11 7 4 8 3 9 2 10 1 11
REMARK H PARENT
REMARK Flexibility Score: inf
ROOT
ATOM      1  C   UNL     1      57.647  25.719  50.491  1.00  0.00     0.004 C 
ENDROOT
BRANCH   1   2
ATOM      2  C   UNL     1      58.876  26.506  50.974  1.00  0.00     0.027 C 
BRANCH   2   3
ATOM      3  C   UNL     1      59.345  27.475  49.923  1.00  0.00    -0.025 C 
ATOM      4  C   UNL     1      59.123  28.801  49.919  1.00  0.00     0.020 C 
BRANCH   4   5
ATOM      5  C   UNL     1      58.414  29.580  50.955  1.00  0.00     0.064 C 
ATOM      6  O   UNL     1      58.963  29.913  52.037  1.00  0.00    -0.545 OA
ATOM      7  O   UNL     1      57.103  29.975  50.717  1.00  0.00    -0.545 OA
ENDBRANCH   4   5
ENDBRANCH   2   3
ENDBRANCH   1   2
BRANCH   1   8
ATOM      8  C   UNL     1      56.332  26.477  50.731  1.00  0.00     0.000 C 
BRANCH   8   9
ATOM      9  C   UNL     1      55.102  25.681  50.271  1.00  0.00    -0.000 C 
BRANCH   9  10
ATOM     10  C   UNL     1      53.923  26.615  49.974  1.00  0.00    -0.003 C 
ATOM     11  C   UNL     1      54.239  28.050  50.385  1.00  0.00     0.004 C 
ENDBRANCH   9  10
ENDBRANCH   8   9
ENDBRANCH   1   8
TORSDOF 6
ENDMDL
MODEL 8
REMARK VINA RESULT:    -3.172      3.028      5.149
REMARK INTER + INTRA:          -4.745
REMARK INTER:                  -4.241
REMARK INTRA:                  -0.504
REMARK UNBOUND:                -0.460
REMARK SMILES CCCCCCC=CC(=O)[O-]
REMARK SMILES IDX 5 1 6 2 7 3 8 4 9 5 10 6 11 7 4 8 3 9 2 10 1 11
REMARK H PARENT
REMARK Flexibility Score: inf
ROOT
ATOM      1  C   UNL     1      55.414  26.103  50.344  1.00  0.00     0.004 C 
ENDROOT
BRANCH   1   2
ATOM      2  C   UNL     1      54.705  27.164  51.201  1.00  0.00     0.027 C 
BRANCH   2   3
ATOM      3  C   UNL     1      53.792  28.016  50.361  1.00  0.00    -0.025 C 
ATOM      4  C   UNL     1      53.752  29.360  50.358  1.00  0.00     0.020 C 
BRANCH   4   5
ATOM      5  C   UNL     1      54.612  30.271  51.142  1.00  0.00     0.064 C 
ATOM      6  O   UNL     1      55.746  30.635  50.737  1.00  0.00    -0.545 OA
ATOM      7  O   UNL     1      54.143  30.756  52.356  1.00  0.00    -0.545 OA
ENDBRANCH   4   5
ENDBRANCH   2   3
ENDBRANCH   1   2
BRANCH   1   8
ATOM      8  C   UNL     1      56.933  26.078  50.579  1.00  0.00     0.000 C 
BRANCH   8   9
ATOM      9  C   UNL     1      57.477  27.431  51.060  1.00  0.00    -0.000 C 
BRANCH   9  10
ATOM     10  C   UNL     1      58.837  27.734  50.422  1.00  0.00    -0.003 C 
ATOM     11  C   UNL     1      58.849  29.118  49.778  1.00  0.00     0.004 C 
ENDBRANCH   9  10
ENDBRANCH   8   9
ENDBRANCH   1   8
TORSDOF 6
ENDMDL
MODEL 9
REMARK VINA RESULT:    -3.105      1.106      1.848
REMARK INTER + INTRA:          -4.655
REMARK INTER:                  -4.071
REMARK INTRA:                  -0.583
REMARK UNBOUND:                -0.460
REMARK SMILES CCCCCCC=CC(=O)[O-]
REMARK SMILES IDX 5 1 6 2 7 3 8 4 9 5 10 6 11 7 4 8 3 9 2 10 1 11
REMARK H PARENT
REMARK Flexibility Score: inf
ROOT
ATOM      1  C   UNL     1      57.832  29.459  51.028  1.00  0.00     0.004 C 
ENDROOT
BRANCH   1   2
ATOM      2  C   UNL     1      58.537  28.706  49.889  1.00  0.00     0.027 C 
BRANCH   2   3
ATOM      3  C   UNL     1      59.923  28.284  50.296  1.00  0.00    -0.025 C 
ATOM      4  C   UNL     1      60.237  27.175  50.988  1.00  0.00     0.020 C 
BRANCH   4   5
ATOM      5  C   UNL     1      59.301  26.132  51.455  1.00  0.00     0.064 C 
ATOM      6  O   UNL     1      58.776  26.165  52.598  1.00  0.00    -0.545 OA
ATOM      7  O   UNL     1      58.973  25.091  50.595  1.00  0.00    -0.545 OA
ENDBRANCH   4   5
ENDBRANCH   2   3
ENDBRANCH   1   2
BRANCH   1   8
ATOM      8  C   UNL     1      56.337  29.117  51.123  1.00  0.00     0.000 C 
BRANCH   8   9
ATOM      9  C   UNL     1      56.036  27.672  50.697  1.00  0.00    -0.000 C 
BRANCH   9  10
ATOM     10  C   UNL     1      54.552  27.499  50.356  1.00  0.00    -0.003 C 
ATOM     11  C   UNL     1      53.814  28.834  50.406  1.00  0.00     0.004 C 
ENDBRANCH   9  10
ENDBRANCH   8   9
ENDBRANCH   1   8
TORSDOF 6
ENDMDL
