MODEL 1
REMARK VINA RESULT:    -5.956      0.000      0.000
REMARK INTER + INTRA:          -7.311
REMARK INTER:                  -7.001
REMARK INTRA:                  -0.310
REMARK UNBOUND:                -0.310
REMARK SMILES O=c1c(O)c(-c2ccc(O)c(O)c2)oc2cc(O)ccc12
REMARK SMILES IDX 5 1 3 2 2 3 1 4 21 5 15 6 14 7 16 8 17 9 19 10 20 11 6 12
REMARK SMILES IDX 7 13 8 14 9 15 13 16 11 17 10 18 12 20 4 22 18 24
REMARK H PARENT 10 19 12 21 4 23 18 25
REMARK Flexibility Score: inf
ROOT
ATOM      1  C   UNL     1       4.214 -17.729   6.342  1.00  0.00     0.180 A 
ATOM      2  C   UNL     1       3.879 -17.326   5.032  1.00  0.00     0.208 A 
ATOM      3  C   UNL     1       3.746 -15.956   4.759  1.00  0.00     0.235 A 
ATOM      4  O   UNL     1       3.458 -15.571   3.592  1.00  0.00    -0.285 OA
ATOM      5  C   UNL     1       3.928 -15.025   5.793  1.00  0.00     0.069 A 
ATOM      6  C   UNL     1       4.237 -15.509   7.083  1.00  0.00     0.142 A 
ATOM      7  O   UNL     1       4.364 -16.813   7.297  1.00  0.00    -0.452 OA
ATOM      8  C   UNL     1       4.416 -14.614   8.142  1.00  0.00     0.094 A 
ATOM      9  C   UNL     1       4.291 -13.234   7.929  1.00  0.00     0.119 A 
ATOM     10  C   UNL     1       3.986 -12.752   6.653  1.00  0.00     0.047 A 
ATOM     11  C   UNL     1       3.803 -13.639   5.587  1.00  0.00     0.020 A 
ENDROOT
BRANCH   1  12
ATOM     12  C   UNL     1       4.391 -19.154   6.705  1.00  0.00     0.025 A 
ATOM     13  C   UNL     1       3.296 -19.961   7.056  1.00  0.00     0.016 A 
ATOM     14  C   UNL     1       3.485 -21.309   7.372  1.00  0.00     0.051 A 
ATOM     15  C   UNL     1       4.766 -21.872   7.328  1.00  0.00     0.157 A 
ATOM     16  C   UNL     1       5.671 -19.729   6.642  1.00  0.00     0.062 A 
ATOM     17  C   UNL     1       5.861 -21.081   6.959  1.00  0.00     0.158 A 
BRANCH  15  18
ATOM     18  O   UNL     1       4.959 -23.216   7.644  1.00  0.00    -0.504 OA
ATOM     19  H   UNL     1       4.192 -23.803   7.953  1.00  0.00     0.293 HD
ENDBRANCH  15  18
BRANCH  17  20
ATOM     20  O   UNL     1       7.135 -21.645   6.909  1.00  0.00    -0.504 OA
ATOM     21  H   UNL     1       7.709 -21.585   6.076  1.00  0.00     0.293 HD
ENDBRANCH  17  20
ENDBRANCH   1  12
BRANCH   2  22
ATOM     22  O   UNL     1       3.656 -18.278   4.034  1.00  0.00    -0.502 OA
ATOM     23  H   UNL     1       3.694 -19.274   4.218  1.00  0.00     0.293 HD
ENDBRANCH   2  22
BRANCH   9  24
ATOM     24  O   UNL     1       4.468 -12.335   8.979  1.00  0.00    -0.508 OA
ATOM     25  H   UNL     1       5.208 -11.643   8.964  1.00  0.00     0.293 HD
ENDBRANCH   9  24
TORSDOF 5
ENDMDL
MODEL 2
REMARK VINA RESULT:    -5.948      2.644      3.483
REMARK INTER + INTRA:          -7.301
REMARK INTER:                  -7.173
REMARK INTRA:                  -0.129
REMARK UNBOUND:                -0.310
REMARK SMILES O=c1c(O)c(-c2ccc(O)c(O)c2)oc2cc(O)ccc12
REMARK SMILES IDX 5 1 3 2 2 3 1 4 21 5 15 6 14 7 16 8 17 9 19 10 20 11 6 12
REMARK SMILES IDX 7 13 8 14 9 15 13 16 11 17 10 18 12 20 4 22 18 24
REMARK H PARENT 10 19 12 21 4 23 18 25
REMARK Flexibility Score: inf
ROOT
ATOM      1  C   UNL     1       3.894 -17.727   6.809  1.00  0.00     0.180 A 
ATOM      2  C   UNL     1       4.652 -16.672   7.359  1.00  0.00     0.208 A 
ATOM      3  C   UNL     1       3.980 -15.612   7.987  1.00  0.00     0.235 A 
ATOM      4  O   UNL     1       4.637 -14.663   8.496  1.00  0.00    -0.285 OA
ATOM      5  C   UNL     1       2.577 -15.615   8.035  1.00  0.00     0.069 A 
ATOM      6  C   UNL     1       1.890 -16.695   7.439  1.00  0.00     0.142 A 
ATOM      7  O   UNL     1       2.564 -17.684   6.863  1.00  0.00    -0.452 OA
ATOM      8  C   UNL     1       0.492 -16.730   7.457  1.00  0.00     0.094 A 
ATOM      9  C   UNL     1      -0.232 -15.696   8.065  1.00  0.00     0.119 A 
ATOM     10  C   UNL     1       0.446 -14.626   8.657  1.00  0.00     0.047 A 
ATOM     11  C   UNL     1       1.844 -14.581   8.644  1.00  0.00     0.020 A 
ENDROOT
BRANCH   1  12
ATOM     12  C   UNL     1       4.529 -18.889   6.147  1.00  0.00     0.025 A 
ATOM     13  C   UNL     1       4.342 -19.145   4.778  1.00  0.00     0.016 A 
ATOM     14  C   UNL     1       4.971 -20.235   4.171  1.00  0.00     0.051 A 
ATOM     15  C   UNL     1       5.806 -21.075   4.918  1.00  0.00     0.157 A 
ATOM     16  C   UNL     1       5.384 -19.723   6.887  1.00  0.00     0.062 A 
ATOM     17  C   UNL     1       6.015 -20.817   6.278  1.00  0.00     0.158 A 
BRANCH  15  18
ATOM     18  O   UNL     1       6.434 -22.165   4.316  1.00  0.00    -0.504 OA
ATOM     19  H   UNL     1       6.871 -22.087   3.405  1.00  0.00     0.293 HD
ENDBRANCH  15  18
BRANCH  17  20
ATOM     20  O   UNL     1       6.852 -21.650   7.018  1.00  0.00    -0.504 OA
ATOM     21  H   UNL     1       7.320 -21.323   7.856  1.00  0.00     0.293 HD
ENDBRANCH  17  20
ENDBRANCH   1  12
BRANCH   2  22
ATOM     22  O   UNL     1       6.045 -16.672   7.253  1.00  0.00    -0.502 OA
ATOM     23  H   UNL     1       6.540 -17.293   6.625  1.00  0.00     0.293 HD
ENDBRANCH   2  22
BRANCH   9  24
ATOM     24  O   UNL     1      -1.625 -15.723   8.088  1.00  0.00    -0.508 OA
ATOM     25  H   UNL     1      -2.143 -15.614   8.952  1.00  0.00     0.293 HD
ENDBRANCH   9  24
TORSDOF 5
ENDMDL
MODEL 3
REMARK VINA RESULT:    -5.922      2.422      7.736
REMARK INTER + INTRA:          -7.270
REMARK INTER:                  -7.014
REMARK INTRA:                  -0.256
REMARK UNBOUND:                -0.310
REMARK SMILES O=c1c(O)c(-c2ccc(O)c(O)c2)oc2cc(O)ccc12
REMARK SMILES IDX 5 1 3 2 2 3 1 4 21 5 15 6 14 7 16 8 17 9 19 10 20 11 6 12
REMARK SMILES IDX 7 13 8 14 9 15 13 16 11 17 10 18 12 20 4 22 18 24
REMARK H PARENT 10 19 12 21 4 23 18 25
REMARK Flexibility Score: inf
ROOT
ATOM      1  C   UNL     1       3.834 -14.208   7.278  1.00  0.00     0.180 A 
ATOM      2  C   UNL     1       5.037 -14.466   7.969  1.00  0.00     0.208 A 
ATOM      3  C   UNL     1       5.442 -15.798   8.149  1.00  0.00     0.235 A 
ATOM      4  O   UNL     1       6.519 -16.054   8.753  1.00  0.00    -0.285 OA
ATOM      5  C   UNL     1       4.635 -16.837   7.659  1.00  0.00     0.069 A 
ATOM      6  C   UNL     1       3.433 -16.497   7.000  1.00  0.00     0.142 A 
ATOM      7  O   UNL     1       3.091 -15.223   6.842  1.00  0.00    -0.452 OA
ATOM      8  C   UNL     1       2.596 -17.503   6.507  1.00  0.00     0.094 A 
ATOM      9  C   UNL     1       2.947 -18.851   6.662  1.00  0.00     0.119 A 
ATOM     10  C   UNL     1       4.137 -19.191   7.312  1.00  0.00     0.047 A 
ATOM     11  C   UNL     1       4.980 -18.192   7.811  1.00  0.00     0.020 A 
ENDROOT
BRANCH   1  12
ATOM     12  C   UNL     1       3.350 -12.831   7.032  1.00  0.00     0.025 A 
ATOM     13  C   UNL     1       3.427 -12.245   5.757  1.00  0.00     0.016 A 
ATOM     14  C   UNL     1       2.941 -10.952   5.543  1.00  0.00     0.051 A 
ATOM     15  C   UNL     1       2.359 -10.233   6.595  1.00  0.00     0.157 A 
ATOM     16  C   UNL     1       2.746 -12.113   8.078  1.00  0.00     0.062 A 
ATOM     17  C   UNL     1       2.259 -10.816   7.864  1.00  0.00     0.158 A 
BRANCH  15  18
ATOM     18  O   UNL     1       1.875  -8.943   6.385  1.00  0.00    -0.504 OA
ATOM     19  H   UNL     1       1.016  -8.775   5.874  1.00  0.00     0.293 HD
ENDBRANCH  15  18
BRANCH  17  20
ATOM     20  O   UNL     1       1.673 -10.102   8.907  1.00  0.00    -0.504 OA
ATOM     21  H   UNL     1       1.618  -9.089   8.891  1.00  0.00     0.293 HD
ENDBRANCH  17  20
ENDBRANCH   1  12
BRANCH   2  22
ATOM     22  O   UNL     1       5.795 -13.414   8.488  1.00  0.00    -0.502 OA
ATOM     23  H   UNL     1       6.745 -13.231   8.189  1.00  0.00     0.293 HD
ENDBRANCH   2  22
BRANCH   9  24
ATOM     24  O   UNL     1       2.120 -19.860   6.173  1.00  0.00    -0.508 OA
ATOM     25  H   UNL     1       2.103 -20.782   6.593  1.00  0.00     0.293 HD
ENDBRANCH   9  24
TORSDOF 5
ENDMDL
MODEL 4
REMARK VINA RESULT:    -5.863      1.947      2.388
REMARK INTER + INTRA:          -7.201
REMARK INTER:                  -6.989
REMARK INTRA:                  -0.212
REMARK UNBOUND:                -0.310
REMARK SMILES O=c1c(O)c(-c2ccc(O)c(O)c2)oc2cc(O)ccc12
REMARK SMILES IDX 5 1 3 2 2 3 1 4 21 5 15 6 14 7 16 8 17 9 19 10 20 11 6 12
REMARK SMILES IDX 7 13 8 14 9 15 13 16 11 17 10 18 12 20 4 22 18 24
REMARK H PARENT 10 19 12 21 4 23 18 25
REMARK Flexibility Score: inf
ROOT
ATOM      1  C   UNL     1       3.638 -17.948   6.479  1.00  0.00     0.180 A 
ATOM      2  C   UNL     1       2.233 -17.946   6.605  1.00  0.00     0.208 A 
ATOM      3  C   UNL     1       1.602 -16.807   7.130  1.00  0.00     0.235 A 
ATOM      4  O   UNL     1       0.346 -16.777   7.241  1.00  0.00    -0.285 OA
ATOM      5  C   UNL     1       2.381 -15.712   7.536  1.00  0.00     0.069 A 
ATOM      6  C   UNL     1       3.784 -15.801   7.401  1.00  0.00     0.142 A 
ATOM      7  O   UNL     1       4.340 -16.893   6.889  1.00  0.00    -0.452 OA
ATOM      8  C   UNL     1       4.595 -14.735   7.802  1.00  0.00     0.094 A 
ATOM      9  C   UNL     1       4.020 -13.575   8.339  1.00  0.00     0.119 A 
ATOM     10  C   UNL     1       2.631 -13.483   8.472  1.00  0.00     0.047 A 
ATOM     11  C   UNL     1       1.812 -14.544   8.075  1.00  0.00     0.020 A 
ENDROOT
BRANCH   1  12
ATOM     12  C   UNL     1       4.375 -19.103   5.917  1.00  0.00     0.025 A 
ATOM     13  C   UNL     1       4.256 -19.458   4.563  1.00  0.00     0.016 A 
ATOM     14  C   UNL     1       4.980 -20.538   4.050  1.00  0.00     0.051 A 
ATOM     15  C   UNL     1       5.844 -21.266   4.878  1.00  0.00     0.157 A 
ATOM     16  C   UNL     1       5.259 -19.823   6.738  1.00  0.00     0.062 A 
ATOM     17  C   UNL     1       5.985 -20.907   6.224  1.00  0.00     0.158 A 
BRANCH  15  18
ATOM     18  O   UNL     1       6.566 -22.345   4.370  1.00  0.00    -0.504 OA
ATOM     19  H   UNL     1       7.463 -22.215   3.915  1.00  0.00     0.293 HD
ENDBRANCH  15  18
BRANCH  17  20
ATOM     20  O   UNL     1       6.850 -21.629   7.044  1.00  0.00    -0.504 OA
ATOM     21  H   UNL     1       7.018 -22.618   6.897  1.00  0.00     0.293 HD
ENDBRANCH  17  20
ENDBRANCH   1  12
BRANCH   2  22
ATOM     22  O   UNL     1       1.488 -19.070   6.239  1.00  0.00    -0.502 OA
ATOM     23  H   UNL     1       1.587 -19.513   5.334  1.00  0.00     0.293 HD
ENDBRANCH   2  22
BRANCH   9  24
ATOM     24  O   UNL     1       4.821 -12.508   8.741  1.00  0.00    -0.508 OA
ATOM     25  H   UNL     1       4.786 -11.612   8.270  1.00  0.00     0.293 HD
ENDBRANCH   9  24
TORSDOF 5
ENDMDL
MODEL 5
REMARK VINA RESULT:    -5.815      2.708      4.527
REMARK INTER + INTRA:          -7.144
REMARK INTER:                  -6.884
REMARK INTRA:                  -0.261
REMARK UNBOUND:                -0.310
REMARK SMILES O=c1c(O)c(-c2ccc(O)c(O)c2)oc2cc(O)ccc12
REMARK SMILES IDX 5 1 3 2 2 3 1 4 21 5 15 6 14 7 16 8 17 9 19 10 20 11 6 12
REMARK SMILES IDX 7 13 8 14 9 15 13 16 11 17 10 18 12 20 4 22 18 24
REMARK H PARENT 10 19 12 21 4 23 18 25
REMARK Flexibility Score: inf
ROOT
ATOM      1  C   UNL     1       3.680 -13.921   7.515  1.00  0.00     0.180 A 
ATOM      2  C   UNL     1       2.377 -13.505   7.860  1.00  0.00     0.208 A 
ATOM      3  C   UNL     1       2.016 -12.166   7.650  1.00  0.00     0.235 A 
ATOM      4  O   UNL     1       0.852 -11.773   7.940  1.00  0.00    -0.285 OA
ATOM      5  C   UNL     1       2.960 -11.271   7.122  1.00  0.00     0.069 A 
ATOM      6  C   UNL     1       4.251 -11.758   6.825  1.00  0.00     0.142 A 
ATOM      7  O   UNL     1       4.550 -13.036   7.030  1.00  0.00    -0.452 OA
ATOM      8  C   UNL     1       5.223 -10.895   6.307  1.00  0.00     0.094 A 
ATOM      9  C   UNL     1       4.920  -9.546   6.081  1.00  0.00     0.119 A 
ATOM     10  C   UNL     1       3.641  -9.061   6.373  1.00  0.00     0.047 A 
ATOM     11  C   UNL     1       2.663  -9.915   6.893  1.00  0.00     0.020 A 
ENDROOT
BRANCH   1  12
ATOM     12  C   UNL     1       4.132 -15.320   7.689  1.00  0.00     0.025 A 
ATOM     13  C   UNL     1       3.690 -16.344   6.832  1.00  0.00     0.016 A 
ATOM     14  C   UNL     1       4.149 -17.653   7.002  1.00  0.00     0.051 A 
ATOM     15  C   UNL     1       5.064 -17.955   8.018  1.00  0.00     0.157 A 
ATOM     16  C   UNL     1       5.066 -15.625   8.692  1.00  0.00     0.062 A 
ATOM     17  C   UNL     1       5.526 -16.938   8.863  1.00  0.00     0.158 A 
BRANCH  15  18
ATOM     18  O   UNL     1       5.522 -19.260   8.191  1.00  0.00    -0.504 OA
ATOM     19  H   UNL     1       5.108 -19.881   8.876  1.00  0.00     0.293 HD
ENDBRANCH  15  18
BRANCH  17  20
ATOM     20  O   UNL     1       6.442 -17.240   9.869  1.00  0.00    -0.504 OA
ATOM     21  H   UNL     1       7.378 -17.566   9.654  1.00  0.00     0.293 HD
ENDBRANCH  17  20
ENDBRANCH   1  12
BRANCH   2  22
ATOM     22  O   UNL     1       1.474 -14.408   8.429  1.00  0.00    -0.502 OA
ATOM     23  H   UNL     1       1.730 -15.020   9.194  1.00  0.00     0.293 HD
ENDBRANCH   2  22
BRANCH   9  24
ATOM     24  O   UNL     1       5.882  -8.680   5.566  1.00  0.00    -0.508 OA
ATOM     25  H   UNL     1       5.626  -7.795   5.143  1.00  0.00     0.293 HD
ENDBRANCH   9  24
TORSDOF 5
ENDMDL
MODEL 6
REMARK VINA RESULT:    -5.782      1.957      6.777
REMARK INTER + INTRA:          -7.106
REMARK INTER:                  -6.912
REMARK INTRA:                  -0.194
REMARK UNBOUND:                -0.310
REMARK SMILES O=c1c(O)c(-c2ccc(O)c(O)c2)oc2cc(O)ccc12
REMARK SMILES IDX 5 1 3 2 2 3 1 4 21 5 15 6 14 7 16 8 17 9 19 10 20 11 6 12
REMARK SMILES IDX 7 13 8 14 9 15 13 16 11 17 10 18 12 20 4 22 18 24
REMARK H PARENT 10 19 12 21 4 23 18 25
REMARK Flexibility Score: inf
ROOT
ATOM      1  C   UNL     1       3.481 -18.387   6.625  1.00  0.00     0.180 A 
ATOM      2  C   UNL     1       2.760 -18.508   5.418  1.00  0.00     0.208 A 
ATOM      3  C   UNL     1       2.484 -19.791   4.920  1.00  0.00     0.235 A 
ATOM      4  O   UNL     1       1.830 -19.924   3.850  1.00  0.00    -0.285 OA
ATOM      5  C   UNL     1       2.946 -20.917   5.619  1.00  0.00     0.069 A 
ATOM      6  C   UNL     1       3.683 -20.712   6.807  1.00  0.00     0.142 A 
ATOM      7  O   UNL     1       3.914 -19.481   7.249  1.00  0.00    -0.452 OA
ATOM      8  C   UNL     1       4.170 -21.808   7.526  1.00  0.00     0.094 A 
ATOM      9  C   UNL     1       3.929 -23.112   7.074  1.00  0.00     0.119 A 
ATOM     10  C   UNL     1       3.198 -23.318   5.900  1.00  0.00     0.047 A 
ATOM     11  C   UNL     1       2.708 -22.229   5.172  1.00  0.00     0.020 A 
ENDROOT
BRANCH   1  12
ATOM     12  C   UNL     1       3.796 -17.070   7.224  1.00  0.00     0.025 A 
ATOM     13  C   UNL     1       5.109 -16.571   7.246  1.00  0.00     0.016 A 
ATOM     14  C   UNL     1       5.378 -15.314   7.796  1.00  0.00     0.051 A 
ATOM     15  C   UNL     1       4.338 -14.534   8.316  1.00  0.00     0.157 A 
ATOM     16  C   UNL     1       2.754 -16.274   7.728  1.00  0.00     0.062 A 
ATOM     17  C   UNL     1       3.023 -15.014   8.280  1.00  0.00     0.158 A 
BRANCH  15  18
ATOM     18  O   UNL     1       4.602 -13.281   8.867  1.00  0.00    -0.504 OA
ATOM     19  H   UNL     1       3.963 -12.504   8.748  1.00  0.00     0.293 HD
ENDBRANCH  15  18
BRANCH  17  20
ATOM     20  O   UNL     1       1.989 -14.233   8.792  1.00  0.00    -0.504 OA
ATOM     21  H   UNL     1       1.661 -13.404   8.309  1.00  0.00     0.293 HD
ENDBRANCH  17  20
ENDBRANCH   1  12
BRANCH   2  22
ATOM     22  O   UNL     1       2.354 -17.368   4.719  1.00  0.00    -0.502 OA
ATOM     23  H   UNL     1       2.483 -16.433   5.086  1.00  0.00     0.293 HD
ENDBRANCH   2  22
BRANCH   9  24
ATOM     24  O   UNL     1       4.410 -24.210   7.785  1.00  0.00    -0.508 OA
ATOM     25  H   UNL     1       5.239 -24.710   7.489  1.00  0.00     0.293 HD
ENDBRANCH   9  24
TORSDOF 5
ENDMDL
MODEL 7
REMARK VINA RESULT:    -5.765      2.269      6.743
REMARK INTER + INTRA:          -7.086
REMARK INTER:                  -6.771
REMARK INTRA:                  -0.315
REMARK UNBOUND:                -0.310
REMARK SMILES O=c1c(O)c(-c2ccc(O)c(O)c2)oc2cc(O)ccc12
REMARK SMILES IDX 5 1 3 2 2 3 1 4 21 5 15 6 14 7 16 8 17 9 19 10 20 11 6 12
REMARK SMILES IDX 7 13 8 14 9 15 13 16 11 17 10 18 12 20 4 22 18 24
REMARK H PARENT 10 19 12 21 4 23 18 25
REMARK Flexibility Score: inf
ROOT
ATOM      1  C   UNL     1       4.876 -18.161   6.407  1.00  0.00     0.180 A 
ATOM      2  C   UNL     1       5.257 -19.257   7.210  1.00  0.00     0.208 A 
ATOM      3  C   UNL     1       5.694 -20.435   6.585  1.00  0.00     0.235 A 
ATOM      4  O   UNL     1       6.051 -21.424   7.282  1.00  0.00    -0.285 OA
ATOM      5  C   UNL     1       5.723 -20.502   5.183  1.00  0.00     0.069 A 
ATOM      6  C   UNL     1       5.302 -19.371   4.450  1.00  0.00     0.142 A 
ATOM      7  O   UNL     1       4.905 -18.272   5.080  1.00  0.00    -0.452 OA
ATOM      8  C   UNL     1       5.307 -19.403   3.051  1.00  0.00     0.094 A 
ATOM      9  C   UNL     1       5.728 -20.554   2.373  1.00  0.00     0.119 A 
ATOM     10  C   UNL     1       6.147 -21.675   3.096  1.00  0.00     0.047 A 
ATOM     11  C   UNL     1       6.144 -21.654   4.495  1.00  0.00     0.020 A 
ENDROOT
BRANCH   1  12
ATOM     12  C   UNL     1       4.423 -16.878   6.991  1.00  0.00     0.025 A 
ATOM     13  C   UNL     1       3.063 -16.629   7.243  1.00  0.00     0.016 A 
ATOM     14  C   UNL     1       2.661 -15.420   7.817  1.00  0.00     0.051 A 
ATOM     15  C   UNL     1       3.612 -14.451   8.161  1.00  0.00     0.157 A 
ATOM     16  C   UNL     1       5.373 -15.912   7.357  1.00  0.00     0.062 A 
ATOM     17  C   UNL     1       4.971 -14.698   7.933  1.00  0.00     0.158 A 
BRANCH  15  18
ATOM     18  O   UNL     1       3.214 -13.243   8.733  1.00  0.00    -0.504 OA
ATOM     19  H   UNL     1       2.363 -12.775   8.444  1.00  0.00     0.293 HD
ENDBRANCH  15  18
BRANCH  17  20
ATOM     20  O   UNL     1       5.916 -13.735   8.282  1.00  0.00    -0.504 OA
ATOM     21  H   UNL     1       6.678 -13.945   8.916  1.00  0.00     0.293 HD
ENDBRANCH  17  20
ENDBRANCH   1  12
BRANCH   2  22
ATOM     22  O   UNL     1       5.172 -19.177   8.602  1.00  0.00    -0.502 OA
ATOM     23  H   UNL     1       5.257 -19.992   9.198  1.00  0.00     0.293 HD
ENDBRANCH   2  22
BRANCH   9  24
ATOM     24  O   UNL     1       5.736 -20.593   0.980  1.00  0.00    -0.508 OA
ATOM     25  H   UNL     1       5.557 -21.452   0.473  1.00  0.00     0.293 HD
ENDBRANCH   9  24
TORSDOF 5
ENDMDL
MODEL 8
REMARK VINA RESULT:    -5.749      2.266      3.305
REMARK INTER + INTRA:          -7.067
REMARK INTER:                  -6.762
REMARK INTRA:                  -0.305
REMARK UNBOUND:                -0.310
REMARK SMILES O=c1c(O)c(-c2ccc(O)c(O)c2)oc2cc(O)ccc12
REMARK SMILES IDX 5 1 3 2 2 3 1 4 21 5 15 6 14 7 16 8 17 9 19 10 20 11 6 12
REMARK SMILES IDX 7 13 8 14 9 15 13 16 11 17 10 18 12 20 4 22 18 24
REMARK H PARENT 10 19 12 21 4 23 18 25
REMARK Flexibility Score: inf
ROOT
ATOM      1  C   UNL     1       4.523 -18.062   6.225  1.00  0.00     0.180 A 
ATOM      2  C   UNL     1       5.174 -18.038   7.477  1.00  0.00     0.208 A 
ATOM      3  C   UNL     1       5.345 -16.806   8.127  1.00  0.00     0.235 A 
ATOM      4  O   UNL     1       5.913 -16.761   9.253  1.00  0.00    -0.285 OA
ATOM      5  C   UNL     1       4.884 -15.631   7.513  1.00  0.00     0.069 A 
ATOM      6  C   UNL     1       4.265 -15.736   6.248  1.00  0.00     0.142 A 
ATOM      7  O   UNL     1       4.114 -16.922   5.671  1.00  0.00    -0.452 OA
ATOM      8  C   UNL     1       3.802 -14.587   5.599  1.00  0.00     0.094 A 
ATOM      9  C   UNL     1       3.950 -13.329   6.199  1.00  0.00     0.119 A 
ATOM     10  C   UNL     1       4.562 -13.222   7.452  1.00  0.00     0.047 A 
ATOM     11  C   UNL     1       5.029 -14.365   8.109  1.00  0.00     0.020 A 
ENDROOT
BRANCH   1  12
ATOM     12  C   UNL     1       4.288 -19.322   5.485  1.00  0.00     0.025 A 
ATOM     13  C   UNL     1       5.183 -19.769   4.497  1.00  0.00     0.016 A 
ATOM     14  C   UNL     1       4.952 -20.974   3.828  1.00  0.00     0.051 A 
ATOM     15  C   UNL     1       3.835 -21.757   4.148  1.00  0.00     0.157 A 
ATOM     16  C   UNL     1       3.181 -20.121   5.815  1.00  0.00     0.062 A 
ATOM     17  C   UNL     1       2.949 -21.331   5.145  1.00  0.00     0.158 A 
BRANCH  15  18
ATOM     18  O   UNL     1       3.601 -22.959   3.481  1.00  0.00    -0.504 OA
ATOM     19  H   UNL     1       2.842 -23.574   3.749  1.00  0.00     0.293 HD
ENDBRANCH  15  18
BRANCH  17  20
ATOM     20  O   UNL     1       1.842 -22.114   5.465  1.00  0.00    -0.504 OA
ATOM     21  H   UNL     1       1.612 -22.949   4.937  1.00  0.00     0.293 HD
ENDBRANCH  17  20
ENDBRANCH   1  12
BRANCH   2  22
ATOM     22  O   UNL     1       5.665 -19.218   8.041  1.00  0.00    -0.502 OA
ATOM     23  H   UNL     1       5.908 -20.026   7.481  1.00  0.00     0.293 HD
ENDBRANCH   2  22
BRANCH   9  24
ATOM     24  O   UNL     1       3.492 -12.179   5.559  1.00  0.00    -0.508 OA
ATOM     25  H   UNL     1       3.657 -11.257   5.944  1.00  0.00     0.293 HD
ENDBRANCH   9  24
TORSDOF 5
ENDMDL
MODEL 9
REMARK VINA RESULT:    -5.599      2.506      3.627
REMARK INTER + INTRA:          -6.891
REMARK INTER:                  -6.573
REMARK INTRA:                  -0.318
REMARK UNBOUND:                -0.310
REMARK SMILES O=c1c(O)c(-c2ccc(O)c(O)c2)oc2cc(O)ccc12
REMARK SMILES IDX 5 1 3 2 2 3 1 4 21 5 15 6 14 7 16 8 17 9 19 10 20 11 6 12
REMARK SMILES IDX 7 13 8 14 9 15 13 16 11 17 10 18 12 20 4 22 18 24
REMARK H PARENT 10 19 12 21 4 23 18 25
REMARK Flexibility Score: inf
ROOT
ATOM      1  C   UNL     1       4.889 -19.442   5.628  1.00  0.00     0.180 A 
ATOM      2  C   UNL     1       5.239 -19.366   6.993  1.00  0.00     0.208 A 
ATOM      3  C   UNL     1       5.140 -18.129   7.649  1.00  0.00     0.235 A 
ATOM      4  O   UNL     1       5.436 -18.038   8.872  1.00  0.00    -0.285 OA
ATOM      5  C   UNL     1       4.717 -16.999   6.932  1.00  0.00     0.069 A 
ATOM      6  C   UNL     1       4.409 -17.152   5.562  1.00  0.00     0.142 A 
ATOM      7  O   UNL     1       4.506 -18.343   4.982  1.00  0.00    -0.452 OA
ATOM      8  C   UNL     1       3.994 -16.048   4.810  1.00  0.00     0.094 A 
ATOM      9  C   UNL     1       3.882 -14.787   5.411  1.00  0.00     0.119 A 
ATOM     10  C   UNL     1       4.186 -14.632   6.768  1.00  0.00     0.047 A 
ATOM     11  C   UNL     1       4.603 -15.730   7.528  1.00  0.00     0.020 A 
ENDROOT
BRANCH   1  12
ATOM     12  C   UNL     1       4.948 -20.713   4.872  1.00  0.00     0.025 A 
ATOM     13  C   UNL     1       3.876 -21.622   4.882  1.00  0.00     0.016 A 
ATOM     14  C   UNL     1       3.946 -22.805   4.141  1.00  0.00     0.051 A 
ATOM     15  C   UNL     1       5.079 -23.088   3.367  1.00  0.00     0.157 A 
ATOM     16  C   UNL     1       6.072 -20.992   4.078  1.00  0.00     0.062 A 
ATOM     17  C   UNL     1       6.143 -22.179   3.334  1.00  0.00     0.158 A 
BRANCH  15  18
ATOM     18  O   UNL     1       5.152 -24.267   2.628  1.00  0.00    -0.504 OA
ATOM     19  H   UNL     1       4.361 -24.897   2.554  1.00  0.00     0.293 HD
ENDBRANCH  15  18
BRANCH  17  20
ATOM     20  O   UNL     1       7.266 -22.460   2.558  1.00  0.00    -0.504 OA
ATOM     21  H   UNL     1       7.201 -22.575   1.553  1.00  0.00     0.293 HD
ENDBRANCH  17  20
ENDBRANCH   1  12
BRANCH   2  22
ATOM     22  O   UNL     1       5.702 -20.497   7.669  1.00  0.00    -0.502 OA
ATOM     23  H   UNL     1       6.325 -21.169   7.236  1.00  0.00     0.293 HD
ENDBRANCH   2  22
BRANCH   9  24
ATOM     24  O   UNL     1       3.469 -13.682   4.670  1.00  0.00    -0.508 OA
ATOM     25  H   UNL     1       2.908 -12.947   5.083  1.00  0.00     0.293 HD
ENDBRANCH   9  24
TORSDOF 5
ENDMDL
