MODEL 1
REMARK VINA RESULT:    -2.932      0.000      0.000
REMARK INTER + INTRA:         -11.198
REMARK INTER:                  -6.702
REMARK INTRA:                  -4.496
REMARK UNBOUND:                -4.496
REMARK SMILES CCCCCCCCCCCCCCCCCCCCCCCC(=O)[O-]
REMARK SMILES IDX 13 1 14 2 15 3 16 4 17 5 18 6 19 7 20 8 21 9 22 10 23 11
REMARK SMILES IDX 24 12 25 13 26 14 12 15 11 16 10 17 9 18 8 19 7 20 6 21 5 22
REMARK SMILES IDX 4 23 3 24 2 25 1 26
REMARK H PARENT
REMARK Flexibility Score: inf
ROOT
ATOM      1  C   UNL     1      54.750  25.710  49.908  1.00  0.00     0.000 C 
ENDROOT
BRANCH   1   2
ATOM      2  C   UNL     1      53.612  26.486  50.596  1.00  0.00     0.000 C 
BRANCH   2   3
ATOM      3  C   UNL     1      53.279  27.857  49.969  1.00  0.00     0.000 C 
BRANCH   3   4
ATOM      4  C   UNL     1      53.499  29.077  50.889  1.00  0.00     0.000 C 
BRANCH   4   5
ATOM      5  C   UNL     1      54.910  29.697  50.818  1.00  0.00     0.000 C 
BRANCH   5   6
ATOM      6  C   UNL     1      55.525  30.006  52.196  1.00  0.00     0.000 C 
BRANCH   6   7
ATOM      7  C   UNL     1      56.089  31.436  52.272  1.00  0.00     0.000 C 
BRANCH   7   8
ATOM      8  C   UNL     1      56.885  31.697  53.562  1.00  0.00     0.000 C 
BRANCH   8   9
ATOM      9  C   UNL     1      56.302  31.035  54.826  1.00  0.00     0.000 C 
BRANCH   9  10
ATOM     10  C   UNL     1      57.162  31.278  56.077  1.00  0.00     0.006 C 
BRANCH  10  11
ATOM     11  C   UNL     1      57.755  29.968  56.601  1.00  0.00     0.053 C 
BRANCH  11  12
ATOM     12  C   UNL     1      56.679  29.108  57.183  1.00  0.00     0.041 C 
ATOM     13  O   UNL     1      55.915  29.562  58.078  1.00  0.00    -0.550 OA
ATOM     14  O   UNL     1      56.471  27.829  56.686  1.00  0.00    -0.550 OA
ENDBRANCH  11  12
ENDBRANCH  10  11
ENDBRANCH   9  10
ENDBRANCH   8   9
ENDBRANCH   7   8
ENDBRANCH   6   7
ENDBRANCH   5   6
ENDBRANCH   4   5
ENDBRANCH   3   4
ENDBRANCH   2   3
ENDBRANCH   1   2
BRANCH   1  15
ATOM     15  C   UNL     1      56.142  26.244  50.288  1.00  0.00     0.000 C 
BRANCH  15  16
ATOM     16  C   UNL     1      56.562  25.845  51.711  1.00  0.00     0.000 C 
BRANCH  16  17
ATOM     17  C   UNL     1      57.893  25.075  51.749  1.00  0.00     0.000 C 
BRANCH  17  18
ATOM     18  C   UNL     1      58.788  25.399  50.532  1.00  0.00    -0.000 C 
BRANCH  18  19
ATOM     19  C   UNL     1      60.101  26.110  50.906  1.00  0.00    -0.000 C 
BRANCH  19  20
ATOM     20  C   UNL     1      60.470  27.302  50.002  1.00  0.00    -0.000 C 
BRANCH  20  21
ATOM     21  C   UNL     1      59.299  28.246  49.657  1.00  0.00    -0.000 C 
BRANCH  21  22
ATOM     22  C   UNL     1      58.722  29.036  50.846  1.00  0.00    -0.000 C 
BRANCH  22  23
ATOM     23  C   UNL     1      59.805  29.749  51.674  1.00  0.00    -0.000 C 
BRANCH  23  24
ATOM     24  C   UNL     1      59.769  29.345  53.158  1.00  0.00    -0.000 C 
BRANCH  24  25
ATOM     25  C   UNL     1      58.657  28.331  53.463  1.00  0.00    -0.003 C 
ATOM     26  C   UNL     1      59.140  27.261  54.438  1.00  0.00     0.004 C 
ENDBRANCH  24  25
ENDBRANCH  23  24
ENDBRANCH  22  23
ENDBRANCH  21  22
ENDBRANCH  20  21
ENDBRANCH  19  20
ENDBRANCH  18  19
ENDBRANCH  17  18
ENDBRANCH  16  17
ENDBRANCH  15  16
ENDBRANCH   1  15
TORSDOF 22
ENDMDL
MODEL 2
REMARK VINA RESULT:    -2.899      1.665      4.966
REMARK INTER + INTRA:         -11.123
REMARK INTER:                  -6.600
REMARK INTRA:                  -4.523
REMARK UNBOUND:                -4.496
REMARK SMILES CCCCCCCCCCCCCCCCCCCCCCCC(=O)[O-]
REMARK SMILES IDX 13 1 14 2 15 3 16 4 17 5 18 6 19 7 20 8 21 9 22 10 23 11
REMARK SMILES IDX 24 12 25 13 26 14 12 15 11 16 10 17 9 18 8 19 7 20 6 21 5 22
REMARK SMILES IDX 4 23 3 24 2 25 1 26
REMARK H PARENT
REMARK Flexibility Score: inf
ROOT
ATOM      1  C   UNL     1      56.396  25.479  51.682  1.00  0.00     0.000 C 
ENDROOT
BRANCH   1   2
ATOM      2  C   UNL     1      57.932  25.555  51.756  1.00  0.00     0.000 C 
BRANCH   2   3
ATOM      3  C   UNL     1      58.646  25.737  50.399  1.00  0.00     0.000 C 
BRANCH   3   4
ATOM      4  C   UNL     1      59.831  26.726  50.402  1.00  0.00     0.000 C 
BRANCH   4   5
ATOM      5  C   UNL     1      59.608  28.009  49.573  1.00  0.00     0.000 C 
BRANCH   5   6
ATOM      6  C   UNL     1      58.627  29.006  50.219  1.00  0.00     0.000 C 
BRANCH   6   7
ATOM      7  C   UNL     1      59.007  29.332  51.674  1.00  0.00     0.000 C 
BRANCH   7   8
ATOM      8  C   UNL     1      57.836  29.923  52.479  1.00  0.00     0.000 C 
BRANCH   8   9
ATOM      9  C   UNL     1      56.952  28.882  53.192  1.00  0.00     0.000 C 
BRANCH   9  10
ATOM     10  C   UNL     1      57.543  28.415  54.531  1.00  0.00     0.006 C 
BRANCH  10  11
ATOM     11  C   UNL     1      56.878  27.121  55.007  1.00  0.00     0.053 C 
BRANCH  11  12
ATOM     12  C   UNL     1      55.413  27.336  55.212  1.00  0.00     0.041 C 
ATOM     13  O   UNL     1      55.004  28.125  56.108  1.00  0.00    -0.550 OA
ATOM     14  O   UNL     1      54.499  26.724  54.366  1.00  0.00    -0.550 OA
ENDBRANCH  11  12
ENDBRANCH  10  11
ENDBRANCH   9  10
ENDBRANCH   8   9
ENDBRANCH   7   8
ENDBRANCH   6   7
ENDBRANCH   5   6
ENDBRANCH   4   5
ENDBRANCH   3   4
ENDBRANCH   2   3
ENDBRANCH   1   2
BRANCH   1  15
ATOM     15  C   UNL     1      55.837  26.070  50.377  1.00  0.00     0.000 C 
BRANCH  15  16
ATOM     16  C   UNL     1      55.289  27.494  50.557  1.00  0.00     0.000 C 
BRANCH  16  17
ATOM     17  C   UNL     1      53.819  27.628  50.124  1.00  0.00     0.000 C 
BRANCH  17  18
ATOM     18  C   UNL     1      53.265  29.047  50.376  1.00  0.00    -0.000 C 
BRANCH  18  19
ATOM     19  C   UNL     1      54.340  30.059  50.812  1.00  0.00    -0.000 C 
BRANCH  19  20
ATOM     20  C   UNL     1      53.967  30.907  52.043  1.00  0.00    -0.000 C 
BRANCH  20  21
ATOM     21  C   UNL     1      53.599  30.097  53.304  1.00  0.00    -0.000 C 
BRANCH  21  22
ATOM     22  C   UNL     1      53.200  30.938  54.530  1.00  0.00    -0.000 C 
BRANCH  22  23
ATOM     23  C   UNL     1      54.208  32.056  54.845  1.00  0.00    -0.000 C 
BRANCH  23  24
ATOM     24  C   UNL     1      55.516  31.515  55.446  1.00  0.00    -0.000 C 
BRANCH  24  25
ATOM     25  C   UNL     1      56.732  32.381  55.083  1.00  0.00    -0.003 C 
ATOM     26  C   UNL     1      56.510  33.114  53.763  1.00  0.00     0.004 C 
ENDBRANCH  24  25
ENDBRANCH  23  24
ENDBRANCH  22  23
ENDBRANCH  21  22
ENDBRANCH  20  21
ENDBRANCH  19  20
ENDBRANCH  18  19
ENDBRANCH  17  18
ENDBRANCH  16  17
ENDBRANCH  15  16
ENDBRANCH   1  15
TORSDOF 22
ENDMDL
MODEL 3
REMARK VINA RESULT:    -2.890      2.315      3.415
REMARK INTER + INTRA:         -11.103
REMARK INTER:                  -6.507
REMARK INTRA:                  -4.596
REMARK UNBOUND:                -4.496
REMARK SMILES CCCCCCCCCCCCCCCCCCCCCCCC(=O)[O-]
REMARK SMILES IDX 13 1 14 2 15 3 16 4 17 5 18 6 19 7 20 8 21 9 22 10 23 11
REMARK SMILES IDX 24 12 25 13 26 14 12 15 11 16 10 17 9 18 8 19 7 20 6 21 5 22
REMARK SMILES IDX 4 23 3 24 2 25 1 26
REMARK H PARENT
REMARK Flexibility Score: inf
ROOT
ATOM      1  C   UNL     1      56.784  26.699  50.702  1.00  0.00     0.000 C 
ENDROOT
BRANCH   1   2
ATOM      2  C   UNL     1      55.378  26.239  50.277  1.00  0.00     0.000 C 
BRANCH   2   3
ATOM      3  C   UNL     1      54.209  26.961  50.981  1.00  0.00     0.000 C 
BRANCH   3   4
ATOM      4  C   UNL     1      53.595  28.144  50.201  1.00  0.00     0.000 C 
BRANCH   4   5
ATOM      5  C   UNL     1      53.847  29.533  50.825  1.00  0.00     0.000 C 
BRANCH   5   6
ATOM      6  C   UNL     1      55.274  30.068  50.601  1.00  0.00     0.000 C 
BRANCH   6   7
ATOM      7  C   UNL     1      55.557  31.330  51.435  1.00  0.00     0.000 C 
BRANCH   7   8
ATOM      8  C   UNL     1      54.491  31.584  52.515  1.00  0.00     0.000 C 
BRANCH   8   9
ATOM      9  C   UNL     1      54.956  32.473  53.685  1.00  0.00     0.000 C 
BRANCH   9  10
ATOM     10  C   UNL     1      56.324  32.054  54.244  1.00  0.00     0.006 C 
BRANCH  10  11
ATOM     11  C   UNL     1      57.375  33.141  54.003  1.00  0.00     0.053 C 
BRANCH  11  12
ATOM     12  C   UNL     1      56.969  34.413  54.677  1.00  0.00     0.041 C 
ATOM     13  O   UNL     1      56.894  34.471  55.934  1.00  0.00    -0.550 OA
ATOM     14  O   UNL     1      56.746  35.555  53.921  1.00  0.00    -0.550 OA
ENDBRANCH  11  12
ENDBRANCH  10  11
ENDBRANCH   9  10
ENDBRANCH   8   9
ENDBRANCH   7   8
ENDBRANCH   6   7
ENDBRANCH   5   6
ENDBRANCH   4   5
ENDBRANCH   3   4
ENDBRANCH   2   3
ENDBRANCH   1   2
BRANCH   1  15
ATOM     15  C   UNL     1      57.632  25.551  51.278  1.00  0.00     0.000 C 
BRANCH  15  16
ATOM     16  C   UNL     1      59.091  25.594  50.800  1.00  0.00     0.000 C 
BRANCH  16  17
ATOM     17  C   UNL     1      59.357  26.725  49.792  1.00  0.00     0.000 C 
BRANCH  17  18
ATOM     18  C   UNL     1      60.730  27.396  50.018  1.00  0.00    -0.000 C 
BRANCH  18  19
ATOM     19  C   UNL     1      60.639  28.764  50.717  1.00  0.00    -0.000 C 
BRANCH  19  20
ATOM     20  C   UNL     1      59.219  29.358  50.791  1.00  0.00    -0.000 C 
BRANCH  20  21
ATOM     21  C   UNL     1      58.693  29.611  52.219  1.00  0.00    -0.000 C 
BRANCH  21  22
ATOM     22  C   UNL     1      58.988  28.492  53.235  1.00  0.00    -0.000 C 
BRANCH  22  23
ATOM     23  C   UNL     1      57.865  28.310  54.270  1.00  0.00    -0.000 C 
BRANCH  23  24
ATOM     24  C   UNL     1      56.467  28.504  53.659  1.00  0.00    -0.000 C 
BRANCH  24  25
ATOM     25  C   UNL     1      55.382  27.723  54.416  1.00  0.00    -0.003 C 
ATOM     26  C   UNL     1      54.060  28.484  54.423  1.00  0.00     0.004 C 
ENDBRANCH  24  25
ENDBRANCH  23  24
ENDBRANCH  22  23
ENDBRANCH  21  22
ENDBRANCH  20  21
ENDBRANCH  19  20
ENDBRANCH  18  19
ENDBRANCH  17  18
ENDBRANCH  16  17
ENDBRANCH  15  16
ENDBRANCH   1  15
TORSDOF 22
ENDMDL
MODEL 4
REMARK VINA RESULT:    -2.865      1.628      3.005
REMARK INTER + INTRA:         -11.046
REMARK INTER:                  -6.413
REMARK INTRA:                  -4.633
REMARK UNBOUND:                -4.496
REMARK SMILES CCCCCCCCCCCCCCCCCCCCCCCC(=O)[O-]
REMARK SMILES IDX 13 1 14 2 15 3 16 4 17 5 18 6 19 7 20 8 21 9 22 10 23 11
REMARK SMILES IDX 24 12 25 13 26 14 12 15 11 16 10 17 9 18 8 19 7 20 6 21 5 22
REMARK SMILES IDX 4 23 3 24 2 25 1 26
REMARK H PARENT
REMARK Flexibility Score: inf
ROOT
ATOM      1  C   UNL     1      54.179  28.188  50.567  1.00  0.00     0.000 C 
ENDROOT
BRANCH   1   2
ATOM      2  C   UNL     1      53.988  29.703  50.762  1.00  0.00     0.000 C 
BRANCH   2   3
ATOM      3  C   UNL     1      55.289  30.535  50.751  1.00  0.00     0.000 C 
BRANCH   3   4
ATOM      4  C   UNL     1      55.391  31.619  51.846  1.00  0.00     0.000 C 
BRANCH   4   5
ATOM      5  C   UNL     1      54.153  31.735  52.762  1.00  0.00     0.000 C 
BRANCH   5   6
ATOM      6  C   UNL     1      54.356  31.129  54.163  1.00  0.00     0.000 C 
BRANCH   6   7
ATOM      7  C   UNL     1      53.098  30.400  54.667  1.00  0.00     0.000 C 
BRANCH   7   8
ATOM      8  C   UNL     1      53.324  28.892  54.874  1.00  0.00     0.000 C 
BRANCH   8   9
ATOM      9  C   UNL     1      54.757  28.408  54.581  1.00  0.00     0.000 C 
BRANCH   9  10
ATOM     10  C   UNL     1      55.496  27.932  55.842  1.00  0.00     0.006 C 
BRANCH  10  11
ATOM     11  C   UNL     1      56.300  29.071  56.473  1.00  0.00     0.053 C 
BRANCH  11  12
ATOM     12  C   UNL     1      56.657  28.733  57.886  1.00  0.00     0.041 C 
ATOM     13  O   UNL     1      57.846  28.854  58.288  1.00  0.00    -0.550 OA
ATOM     14  O   UNL     1      55.665  28.355  58.778  1.00  0.00    -0.550 OA
ENDBRANCH  11  12
ENDBRANCH  10  11
ENDBRANCH   9  10
ENDBRANCH   8   9
ENDBRANCH   7   8
ENDBRANCH   6   7
ENDBRANCH   5   6
ENDBRANCH   4   5
ENDBRANCH   3   4
ENDBRANCH   2   3
ENDBRANCH   1   2
BRANCH   1  15
ATOM     15  C   UNL     1      55.644  27.750  50.738  1.00  0.00     0.000 C 
BRANCH  15  16
ATOM     16  C   UNL     1      55.862  26.267  50.401  1.00  0.00     0.000 C 
BRANCH  16  17
ATOM     17  C   UNL     1      56.905  25.594  51.310  1.00  0.00     0.000 C 
BRANCH  17  18
ATOM     18  C   UNL     1      56.976  26.258  52.704  1.00  0.00    -0.000 C 
BRANCH  18  19
ATOM     19  C   UNL     1      58.395  26.281  53.302  1.00  0.00    -0.000 C 
BRANCH  19  20
ATOM     20  C   UNL     1      58.964  27.689  53.559  1.00  0.00    -0.000 C 
BRANCH  20  21
ATOM     21  C   UNL     1      58.026  28.852  53.174  1.00  0.00    -0.000 C 
BRANCH  21  22
ATOM     22  C   UNL     1      58.687  29.994  52.382  1.00  0.00    -0.000 C 
BRANCH  22  23
ATOM     23  C   UNL     1      59.709  29.492  51.346  1.00  0.00    -0.000 C 
BRANCH  23  24
ATOM     24  C   UNL     1      59.037  28.929  50.083  1.00  0.00    -0.000 C 
BRANCH  24  25
ATOM     25  C   UNL     1      59.583  27.547  49.694  1.00  0.00    -0.003 C 
ATOM     26  C   UNL     1      61.042  27.394  50.116  1.00  0.00     0.004 C 
ENDBRANCH  24  25
ENDBRANCH  23  24
ENDBRANCH  22  23
ENDBRANCH  21  22
ENDBRANCH  20  21
ENDBRANCH  19  20
ENDBRANCH  18  19
ENDBRANCH  17  18
ENDBRANCH  16  17
ENDBRANCH  15  16
ENDBRANCH   1  15
TORSDOF 22
ENDMDL
MODEL 5
REMARK VINA RESULT:    -2.841      2.026      5.662
REMARK INTER + INTRA:         -10.989
REMARK INTER:                  -6.359
REMARK INTRA:                  -4.630
REMARK UNBOUND:                -4.496
REMARK SMILES CCCCCCCCCCCCCCCCCCCCCCCC(=O)[O-]
REMARK SMILES IDX 13 1 14 2 15 3 16 4 17 5 18 6 19 7 20 8 21 9 22 10 23 11
REMARK SMILES IDX 24 12 25 13 26 14 12 15 11 16 10 17 9 18 8 19 7 20 6 21 5 22
REMARK SMILES IDX 4 23 3 24 2 25 1 26
REMARK H PARENT
REMARK Flexibility Score: inf
ROOT
ATOM      1  C   UNL     1      58.460  25.100  51.156  1.00  0.00     0.000 C 
ENDROOT
BRANCH   1   2
ATOM      2  C   UNL     1      59.664  24.140  51.164  1.00  0.00     0.000 C 
BRANCH   2   3
ATOM      3  C   UNL     1      60.663  24.349  52.323  1.00  0.00     0.000 C 
BRANCH   3   4
ATOM      4  C   UNL     1      62.056  24.871  51.910  1.00  0.00     0.000 C 
BRANCH   4   5
ATOM      5  C   UNL     1      62.197  26.408  51.902  1.00  0.00     0.000 C 
BRANCH   5   6
ATOM      6  C   UNL     1      62.410  27.007  50.499  1.00  0.00     0.000 C 
BRANCH   6   7
ATOM      7  C   UNL     1      62.053  28.503  50.447  1.00  0.00     0.000 C 
BRANCH   7   8
ATOM      8  C   UNL     1      61.883  29.125  51.845  1.00  0.00     0.000 C 
BRANCH   8   9
ATOM      9  C   UNL     1      61.560  30.632  51.845  1.00  0.00     0.000 C 
BRANCH   9  10
ATOM     10  C   UNL     1      60.442  31.002  52.832  1.00  0.00     0.006 C 
BRANCH  10  11
ATOM     11  C   UNL     1      60.065  29.807  53.712  1.00  0.00     0.053 C 
BRANCH  11  12
ATOM     12  C   UNL     1      58.658  29.946  54.200  1.00  0.00     0.041 C 
ATOM     13  O   UNL     1      58.144  29.049  54.922  1.00  0.00    -0.550 OA
ATOM     14  O   UNL     1      57.940  31.099  53.920  1.00  0.00    -0.550 OA
ENDBRANCH  11  12
ENDBRANCH  10  11
ENDBRANCH   9  10
ENDBRANCH   8   9
ENDBRANCH   7   8
ENDBRANCH   6   7
ENDBRANCH   5   6
ENDBRANCH   4   5
ENDBRANCH   3   4
ENDBRANCH   2   3
ENDBRANCH   1   2
BRANCH   1  15
ATOM     15  C   UNL     1      58.742  26.395  50.375  1.00  0.00     0.000 C 
BRANCH  15  16
ATOM     16  C   UNL     1      58.476  27.659  51.207  1.00  0.00     0.000 C 
BRANCH  16  17
ATOM     17  C   UNL     1      58.436  28.938  50.355  1.00  0.00     0.000 C 
BRANCH  17  18
ATOM     18  C   UNL     1      57.202  29.812  50.673  1.00  0.00    -0.000 C 
BRANCH  18  19
ATOM     19  C   UNL     1      56.083  29.051  51.408  1.00  0.00    -0.000 C 
BRANCH  19  20
ATOM     20  C   UNL     1      54.696  29.143  50.743  1.00  0.00    -0.000 C 
BRANCH  20  21
ATOM     21  C   UNL     1      54.049  27.786  50.397  1.00  0.00    -0.000 C 
BRANCH  21  22
ATOM     22  C   UNL     1      55.038  26.643  50.105  1.00  0.00    -0.000 C 
BRANCH  22  23
ATOM     23  C   UNL     1      54.726  25.362  50.899  1.00  0.00    -0.000 C 
BRANCH  23  24
ATOM     24  C   UNL     1      54.331  25.656  52.356  1.00  0.00    -0.000 C 
BRANCH  24  25
ATOM     25  C   UNL     1      55.551  25.769  53.283  1.00  0.00    -0.003 C 
ATOM     26  C   UNL     1      55.371  26.899  54.293  1.00  0.00     0.004 C 
ENDBRANCH  24  25
ENDBRANCH  23  24
ENDBRANCH  22  23
ENDBRANCH  21  22
ENDBRANCH  20  21
ENDBRANCH  19  20
ENDBRANCH  18  19
ENDBRANCH  17  18
ENDBRANCH  16  17
ENDBRANCH  15  16
ENDBRANCH   1  15
TORSDOF 22
ENDMDL
MODEL 6
REMARK VINA RESULT:    -2.825      3.112      5.086
REMARK INTER + INTRA:         -10.955
REMARK INTER:                  -6.256
REMARK INTRA:                  -4.699
REMARK UNBOUND:                -4.496
REMARK SMILES CCCCCCCCCCCCCCCCCCCCCCCC(=O)[O-]
REMARK SMILES IDX 13 1 14 2 15 3 16 4 17 5 18 6 19 7 20 8 21 9 22 10 23 11
REMARK SMILES IDX 24 12 25 13 26 14 12 15 11 16 10 17 9 18 8 19 7 20 6 21 5 22
REMARK SMILES IDX 4 23 3 24 2 25 1 26
REMARK H PARENT
REMARK Flexibility Score: inf
ROOT
ATOM      1  C   UNL     1      55.087  26.043  50.019  1.00  0.00     0.000 C 
ENDROOT
BRANCH   1   2
ATOM      2  C   UNL     1      56.309  25.736  50.904  1.00  0.00     0.000 C 
BRANCH   2   3
ATOM      3  C   UNL     1      56.022  25.669  52.420  1.00  0.00     0.000 C 
BRANCH   3   4
ATOM      4  C   UNL     1      57.172  26.145  53.333  1.00  0.00     0.000 C 
BRANCH   4   5
ATOM      5  C   UNL     1      56.886  27.445  54.114  1.00  0.00     0.000 C 
BRANCH   5   6
ATOM      6  C   UNL     1      58.022  27.863  55.067  1.00  0.00     0.000 C 
BRANCH   6   7
ATOM      7  C   UNL     1      59.393  27.348  54.595  1.00  0.00     0.000 C 
BRANCH   7   8
ATOM      8  C   UNL     1      60.422  28.476  54.406  1.00  0.00     0.000 C 
BRANCH   8   9
ATOM      9  C   UNL     1      59.878  29.736  53.704  1.00  0.00     0.000 C 
BRANCH   9  10
ATOM     10  C   UNL     1      60.956  30.487  52.908  1.00  0.00     0.006 C 
BRANCH  10  11
ATOM     11  C   UNL     1      61.991  29.519  52.331  1.00  0.00     0.053 C 
BRANCH  11  12
ATOM     12  C   UNL     1      62.499  30.025  51.018  1.00  0.00     0.041 C 
ATOM     13  O   UNL     1      61.845  30.890  50.373  1.00  0.00    -0.550 OA
ATOM     14  O   UNL     1      63.729  29.597  50.541  1.00  0.00    -0.550 OA
ENDBRANCH  11  12
ENDBRANCH  10  11
ENDBRANCH   9  10
ENDBRANCH   8   9
ENDBRANCH   7   8
ENDBRANCH   6   7
ENDBRANCH   5   6
ENDBRANCH   4   5
ENDBRANCH   3   4
ENDBRANCH   2   3
ENDBRANCH   1   2
BRANCH   1  15
ATOM     15  C   UNL     1      54.125  27.052  50.670  1.00  0.00     0.000 C 
BRANCH  15  16
ATOM     16  C   UNL     1      54.469  28.508  50.323  1.00  0.00     0.000 C 
BRANCH  16  17
ATOM     17  C   UNL     1      55.236  29.225  51.447  1.00  0.00     0.000 C 
BRANCH  17  18
ATOM     18  C   UNL     1      56.426  30.048  50.907  1.00  0.00    -0.000 C 
BRANCH  18  19
ATOM     19  C   UNL     1      57.785  29.340  51.062  1.00  0.00    -0.000 C 
BRANCH  19  20
ATOM     20  C   UNL     1      58.603  29.221  49.762  1.00  0.00    -0.000 C 
BRANCH  20  21
ATOM     21  C   UNL     1      59.567  28.018  49.707  1.00  0.00    -0.000 C 
BRANCH  21  22
ATOM     22  C   UNL     1      59.623  27.163  50.986  1.00  0.00    -0.000 C 
BRANCH  22  23
ATOM     23  C   UNL     1      59.997  25.696  50.711  1.00  0.00    -0.000 C 
BRANCH  23  24
ATOM     24  C   UNL     1      60.883  25.100  51.817  1.00  0.00    -0.000 C 
BRANCH  24  25
ATOM     25  C   UNL     1      62.045  26.027  52.203  1.00  0.00    -0.003 C 
ATOM     26  C   UNL     1      63.125  26.033  51.124  1.00  0.00     0.004 C 
ENDBRANCH  24  25
ENDBRANCH  23  24
ENDBRANCH  22  23
ENDBRANCH  21  22
ENDBRANCH  20  21
ENDBRANCH  19  20
ENDBRANCH  18  19
ENDBRANCH  17  18
ENDBRANCH  16  17
ENDBRANCH  15  16
ENDBRANCH   1  15
TORSDOF 22
ENDMDL
MODEL 7
REMARK VINA RESULT:    -2.825      1.779      3.532
REMARK INTER + INTRA:         -10.953
REMARK INTER:                  -6.935
REMARK INTRA:                  -4.018
REMARK UNBOUND:                -4.496
REMARK SMILES CCCCCCCCCCCCCCCCCCCCCCCC(=O)[O-]
REMARK SMILES IDX 13 1 14 2 15 3 16 4 17 5 18 6 19 7 20 8 21 9 22 10 23 11
REMARK SMILES IDX 24 12 25 13 26 14 12 15 11 16 10 17 9 18 8 19 7 20 6 21 5 22
REMARK SMILES IDX 4 23 3 24 2 25 1 26
REMARK H PARENT
REMARK Flexibility Score: inf
ROOT
ATOM      1  C   UNL     1      57.560  25.591  51.932  1.00  0.00     0.000 C 
ENDROOT
BRANCH   1   2
ATOM      2  C   UNL     1      56.042  25.627  51.682  1.00  0.00     0.000 C 
BRANCH   2   3
ATOM      3  C   UNL     1      55.613  26.229  50.327  1.00  0.00     0.000 C 
BRANCH   3   4
ATOM      4  C   UNL     1      54.103  26.146  50.014  1.00  0.00     0.000 C 
BRANCH   4   5
ATOM      5  C   UNL     1      53.361  27.500  50.032  1.00  0.00     0.000 C 
BRANCH   5   6
ATOM      6  C   UNL     1      54.252  28.694  50.423  1.00  0.00     0.000 C 
BRANCH   6   7
ATOM      7  C   UNL     1      53.602  29.571  51.507  1.00  0.00     0.000 C 
BRANCH   7   8
ATOM      8  C   UNL     1      54.028  29.174  52.932  1.00  0.00     0.000 C 
BRANCH   8   9
ATOM      9  C   UNL     1      53.864  30.285  53.988  1.00  0.00     0.000 C 
BRANCH   9  10
ATOM     10  C   UNL     1      55.194  30.965  54.349  1.00  0.00     0.006 C 
BRANCH  10  11
ATOM     11  C   UNL     1      55.678  30.530  55.735  1.00  0.00     0.053 C 
BRANCH  11  12
ATOM     12  C   UNL     1      54.804  31.118  56.796  1.00  0.00     0.041 C 
ATOM     13  O   UNL     1      54.663  32.368  56.886  1.00  0.00    -0.550 OA
ATOM     14  O   UNL     1      54.085  30.283  57.641  1.00  0.00    -0.550 OA
ENDBRANCH  11  12
ENDBRANCH  10  11
ENDBRANCH   9  10
ENDBRANCH   8   9
ENDBRANCH   7   8
ENDBRANCH   6   7
ENDBRANCH   5   6
ENDBRANCH   4   5
ENDBRANCH   3   4
ENDBRANCH   2   3
ENDBRANCH   1   2
BRANCH   1  15
ATOM     15  C   UNL     1      57.974  26.398  53.175  1.00  0.00     0.000 C 
BRANCH  15  16
ATOM     16  C   UNL     1      57.259  27.754  53.266  1.00  0.00     0.000 C 
BRANCH  16  17
ATOM     17  C   UNL     1      58.216  28.947  53.094  1.00  0.00     0.000 C 
BRANCH  17  18
ATOM     18  C   UNL     1      57.779  29.882  51.944  1.00  0.00    -0.000 C 
BRANCH  18  19
ATOM     19  C   UNL     1      57.808  29.210  50.560  1.00  0.00    -0.000 C 
BRANCH  19  20
ATOM     20  C   UNL     1      59.214  29.040  49.953  1.00  0.00    -0.000 C 
BRANCH  20  21
ATOM     21  C   UNL     1      59.627  27.582  49.663  1.00  0.00    -0.000 C 
BRANCH  21  22
ATOM     22  C   UNL     1      60.689  27.000  50.613  1.00  0.00    -0.000 C 
BRANCH  22  23
ATOM     23  C   UNL     1      61.428  28.080  51.422  1.00  0.00    -0.000 C 
BRANCH  23  24
ATOM     24  C   UNL     1      62.953  28.007  51.241  1.00  0.00    -0.000 C 
BRANCH  24  25
ATOM     25  C   UNL     1      63.360  27.170  50.019  1.00  0.00    -0.003 C 
ATOM     26  C   UNL     1      63.812  28.062  48.867  1.00  0.00     0.004 C 
ENDBRANCH  24  25
ENDBRANCH  23  24
ENDBRANCH  22  23
ENDBRANCH  21  22
ENDBRANCH  20  21
ENDBRANCH  19  20
ENDBRANCH  18  19
ENDBRANCH  17  18
ENDBRANCH  16  17
ENDBRANCH  15  16
ENDBRANCH   1  15
TORSDOF 22
ENDMDL
MODEL 8
REMARK VINA RESULT:    -2.824      1.675      3.477
REMARK INTER + INTRA:         -10.953
REMARK INTER:                  -6.094
REMARK INTRA:                  -4.859
REMARK UNBOUND:                -4.496
REMARK SMILES CCCCCCCCCCCCCCCCCCCCCCCC(=O)[O-]
REMARK SMILES IDX 13 1 14 2 15 3 16 4 17 5 18 6 19 7 20 8 21 9 22 10 23 11
REMARK SMILES IDX 24 12 25 13 26 14 12 15 11 16 10 17 9 18 8 19 7 20 6 21 5 22
REMARK SMILES IDX 4 23 3 24 2 25 1 26
REMARK H PARENT
REMARK Flexibility Score: inf
ROOT
ATOM      1  C   UNL     1      53.888  29.577  51.606  1.00  0.00     0.000 C 
ENDROOT
BRANCH   1   2
ATOM      2  C   UNL     1      53.454  28.129  51.315  1.00  0.00     0.000 C 
BRANCH   2   3
ATOM      3  C   UNL     1      54.072  27.500  50.048  1.00  0.00     0.000 C 
BRANCH   3   4
ATOM      4  C   UNL     1      54.845  26.183  50.273  1.00  0.00     0.000 C 
BRANCH   4   5
ATOM      5  C   UNL     1      54.938  25.728  51.745  1.00  0.00     0.000 C 
BRANCH   5   6
ATOM      6  C   UNL     1      56.345  25.878  52.356  1.00  0.00     0.000 C 
BRANCH   6   7
ATOM      7  C   UNL     1      56.348  26.814  53.577  1.00  0.00     0.000 C 
BRANCH   7   8
ATOM      8  C   UNL     1      55.050  26.729  54.400  1.00  0.00     0.000 C 
BRANCH   8   9
ATOM      9  C   UNL     1      54.496  28.087  54.874  1.00  0.00     0.000 C 
BRANCH   9  10
ATOM     10  C   UNL     1      55.580  29.172  54.968  1.00  0.00     0.006 C 
BRANCH  10  11
ATOM     11  C   UNL     1      54.958  30.557  55.165  1.00  0.00     0.053 C 
BRANCH  11  12
ATOM     12  C   UNL     1      55.041  30.963  56.602  1.00  0.00     0.041 C 
ATOM     13  O   UNL     1      54.309  31.889  57.046  1.00  0.00    -0.550 OA
ATOM     14  O   UNL     1      55.873  30.270  57.470  1.00  0.00    -0.550 OA
ENDBRANCH  11  12
ENDBRANCH  10  11
ENDBRANCH   9  10
ENDBRANCH   8   9
ENDBRANCH   7   8
ENDBRANCH   6   7
ENDBRANCH   5   6
ENDBRANCH   4   5
ENDBRANCH   3   4
ENDBRANCH   2   3
ENDBRANCH   1   2
BRANCH   1  15
ATOM     15  C   UNL     1      55.114  30.003  50.780  1.00  0.00     0.000 C 
BRANCH  15  16
ATOM     16  C   UNL     1      56.184  30.708  51.627  1.00  0.00     0.000 C 
BRANCH  16  17
ATOM     17  C   UNL     1      57.468  29.875  51.784  1.00  0.00     0.000 C 
BRANCH  17  18
ATOM     18  C   UNL     1      57.642  28.852  50.639  1.00  0.00    -0.000 C 
BRANCH  18  19
ATOM     19  C   UNL     1      58.939  29.047  49.833  1.00  0.00    -0.000 C 
BRANCH  19  20
ATOM     20  C   UNL     1      59.778  27.769  49.641  1.00  0.00    -0.000 C 
BRANCH  20  21
ATOM     21  C   UNL     1      59.375  26.584  50.543  1.00  0.00    -0.000 C 
BRANCH  21  22
ATOM     22  C   UNL     1      60.539  25.889  51.272  1.00  0.00    -0.000 C 
BRANCH  22  23
ATOM     23  C   UNL     1      60.498  26.090  52.797  1.00  0.00    -0.000 C 
BRANCH  23  24
ATOM     24  C   UNL     1      59.903  27.451  53.193  1.00  0.00    -0.000 C 
BRANCH  24  25
ATOM     25  C   UNL     1      60.971  28.436  53.692  1.00  0.00    -0.003 C 
ATOM     26  C   UNL     1      61.532  29.268  52.542  1.00  0.00     0.004 C 
ENDBRANCH  24  25
ENDBRANCH  23  24
ENDBRANCH  22  23
ENDBRANCH  21  22
ENDBRANCH  20  21
ENDBRANCH  19  20
ENDBRANCH  18  19
ENDBRANCH  17  18
ENDBRANCH  16  17
ENDBRANCH  15  16
ENDBRANCH   1  15
TORSDOF 22
ENDMDL
MODEL 9
REMARK VINA RESULT:    -2.796      4.230      7.543
REMARK INTER + INTRA:         -10.888
REMARK INTER:                  -6.963
REMARK INTRA:                  -3.925
REMARK UNBOUND:                -4.496
REMARK SMILES CCCCCCCCCCCCCCCCCCCCCCCC(=O)[O-]
REMARK SMILES IDX 13 1 14 2 15 3 16 4 17 5 18 6 19 7 20 8 21 9 22 10 23 11
REMARK SMILES IDX 24 12 25 13 26 14 12 15 11 16 10 17 9 18 8 19 7 20 6 21 5 22
REMARK SMILES IDX 4 23 3 24 2 25 1 26
REMARK H PARENT
REMARK Flexibility Score: inf
ROOT
ATOM      1  C   UNL     1      59.188  28.793  49.640  1.00  0.00     0.000 C 
ENDROOT
BRANCH   1   2
ATOM      2  C   UNL     1      59.948  27.454  49.611  1.00  0.00     0.000 C 
BRANCH   2   3
ATOM      3  C   UNL     1      59.452  26.396  50.621  1.00  0.00     0.000 C 
BRANCH   3   4
ATOM      4  C   UNL     1      60.164  26.403  51.990  1.00  0.00     0.000 C 
BRANCH   4   5
ATOM      5  C   UNL     1      61.621  26.912  51.962  1.00  0.00     0.000 C 
BRANCH   5   6
ATOM      6  C   UNL     1      61.915  28.021  52.990  1.00  0.00     0.000 C 
BRANCH   6   7
ATOM      7  C   UNL     1      61.470  29.406  52.490  1.00  0.00     0.000 C 
BRANCH   7   8
ATOM      8  C   UNL     1      62.270  29.885  51.266  1.00  0.00     0.000 C 
BRANCH   8   9
ATOM      9  C   UNL     1      63.801  29.804  51.423  1.00  0.00     0.000 C 
BRANCH   9  10
ATOM     10  C   UNL     1      64.456  28.864  50.399  1.00  0.00     0.006 C 
BRANCH  10  11
ATOM     11  C   UNL     1      64.353  29.435  48.982  1.00  0.00     0.053 C 
BRANCH  11  12
ATOM     12  C   UNL     1      65.471  28.918  48.133  1.00  0.00     0.041 C 
ATOM     13  O   UNL     1      66.136  29.706  47.406  1.00  0.00    -0.550 OA
ATOM     14  O   UNL     1      65.827  27.579  48.199  1.00  0.00    -0.550 OA
ENDBRANCH  11  12
ENDBRANCH  10  11
ENDBRANCH   9  10
ENDBRANCH   8   9
ENDBRANCH   7   8
ENDBRANCH   6   7
ENDBRANCH   5   6
ENDBRANCH   4   5
ENDBRANCH   3   4
ENDBRANCH   2   3
ENDBRANCH   1   2
BRANCH   1  15
ATOM     15  C   UNL     1      57.895  28.720  50.470  1.00  0.00     0.000 C 
BRANCH  15  16
ATOM     16  C   UNL     1      57.860  29.755  51.605  1.00  0.00     0.000 C 
BRANCH  16  17
ATOM     17  C   UNL     1      56.437  30.236  51.932  1.00  0.00     0.000 C 
BRANCH  17  18
ATOM     18  C   UNL     1      55.407  29.770  50.878  1.00  0.00    -0.000 C 
BRANCH  18  19
ATOM     19  C   UNL     1      53.945  29.930  51.333  1.00  0.00    -0.000 C 
BRANCH  19  20
ATOM     20  C   UNL     1      53.065  28.682  51.128  1.00  0.00    -0.000 C 
BRANCH  20  21
ATOM     21  C   UNL     1      53.497  27.764  49.965  1.00  0.00    -0.000 C 
BRANCH  21  22
ATOM     22  C   UNL     1      53.889  26.332  50.370  1.00  0.00    -0.000 C 
BRANCH  22  23
ATOM     23  C   UNL     1      55.399  26.065  50.242  1.00  0.00    -0.000 C 
BRANCH  23  24
ATOM     24  C   UNL     1      56.031  25.619  51.572  1.00  0.00    -0.000 C 
BRANCH  24  25
ATOM     25  C   UNL     1      55.705  26.578  52.727  1.00  0.00    -0.003 C 
ATOM     26  C   UNL     1      56.916  26.776  53.634  1.00  0.00     0.004 C 
ENDBRANCH  24  25
ENDBRANCH  23  24
ENDBRANCH  22  23
ENDBRANCH  21  22
ENDBRANCH  20  21
ENDBRANCH  19  20
ENDBRANCH  18  19
ENDBRANCH  17  18
ENDBRANCH  16  17
ENDBRANCH  15  16
ENDBRANCH   1  15
TORSDOF 22
ENDMDL
