MODEL 1
REMARK VINA RESULT:    -3.718      0.000      0.000
REMARK INTER + INTRA:          -4.560
REMARK INTER:                  -4.370
REMARK INTRA:                  -0.190
REMARK UNBOUND:                -0.190
REMARK SMILES [NH3+][C@H](CO)C(=O)[O-]
REMARK SMILES IDX 3 1 2 2 1 3 5 7 6 8 7 9 4 10
REMARK H PARENT 1 4 1 5 1 6 4 11
REMARK Flexibility Score: inf
ROOT
ATOM      1  C   UNL     1       7.304   5.233 -17.276  1.00  0.00     0.227 C 
ENDROOT
BRANCH   1   2
ATOM      2  C   UNL     1       6.458   6.472 -17.610  1.00  0.00     0.253 C 
BRANCH   2   3
ATOM      3  N   UNL     1       5.199   6.474 -16.855  1.00  0.00    -0.348 N 
ATOM      4  H   UNL     1       5.080   7.391 -16.367  1.00  0.00     0.345 HD
ATOM      5  H   UNL     1       4.391   6.347 -17.507  1.00  0.00     0.345 HD
ATOM      6  H   UNL     1       5.190   5.704 -16.146  1.00  0.00     0.345 HD
ENDBRANCH   2   3
BRANCH   2   7
ATOM      7  C   UNL     1       7.242   7.726 -17.329  1.00  0.00     0.102 C 
ATOM      8  O   UNL     1       8.033   7.779 -16.348  1.00  0.00    -0.544 OA
ATOM      9  O   UNL     1       7.108   8.830 -18.160  1.00  0.00    -0.544 OA
ENDBRANCH   2   7
ENDBRANCH   1   2
BRANCH   1  10
ATOM     10  O   UNL     1       7.048   4.819 -15.962  1.00  0.00    -0.390 OA
ATOM     11  H   UNL     1       6.537   3.971 -16.034  1.00  0.00     0.210 HD
ENDBRANCH   1  10
TORSDOF 4
ENDMDL
MODEL 2
REMARK VINA RESULT:    -3.482      2.684      3.032
REMARK INTER + INTRA:          -4.283
REMARK INTER:                  -4.064
REMARK INTRA:                  -0.219
REMARK UNBOUND:                -0.190
REMARK SMILES [NH3+][C@H](CO)C(=O)[O-]
REMARK SMILES IDX 3 1 2 2 1 3 5 7 6 8 7 9 4 10
REMARK H PARENT 1 4 1 5 1 6 4 11
REMARK Flexibility Score: inf
ROOT
ATOM      1  C   UNL     1       4.155   6.310 -18.985  1.00  0.00     0.227 C 
ENDROOT
BRANCH   1   2
ATOM      2  C   UNL     1       4.850   7.646 -18.677  1.00  0.00     0.253 C 
BRANCH   2   3
ATOM      3  N   UNL     1       3.868   8.701 -18.397  1.00  0.00    -0.348 N 
ATOM      4  H   UNL     1       3.147   8.345 -17.728  1.00  0.00     0.345 HD
ATOM      5  H   UNL     1       4.343   9.522 -17.955  1.00  0.00     0.345 HD
ATOM      6  H   UNL     1       3.396   9.012 -19.277  1.00  0.00     0.345 HD
ENDBRANCH   2   3
BRANCH   2   7
ATOM      7  C   UNL     1       5.794   7.484 -17.516  1.00  0.00     0.102 C 
ATOM      8  O   UNL     1       6.837   8.187 -17.437  1.00  0.00    -0.544 OA
ATOM      9  O   UNL     1       5.511   6.564 -16.515  1.00  0.00    -0.544 OA
ENDBRANCH   2   7
ENDBRANCH   1   2
BRANCH   1  10
ATOM     10  O   UNL     1       3.170   6.049 -18.023  1.00  0.00    -0.390 OA
ATOM     11  H   UNL     1       2.370   6.565 -18.302  1.00  0.00     0.210 HD
ENDBRANCH   1  10
TORSDOF 4
ENDMDL
MODEL 3
REMARK VINA RESULT:    -3.270      1.946      3.291
REMARK INTER + INTRA:          -4.033
REMARK INTER:                  -3.850
REMARK INTRA:                  -0.184
REMARK UNBOUND:                -0.190
REMARK SMILES [NH3+][C@H](CO)C(=O)[O-]
REMARK SMILES IDX 3 1 2 2 1 3 5 7 6 8 7 9 4 10
REMARK H PARENT 1 4 1 5 1 6 4 11
REMARK Flexibility Score: inf
ROOT
ATOM      1  C   UNL     1       5.740   8.093 -18.541  1.00  0.00     0.227 C 
ENDROOT
BRANCH   1   2
ATOM      2  C   UNL     1       6.830   7.197 -17.930  1.00  0.00     0.253 C 
BRANCH   2   3
ATOM      3  N   UNL     1       7.923   8.001 -17.370  1.00  0.00    -0.348 N 
ATOM      4  H   UNL     1       8.718   7.378 -17.097  1.00  0.00     0.345 HD
ATOM      5  H   UNL     1       8.274   8.677 -18.087  1.00  0.00     0.345 HD
ATOM      6  H   UNL     1       7.600   8.533 -16.528  1.00  0.00     0.345 HD
ENDBRANCH   2   3
BRANCH   2   7
ATOM      7  C   UNL     1       6.236   6.306 -16.872  1.00  0.00     0.102 C 
ATOM      8  O   UNL     1       5.072   6.518 -16.438  1.00  0.00    -0.544 OA
ATOM      9  O   UNL     1       6.967   5.235 -16.377  1.00  0.00    -0.544 OA
ENDBRANCH   2   7
ENDBRANCH   1   2
BRANCH   1  10
ATOM     10  O   UNL     1       5.237   8.967 -17.567  1.00  0.00    -0.390 OA
ATOM     11  H   UNL     1       4.812   9.715 -18.062  1.00  0.00     0.210 HD
ENDBRANCH   1  10
TORSDOF 4
ENDMDL
MODEL 4
REMARK VINA RESULT:    -3.155     15.326     15.728
REMARK INTER + INTRA:          -3.898
REMARK INTER:                  -3.501
REMARK INTRA:                  -0.397
REMARK UNBOUND:                -0.190
REMARK SMILES [NH3+][C@H](CO)C(=O)[O-]
REMARK SMILES IDX 3 1 2 2 1 3 5 7 6 8 7 9 4 10
REMARK H PARENT 1 4 1 5 1 6 4 11
REMARK Flexibility Score: inf
ROOT
ATOM      1  C   UNL     1       0.374  11.422  -4.086  1.00  0.00     0.227 C 
ENDROOT
BRANCH   1   2
ATOM      2  C   UNL     1       1.394  11.042  -3.000  1.00  0.00     0.253 C 
BRANCH   2   3
ATOM      3  N   UNL     1       0.948  11.490  -1.675  1.00  0.00    -0.348 N 
ATOM      4  H   UNL     1       0.109  12.108  -1.774  1.00  0.00     0.345 HD
ATOM      5  H   UNL     1       0.675  10.665  -1.093  1.00  0.00     0.345 HD
ATOM      6  H   UNL     1       1.707  12.018  -1.187  1.00  0.00     0.345 HD
ENDBRANCH   2   3
BRANCH   2   7
ATOM      7  C   UNL     1       1.624   9.555  -3.004  1.00  0.00     0.102 C 
ATOM      8  O   UNL     1       2.535   9.050  -3.714  1.00  0.00    -0.544 OA
ATOM      9  O   UNL     1       0.839   8.729  -2.209  1.00  0.00    -0.544 OA
ENDBRANCH   2   7
ENDBRANCH   1   2
BRANCH   1  10
ATOM     10  O   UNL     1      -0.249  10.269  -4.583  1.00  0.00    -0.390 OA
ATOM     11  H   UNL     1      -1.174  10.538  -4.822  1.00  0.00     0.210 HD
ENDBRANCH   1  10
TORSDOF 4
ENDMDL
MODEL 5
REMARK VINA RESULT:    -3.008     14.829     15.058
REMARK INTER + INTRA:          -3.725
REMARK INTER:                  -3.348
REMARK INTRA:                  -0.378
REMARK UNBOUND:                -0.190
REMARK SMILES [NH3+][C@H](CO)C(=O)[O-]
REMARK SMILES IDX 3 1 2 2 1 3 5 7 6 8 7 9 4 10
REMARK H PARENT 1 4 1 5 1 6 4 11
REMARK Flexibility Score: inf
ROOT
ATOM      1  C   UNL     1       0.946  10.085  -3.988  1.00  0.00     0.227 C 
ENDROOT
BRANCH   1   2
ATOM      2  C   UNL     1       1.606  11.442  -3.696  1.00  0.00     0.253 C 
BRANCH   2   3
ATOM      3  N   UNL     1       2.988  11.475  -4.190  1.00  0.00    -0.348 N 
ATOM      4  H   UNL     1       3.635  11.097  -3.459  1.00  0.00     0.345 HD
ATOM      5  H   UNL     1       3.078  10.876  -5.043  1.00  0.00     0.345 HD
ATOM      6  H   UNL     1       3.274  12.454  -4.427  1.00  0.00     0.345 HD
ENDBRANCH   2   3
BRANCH   2   7
ATOM      7  C   UNL     1       0.800  12.553  -4.314  1.00  0.00     0.102 C 
ATOM      8  O   UNL     1       0.109  13.320  -3.590  1.00  0.00    -0.544 OA
ATOM      9  O   UNL     1       0.826  12.748  -5.689  1.00  0.00    -0.544 OA
ENDBRANCH   2   7
ENDBRANCH   1   2
BRANCH   1  10
ATOM     10  O   UNL     1      -0.311  10.279  -4.575  1.00  0.00    -0.390 OA
ATOM     11  H   UNL     1      -0.730  11.034  -4.085  1.00  0.00     0.210 HD
ENDBRANCH   1  10
TORSDOF 4
ENDMDL
MODEL 6
REMARK VINA RESULT:    -2.942     15.256     15.486
REMARK INTER + INTRA:          -3.647
REMARK INTER:                  -3.263
REMARK INTRA:                  -0.384
REMARK UNBOUND:                -0.190
REMARK SMILES [NH3+][C@H](CO)C(=O)[O-]
REMARK SMILES IDX 3 1 2 2 1 3 5 7 6 8 7 9 4 10
REMARK H PARENT 1 4 1 5 1 6 4 11
REMARK Flexibility Score: inf
ROOT
ATOM      1  C   UNL     1       1.430   9.484  -1.734  1.00  0.00     0.227 C 
ENDROOT
BRANCH   1   2
ATOM      2  C   UNL     1       1.923   9.590  -3.185  1.00  0.00     0.253 C 
BRANCH   2   3
ATOM      3  N   UNL     1       1.790   8.306  -3.885  1.00  0.00    -0.348 N 
ATOM      4  H   UNL     1       1.234   8.436  -4.761  1.00  0.00     0.345 HD
ATOM      5  H   UNL     1       2.735   7.945  -4.152  1.00  0.00     0.345 HD
ATOM      6  H   UNL     1       1.314   7.600  -3.277  1.00  0.00     0.345 HD
ENDBRANCH   2   3
BRANCH   2   7
ATOM      7  C   UNL     1       1.164  10.667  -3.914  1.00  0.00     0.102 C 
ATOM      8  O   UNL     1       1.721  11.762  -4.196  1.00  0.00    -0.544 OA
ATOM      9  O   UNL     1      -0.154  10.452  -4.292  1.00  0.00    -0.544 OA
ENDBRANCH   2   7
ENDBRANCH   1   2
BRANCH   1  10
ATOM     10  O   UNL     1       0.718  10.640  -1.384  1.00  0.00    -0.390 OA
ATOM     11  H   UNL     1       1.353  11.396  -1.487  1.00  0.00     0.210 HD
ENDBRANCH   1  10
TORSDOF 4
ENDMDL
MODEL 7
REMARK VINA RESULT:    -2.897     14.781     15.139
REMARK INTER + INTRA:          -3.594
REMARK INTER:                  -3.201
REMARK INTRA:                  -0.393
REMARK UNBOUND:                -0.190
REMARK SMILES [NH3+][C@H](CO)C(=O)[O-]
REMARK SMILES IDX 3 1 2 2 1 3 5 7 6 8 7 9 4 10
REMARK H PARENT 1 4 1 5 1 6 4 11
REMARK Flexibility Score: inf
ROOT
ATOM      1  C   UNL     1       3.550  10.410  -3.447  1.00  0.00     0.227 C 
ENDROOT
BRANCH   1   2
ATOM      2  C   UNL     1       2.242  11.214  -3.388  1.00  0.00     0.253 C 
BRANCH   2   3
ATOM      3  N   UNL     1       2.089  12.065  -4.574  1.00  0.00    -0.348 N 
ATOM      4  H   UNL     1       1.073  12.225  -4.766  1.00  0.00     0.345 HD
ATOM      5  H   UNL     1       2.537  12.995  -4.407  1.00  0.00     0.345 HD
ATOM      6  H   UNL     1       2.530  11.617  -5.411  1.00  0.00     0.345 HD
ENDBRANCH   2   3
BRANCH   2   7
ATOM      7  C   UNL     1       1.067  10.282  -3.253  1.00  0.00     0.102 C 
ATOM      8  O   UNL     1       0.305  10.068  -4.234  1.00  0.00    -0.544 OA
ATOM      9  O   UNL     1       0.824   9.641  -2.046  1.00  0.00    -0.544 OA
ENDBRANCH   2   7
ENDBRANCH   1   2
BRANCH   1  10
ATOM     10  O   UNL     1       3.270   9.053  -3.658  1.00  0.00    -0.390 OA
ATOM     11  H   UNL     1       3.268   8.629  -2.761  1.00  0.00     0.210 HD
ENDBRANCH   1  10
TORSDOF 4
ENDMDL
MODEL 8
REMARK VINA RESULT:    -2.846     15.133     15.552
REMARK INTER + INTRA:          -3.535
REMARK INTER:                  -3.161
REMARK INTRA:                  -0.374
REMARK UNBOUND:                -0.190
REMARK SMILES [NH3+][C@H](CO)C(=O)[O-]
REMARK SMILES IDX 3 1 2 2 1 3 5 7 6 8 7 9 4 10
REMARK H PARENT 1 4 1 5 1 6 4 11
REMARK Flexibility Score: inf
ROOT
ATOM      1  C   UNL     1       0.325  13.057  -3.266  1.00  0.00     0.227 C 
ENDROOT
BRANCH   1   2
ATOM      2  C   UNL     1       0.367  12.072  -4.445  1.00  0.00     0.253 C 
BRANCH   2   3
ATOM      3  N   UNL     1       1.001  12.681  -5.621  1.00  0.00    -0.348 N 
ATOM      4  H   UNL     1       0.743  13.693  -5.678  1.00  0.00     0.345 HD
ATOM      5  H   UNL     1       2.042  12.616  -5.539  1.00  0.00     0.345 HD
ATOM      6  H   UNL     1       0.696  12.199  -6.498  1.00  0.00     0.345 HD
ENDBRANCH   2   3
BRANCH   2   7
ATOM      7  C   UNL     1       1.095  10.817  -4.046  1.00  0.00     0.102 C 
ATOM      8  O   UNL     1       0.465   9.738  -3.880  1.00  0.00    -0.544 OA
ATOM      9  O   UNL     1       2.473  10.839  -3.871  1.00  0.00    -0.544 OA
ENDBRANCH   2   7
ENDBRANCH   1   2
BRANCH   1  10
ATOM     10  O   UNL     1       0.541  12.373  -2.062  1.00  0.00    -0.390 OA
ATOM     11  H   UNL     1      -0.151  12.701  -1.431  1.00  0.00     0.210 HD
ENDBRANCH   1  10
TORSDOF 4
ENDMDL
MODEL 9
REMARK VINA RESULT:    -2.790     15.405     15.759
REMARK INTER + INTRA:          -3.469
REMARK INTER:                  -3.062
REMARK INTRA:                  -0.407
REMARK UNBOUND:                -0.190
REMARK SMILES [NH3+][C@H](CO)C(=O)[O-]
REMARK SMILES IDX 3 1 2 2 1 3 5 7 6 8 7 9 4 10
REMARK H PARENT 1 4 1 5 1 6 4 11
REMARK Flexibility Score: inf
ROOT
ATOM      1  C   UNL     1       1.278  12.784  -2.474  1.00  0.00     0.227 C 
ENDROOT
BRANCH   1   2
ATOM      2  C   UNL     1       1.720  11.712  -3.483  1.00  0.00     0.253 C 
BRANCH   2   3
ATOM      3  N   UNL     1       2.098  10.468  -2.803  1.00  0.00    -0.348 N 
ATOM      4  H   UNL     1       1.347  10.189  -2.130  1.00  0.00     0.345 HD
ATOM      5  H   UNL     1       2.209   9.698  -3.502  1.00  0.00     0.345 HD
ATOM      6  H   UNL     1       2.998  10.588  -2.282  1.00  0.00     0.345 HD
ENDBRANCH   2   3
BRANCH   2   7
ATOM      7  C   UNL     1       0.622  11.454  -4.480  1.00  0.00     0.102 C 
ATOM      8  O   UNL     1      -0.175  10.492  -4.318  1.00  0.00    -0.544 OA
ATOM      9  O   UNL     1       0.473  12.289  -5.580  1.00  0.00    -0.544 OA
ENDBRANCH   2   7
ENDBRANCH   1   2
BRANCH   1  10
ATOM     10  O   UNL     1      -0.096  13.030  -2.607  1.00  0.00    -0.390 OA
ATOM     11  H   UNL     1      -0.442  13.163  -1.687  1.00  0.00     0.210 HD
ENDBRANCH   1  10
TORSDOF 4
ENDMDL
