MODEL 1
REMARK VINA RESULT:    -3.642      0.000      0.000
REMARK INTER + INTRA:          -3.982
REMARK INTER:                  -3.961
REMARK INTRA:                  -0.021
REMARK UNBOUND:                -0.021
REMARK SMILES OCc1ccco1
REMARK SMILES IDX 2 1 3 2 5 3 6 4 4 5 7 6 1 7
REMARK H PARENT 1 8
REMARK Flexibility Score: inf
ROOT
ATOM      1  C   UNL     1      10.500 -37.750 -25.421  1.00  0.00     0.231 C 
ENDROOT
BRANCH   1   2
ATOM      2  C   UNL     1      11.207 -36.433 -25.374  1.00  0.00     0.129 A 
ATOM      3  C   UNL     1      11.643 -34.280 -25.431  1.00  0.00     0.042 A 
ATOM      4  C   UNL     1      12.764 -35.007 -25.083  1.00  0.00     0.195 A 
ATOM      5  C   UNL     1      10.633 -35.201 -25.617  1.00  0.00     0.048 A 
ATOM      6  O   UNL     1      12.472 -36.287 -25.054  1.00  0.00    -0.467 OA
ENDBRANCH   1   2
BRANCH   1   7
ATOM      7  O   UNL     1      11.421 -38.794 -25.265  1.00  0.00    -0.388 OA
ATOM      8  H   UNL     1      11.126 -39.316 -24.473  1.00  0.00     0.211 HD
ENDBRANCH   1   7
TORSDOF 2
ENDMDL
MODEL 2
REMARK VINA RESULT:    -3.640      1.269      3.082
REMARK INTER + INTRA:          -3.980
REMARK INTER:                  -3.967
REMARK INTRA:                  -0.013
REMARK UNBOUND:                -0.021
REMARK SMILES OCc1ccco1
REMARK SMILES IDX 2 1 3 2 5 3 6 4 4 5 7 6 1 7
REMARK H PARENT 1 8
REMARK Flexibility Score: inf
ROOT
ATOM      1  C   UNL     1      12.601 -34.768 -25.578  1.00  0.00     0.231 C 
ENDROOT
BRANCH   1   2
ATOM      2  C   UNL     1      11.949 -36.084 -25.294  1.00  0.00     0.129 A 
ATOM      3  C   UNL     1      10.519 -37.751 -25.239  1.00  0.00     0.042 A 
ATOM      4  C   UNL     1      11.697 -38.084 -24.601  1.00  0.00     0.195 A 
ATOM      5  C   UNL     1      10.681 -36.459 -25.691  1.00  0.00     0.048 A 
ATOM      6  O   UNL     1      12.531 -37.071 -24.653  1.00  0.00    -0.467 OA
ENDBRANCH   1   2
BRANCH   1   7
ATOM      7  O   UNL     1      11.885 -33.735 -24.961  1.00  0.00    -0.388 OA
ATOM      8  H   UNL     1      11.878 -33.934 -23.989  1.00  0.00     0.211 HD
ENDBRANCH   1   7
TORSDOF 2
ENDMDL
MODEL 3
REMARK VINA RESULT:    -3.587     11.723     12.497
REMARK INTER + INTRA:          -3.923
REMARK INTER:                  -3.908
REMARK INTRA:                  -0.015
REMARK UNBOUND:                -0.021
REMARK SMILES OCc1ccco1
REMARK SMILES IDX 2 1 3 2 5 3 6 4 4 5 7 6 1 7
REMARK H PARENT 1 8
REMARK Flexibility Score: inf
ROOT
ATOM      1  C   UNL     1       8.353 -28.289 -17.465  1.00  0.00     0.231 C 
ENDROOT
BRANCH   1   2
ATOM      2  C   UNL     1       6.874 -28.147 -17.635  1.00  0.00     0.129 A 
ATOM      3  C   UNL     1       4.851 -27.309 -17.820  1.00  0.00     0.042 A 
ATOM      4  C   UNL     1       4.844 -28.676 -18.015  1.00  0.00     0.195 A 
ATOM      5  C   UNL     1       6.164 -26.965 -17.577  1.00  0.00     0.048 A 
ATOM      6  O   UNL     1       6.065 -29.146 -17.902  1.00  0.00    -0.467 OA
ENDBRANCH   1   2
BRANCH   1   7
ATOM      7  O   UNL     1       9.018 -27.310 -18.213  1.00  0.00    -0.388 OA
ATOM      8  H   UNL     1       8.511 -26.465 -18.091  1.00  0.00     0.211 HD
ENDBRANCH   1   7
TORSDOF 2
ENDMDL
MODEL 4
REMARK VINA RESULT:    -3.534     15.961     17.387
REMARK INTER + INTRA:          -3.865
REMARK INTER:                  -3.850
REMARK INTRA:                  -0.015
REMARK UNBOUND:                -0.021
REMARK SMILES OCc1ccco1
REMARK SMILES IDX 2 1 3 2 5 3 6 4 4 5 7 6 1 7
REMARK H PARENT 1 8
REMARK Flexibility Score: inf
ROOT
ATOM      1  C   UNL     1      -2.793 -45.222 -17.416  1.00  0.00     0.231 C 
ENDROOT
BRANCH   1   2
ATOM      2  C   UNL     1      -1.306 -45.240 -17.581  1.00  0.00     0.129 A 
ATOM      3  C   UNL     1       0.782 -45.905 -17.739  1.00  0.00     0.042 A 
ATOM      4  C   UNL     1       0.671 -44.550 -17.978  1.00  0.00     0.195 A 
ATOM      5  C   UNL     1      -0.497 -46.354 -17.486  1.00  0.00     0.048 A 
ATOM      6  O   UNL     1      -0.586 -44.183 -17.880  1.00  0.00    -0.467 OA
ENDBRANCH   1   2
BRANCH   1   7
ATOM      7  O   UNL     1      -3.367 -46.285 -18.122  1.00  0.00    -0.388 OA
ATOM      8  H   UNL     1      -2.645 -46.681 -18.677  1.00  0.00     0.211 HD
ENDBRANCH   1   7
TORSDOF 2
ENDMDL
MODEL 5
REMARK VINA RESULT:    -3.479     11.298     11.800
REMARK INTER + INTRA:          -3.806
REMARK INTER:                  -3.785
REMARK INTRA:                  -0.021
REMARK UNBOUND:                -0.021
REMARK SMILES OCc1ccco1
REMARK SMILES IDX 2 1 3 2 5 3 6 4 4 5 7 6 1 7
REMARK H PARENT 1 8
REMARK Flexibility Score: inf
ROOT
ATOM      1  C   UNL     1       5.195 -30.624 -18.132  1.00  0.00     0.231 C 
ENDROOT
BRANCH   1   2
ATOM      2  C   UNL     1       6.088 -29.468 -17.814  1.00  0.00     0.129 A 
ATOM      3  C   UNL     1       7.858 -28.228 -17.414  1.00  0.00     0.042 A 
ATOM      4  C   UNL     1       6.707 -27.465 -17.425  1.00  0.00     0.195 A 
ATOM      5  C   UNL     1       7.460 -29.524 -17.668  1.00  0.00     0.048 A 
ATOM      6  O   UNL     1       5.670 -28.232 -17.670  1.00  0.00    -0.467 OA
ENDBRANCH   1   2
BRANCH   1   7
ATOM      7  O   UNL     1       4.011 -30.167 -18.724  1.00  0.00    -0.388 OA
ATOM      8  H   UNL     1       3.273 -30.401 -18.101  1.00  0.00     0.211 HD
ENDBRANCH   1   7
TORSDOF 2
ENDMDL
MODEL 6
REMARK VINA RESULT:    -3.475     16.277     17.430
REMARK INTER + INTRA:          -3.801
REMARK INTER:                  -3.783
REMARK INTRA:                  -0.018
REMARK UNBOUND:                -0.021
REMARK SMILES OCc1ccco1
REMARK SMILES IDX 2 1 3 2 5 3 6 4 4 5 7 6 1 7
REMARK H PARENT 1 8
REMARK Flexibility Score: inf
ROOT
ATOM      1  C   UNL     1      -2.781 -45.283 -17.442  1.00  0.00     0.231 C 
ENDROOT
BRANCH   1   2
ATOM      2  C   UNL     1      -1.293 -45.331 -17.577  1.00  0.00     0.129 A 
ATOM      3  C   UNL     1       0.819 -44.755 -17.765  1.00  0.00     0.042 A 
ATOM      4  C   UNL     1       0.684 -46.125 -17.668  1.00  0.00     0.195 A 
ATOM      5  C   UNL     1      -0.458 -44.239 -17.702  1.00  0.00     0.048 A 
ATOM      6  O   UNL     1      -0.587 -46.438 -17.554  1.00  0.00    -0.467 OA
ENDBRANCH   1   2
BRANCH   1   7
ATOM      7  O   UNL     1      -3.361 -46.348 -18.143  1.00  0.00    -0.388 OA
ATOM      8  H   UNL     1      -4.345 -46.227 -18.080  1.00  0.00     0.211 HD
ENDBRANCH   1   7
TORSDOF 2
ENDMDL
MODEL 7
REMARK VINA RESULT:    -3.382     10.861     11.673
REMARK INTER + INTRA:          -3.699
REMARK INTER:                  -3.686
REMARK INTRA:                  -0.014
REMARK UNBOUND:                -0.021
REMARK SMILES OCc1ccco1
REMARK SMILES IDX 2 1 3 2 5 3 6 4 4 5 7 6 1 7
REMARK H PARENT 1 8
REMARK Flexibility Score: inf
ROOT
ATOM      1  C   UNL     1       7.729 -27.980 -17.353  1.00  0.00     0.231 C 
ENDROOT
BRANCH   1   2
ATOM      2  C   UNL     1       7.221 -29.374 -17.161  1.00  0.00     0.129 A 
ATOM      3  C   UNL     1       6.585 -31.446 -17.519  1.00  0.00     0.042 A 
ATOM      4  C   UNL     1       6.541 -31.137 -16.174  1.00  0.00     0.195 A 
ATOM      5  C   UNL     1       7.028 -30.308 -18.158  1.00  0.00     0.048 A 
ATOM      6  O   UNL     1       6.929 -29.896 -15.992  1.00  0.00    -0.467 OA
ENDBRANCH   1   2
BRANCH   1   7
ATOM      7  O   UNL     1       9.033 -28.010 -17.862  1.00  0.00    -0.388 OA
ATOM      8  H   UNL     1       9.085 -27.299 -18.553  1.00  0.00     0.211 HD
ENDBRANCH   1   7
TORSDOF 2
ENDMDL
MODEL 8
REMARK VINA RESULT:    -3.321      1.953      3.237
REMARK INTER + INTRA:          -3.634
REMARK INTER:                  -3.618
REMARK INTRA:                  -0.016
REMARK UNBOUND:                -0.021
REMARK SMILES OCc1ccco1
REMARK SMILES IDX 2 1 3 2 5 3 6 4 4 5 7 6 1 7
REMARK H PARENT 1 8
REMARK Flexibility Score: inf
ROOT
ATOM      1  C   UNL     1      12.388 -35.302 -25.401  1.00  0.00     0.231 C 
ENDROOT
BRANCH   1   2
ATOM      2  C   UNL     1      11.153 -35.708 -26.139  1.00  0.00     0.129 A 
ATOM      3  C   UNL     1       9.080 -36.246 -26.630  1.00  0.00     0.042 A 
ATOM      4  C   UNL     1       9.865 -36.202 -27.765  1.00  0.00     0.195 A 
ATOM      5  C   UNL     1       9.911 -35.923 -25.577  1.00  0.00     0.048 A 
ATOM      6  O   UNL     1      11.095 -35.876 -27.440  1.00  0.00    -0.467 OA
ENDBRANCH   1   2
BRANCH   1   7
ATOM      7  O   UNL     1      12.766 -34.006 -25.773  1.00  0.00    -0.388 OA
ATOM      8  H   UNL     1      12.319 -33.386 -25.137  1.00  0.00     0.211 HD
ENDBRANCH   1   7
TORSDOF 2
ENDMDL
MODEL 9
REMARK VINA RESULT:    -3.285     16.873     17.686
REMARK INTER + INTRA:          -3.594
REMARK INTER:                  -3.580
REMARK INTRA:                  -0.014
REMARK UNBOUND:                -0.021
REMARK SMILES OCc1ccco1
REMARK SMILES IDX 2 1 3 2 5 3 6 4 4 5 7 6 1 7
REMARK H PARENT 1 8
REMARK Flexibility Score: inf
ROOT
ATOM      1  C   UNL     1      -2.363 -45.771 -17.756  1.00  0.00     0.231 C 
ENDROOT
BRANCH   1   2
ATOM      2  C   UNL     1      -1.729 -44.579 -17.114  1.00  0.00     0.129 A 
ATOM      3  C   UNL     1      -0.768 -42.629 -16.791  1.00  0.00     0.042 A 
ATOM      4  C   UNL     1      -1.042 -43.254 -15.591  1.00  0.00     0.195 A 
ATOM      5  C   UNL     1      -1.215 -43.483 -17.778  1.00  0.00     0.048 A 
ATOM      6  O   UNL     1      -1.618 -44.413 -15.816  1.00  0.00    -0.467 OA
ENDBRANCH   1   2
BRANCH   1   7
ATOM      7  O   UNL     1      -3.750 -45.593 -17.837  1.00  0.00    -0.388 OA
ATOM      8  H   UNL     1      -4.164 -46.401 -17.436  1.00  0.00     0.211 HD
ENDBRANCH   1   7
TORSDOF 2
ENDMDL
