MODEL 1
REMARK VINA RESULT:    -4.925      0.000      0.000
REMARK INTER + INTRA:         -11.461
REMARK INTER:                  -8.956
REMARK INTRA:                  -2.505
REMARK UNBOUND:                -2.505
REMARK SMILES CCCCCCCCCCCCCC[C@@H](C)C(=O)[O-]
REMARK SMILES IDX 9 1 10 2 11 3 12 4 13 5 14 6 15 7 16 8 17 9 18 10 19 11 8 12
REMARK SMILES IDX 7 13 6 14 5 15 4 16 3 17 2 18 1 19
REMARK H PARENT
REMARK Flexibility Score: inf
ROOT
ATOM      1  C   UNL     1      19.545  -5.340  30.400  1.00  0.00     0.000 C 
ENDROOT
BRANCH   1   2
ATOM      2  C   UNL     1      20.011  -4.035  31.065  1.00  0.00     0.000 C 
BRANCH   2   3
ATOM      3  C   UNL     1      19.098  -3.597  32.219  1.00  0.00     0.000 C 
BRANCH   3   4
ATOM      4  C   UNL     1      17.731  -4.293  32.128  1.00  0.00     0.000 C 
BRANCH   4   5
ATOM      5  C   UNL     1      17.262  -4.874  33.471  1.00  0.00     0.001 C 
BRANCH   5   6
ATOM      6  C   UNL     1      17.826  -6.267  33.832  1.00  0.00     0.009 C 
BRANCH   6   7
ATOM      7  C   UNL     1      17.133  -7.495  33.187  1.00  0.00     0.032 C 
ATOM      8  C   UNL     1      18.130  -8.523  32.629  1.00  0.00     0.014 C 
BRANCH   7   9
ATOM      9  C   UNL     1      16.103  -8.116  34.099  1.00  0.00     0.044 C 
ATOM     10  O   UNL     1      16.216  -8.051  35.354  1.00  0.00    -0.550 OA
ATOM     11  O   UNL     1      15.020  -8.792  33.551  1.00  0.00    -0.550 OA
ENDBRANCH   7   9
ENDBRANCH   6   7
ENDBRANCH   5   6
ENDBRANCH   4   5
ENDBRANCH   3   4
ENDBRANCH   2   3
ENDBRANCH   1   2
BRANCH   1  12
ATOM     12  C   UNL     1      20.535  -6.499  30.613  1.00  0.00     0.000 C 
BRANCH  12  13
ATOM     13  C   UNL     1      21.983  -6.014  30.784  1.00  0.00    -0.000 C 
BRANCH  13  14
ATOM     14  C   UNL     1      22.586  -6.409  32.140  1.00  0.00    -0.000 C 
BRANCH  14  15
ATOM     15  C   UNL     1      21.498  -6.891  33.106  1.00  0.00    -0.000 C 
BRANCH  15  16
ATOM     16  C   UNL     1      21.336  -5.918  34.283  1.00  0.00    -0.000 C 
BRANCH  16  17
ATOM     17  C   UNL     1      22.197  -4.650  34.135  1.00  0.00    -0.000 C 
BRANCH  17  18
ATOM     18  C   UNL     1      21.939  -3.566  35.198  1.00  0.00    -0.003 C 
ATOM     19  C   UNL     1      23.207  -2.820  35.611  1.00  0.00     0.004 C 
ENDBRANCH  17  18
ENDBRANCH  16  17
ENDBRANCH  15  16
ENDBRANCH  14  15
ENDBRANCH  13  14
ENDBRANCH  12  13
ENDBRANCH   1  12
TORSDOF 14
ENDMDL
MODEL 2
REMARK VINA RESULT:    -4.765      2.531      4.589
REMARK INTER + INTRA:         -11.170
REMARK INTER:                  -9.250
REMARK INTRA:                  -1.920
REMARK UNBOUND:                -2.505
REMARK SMILES CCCCCCCCCCCCCC[C@@H](C)C(=O)[O-]
REMARK SMILES IDX 9 1 10 2 11 3 12 4 13 5 14 6 15 7 16 8 17 9 18 10 19 11 8 12
REMARK SMILES IDX 7 13 6 14 5 15 4 16 3 17 2 18 1 19
REMARK H PARENT
REMARK Flexibility Score: inf
ROOT
ATOM      1  C   UNL     1      21.536  -3.933  34.079  1.00  0.00     0.000 C 
ENDROOT
BRANCH   1   2
ATOM      2  C   UNL     1      20.017  -3.872  34.304  1.00  0.00     0.000 C 
BRANCH   2   3
ATOM      3  C   UNL     1      19.365  -2.653  33.635  1.00  0.00     0.000 C 
BRANCH   3   4
ATOM      4  C   UNL     1      19.377  -2.798  32.106  1.00  0.00     0.000 C 
BRANCH   4   5
ATOM      5  C   UNL     1      19.003  -4.212  31.634  1.00  0.00     0.001 C 
BRANCH   5   6
ATOM      6  C   UNL     1      19.927  -4.827  30.559  1.00  0.00     0.009 C 
BRANCH   6   7
ATOM      7  C   UNL     1      20.506  -6.235  30.851  1.00  0.00     0.032 C 
ATOM      8  C   UNL     1      21.991  -6.205  31.244  1.00  0.00     0.014 C 
BRANCH   7   9
ATOM      9  C   UNL     1      19.658  -7.011  31.829  1.00  0.00     0.044 C 
ATOM     10  O   UNL     1      20.027  -7.182  33.023  1.00  0.00    -0.550 OA
ATOM     11  O   UNL     1      18.457  -7.568  31.405  1.00  0.00    -0.550 OA
ENDBRANCH   7   9
ENDBRANCH   6   7
ENDBRANCH   5   6
ENDBRANCH   4   5
ENDBRANCH   3   4
ENDBRANCH   2   3
ENDBRANCH   1   2
BRANCH   1  12
ATOM     12  C   UNL     1      22.264  -4.733  35.173  1.00  0.00     0.000 C 
BRANCH  12  13
ATOM     13  C   UNL     1      22.869  -3.830  36.260  1.00  0.00    -0.000 C 
BRANCH  13  14
ATOM     14  C   UNL     1      23.403  -2.503  35.700  1.00  0.00    -0.000 C 
BRANCH  14  15
ATOM     15  C   UNL     1      22.991  -1.326  36.593  1.00  0.00    -0.000 C 
BRANCH  15  16
ATOM     16  C   UNL     1      21.627  -0.763  36.167  1.00  0.00    -0.000 C 
BRANCH  16  17
ATOM     17  C   UNL     1      21.687   0.014  34.839  1.00  0.00    -0.000 C 
BRANCH  17  18
ATOM     18  C   UNL     1      21.899   1.532  34.988  1.00  0.00    -0.003 C 
ATOM     19  C   UNL     1      23.229   2.011  34.407  1.00  0.00     0.004 C 
ENDBRANCH  17  18
ENDBRANCH  16  17
ENDBRANCH  15  16
ENDBRANCH  14  15
ENDBRANCH  13  14
ENDBRANCH  12  13
ENDBRANCH   1  12
TORSDOF 14
ENDMDL
MODEL 3
REMARK VINA RESULT:    -4.692      3.073      6.011
REMARK INTER + INTRA:         -11.037
REMARK INTER:                  -8.467
REMARK INTRA:                  -2.569
REMARK UNBOUND:                -2.505
REMARK SMILES CCCCCCCCCCCCCC[C@@H](C)C(=O)[O-]
REMARK SMILES IDX 9 1 10 2 11 3 12 4 13 5 14 6 15 7 16 8 17 9 18 10 19 11 8 12
REMARK SMILES IDX 7 13 6 14 5 15 4 16 3 17 2 18 1 19
REMARK H PARENT
REMARK Flexibility Score: inf
ROOT
ATOM      1  C   UNL     1      21.614  -6.170  30.731  1.00  0.00     0.000 C 
ENDROOT
BRANCH   1   2
ATOM      2  C   UNL     1      22.308  -6.084  32.100  1.00  0.00     0.000 C 
BRANCH   2   3
ATOM      3  C   UNL     1      21.512  -6.779  33.214  1.00  0.00     0.000 C 
BRANCH   3   4
ATOM      4  C   UNL     1      21.359  -5.855  34.432  1.00  0.00     0.000 C 
BRANCH   4   5
ATOM      5  C   UNL     1      22.045  -4.493  34.243  1.00  0.00     0.001 C 
BRANCH   5   6
ATOM      6  C   UNL     1      21.132  -3.255  34.400  1.00  0.00     0.009 C 
BRANCH   6   7
ATOM      7  C   UNL     1      21.560  -2.194  35.447  1.00  0.00     0.032 C 
ATOM      8  C   UNL     1      23.077  -2.166  35.688  1.00  0.00     0.014 C 
BRANCH   7   9
ATOM      9  C   UNL     1      20.991  -0.830  35.144  1.00  0.00     0.044 C 
ATOM     10  O   UNL     1      21.691   0.065  34.597  1.00  0.00    -0.550 OA
ATOM     11  O   UNL     1      19.676  -0.542  35.493  1.00  0.00    -0.550 OA
ENDBRANCH   7   9
ENDBRANCH   6   7
ENDBRANCH   5   6
ENDBRANCH   4   5
ENDBRANCH   3   4
ENDBRANCH   2   3
ENDBRANCH   1   2
BRANCH   1  12
ATOM     12  C   UNL     1      20.158  -5.672  30.773  1.00  0.00     0.000 C 
BRANCH  12  13
ATOM     13  C   UNL     1      20.062  -4.142  30.874  1.00  0.00    -0.000 C 
BRANCH  13  14
ATOM     14  C   UNL     1      18.856  -3.676  31.705  1.00  0.00    -0.000 C 
BRANCH  14  15
ATOM     15  C   UNL     1      17.937  -4.854  32.048  1.00  0.00    -0.000 C 
BRANCH  15  16
ATOM     16  C   UNL     1      17.791  -5.014  33.568  1.00  0.00    -0.000 C 
BRANCH  16  17
ATOM     17  C   UNL     1      17.779  -6.487  34.017  1.00  0.00    -0.000 C 
BRANCH  17  18
ATOM     18  C   UNL     1      17.230  -7.477  32.973  1.00  0.00    -0.003 C 
ATOM     19  C   UNL     1      18.209  -8.602  32.641  1.00  0.00     0.004 C 
ENDBRANCH  17  18
ENDBRANCH  16  17
ENDBRANCH  15  16
ENDBRANCH  14  15
ENDBRANCH  13  14
ENDBRANCH  12  13
ENDBRANCH   1  12
TORSDOF 14
ENDMDL
MODEL 4
REMARK VINA RESULT:    -4.649      1.277      2.214
REMARK INTER + INTRA:         -10.959
REMARK INTER:                  -8.637
REMARK INTRA:                  -2.322
REMARK UNBOUND:                -2.505
REMARK SMILES CCCCCCCCCCCCCC[C@@H](C)C(=O)[O-]
REMARK SMILES IDX 9 1 10 2 11 3 12 4 13 5 14 6 15 7 16 8 17 9 18 10 19 11 8 12
REMARK SMILES IDX 7 13 6 14 5 15 4 16 3 17 2 18 1 19
REMARK H PARENT
REMARK Flexibility Score: inf
ROOT
ATOM      1  C   UNL     1      22.050  -5.677  30.866  1.00  0.00     0.000 C 
ENDROOT
BRANCH   1   2
ATOM      2  C   UNL     1      20.726  -6.432  30.668  1.00  0.00     0.000 C 
BRANCH   2   3
ATOM      3  C   UNL     1      19.578  -5.513  30.228  1.00  0.00     0.000 C 
BRANCH   3   4
ATOM      4  C   UNL     1      19.201  -4.534  31.350  1.00  0.00     0.000 C 
BRANCH   4   5
ATOM      5  C   UNL     1      17.853  -4.867  32.010  1.00  0.00     0.001 C 
BRANCH   5   6
ATOM      6  C   UNL     1      17.916  -5.846  33.205  1.00  0.00     0.009 C 
BRANCH   6   7
ATOM      7  C   UNL     1      17.316  -7.259  32.988  1.00  0.00     0.032 C 
ATOM      8  C   UNL     1      18.381  -8.321  32.673  1.00  0.00     0.014 C 
BRANCH   7   9
ATOM      9  C   UNL     1      16.396  -7.669  34.112  1.00  0.00     0.044 C 
ATOM     10  O   UNL     1      16.591  -7.276  35.294  1.00  0.00    -0.550 OA
ATOM     11  O   UNL     1      15.325  -8.514  33.848  1.00  0.00    -0.550 OA
ENDBRANCH   7   9
ENDBRANCH   6   7
ENDBRANCH   5   6
ENDBRANCH   4   5
ENDBRANCH   3   4
ENDBRANCH   2   3
ENDBRANCH   1   2
BRANCH   1  12
ATOM     12  C   UNL     1      22.640  -5.877  32.273  1.00  0.00     0.000 C 
BRANCH  12  13
ATOM     13  C   UNL     1      21.665  -6.586  33.226  1.00  0.00    -0.000 C 
BRANCH  13  14
ATOM     14  C   UNL     1      21.381  -5.773  34.499  1.00  0.00    -0.000 C 
BRANCH  14  15
ATOM     15  C   UNL     1      21.647  -4.281  34.268  1.00  0.00    -0.000 C 
BRANCH  15  16
ATOM     16  C   UNL     1      20.400  -3.444  34.587  1.00  0.00    -0.000 C 
BRANCH  16  17
ATOM     17  C   UNL     1      20.580  -1.950  34.260  1.00  0.00    -0.000 C 
BRANCH  17  18
ATOM     18  C   UNL     1      21.217  -1.114  35.385  1.00  0.00    -0.003 C 
ATOM     19  C   UNL     1      21.797   0.211  34.891  1.00  0.00     0.004 C 
ENDBRANCH  17  18
ENDBRANCH  16  17
ENDBRANCH  15  16
ENDBRANCH  14  15
ENDBRANCH  13  14
ENDBRANCH  12  13
ENDBRANCH   1  12
TORSDOF 14
ENDMDL
MODEL 5
REMARK VINA RESULT:    -4.648      2.121      3.813
REMARK INTER + INTRA:         -10.957
REMARK INTER:                  -8.922
REMARK INTRA:                  -2.035
REMARK UNBOUND:                -2.505
REMARK SMILES CCCCCCCCCCCCCC[C@@H](C)C(=O)[O-]
REMARK SMILES IDX 9 1 10 2 11 3 12 4 13 5 14 6 15 7 16 8 17 9 18 10 19 11 8 12
REMARK SMILES IDX 7 13 6 14 5 15 4 16 3 17 2 18 1 19
REMARK H PARENT
REMARK Flexibility Score: inf
ROOT
ATOM      1  C   UNL     1      21.856  -6.662  33.176  1.00  0.00     0.000 C 
ENDROOT
BRANCH   1   2
ATOM      2  C   UNL     1      22.629  -5.861  32.116  1.00  0.00     0.000 C 
BRANCH   2   3
ATOM      3  C   UNL     1      22.230  -6.234  30.681  1.00  0.00     0.000 C 
BRANCH   3   4
ATOM      4  C   UNL     1      21.071  -5.352  30.191  1.00  0.00     0.000 C 
BRANCH   4   5
ATOM      5  C   UNL     1      19.701  -6.039  30.312  1.00  0.00     0.001 C 
BRANCH   5   6
ATOM      6  C   UNL     1      18.728  -5.416  31.339  1.00  0.00     0.009 C 
BRANCH   6   7
ATOM      7  C   UNL     1      17.881  -6.397  32.191  1.00  0.00     0.032 C 
ATOM      8  C   UNL     1      18.497  -7.802  32.277  1.00  0.00     0.014 C 
BRANCH   7   9
ATOM      9  C   UNL     1      17.534  -5.827  33.544  1.00  0.00     0.044 C 
ATOM     10  O   UNL     1      17.736  -6.483  34.602  1.00  0.00    -0.550 OA
ATOM     11  O   UNL     1      16.961  -4.564  33.629  1.00  0.00    -0.550 OA
ENDBRANCH   7   9
ENDBRANCH   6   7
ENDBRANCH   5   6
ENDBRANCH   4   5
ENDBRANCH   3   4
ENDBRANCH   2   3
ENDBRANCH   1   2
BRANCH   1  12
ATOM     12  C   UNL     1      21.241  -5.764  34.263  1.00  0.00     0.000 C 
BRANCH  12  13
ATOM     13  C   UNL     1      21.638  -4.288  34.104  1.00  0.00    -0.000 C 
BRANCH  13  14
ATOM     14  C   UNL     1      20.423  -3.358  33.964  1.00  0.00    -0.000 C 
BRANCH  14  15
ATOM     15  C   UNL     1      20.790  -1.916  34.335  1.00  0.00    -0.000 C 
BRANCH  15  16
ATOM     16  C   UNL     1      21.862  -1.886  35.435  1.00  0.00    -0.000 C 
BRANCH  16  17
ATOM     17  C   UNL     1      22.519  -0.503  35.594  1.00  0.00    -0.000 C 
BRANCH  17  18
ATOM     18  C   UNL     1      21.908   0.607  34.720  1.00  0.00    -0.003 C 
ATOM     19  C   UNL     1      21.220   1.701  35.535  1.00  0.00     0.004 C 
ENDBRANCH  17  18
ENDBRANCH  16  17
ENDBRANCH  15  16
ENDBRANCH  14  15
ENDBRANCH  13  14
ENDBRANCH  12  13
ENDBRANCH   1  12
TORSDOF 14
ENDMDL
MODEL 6
REMARK VINA RESULT:    -4.646      3.014      5.981
REMARK INTER + INTRA:         -10.954
REMARK INTER:                  -8.555
REMARK INTRA:                  -2.399
REMARK UNBOUND:                -2.505
REMARK SMILES CCCCCCCCCCCCCC[C@@H](C)C(=O)[O-]
REMARK SMILES IDX 9 1 10 2 11 3 12 4 13 5 14 6 15 7 16 8 17 9 18 10 19 11 8 12
REMARK SMILES IDX 7 13 6 14 5 15 4 16 3 17 2 18 1 19
REMARK H PARENT
REMARK Flexibility Score: inf
ROOT
ATOM      1  C   UNL     1      21.906  -6.068  30.488  1.00  0.00     0.000 C 
ENDROOT
BRANCH   1   2
ATOM      2  C   UNL     1      22.612  -6.055  31.854  1.00  0.00     0.000 C 
BRANCH   2   3
ATOM      3  C   UNL     1      21.844  -6.839  32.927  1.00  0.00     0.000 C 
BRANCH   3   4
ATOM      4  C   UNL     1      21.548  -5.952  34.145  1.00  0.00     0.000 C 
BRANCH   4   5
ATOM      5  C   UNL     1      21.983  -4.491  33.944  1.00  0.00     0.001 C 
BRANCH   5   6
ATOM      6  C   UNL     1      21.764  -3.554  35.154  1.00  0.00     0.009 C 
BRANCH   6   7
ATOM      7  C   UNL     1      23.019  -3.161  35.975  1.00  0.00     0.032 C 
ATOM      8  C   UNL     1      23.081  -1.659  36.294  1.00  0.00     0.014 C 
BRANCH   7   9
ATOM      9  C   UNL     1      23.197  -4.026  37.198  1.00  0.00     0.044 C 
ATOM     10  O   UNL     1      22.987  -3.574  38.356  1.00  0.00    -0.550 OA
ATOM     11  O   UNL     1      23.620  -5.342  37.052  1.00  0.00    -0.550 OA
ENDBRANCH   7   9
ENDBRANCH   6   7
ENDBRANCH   5   6
ENDBRANCH   4   5
ENDBRANCH   3   4
ENDBRANCH   2   3
ENDBRANCH   1   2
BRANCH   1  12
ATOM     12  C   UNL     1      20.391  -6.308  30.607  1.00  0.00     0.000 C 
BRANCH  12  13
ATOM     13  C   UNL     1      19.565  -5.081  30.189  1.00  0.00    -0.000 C 
BRANCH  13  14
ATOM     14  C   UNL     1      19.357  -4.084  31.339  1.00  0.00    -0.000 C 
BRANCH  14  15
ATOM     15  C   UNL     1      18.023  -4.337  32.051  1.00  0.00    -0.000 C 
BRANCH  15  16
ATOM     16  C   UNL     1      18.250  -4.819  33.491  1.00  0.00    -0.000 C 
BRANCH  16  17
ATOM     17  C   UNL     1      17.492  -6.120  33.814  1.00  0.00    -0.000 C 
BRANCH  17  18
ATOM     18  C   UNL     1      17.486  -7.164  32.683  1.00  0.00    -0.003 C 
ATOM     19  C   UNL     1      18.401  -8.356  32.964  1.00  0.00     0.004 C 
ENDBRANCH  17  18
ENDBRANCH  16  17
ENDBRANCH  15  16
ENDBRANCH  14  15
ENDBRANCH  13  14
ENDBRANCH  12  13
ENDBRANCH   1  12
TORSDOF 14
ENDMDL
MODEL 7
REMARK VINA RESULT:    -4.631      3.682      6.400
REMARK INTER + INTRA:         -10.927
REMARK INTER:                  -9.002
REMARK INTRA:                  -1.924
REMARK UNBOUND:                -2.505
REMARK SMILES CCCCCCCCCCCCCC[C@@H](C)C(=O)[O-]
REMARK SMILES IDX 9 1 10 2 11 3 12 4 13 5 14 6 15 7 16 8 17 9 18 10 19 11 8 12
REMARK SMILES IDX 7 13 6 14 5 15 4 16 3 17 2 18 1 19
REMARK H PARENT
REMARK Flexibility Score: inf
ROOT
ATOM      1  C   UNL     1      21.867  -4.484  34.225  1.00  0.00     0.000 C 
ENDROOT
BRANCH   1   2
ATOM      2  C   UNL     1      21.111  -3.382  34.984  1.00  0.00     0.000 C 
BRANCH   2   3
ATOM      3  C   UNL     1      22.014  -2.205  35.378  1.00  0.00     0.000 C 
BRANCH   3   4
ATOM      4  C   UNL     1      23.374  -2.706  35.887  1.00  0.00     0.000 C 
BRANCH   4   5
ATOM      5  C   UNL     1      23.338  -3.150  37.358  1.00  0.00     0.001 C 
BRANCH   5   6
ATOM      6  C   UNL     1      23.680  -4.634  37.619  1.00  0.00     0.009 C 
BRANCH   6   7
ATOM      7  C   UNL     1      22.992  -5.312  38.832  1.00  0.00     0.032 C 
ATOM      8  C   UNL     1      21.576  -5.817  38.515  1.00  0.00     0.014 C 
BRANCH   7   9
ATOM      9  C   UNL     1      23.861  -6.370  39.466  1.00  0.00     0.044 C 
ATOM     10  O   UNL     1      23.733  -7.588  39.167  1.00  0.00    -0.550 OA
ATOM     11  O   UNL     1      24.808  -6.002  40.414  1.00  0.00    -0.550 OA
ENDBRANCH   7   9
ENDBRANCH   6   7
ENDBRANCH   5   6
ENDBRANCH   4   5
ENDBRANCH   3   4
ENDBRANCH   2   3
ENDBRANCH   1   2
BRANCH   1  12
ATOM     12  C   UNL     1      21.511  -5.896  34.723  1.00  0.00     0.000 C 
BRANCH  12  13
ATOM     13  C   UNL     1      21.371  -6.908  33.575  1.00  0.00    -0.000 C 
BRANCH  13  14
ATOM     14  C   UNL     1      19.909  -7.276  33.282  1.00  0.00    -0.000 C 
BRANCH  14  15
ATOM     15  C   UNL     1      19.556  -7.000  31.816  1.00  0.00    -0.000 C 
BRANCH  15  16
ATOM     16  C   UNL     1      20.709  -6.284  31.098  1.00  0.00    -0.000 C 
BRANCH  16  17
ATOM     17  C   UNL     1      20.257  -5.010  30.360  1.00  0.00    -0.000 C 
BRANCH  17  18
ATOM     18  C   UNL     1      19.041  -4.300  30.983  1.00  0.00    -0.003 C 
ATOM     19  C   UNL     1      19.419  -3.049  31.775  1.00  0.00     0.004 C 
ENDBRANCH  17  18
ENDBRANCH  16  17
ENDBRANCH  15  16
ENDBRANCH  14  15
ENDBRANCH  13  14
ENDBRANCH  12  13
ENDBRANCH   1  12
TORSDOF 14
ENDMDL
MODEL 8
REMARK VINA RESULT:    -4.629      3.537      6.162
REMARK INTER + INTRA:         -10.924
REMARK INTER:                  -8.535
REMARK INTRA:                  -2.388
REMARK UNBOUND:                -2.505
REMARK SMILES CCCCCCCCCCCCCC[C@@H](C)C(=O)[O-]
REMARK SMILES IDX 9 1 10 2 11 3 12 4 13 5 14 6 15 7 16 8 17 9 18 10 19 11 8 12
REMARK SMILES IDX 7 13 6 14 5 15 4 16 3 17 2 18 1 19
REMARK H PARENT
REMARK Flexibility Score: inf
ROOT
ATOM      1  C   UNL     1      18.762  -6.771  33.921  1.00  0.00     0.000 C 
ENDROOT
BRANCH   1   2
ATOM      2  C   UNL     1      19.825  -5.759  34.376  1.00  0.00     0.000 C 
BRANCH   2   3
ATOM      3  C   UNL     1      21.259  -6.259  34.147  1.00  0.00     0.000 C 
BRANCH   3   4
ATOM      4  C   UNL     1      22.251  -5.086  34.133  1.00  0.00     0.000 C 
BRANCH   4   5
ATOM      5  C   UNL     1      21.984  -4.062  35.247  1.00  0.00     0.001 C 
BRANCH   5   6
ATOM      6  C   UNL     1      23.046  -2.949  35.403  1.00  0.00     0.009 C 
BRANCH   6   7
ATOM      7  C   UNL     1      22.529  -1.524  35.729  1.00  0.00     0.032 C 
ATOM      8  C   UNL     1      21.322  -1.113  34.873  1.00  0.00     0.014 C 
BRANCH   7   9
ATOM      9  C   UNL     1      22.293  -1.325  37.206  1.00  0.00     0.044 C 
ATOM     10  O   UNL     1      21.741  -0.280  37.646  1.00  0.00    -0.550 OA
ATOM     11  O   UNL     1      22.710  -2.299  38.105  1.00  0.00    -0.550 OA
ENDBRANCH   7   9
ENDBRANCH   6   7
ENDBRANCH   5   6
ENDBRANCH   4   5
ENDBRANCH   3   4
ENDBRANCH   2   3
ENDBRANCH   1   2
BRANCH   1  12
ATOM     12  C   UNL     1      19.204  -7.580  32.689  1.00  0.00     0.000 C 
BRANCH  12  13
ATOM     13  C   UNL     1      18.965  -6.825  31.371  1.00  0.00    -0.000 C 
BRANCH  13  14
ATOM     14  C   UNL     1      20.270  -6.484  30.636  1.00  0.00    -0.000 C 
BRANCH  14  15
ATOM     15  C   UNL     1      20.383  -4.975  30.388  1.00  0.00    -0.000 C 
BRANCH  15  16
ATOM     16  C   UNL     1      19.171  -4.230  30.966  1.00  0.00    -0.000 C 
BRANCH  16  17
ATOM     17  C   UNL     1      19.568  -3.075  31.904  1.00  0.00    -0.000 C 
BRANCH  17  18
ATOM     18  C   UNL     1      18.517  -2.718  32.971  1.00  0.00    -0.003 C 
ATOM     19  C   UNL     1      17.231  -3.533  32.840  1.00  0.00     0.004 C 
ENDBRANCH  17  18
ENDBRANCH  16  17
ENDBRANCH  15  16
ENDBRANCH  14  15
ENDBRANCH  13  14
ENDBRANCH  12  13
ENDBRANCH   1  12
TORSDOF 14
ENDMDL
MODEL 9
REMARK VINA RESULT:    -4.604      2.694      4.961
REMARK INTER + INTRA:         -10.877
REMARK INTER:                  -8.565
REMARK INTRA:                  -2.312
REMARK UNBOUND:                -2.505
REMARK SMILES CCCCCCCCCCCCCC[C@@H](C)C(=O)[O-]
REMARK SMILES IDX 9 1 10 2 11 3 12 4 13 5 14 6 15 7 16 8 17 9 18 10 19 11 8 12
REMARK SMILES IDX 7 13 6 14 5 15 4 16 3 17 2 18 1 19
REMARK H PARENT
REMARK Flexibility Score: inf
ROOT
ATOM      1  C   UNL     1      21.042  -3.329  33.917  1.00  0.00     0.000 C 
ENDROOT
BRANCH   1   2
ATOM      2  C   UNL     1      20.429  -4.642  34.429  1.00  0.00     0.000 C 
BRANCH   2   3
ATOM      3  C   UNL     1      21.352  -5.851  34.219  1.00  0.00     0.000 C 
BRANCH   3   4
ATOM      4  C   UNL     1      22.382  -5.567  33.116  1.00  0.00     0.000 C 
BRANCH   4   5
ATOM      5  C   UNL     1      22.069  -6.294  31.799  1.00  0.00     0.001 C 
BRANCH   5   6
ATOM      6  C   UNL     1      21.294  -5.469  30.746  1.00  0.00     0.009 C 
BRANCH   6   7
ATOM      7  C   UNL     1      19.766  -5.719  30.643  1.00  0.00     0.032 C 
ATOM      8  C   UNL     1      19.317  -6.999  31.364  1.00  0.00     0.014 C 
BRANCH   7   9
ATOM      9  C   UNL     1      18.960  -4.508  31.046  1.00  0.00     0.044 C 
ATOM     10  O   UNL     1      19.395  -3.340  30.857  1.00  0.00    -0.550 OA
ATOM     11  O   UNL     1      17.724  -4.680  31.658  1.00  0.00    -0.550 OA
ENDBRANCH   7   9
ENDBRANCH   6   7
ENDBRANCH   5   6
ENDBRANCH   4   5
ENDBRANCH   3   4
ENDBRANCH   2   3
ENDBRANCH   1   2
BRANCH   1  12
ATOM     12  C   UNL     1      20.206  -2.096  34.302  1.00  0.00     0.000 C 
BRANCH  12  13
ATOM     13  C   UNL     1      20.758  -1.372  35.540  1.00  0.00    -0.000 C 
BRANCH  13  14
ATOM     14  C   UNL     1      22.238  -0.988  35.393  1.00  0.00    -0.000 C 
BRANCH  14  15
ATOM     15  C   UNL     1      23.075  -1.584  36.531  1.00  0.00    -0.000 C 
BRANCH  15  16
ATOM     16  C   UNL     1      23.498  -3.025  36.207  1.00  0.00    -0.000 C 
BRANCH  16  17
ATOM     17  C   UNL     1      23.313  -3.985  37.397  1.00  0.00    -0.000 C 
BRANCH  17  18
ATOM     18  C   UNL     1      21.849  -4.318  37.737  1.00  0.00    -0.003 C 
ATOM     19  C   UNL     1      21.695  -5.631  38.503  1.00  0.00     0.004 C 
ENDBRANCH  17  18
ENDBRANCH  16  17
ENDBRANCH  15  16
ENDBRANCH  14  15
ENDBRANCH  13  14
ENDBRANCH  12  13
ENDBRANCH   1  12
TORSDOF 14
ENDMDL
