MODEL 1
REMARK VINA RESULT:    -2.143      0.000      0.000
REMARK INTER + INTRA:          -2.143
REMARK INTER:                  -2.143
REMARK INTRA:                   0.000
REMARK UNBOUND:                 0.000
REMARK SMILES CC(=O)[O-]
REMARK SMILES IDX 1 1 2 2 3 3 4 4
REMARK H PARENT
REMARK Flexibility Score: inf
ROOT
ATOM      1  C   UNL     1      12.118  -7.979   4.738  1.00  0.00     0.063 C 
ATOM      2  C   UNL     1      11.164  -6.967   5.274  1.00  0.00     0.038 C 
ATOM      3  O   UNL     1      10.835  -5.975   4.573  1.00  0.00    -0.550 OA
ATOM      4  O   UNL     1      10.592  -7.146   6.527  1.00  0.00    -0.550 OA
ENDROOT
TORSDOF 0
ENDMDL
MODEL 2
REMARK VINA RESULT:    -2.115      0.324      1.646
REMARK INTER + INTRA:          -2.115
REMARK INTER:                  -2.115
REMARK INTRA:                   0.000
REMARK UNBOUND:                 0.000
REMARK SMILES CC(=O)[O-]
REMARK SMILES IDX 1 1 2 2 3 3 4 4
REMARK H PARENT
REMARK Flexibility Score: inf
ROOT
ATOM      1  C   UNL     1      12.125  -8.277   5.139  1.00  0.00     0.063 C 
ATOM      2  C   UNL     1      11.133  -7.210   5.457  1.00  0.00     0.038 C 
ATOM      3  O   UNL     1      10.603  -7.160   6.598  1.00  0.00    -0.550 OA
ATOM      4  O   UNL     1      10.833  -6.236   4.513  1.00  0.00    -0.550 OA
ENDROOT
TORSDOF 0
ENDMDL
MODEL 3
REMARK VINA RESULT:    -2.105     19.591     19.873
REMARK INTER + INTRA:          -2.105
REMARK INTER:                  -2.105
REMARK INTRA:                   0.000
REMARK UNBOUND:                 0.000
REMARK SMILES CC(=O)[O-]
REMARK SMILES IDX 1 1 2 2 3 3 4 4
REMARK H PARENT
REMARK Flexibility Score: inf
ROOT
ATOM      1  C   UNL     1      -3.552  -0.434  -7.108  1.00  0.00     0.063 C 
ATOM      2  C   UNL     1      -2.208  -0.592  -7.733  1.00  0.00     0.038 C 
ATOM      3  O   UNL     1      -1.952  -1.605  -8.434  1.00  0.00    -0.550 OA
ATOM      4  O   UNL     1      -1.253   0.407  -7.589  1.00  0.00    -0.550 OA
ENDROOT
TORSDOF 0
ENDMDL
MODEL 4
REMARK VINA RESULT:    -2.012     16.357     16.770
REMARK INTER + INTRA:          -2.012
REMARK INTER:                  -2.012
REMARK INTRA:                   0.000
REMARK UNBOUND:                 0.000
REMARK SMILES CC(=O)[O-]
REMARK SMILES IDX 1 1 2 2 3 3 4 4
REMARK H PARENT
REMARK Flexibility Score: inf
ROOT
ATOM      1  C   UNL     1      -3.559   0.016   7.149  1.00  0.00     0.063 C 
ATOM      2  C   UNL     1      -3.063   1.356   7.574  1.00  0.00     0.038 C 
ATOM      3  O   UNL     1      -2.067   1.448   8.339  1.00  0.00    -0.550 OA
ATOM      4  O   UNL     1      -3.664   2.508   7.083  1.00  0.00    -0.550 OA
ENDROOT
TORSDOF 0
ENDMDL
MODEL 5
REMARK VINA RESULT:    -1.982     17.687     18.161
REMARK INTER + INTRA:          -1.982
REMARK INTER:                  -1.982
REMARK INTRA:                   0.000
REMARK UNBOUND:                 0.000
REMARK SMILES CC(=O)[O-]
REMARK SMILES IDX 1 1 2 2 3 3 4 4
REMARK H PARENT
REMARK Flexibility Score: inf
ROOT
ATOM      1  C   UNL     1       9.114   5.227  -7.525  1.00  0.00     0.063 C 
ATOM      2  C   UNL     1      10.570   5.320  -7.830  1.00  0.00     0.038 C 
ATOM      3  O   UNL     1      11.265   4.275  -7.920  1.00  0.00    -0.550 OA
ATOM      4  O   UNL     1      11.152   6.558  -8.070  1.00  0.00    -0.550 OA
ENDROOT
TORSDOF 0
ENDMDL
MODEL 6
REMARK VINA RESULT:    -1.953     19.913     20.193
REMARK INTER + INTRA:          -1.953
REMARK INTER:                  -1.953
REMARK INTRA:                   0.000
REMARK UNBOUND:                 0.000
REMARK SMILES CC(=O)[O-]
REMARK SMILES IDX 1 1 2 2 3 3 4 4
REMARK H PARENT
REMARK Flexibility Score: inf
ROOT
ATOM      1  C   UNL     1      -3.735  -0.259  -7.135  1.00  0.00     0.063 C 
ATOM      2  C   UNL     1      -3.132  -1.496  -7.707  1.00  0.00     0.038 C 
ATOM      3  O   UNL     1      -1.970  -1.468  -8.189  1.00  0.00    -0.550 OA
ATOM      4  O   UNL     1      -3.832  -2.695  -7.661  1.00  0.00    -0.550 OA
ENDROOT
TORSDOF 0
ENDMDL
MODEL 7
REMARK VINA RESULT:    -1.937      9.393     10.047
REMARK INTER + INTRA:          -1.937
REMARK INTER:                  -1.937
REMARK INTRA:                   0.000
REMARK UNBOUND:                 0.000
REMARK SMILES CC(=O)[O-]
REMARK SMILES IDX 1 1 2 2 3 3 4 4
REMARK H PARENT
REMARK Flexibility Score: inf
ROOT
ATOM      1  C   UNL     1      10.853  -2.050  -2.893  1.00  0.00     0.063 C 
ATOM      2  C   UNL     1      11.114  -3.256  -3.729  1.00  0.00     0.038 C 
ATOM      3  O   UNL     1      11.526  -4.319  -3.195  1.00  0.00    -0.550 OA
ATOM      4  O   UNL     1      10.850  -3.227  -5.092  1.00  0.00    -0.550 OA
ENDROOT
TORSDOF 0
ENDMDL
MODEL 8
REMARK VINA RESULT:    -1.933     16.378     16.794
REMARK INTER + INTRA:          -1.933
REMARK INTER:                  -1.933
REMARK INTRA:                   0.000
REMARK UNBOUND:                 0.000
REMARK SMILES CC(=O)[O-]
REMARK SMILES IDX 1 1 2 2 3 3 4 4
REMARK H PARENT
REMARK Flexibility Score: inf
ROOT
ATOM      1  C   UNL     1      -2.452   1.255   7.900  1.00  0.00     0.063 C 
ATOM      2  C   UNL     1      -3.543   0.584   7.139  1.00  0.00     0.038 C 
ATOM      3  O   UNL     1      -3.637  -0.671   7.142  1.00  0.00    -0.550 OA
ATOM      4  O   UNL     1      -4.493   1.345   6.467  1.00  0.00    -0.550 OA
ENDROOT
TORSDOF 0
ENDMDL
MODEL 9
REMARK VINA RESULT:    -1.884      9.197      9.701
REMARK INTER + INTRA:          -1.884
REMARK INTER:                  -1.884
REMARK INTRA:                   0.000
REMARK UNBOUND:                 0.000
REMARK SMILES CC(=O)[O-]
REMARK SMILES IDX 1 1 2 2 3 3 4 4
REMARK H PARENT
REMARK Flexibility Score: inf
ROOT
ATOM      1  C   UNL     1      11.044  -3.263  -4.931  1.00  0.00     0.063 C 
ATOM      2  C   UNL     1      11.042  -3.011  -3.461  1.00  0.00     0.038 C 
ATOM      3  O   UNL     1      10.640  -1.907  -3.009  1.00  0.00    -0.550 OA
ATOM      4  O   UNL     1      11.433  -4.015  -2.584  1.00  0.00    -0.550 OA
ENDROOT
TORSDOF 0
ENDMDL
