MODEL 1
REMARK VINA RESULT:    -2.995      0.000      0.000
REMARK INTER + INTRA:          -2.995
REMARK INTER:                  -2.995
REMARK INTRA:                   0.000
REMARK UNBOUND:                 0.000
REMARK SMILES CC(C)=C1CC[C@H](C)CC1=O
REMARK SMILES IDX 8 1 7 2 6 3 5 4 4 5 2 6 1 7 3 8 10 9 11 10 9 11
REMARK H PARENT
REMARK Flexibility Score: inf
ROOT
ATOM      1  C   UNL     1      32.257  25.108  34.583  1.00  0.00     0.008 C 
ATOM      2  C   UNL     1      31.986  24.559  33.178  1.00  0.00    -0.006 C 
ATOM      3  C   UNL     1      30.559  24.906  32.727  1.00  0.00     0.008 C 
ATOM      4  C   UNL     1      30.236  24.276  31.365  1.00  0.00     0.039 C 
ATOM      5  C   UNL     1      31.280  24.607  30.307  1.00  0.00    -0.006 C 
ATOM      6  C   UNL     1      30.941  24.733  28.990  1.00  0.00    -0.070 C 
ATOM      7  C   UNL     1      31.958  25.117  27.940  1.00  0.00     0.039 C 
ATOM      8  C   UNL     1      29.517  24.531  28.525  1.00  0.00     0.039 C 
ATOM      9  C   UNL     1      32.696  24.667  30.778  1.00  0.00     0.159 C 
ATOM     10  O   UNL     1      33.651  24.334  30.027  1.00  0.00    -0.295 OA
ATOM     11  C   UNL     1      33.005  25.123  32.176  1.00  0.00     0.084 C 
ENDROOT
TORSDOF 0
ENDMDL
MODEL 2
REMARK VINA RESULT:    -2.887      1.013      4.080
REMARK INTER + INTRA:          -2.887
REMARK INTER:                  -2.887
REMARK INTRA:                   0.000
REMARK UNBOUND:                 0.000
REMARK SMILES CC(C)=C1CC[C@H](C)CC1=O
REMARK SMILES IDX 8 1 7 2 6 3 5 4 4 5 2 6 1 7 3 8 10 9 11 10 9 11
REMARK H PARENT
REMARK Flexibility Score: inf
ROOT
ATOM      1  C   UNL     1      30.290  23.986  28.302  1.00  0.00     0.008 C 
ATOM      2  C   UNL     1      30.988  24.659  29.490  1.00  0.00    -0.006 C 
ATOM      3  C   UNL     1      30.229  24.375  30.795  1.00  0.00     0.008 C 
ATOM      4  C   UNL     1      30.856  25.124  31.979  1.00  0.00     0.039 C 
ATOM      5  C   UNL     1      32.352  24.868  32.105  1.00  0.00    -0.006 C 
ATOM      6  C   UNL     1      32.970  24.861  33.323  1.00  0.00    -0.070 C 
ATOM      7  C   UNL     1      34.442  24.552  33.466  1.00  0.00     0.039 C 
ATOM      8  C   UNL     1      32.198  25.125  34.595  1.00  0.00     0.039 C 
ATOM      9  C   UNL     1      33.107  24.745  30.823  1.00  0.00     0.159 C 
ATOM     10  O   UNL     1      34.305  25.125  30.729  1.00  0.00    -0.295 OA
ATOM     11  C   UNL     1      32.439  24.166  29.609  1.00  0.00     0.084 C 
ENDROOT
TORSDOF 0
ENDMDL
MODEL 3
REMARK VINA RESULT:    -2.787      1.643      2.764
REMARK INTER + INTRA:          -2.787
REMARK INTER:                  -2.787
REMARK INTRA:                   0.000
REMARK UNBOUND:                 0.000
REMARK SMILES CC(C)=C1CC[C@H](C)CC1=O
REMARK SMILES IDX 8 1 7 2 6 3 5 4 4 5 2 6 1 7 3 8 10 9 11 10 9 11
REMARK H PARENT
REMARK Flexibility Score: inf
ROOT
ATOM      1  C   UNL     1      31.945  24.756  35.315  1.00  0.00     0.008 C 
ATOM      2  C   UNL     1      32.260  25.125  33.860  1.00  0.00    -0.006 C 
ATOM      3  C   UNL     1      33.678  24.672  33.482  1.00  0.00     0.008 C 
ATOM      4  C   UNL     1      34.047  25.123  32.062  1.00  0.00     0.039 C 
ATOM      5  C   UNL     1      33.007  24.711  31.030  1.00  0.00    -0.006 C 
ATOM      6  C   UNL     1      33.361  24.418  29.744  1.00  0.00    -0.070 C 
ATOM      7  C   UNL     1      32.345  23.953  28.725  1.00  0.00     0.039 C 
ATOM      8  C   UNL     1      34.799  24.507  29.287  1.00  0.00     0.039 C 
ATOM      9  C   UNL     1      31.583  24.763  31.476  1.00  0.00     0.159 C 
ATOM     10  O   UNL     1      30.653  25.041  30.672  1.00  0.00    -0.295 OA
ATOM     11  C   UNL     1      31.234  24.487  32.911  1.00  0.00     0.084 C 
ENDROOT
TORSDOF 0
ENDMDL
MODEL 4
REMARK VINA RESULT:    -2.363      2.244      4.255
REMARK INTER + INTRA:          -2.363
REMARK INTER:                  -2.363
REMARK INTRA:                   0.000
REMARK UNBOUND:                 0.000
REMARK SMILES CC(C)=C1CC[C@H](C)CC1=O
REMARK SMILES IDX 8 1 7 2 6 3 5 4 4 5 2 6 1 7 3 8 10 9 11 10 9 11
REMARK H PARENT
REMARK Flexibility Score: inf
ROOT
ATOM      1  C   UNL     1      29.480  24.543  29.021  1.00  0.00     0.008 C 
ATOM      2  C   UNL     1      30.915  24.074  29.291  1.00  0.00    -0.006 C 
ATOM      3  C   UNL     1      31.653  23.805  27.971  1.00  0.00     0.008 C 
ATOM      4  C   UNL     1      33.057  23.238  28.223  1.00  0.00     0.039 C 
ATOM      5  C   UNL     1      33.870  24.097  29.183  1.00  0.00    -0.006 C 
ATOM      6  C   UNL     1      35.228  24.193  29.073  1.00  0.00    -0.070 C 
ATOM      7  C   UNL     1      36.038  25.087  29.984  1.00  0.00     0.039 C 
ATOM      8  C   UNL     1      35.983  23.436  28.005  1.00  0.00     0.039 C 
ATOM      9  C   UNL     1      33.111  24.723  30.307  1.00  0.00     0.159 C 
ATOM     10  O   UNL     1      33.647  24.919  31.430  1.00  0.00    -0.295 OA
ATOM     11  C   UNL     1      31.676  25.125  30.114  1.00  0.00     0.084 C 
ENDROOT
TORSDOF 0
ENDMDL
MODEL 5
REMARK VINA RESULT:    -2.343      1.615      4.594
REMARK INTER + INTRA:          -2.343
REMARK INTER:                  -2.343
REMARK INTRA:                   0.000
REMARK UNBOUND:                 0.000
REMARK SMILES CC(C)=C1CC[C@H](C)CC1=O
REMARK SMILES IDX 8 1 7 2 6 3 5 4 4 5 2 6 1 7 3 8 10 9 11 10 9 11
REMARK H PARENT
REMARK Flexibility Score: inf
ROOT
ATOM      1  C   UNL     1      29.861  24.862  28.156  1.00  0.00     0.008 C 
ATOM      2  C   UNL     1      30.670  24.432  29.386  1.00  0.00    -0.006 C 
ATOM      3  C   UNL     1      32.042  25.122  29.398  1.00  0.00     0.008 C 
ATOM      4  C   UNL     1      32.905  24.625  30.566  1.00  0.00     0.039 C 
ATOM      5  C   UNL     1      32.187  24.726  31.906  1.00  0.00    -0.006 C 
ATOM      6  C   UNL     1      32.874  24.966  33.062  1.00  0.00    -0.070 C 
ATOM      7  C   UNL     1      32.167  25.125  34.388  1.00  0.00     0.039 C 
ATOM      8  C   UNL     1      34.377  25.123  33.063  1.00  0.00     0.039 C 
ATOM      9  C   UNL     1      30.723  24.434  31.890  1.00  0.00     0.159 C 
ATOM     10  O   UNL     1      30.150  23.904  32.879  1.00  0.00    -0.295 OA
ATOM     11  C   UNL     1      29.904  24.764  30.675  1.00  0.00     0.084 C 
ENDROOT
TORSDOF 0
ENDMDL
MODEL 6
REMARK VINA RESULT:    -2.310      2.005      3.555
REMARK INTER + INTRA:          -2.310
REMARK INTER:                  -2.310
REMARK INTRA:                   0.000
REMARK UNBOUND:                 0.000
REMARK SMILES CC(C)=C1CC[C@H](C)CC1=O
REMARK SMILES IDX 8 1 7 2 6 3 5 4 4 5 2 6 1 7 3 8 10 9 11 10 9 11
REMARK H PARENT
REMARK Flexibility Score: inf
ROOT
ATOM      1  C   UNL     1      36.188  24.479  29.188  1.00  0.00     0.008 C 
ATOM      2  C   UNL     1      34.751  24.081  29.544  1.00  0.00    -0.006 C 
ATOM      3  C   UNL     1      34.116  25.124  30.476  1.00  0.00     0.008 C 
ATOM      4  C   UNL     1      32.714  24.691  30.924  1.00  0.00     0.039 C 
ATOM      5  C   UNL     1      31.812  24.330  29.751  1.00  0.00    -0.006 C 
ATOM      6  C   UNL     1      30.463  24.539  29.802  1.00  0.00    -0.070 C 
ATOM      7  C   UNL     1      29.567  24.237  28.623  1.00  0.00     0.039 C 
ATOM      8  C   UNL     1      29.807  25.121  31.032  1.00  0.00     0.039 C 
ATOM      9  C   UNL     1      32.472  23.634  28.606  1.00  0.00     0.159 C 
ATOM     10  O   UNL     1      31.852  22.786  27.909  1.00  0.00    -0.295 OA
ATOM     11  C   UNL     1      33.905  23.932  28.270  1.00  0.00     0.084 C 
ENDROOT
TORSDOF 0
ENDMDL
MODEL 7
REMARK VINA RESULT:    -2.113      1.969      4.395
REMARK INTER + INTRA:          -2.113
REMARK INTER:                  -2.113
REMARK INTRA:                   0.000
REMARK UNBOUND:                 0.000
REMARK SMILES CC(C)=C1CC[C@H](C)CC1=O
REMARK SMILES IDX 8 1 7 2 6 3 5 4 4 5 2 6 1 7 3 8 10 9 11 10 9 11
REMARK H PARENT
REMARK Flexibility Score: inf
ROOT
ATOM      1  C   UNL     1      30.168  23.464  28.058  1.00  0.00     0.008 C 
ATOM      2  C   UNL     1      31.324  24.264  28.670  1.00  0.00    -0.006 C 
ATOM      3  C   UNL     1      31.445  23.975  30.174  1.00  0.00     0.008 C 
ATOM      4  C   UNL     1      32.531  24.844  30.823  1.00  0.00     0.039 C 
ATOM      5  C   UNL     1      33.867  24.746  30.099  1.00  0.00    -0.006 C 
ATOM      6  C   UNL     1      35.049  24.865  30.773  1.00  0.00    -0.070 C 
ATOM      7  C   UNL     1      36.381  24.712  30.075  1.00  0.00     0.039 C 
ATOM      8  C   UNL     1      35.080  25.117  32.262  1.00  0.00     0.039 C 
ATOM      9  C   UNL     1      33.801  24.632  28.612  1.00  0.00     0.159 C 
ATOM     10  O   UNL     1      34.698  25.124  27.876  1.00  0.00    -0.295 OA
ATOM     11  C   UNL     1      32.645  23.926  27.962  1.00  0.00     0.084 C 
ENDROOT
TORSDOF 0
ENDMDL
MODEL 8
REMARK VINA RESULT:    -2.055      2.107      3.912
REMARK INTER + INTRA:          -2.055
REMARK INTER:                  -2.055
REMARK INTRA:                   0.000
REMARK UNBOUND:                 0.000
REMARK SMILES CC(C)=C1CC[C@H](C)CC1=O
REMARK SMILES IDX 8 1 7 2 6 3 5 4 4 5 2 6 1 7 3 8 10 9 11 10 9 11
REMARK H PARENT
REMARK Flexibility Score: inf
ROOT
ATOM      1  C   UNL     1      36.664  24.637  28.558  1.00  0.00     0.008 C 
ATOM      2  C   UNL     1      35.238  25.053  28.939  1.00  0.00    -0.006 C 
ATOM      3  C   UNL     1      34.235  24.582  27.875  1.00  0.00     0.008 C 
ATOM      4  C   UNL     1      32.817  25.078  28.188  1.00  0.00     0.039 C 
ATOM      5  C   UNL     1      32.375  24.729  29.603  1.00  0.00    -0.006 C 
ATOM      6  C   UNL     1      31.065  24.475  29.895  1.00  0.00    -0.070 C 
ATOM      7  C   UNL     1      30.624  24.072  31.284  1.00  0.00     0.039 C 
ATOM      8  C   UNL     1      29.996  24.550  28.830  1.00  0.00     0.039 C 
ATOM      9  C   UNL     1      33.432  24.795  30.656  1.00  0.00     0.159 C 
ATOM     10  O   UNL     1      33.157  25.125  31.841  1.00  0.00    -0.295 OA
ATOM     11  C   UNL     1      34.859  24.474  30.311  1.00  0.00     0.084 C 
ENDROOT
TORSDOF 0
ENDMDL
MODEL 9
REMARK VINA RESULT:    -1.961      2.072      3.280
REMARK INTER + INTRA:          -1.961
REMARK INTER:                  -1.961
REMARK INTRA:                   0.000
REMARK UNBOUND:                 0.000
REMARK SMILES CC(C)=C1CC[C@H](C)CC1=O
REMARK SMILES IDX 8 1 7 2 6 3 5 4 4 5 2 6 1 7 3 8 10 9 11 10 9 11
REMARK H PARENT
REMARK Flexibility Score: inf
ROOT
ATOM      1  C   UNL     1      36.400  24.744  33.372  1.00  0.00     0.008 C 
ATOM      2  C   UNL     1      35.038  25.125  32.782  1.00  0.00    -0.006 C 
ATOM      3  C   UNL     1      34.929  24.654  31.323  1.00  0.00     0.008 C 
ATOM      4  C   UNL     1      33.613  25.116  30.685  1.00  0.00     0.039 C 
ATOM      5  C   UNL     1      32.395  24.732  31.515  1.00  0.00    -0.006 C 
ATOM      6  C   UNL     1      31.196  24.448  30.927  1.00  0.00    -0.070 C 
ATOM      7  C   UNL     1      29.996  24.011  31.736  1.00  0.00     0.039 C 
ATOM      8  C   UNL     1      31.022  24.520  29.427  1.00  0.00     0.039 C 
ATOM      9  C   UNL     1      32.564  24.801  32.997  1.00  0.00     0.159 C 
ATOM     10  O   UNL     1      31.601  25.103  33.753  1.00  0.00    -0.295 OA
ATOM     11  C   UNL     1      33.902  24.514  33.617  1.00  0.00     0.084 C 
ENDROOT
TORSDOF 0
ENDMDL
