MODEL 1
REMARK VINA RESULT:    -7.671      0.000      0.000
REMARK INTER + INTRA:          -9.962
REMARK INTER:                  -9.465
REMARK INTRA:                  -0.497
REMARK UNBOUND:                -0.497
REMARK SMILES CC(C)=CCC[C@H](C)c1ccc(C)cc1
REMARK SMILES IDX 6 1 7 2 8 3 9 4 13 5 12 6 11 7 14 8 10 9 15 10 5 11 4 12
REMARK SMILES IDX 2 13 1 14 3 15
REMARK H PARENT
REMARK Flexibility Score: inf
ROOT
ATOM      1  C   UNL     1      19.128  -4.644  35.774  1.00  0.00     0.012 C 
ENDROOT
BRANCH   1   2
ATOM      2  C   UNL     1      18.469  -5.125  34.462  1.00  0.00     0.016 C 
ATOM      3  C   UNL     1      19.095  -6.443  33.990  1.00  0.00     0.013 C 
BRANCH   2   4
ATOM      4  C   UNL     1      18.546  -4.074  33.368  1.00  0.00    -0.045 A 
ATOM      5  C   UNL     1      18.742  -1.028  30.312  1.00  0.00     0.044 C 
ATOM      6  C   UNL     1      18.665  -2.107  31.352  1.00  0.00    -0.051 A 
ATOM      7  C   UNL     1      17.487  -2.296  32.087  1.00  0.00     0.004 A 
ATOM      8  C   UNL     1      19.793  -2.888  31.645  1.00  0.00     0.004 A 
ATOM      9  C   UNL     1      17.426  -3.274  33.082  1.00  0.00     0.004 A 
ATOM     10  C   UNL     1      19.733  -3.866  32.640  1.00  0.00     0.004 A 
ENDBRANCH   2   4
ENDBRANCH   1   2
BRANCH   1  11
ATOM     11  C   UNL     1      20.342  -5.502  36.159  1.00  0.00     0.028 C 
BRANCH  11  12
ATOM     12  C   UNL     1      20.100  -6.214  37.467  1.00  0.00    -0.028 C 
ATOM     13  C   UNL     1      21.076  -6.639  38.297  1.00  0.00    -0.080 C 
ATOM     14  C   UNL     1      20.680  -7.300  39.592  1.00  0.00     0.039 C 
ATOM     15  C   UNL     1      22.541  -6.486  37.957  1.00  0.00     0.039 C 
ENDBRANCH  11  12
ENDBRANCH   1  11
TORSDOF 4
ENDMDL
MODEL 2
REMARK VINA RESULT:    -7.551      3.145      7.467
REMARK INTER + INTRA:          -9.813
REMARK INTER:                  -9.329
REMARK INTRA:                  -0.484
REMARK UNBOUND:                -0.497
REMARK SMILES CC(C)=CCC[C@H](C)c1ccc(C)cc1
REMARK SMILES IDX 6 1 7 2 8 3 9 4 13 5 12 6 11 7 14 8 10 9 15 10 5 11 4 12
REMARK SMILES IDX 2 13 1 14 3 15
REMARK H PARENT
REMARK Flexibility Score: inf
ROOT
ATOM      1  C   UNL     1      21.054  -0.629  30.887  1.00  0.00     0.012 C 
ENDROOT
BRANCH   1   2
ATOM      2  C   UNL     1      19.740  -1.351  30.513  1.00  0.00     0.016 C 
ATOM      3  C   UNL     1      18.594  -0.345  30.350  1.00  0.00     0.013 C 
BRANCH   2   4
ATOM      4  C   UNL     1      19.372  -2.422  31.525  1.00  0.00    -0.045 A 
ATOM      5  C   UNL     1      18.387  -5.442  34.452  1.00  0.00     0.044 C 
ATOM      6  C   UNL     1      18.720  -4.412  33.413  1.00  0.00    -0.051 A 
ATOM      7  C   UNL     1      20.014  -4.339  32.881  1.00  0.00     0.004 A 
ATOM      8  C   UNL     1      17.758  -3.471  33.018  1.00  0.00     0.004 A 
ATOM      9  C   UNL     1      20.336  -3.357  31.941  1.00  0.00     0.004 A 
ATOM     10  C   UNL     1      18.079  -2.488  32.078  1.00  0.00     0.004 A 
ENDBRANCH   2   4
ENDBRANCH   1   2
BRANCH   1  11
ATOM     11  C   UNL     1      21.314   0.595  29.997  1.00  0.00     0.028 C 
BRANCH  11  12
ATOM     12  C   UNL     1      22.352   1.497  30.619  1.00  0.00    -0.028 C 
ATOM     13  C   UNL     1      23.680   1.406  30.387  1.00  0.00    -0.080 C 
ATOM     14  C   UNL     1      24.594   2.404  31.048  1.00  0.00     0.039 C 
ATOM     15  C   UNL     1      24.267   0.330  29.503  1.00  0.00     0.039 C 
ENDBRANCH  11  12
ENDBRANCH   1  11
TORSDOF 4
ENDMDL
MODEL 3
REMARK VINA RESULT:    -7.539      1.110      1.922
REMARK INTER + INTRA:          -9.799
REMARK INTER:                  -9.320
REMARK INTRA:                  -0.479
REMARK UNBOUND:                -0.497
REMARK SMILES CC(C)=CCC[C@H](C)c1ccc(C)cc1
REMARK SMILES IDX 6 1 7 2 8 3 9 4 13 5 12 6 11 7 14 8 10 9 15 10 5 11 4 12
REMARK SMILES IDX 2 13 1 14 3 15
REMARK H PARENT
REMARK Flexibility Score: inf
ROOT
ATOM      1  C   UNL     1      19.856  -3.894  34.443  1.00  0.00     0.012 C 
ENDROOT
BRANCH   1   2
ATOM      2  C   UNL     1      19.406  -4.274  33.015  1.00  0.00     0.016 C 
ATOM      3  C   UNL     1      20.590  -4.795  32.192  1.00  0.00     0.013 C 
BRANCH   2   4
ATOM      4  C   UNL     1      18.729  -3.114  32.304  1.00  0.00    -0.045 A 
ATOM      5  C   UNL     1      16.800   0.224  30.357  1.00  0.00     0.044 C 
ATOM      6  C   UNL     1      17.457  -0.954  31.013  1.00  0.00    -0.051 A 
ATOM      7  C   UNL     1      16.830  -1.608  32.082  1.00  0.00     0.004 A 
ATOM      8  C   UNL     1      18.734  -1.367  30.607  1.00  0.00     0.004 A 
ATOM      9  C   UNL     1      17.457  -2.682  32.719  1.00  0.00     0.004 A 
ATOM     10  C   UNL     1      19.363  -2.441  31.243  1.00  0.00     0.004 A 
ENDBRANCH   2   4
ENDBRANCH   1   2
BRANCH   1  11
ATOM     11  C   UNL     1      19.536  -4.997  35.463  1.00  0.00     0.028 C 
BRANCH  11  12
ATOM     12  C   UNL     1      20.801  -5.518  36.099  1.00  0.00    -0.028 C 
ATOM     13  C   UNL     1      20.840  -6.246  37.237  1.00  0.00    -0.080 C 
ATOM     14  C   UNL     1      22.176  -6.734  37.732  1.00  0.00     0.039 C 
ATOM     15  C   UNL     1      19.591  -6.565  38.026  1.00  0.00     0.039 C 
ENDBRANCH  11  12
ENDBRANCH   1  11
TORSDOF 4
ENDMDL
MODEL 4
REMARK VINA RESULT:    -7.104      1.157      7.314
REMARK INTER + INTRA:          -9.262
REMARK INTER:                  -8.801
REMARK INTRA:                  -0.461
REMARK UNBOUND:                -0.497
REMARK SMILES CC(C)=CCC[C@H](C)c1ccc(C)cc1
REMARK SMILES IDX 6 1 7 2 8 3 9 4 13 5 12 6 11 7 14 8 10 9 15 10 5 11 4 12
REMARK SMILES IDX 2 13 1 14 3 15
REMARK H PARENT
REMARK Flexibility Score: inf
ROOT
ATOM      1  C   UNL     1      20.381  -5.099  35.151  1.00  0.00     0.012 C 
ENDROOT
BRANCH   1   2
ATOM      2  C   UNL     1      19.823  -5.903  36.345  1.00  0.00     0.016 C 
ATOM      3  C   UNL     1      18.691  -5.135  37.037  1.00  0.00     0.013 C 
BRANCH   2   4
ATOM      4  C   UNL     1      20.910  -6.267  37.344  1.00  0.00    -0.045 A 
ATOM      5  C   UNL     1      23.977  -7.384  40.172  1.00  0.00     0.044 C 
ATOM      6  C   UNL     1      22.907  -6.970  39.205  1.00  0.00    -0.051 A 
ATOM      7  C   UNL     1      21.577  -7.359  39.414  1.00  0.00     0.004 A 
ATOM      8  C   UNL     1      23.240  -6.250  38.048  1.00  0.00     0.004 A 
ATOM      9  C   UNL     1      20.586  -7.006  38.495  1.00  0.00     0.004 A 
ATOM     10  C   UNL     1      22.250  -5.897  37.128  1.00  0.00     0.004 A 
ENDBRANCH   2   4
ENDBRANCH   1   2
BRANCH   1  11
ATOM     11  C   UNL     1      19.339  -4.921  34.036  1.00  0.00     0.028 C 
BRANCH  11  12
ATOM     12  C   UNL     1      19.862  -4.002  32.959  1.00  0.00    -0.028 C 
ATOM     13  C   UNL     1      19.119  -3.067  32.327  1.00  0.00    -0.080 C 
ATOM     14  C   UNL     1      19.789  -2.193  31.299  1.00  0.00     0.039 C 
ATOM     15  C   UNL     1      17.645  -2.889  32.609  1.00  0.00     0.039 C 
ENDBRANCH  11  12
ENDBRANCH   1  11
TORSDOF 4
ENDMDL
MODEL 5
REMARK VINA RESULT:    -7.007      1.035      7.040
REMARK INTER + INTRA:          -9.142
REMARK INTER:                  -8.672
REMARK INTRA:                  -0.470
REMARK UNBOUND:                -0.497
REMARK SMILES CC(C)=CCC[C@H](C)c1ccc(C)cc1
REMARK SMILES IDX 6 1 7 2 8 3 9 4 13 5 12 6 11 7 14 8 10 9 15 10 5 11 4 12
REMARK SMILES IDX 2 13 1 14 3 15
REMARK H PARENT
REMARK Flexibility Score: inf
ROOT
ATOM      1  C   UNL     1      19.879  -3.789  35.149  1.00  0.00     0.012 C 
ENDROOT
BRANCH   1   2
ATOM      2  C   UNL     1      20.229  -5.293  35.112  1.00  0.00     0.016 C 
ATOM      3  C   UNL     1      19.074  -6.105  34.512  1.00  0.00     0.013 C 
BRANCH   2   4
ATOM      4  C   UNL     1      20.600  -5.826  36.485  1.00  0.00    -0.045 A 
ATOM      5  C   UNL     1      21.614  -7.412  40.373  1.00  0.00     0.044 C 
ATOM      6  C   UNL     1      21.261  -6.833  39.034  1.00  0.00    -0.051 A 
ATOM      7  C   UNL     1      19.921  -6.739  38.636  1.00  0.00     0.004 A 
ATOM      8  C   UNL     1      22.273  -6.445  38.143  1.00  0.00     0.004 A 
ATOM      9  C   UNL     1      19.592  -6.235  37.375  1.00  0.00     0.004 A 
ATOM     10  C   UNL     1      21.946  -5.941  36.882  1.00  0.00     0.004 A 
ENDBRANCH   2   4
ENDBRANCH   1   2
BRANCH   1  11
ATOM     11  C   UNL     1      19.960  -3.141  33.759  1.00  0.00     0.028 C 
BRANCH  11  12
ATOM     12  C   UNL     1      18.616  -2.591  33.348  1.00  0.00    -0.028 C 
ATOM     13  C   UNL     1      18.322  -2.143  32.108  1.00  0.00    -0.080 C 
ATOM     14  C   UNL     1      16.922  -1.660  31.832  1.00  0.00     0.039 C 
ATOM     15  C   UNL     1      19.356  -2.099  31.006  1.00  0.00     0.039 C 
ENDBRANCH  11  12
ENDBRANCH   1  11
TORSDOF 4
ENDMDL
MODEL 6
REMARK VINA RESULT:    -6.972      1.882      6.960
REMARK INTER + INTRA:          -9.099
REMARK INTER:                  -8.530
REMARK INTRA:                  -0.569
REMARK UNBOUND:                -0.497
REMARK SMILES CC(C)=CCC[C@H](C)c1ccc(C)cc1
REMARK SMILES IDX 6 1 7 2 8 3 9 4 13 5 12 6 11 7 14 8 10 9 15 10 5 11 4 12
REMARK SMILES IDX 2 13 1 14 3 15
REMARK H PARENT
REMARK Flexibility Score: inf
ROOT
ATOM      1  C   UNL     1      19.433  -2.805  31.305  1.00  0.00     0.012 C 
ENDROOT
BRANCH   1   2
ATOM      2  C   UNL     1      18.374  -2.970  32.417  1.00  0.00     0.016 C 
ATOM      3  C   UNL     1      17.881  -1.603  32.906  1.00  0.00     0.013 C 
BRANCH   2   4
ATOM      4  C   UNL     1      18.894  -3.798  33.580  1.00  0.00    -0.045 A 
ATOM      5  C   UNL     1      20.408  -6.206  36.831  1.00  0.00     0.044 C 
ATOM      6  C   UNL     1      19.858  -5.362  35.719  1.00  0.00    -0.051 A 
ATOM      7  C   UNL     1      19.033  -5.933  34.741  1.00  0.00     0.004 A 
ATOM      8  C   UNL     1      20.221  -4.011  35.611  1.00  0.00     0.004 A 
ATOM      9  C   UNL     1      18.551  -5.157  33.684  1.00  0.00     0.004 A 
ATOM     10  C   UNL     1      19.740  -3.235  34.554  1.00  0.00     0.004 A 
ENDBRANCH   2   4
ENDBRANCH   1   2
BRANCH   1  11
ATOM     11  C   UNL     1      19.507  -1.361  30.787  1.00  0.00     0.028 C 
BRANCH  11  12
ATOM     12  C   UNL     1      20.917  -0.831  30.883  1.00  0.00    -0.028 C 
ATOM     13  C   UNL     1      21.319   0.361  30.393  1.00  0.00    -0.080 C 
ATOM     14  C   UNL     1      22.752   0.776  30.600  1.00  0.00     0.039 C 
ATOM     15  C   UNL     1      20.382   1.273  29.635  1.00  0.00     0.039 C 
ENDBRANCH  11  12
ENDBRANCH   1  11
TORSDOF 4
ENDMDL
MODEL 7
REMARK VINA RESULT:    -6.615     12.381     15.275
REMARK INTER + INTRA:          -8.659
REMARK INTER:                  -7.519
REMARK INTRA:                  -1.140
REMARK UNBOUND:                -0.497
REMARK SMILES CC(C)=CCC[C@H](C)c1ccc(C)cc1
REMARK SMILES IDX 6 1 7 2 8 3 9 4 13 5 12 6 11 7 14 8 10 9 15 10 5 11 4 12
REMARK SMILES IDX 2 13 1 14 3 15
REMARK H PARENT
REMARK Flexibility Score: inf
ROOT
ATOM      1  C   UNL     1      11.537  -9.604  42.958  1.00  0.00     0.012 C 
ENDROOT
BRANCH   1   2
ATOM      2  C   UNL     1      11.060  -8.877  44.235  1.00  0.00     0.016 C 
ATOM      3  C   UNL     1      11.932  -9.261  45.437  1.00  0.00     0.013 C 
BRANCH   2   4
ATOM      4  C   UNL     1       9.594  -9.146  44.530  1.00  0.00    -0.045 A 
ATOM      5  C   UNL     1       5.448  -9.939  45.446  1.00  0.00     0.044 C 
ATOM      6  C   UNL     1       6.883  -9.671  45.098  1.00  0.00    -0.051 A 
ATOM      7  C   UNL     1       7.842 -10.686  45.223  1.00  0.00     0.004 A 
ATOM      8  C   UNL     1       7.288  -8.385  44.713  1.00  0.00     0.004 A 
ATOM      9  C   UNL     1       9.184 -10.428  44.936  1.00  0.00     0.004 A 
ATOM     10  C   UNL     1       8.631  -8.126  44.426  1.00  0.00     0.004 A 
ENDBRANCH   2   4
ENDBRANCH   1   2
BRANCH   1  11
ATOM     11  C   UNL     1      10.863  -9.052  41.693  1.00  0.00     0.028 C 
BRANCH  11  12
ATOM     12  C   UNL     1      11.045  -7.557  41.600  1.00  0.00    -0.028 C 
ATOM     13  C   UNL     1      10.070  -6.690  41.249  1.00  0.00    -0.080 C 
ATOM     14  C   UNL     1      10.389  -5.217  41.240  1.00  0.00     0.039 C 
ATOM     15  C   UNL     1       8.688  -7.155  40.855  1.00  0.00     0.039 C 
ENDBRANCH  11  12
ENDBRANCH   1  11
TORSDOF 4
ENDMDL
MODEL 8
REMARK VINA RESULT:    -6.459     12.826     15.566
REMARK INTER + INTRA:          -8.466
REMARK INTER:                  -6.886
REMARK INTRA:                  -1.580
REMARK UNBOUND:                -0.497
REMARK SMILES CC(C)=CCC[C@H](C)c1ccc(C)cc1
REMARK SMILES IDX 6 1 7 2 8 3 9 4 13 5 12 6 11 7 14 8 10 9 15 10 5 11 4 12
REMARK SMILES IDX 2 13 1 14 3 15
REMARK H PARENT
REMARK Flexibility Score: inf
ROOT
ATOM      1  C   UNL     1      11.342  -8.511  43.171  1.00  0.00     0.012 C 
ENDROOT
BRANCH   1   2
ATOM      2  C   UNL     1      10.906  -9.168  44.499  1.00  0.00     0.016 C 
ATOM      3  C   UNL     1      11.527 -10.563  44.646  1.00  0.00     0.013 C 
BRANCH   2   4
ATOM      4  C   UNL     1       9.394  -9.240  44.630  1.00  0.00    -0.045 A 
ATOM      5  C   UNL     1       5.104  -9.463  45.082  1.00  0.00     0.044 C 
ATOM      6  C   UNL     1       6.592  -9.396  44.896  1.00  0.00    -0.051 A 
ATOM      7  C   UNL     1       7.398 -10.484  45.256  1.00  0.00     0.004 A 
ATOM      8  C   UNL     1       7.193  -8.218  44.427  1.00  0.00     0.004 A 
ATOM      9  C   UNL     1       8.787 -10.409  45.118  1.00  0.00     0.004 A 
ATOM     10  C   UNL     1       8.581  -8.142  44.290  1.00  0.00     0.004 A 
ENDBRANCH   2   4
ENDBRANCH   1   2
BRANCH   1  11
ATOM     11  C   UNL     1      11.343  -9.510  42.005  1.00  0.00     0.028 C 
BRANCH  11  12
ATOM     12  C   UNL     1      10.095  -9.359  41.171  1.00  0.00    -0.028 C 
ATOM     13  C   UNL     1       9.142 -10.308  41.042  1.00  0.00    -0.080 C 
ATOM     14  C   UNL     1       7.928  -9.998  40.206  1.00  0.00     0.039 C 
ATOM     15  C   UNL     1       9.271 -11.665  41.694  1.00  0.00     0.039 C 
ENDBRANCH  11  12
ENDBRANCH   1  11
TORSDOF 4
ENDMDL
MODEL 9
REMARK VINA RESULT:    -6.324     11.426     14.559
REMARK INTER + INTRA:          -8.300
REMARK INTER:                  -7.196
REMARK INTRA:                  -1.104
REMARK UNBOUND:                -0.497
REMARK SMILES CC(C)=CCC[C@H](C)c1ccc(C)cc1
REMARK SMILES IDX 6 1 7 2 8 3 9 4 13 5 12 6 11 7 14 8 10 9 15 10 5 11 4 12
REMARK SMILES IDX 2 13 1 14 3 15
REMARK H PARENT
REMARK Flexibility Score: inf
ROOT
ATOM      1  C   UNL     1       8.291  -8.187  44.375  1.00  0.00     0.012 C 
ENDROOT
BRANCH   1   2
ATOM      2  C   UNL     1       8.996  -9.520  44.041  1.00  0.00     0.016 C 
ATOM      3  C   UNL     1       8.454 -10.656  44.917  1.00  0.00     0.013 C 
BRANCH   2   4
ATOM      4  C   UNL     1      10.506  -9.414  44.176  1.00  0.00    -0.045 A 
ATOM      5  C   UNL     1      14.801  -9.197  44.578  1.00  0.00     0.044 C 
ATOM      6  C   UNL     1      13.307  -9.243  44.448  1.00  0.00    -0.051 A 
ATOM      7  C   UNL     1      12.521  -9.727  45.504  1.00  0.00     0.004 A 
ATOM      8  C   UNL     1      12.689  -8.869  43.246  1.00  0.00     0.004 A 
ATOM      9  C   UNL     1      11.133  -9.807  45.371  1.00  0.00     0.004 A 
ATOM     10  C   UNL     1      11.301  -8.949  43.112  1.00  0.00     0.004 A 
ENDBRANCH   2   4
ENDBRANCH   1   2
BRANCH   1  11
ATOM     11  C   UNL     1       7.536  -7.614  43.166  1.00  0.00     0.028 C 
BRANCH  11  12
ATOM     12  C   UNL     1       8.393  -6.617  42.425  1.00  0.00    -0.028 C 
ATOM     13  C   UNL     1       8.939  -6.836  41.209  1.00  0.00    -0.080 C 
ATOM     14  C   UNL     1       9.740  -5.730  40.572  1.00  0.00     0.039 C 
ATOM     15  C   UNL     1       8.784  -8.154  40.486  1.00  0.00     0.039 C 
ENDBRANCH  11  12
ENDBRANCH   1  11
TORSDOF 4
ENDMDL
