MODEL 1
REMARK VINA RESULT:    -6.277      0.000      0.000
REMARK INTER + INTRA:          -7.518
REMARK INTER:                  -7.377
REMARK INTRA:                  -0.141
REMARK UNBOUND:                -0.141
REMARK SMILES O=C([O-])C=Cc1ccc(O)c(O)c1
REMARK SMILES IDX 6 1 13 2 7 3 11 4 8 5 9 6 5 7 4 8 2 9 1 10 3 11 12 12 10 14
REMARK H PARENT 12 13 10 15
REMARK Flexibility Score: inf
ROOT
ATOM      1  C   UNL     1      12.217  -5.376 -12.474  1.00  0.00    -0.022 A 
ATOM      2  C   UNL     1      11.981  -6.725 -12.158  1.00  0.00     0.058 A 
ATOM      3  C   UNL     1      11.238  -4.419 -12.139  1.00  0.00     0.012 A 
ATOM      4  C   UNL     1      10.805  -7.111 -11.499  1.00  0.00     0.157 A 
ATOM      5  C   UNL     1      10.066  -4.805 -11.483  1.00  0.00     0.051 A 
ATOM      6  C   UNL     1       9.847  -6.149 -11.159  1.00  0.00     0.157 A 
ENDROOT
BRANCH   1   7
ATOM      7  C   UNL     1      13.472  -5.022 -13.181  1.00  0.00     0.010 C 
ATOM      8  C   UNL     1      13.945  -3.771 -13.276  1.00  0.00     0.025 C 
BRANCH   8   9
ATOM      9  C   UNL     1      15.202  -3.467 -13.978  1.00  0.00     0.064 C 
ATOM     10  O   UNL     1      15.896  -4.407 -14.445  1.00  0.00    -0.545 OA
ATOM     11  O   UNL     1      15.638  -2.156 -14.132  1.00  0.00    -0.545 OA
ENDBRANCH   8   9
ENDBRANCH   1   7
BRANCH   4  12
ATOM     12  O   UNL     1      10.582  -8.450 -11.180  1.00  0.00    -0.504 OA
ATOM     13  H   UNL     1      11.086  -8.908 -10.429  1.00  0.00     0.293 HD
ENDBRANCH   4  12
BRANCH   6  14
ATOM     14  O   UNL     1       8.680  -6.536 -10.503  1.00  0.00    -0.504 OA
ATOM     15  H   UNL     1       8.684  -6.806  -9.527  1.00  0.00     0.293 HD
ENDBRANCH   6  14
TORSDOF 4
ENDMDL
MODEL 2
REMARK VINA RESULT:    -6.210      4.434      6.710
REMARK INTER + INTRA:          -7.441
REMARK INTER:                  -7.308
REMARK INTRA:                  -0.133
REMARK UNBOUND:                -0.141
REMARK SMILES O=C([O-])C=Cc1ccc(O)c(O)c1
REMARK SMILES IDX 6 1 13 2 7 3 11 4 8 5 9 6 5 7 4 8 2 9 1 10 3 11 12 12 10 14
REMARK H PARENT 12 13 10 15
REMARK Flexibility Score: inf
ROOT
ATOM      1  C   UNL     1       6.547  -6.985  -9.631  1.00  0.00    -0.022 A 
ATOM      2  C   UNL     1       5.407  -7.103 -10.446  1.00  0.00     0.058 A 
ATOM      3  C   UNL     1       6.381  -6.616  -8.281  1.00  0.00     0.012 A 
ATOM      4  C   UNL     1       4.126  -6.883  -9.920  1.00  0.00     0.157 A 
ATOM      5  C   UNL     1       5.104  -6.397  -7.759  1.00  0.00     0.051 A 
ATOM      6  C   UNL     1       3.974  -6.532  -8.575  1.00  0.00     0.157 A 
ENDROOT
BRANCH   1   7
ATOM      7  C   UNL     1       7.880  -7.217 -10.238  1.00  0.00     0.010 C 
ATOM      8  C   UNL     1       8.812  -6.263 -10.375  1.00  0.00     0.025 C 
BRANCH   8   9
ATOM      9  C   UNL     1      10.127  -6.541 -10.973  1.00  0.00     0.064 C 
ATOM     10  O   UNL     1      10.503  -7.733 -11.121  1.00  0.00    -0.545 OA
ATOM     11  O   UNL     1      10.965  -5.508 -11.377  1.00  0.00    -0.545 OA
ENDBRANCH   8   9
ENDBRANCH   1   7
BRANCH   4  12
ATOM     12  O   UNL     1       2.999  -7.012 -10.732  1.00  0.00    -0.504 OA
ATOM     13  H   UNL     1       2.499  -6.201 -11.078  1.00  0.00     0.293 HD
ENDBRANCH   4  12
BRANCH   6  14
ATOM     14  O   UNL     1       2.698  -6.315  -8.055  1.00  0.00    -0.504 OA
ATOM     15  H   UNL     1       2.351  -5.381  -7.874  1.00  0.00     0.293 HD
ENDBRANCH   6  14
TORSDOF 4
ENDMDL
MODEL 3
REMARK VINA RESULT:    -6.172      5.971      8.750
REMARK INTER + INTRA:          -7.396
REMARK INTER:                  -7.263
REMARK INTRA:                  -0.133
REMARK UNBOUND:                -0.141
REMARK SMILES O=C([O-])C=Cc1ccc(O)c(O)c1
REMARK SMILES IDX 6 1 13 2 7 3 11 4 8 5 9 6 5 7 4 8 2 9 1 10 3 11 12 12 10 14
REMARK H PARENT 12 13 10 15
REMARK Flexibility Score: inf
ROOT
ATOM      1  C   UNL     1       4.476  -6.257  -9.080  1.00  0.00    -0.022 A 
ATOM      2  C   UNL     1       4.685  -5.129  -8.268  1.00  0.00     0.058 A 
ATOM      3  C   UNL     1       3.155  -6.623  -9.407  1.00  0.00     0.012 A 
ATOM      4  C   UNL     1       3.601  -4.366  -7.810  1.00  0.00     0.157 A 
ATOM      5  C   UNL     1       2.076  -5.862  -8.950  1.00  0.00     0.051 A 
ATOM      6  C   UNL     1       2.295  -4.731  -8.153  1.00  0.00     0.157 A 
ENDROOT
BRANCH   1   7
ATOM      7  C   UNL     1       5.656  -7.036  -9.529  1.00  0.00     0.010 C 
ATOM      8  C   UNL     1       6.834  -6.484  -9.850  1.00  0.00     0.025 C 
BRANCH   8   9
ATOM      9  C   UNL     1       7.983  -7.298 -10.279  1.00  0.00     0.064 C 
ATOM     10  O   UNL     1       7.877  -8.551 -10.315  1.00  0.00    -0.545 OA
ATOM     11  O   UNL     1       9.185  -6.704 -10.646  1.00  0.00    -0.545 OA
ENDBRANCH   8   9
ENDBRANCH   1   7
BRANCH   4  12
ATOM     12  O   UNL     1       3.817  -3.242  -7.012  1.00  0.00    -0.504 OA
ATOM     13  H   UNL     1       4.701  -2.748  -7.020  1.00  0.00     0.293 HD
ENDBRANCH   4  12
BRANCH   6  14
ATOM     14  O   UNL     1       1.220  -3.970  -7.698  1.00  0.00    -0.504 OA
ATOM     15  H   UNL     1       1.248  -2.957  -7.702  1.00  0.00     0.293 HD
ENDBRANCH   6  14
TORSDOF 4
ENDMDL
MODEL 4
REMARK VINA RESULT:    -6.131      7.361     11.245
REMARK INTER + INTRA:          -7.347
REMARK INTER:                  -7.219
REMARK INTRA:                  -0.128
REMARK UNBOUND:                -0.141
REMARK SMILES O=C([O-])C=Cc1ccc(O)c(O)c1
REMARK SMILES IDX 6 1 13 2 7 3 11 4 8 5 9 6 5 7 4 8 2 9 1 10 3 11 12 12 10 14
REMARK H PARENT 12 13 10 15
REMARK Flexibility Score: inf
ROOT
ATOM      1  C   UNL     1       3.203  -6.666  -8.987  1.00  0.00    -0.022 A 
ATOM      2  C   UNL     1       4.316  -6.536  -8.138  1.00  0.00     0.058 A 
ATOM      3  C   UNL     1       3.419  -6.913 -10.358  1.00  0.00     0.012 A 
ATOM      4  C   UNL     1       5.619  -6.674  -8.640  1.00  0.00     0.157 A 
ATOM      5  C   UNL     1       4.717  -7.050 -10.856  1.00  0.00     0.051 A 
ATOM      6  C   UNL     1       5.819  -6.934 -10.000  1.00  0.00     0.157 A 
ENDROOT
BRANCH   1   7
ATOM      7  C   UNL     1       1.847  -6.500  -8.409  1.00  0.00     0.010 C 
ATOM      8  C   UNL     1       1.151  -5.356  -8.463  1.00  0.00     0.025 C 
BRANCH   8   9
ATOM      9  C   UNL     1      -0.198  -5.239  -7.886  1.00  0.00     0.064 C 
ATOM     10  O   UNL     1      -0.497  -4.223  -7.207  1.00  0.00    -0.545 OA
ATOM     11  O   UNL     1      -1.149  -6.235  -8.077  1.00  0.00    -0.545 OA
ENDBRANCH   8   9
ENDBRANCH   1   7
BRANCH   4  12
ATOM     12  O   UNL     1       6.718  -6.554  -7.790  1.00  0.00    -0.504 OA
ATOM     13  H   UNL     1       6.949  -5.674  -7.344  1.00  0.00     0.293 HD
ENDBRANCH   4  12
BRANCH   6  14
ATOM     14  O   UNL     1       7.115  -7.072 -10.495  1.00  0.00    -0.504 OA
ATOM     15  H   UNL     1       7.526  -7.984 -10.658  1.00  0.00     0.293 HD
ENDBRANCH   6  14
TORSDOF 4
ENDMDL
MODEL 5
REMARK VINA RESULT:    -6.117      1.768      6.060
REMARK INTER + INTRA:          -7.331
REMARK INTER:                  -7.195
REMARK INTRA:                  -0.135
REMARK UNBOUND:                -0.141
REMARK SMILES O=C([O-])C=Cc1ccc(O)c(O)c1
REMARK SMILES IDX 6 1 13 2 7 3 11 4 8 5 9 6 5 7 4 8 2 9 1 10 3 11 12 12 10 14
REMARK H PARENT 12 13 10 15
REMARK Flexibility Score: inf
ROOT
ATOM      1  C   UNL     1      10.986  -5.679 -11.405  1.00  0.00    -0.022 A 
ATOM      2  C   UNL     1      11.783  -6.135 -12.470  1.00  0.00     0.058 A 
ATOM      3  C   UNL     1      11.207  -4.384 -10.897  1.00  0.00     0.012 A 
ATOM      4  C   UNL     1      12.764  -5.306 -13.035  1.00  0.00     0.157 A 
ATOM      5  C   UNL     1      12.185  -3.560 -11.461  1.00  0.00     0.051 A 
ATOM      6  C   UNL     1      12.963  -4.017 -12.531  1.00  0.00     0.157 A 
ENDROOT
BRANCH   1   7
ATOM      7  C   UNL     1       9.970  -6.599 -10.837  1.00  0.00     0.010 C 
ATOM      8  C   UNL     1       8.734  -6.217 -10.488  1.00  0.00     0.025 C 
BRANCH   8   9
ATOM      9  C   UNL     1       7.753  -7.166  -9.938  1.00  0.00     0.064 C 
ATOM     10  O   UNL     1       7.764  -8.364 -10.323  1.00  0.00    -0.545 OA
ATOM     11  O   UNL     1       6.811  -6.761  -8.999  1.00  0.00    -0.545 OA
ENDBRANCH   8   9
ENDBRANCH   1   7
BRANCH   4  12
ATOM     12  O   UNL     1      13.544  -5.761 -14.098  1.00  0.00    -0.504 OA
ATOM     13  H   UNL     1      13.134  -6.245 -14.888  1.00  0.00     0.293 HD
ENDBRANCH   4  12
BRANCH   6  14
ATOM     14  O   UNL     1      13.938  -3.196 -13.096  1.00  0.00    -0.504 OA
ATOM     15  H   UNL     1      13.693  -2.363 -13.617  1.00  0.00     0.293 HD
ENDBRANCH   6  14
TORSDOF 4
ENDMDL
MODEL 6
REMARK VINA RESULT:    -6.106      4.529      6.759
REMARK INTER + INTRA:          -7.318
REMARK INTER:                  -7.188
REMARK INTRA:                  -0.130
REMARK UNBOUND:                -0.141
REMARK SMILES O=C([O-])C=Cc1ccc(O)c(O)c1
REMARK SMILES IDX 6 1 13 2 7 3 11 4 8 5 9 6 5 7 4 8 2 9 1 10 3 11 12 12 10 14
REMARK H PARENT 12 13 10 15
REMARK Flexibility Score: inf
ROOT
ATOM      1  C   UNL     1       6.393  -6.792  -9.819  1.00  0.00    -0.022 A 
ATOM      2  C   UNL     1       5.883  -6.626  -8.519  1.00  0.00     0.058 A 
ATOM      3  C   UNL     1       5.491  -6.999 -10.881  1.00  0.00     0.012 A 
ATOM      4  C   UNL     1       4.500  -6.641  -8.286  1.00  0.00     0.157 A 
ATOM      5  C   UNL     1       4.114  -7.015 -10.647  1.00  0.00     0.051 A 
ATOM      6  C   UNL     1       3.614  -6.833  -9.352  1.00  0.00     0.157 A 
ENDROOT
BRANCH   1   7
ATOM      7  C   UNL     1       7.864  -6.779 -10.010  1.00  0.00     0.010 C 
ATOM      8  C   UNL     1       8.528  -5.780 -10.609  1.00  0.00     0.025 C 
BRANCH   8   9
ATOM      9  C   UNL     1       9.991  -5.803 -10.766  1.00  0.00     0.064 C 
ATOM     10  O   UNL     1      10.540  -6.790 -11.322  1.00  0.00    -0.545 OA
ATOM     11  O   UNL     1      10.778  -4.753 -10.310  1.00  0.00    -0.545 OA
ENDBRANCH   8   9
ENDBRANCH   1   7
BRANCH   4  12
ATOM     12  O   UNL     1       4.000  -6.466  -6.996  1.00  0.00    -0.504 OA
ATOM     13  H   UNL     1       3.009  -6.349  -6.823  1.00  0.00     0.293 HD
ENDBRANCH   4  12
BRANCH   6  14
ATOM     14  O   UNL     1       2.240  -6.846  -9.117  1.00  0.00    -0.504 OA
ATOM     15  H   UNL     1       1.604  -6.277  -9.661  1.00  0.00     0.293 HD
ENDBRANCH   6  14
TORSDOF 4
ENDMDL
MODEL 7
REMARK VINA RESULT:    -6.072      0.858      1.856
REMARK INTER + INTRA:          -7.278
REMARK INTER:                  -7.148
REMARK INTRA:                  -0.130
REMARK UNBOUND:                -0.141
REMARK SMILES O=C([O-])C=Cc1ccc(O)c(O)c1
REMARK SMILES IDX 6 1 13 2 7 3 11 4 8 5 9 6 5 7 4 8 2 9 1 10 3 11 12 12 10 14
REMARK H PARENT 12 13 10 15
REMARK Flexibility Score: inf
ROOT
ATOM      1  C   UNL     1      12.055  -5.536 -12.555  1.00  0.00    -0.022 A 
ATOM      2  C   UNL     1      10.907  -4.724 -12.586  1.00  0.00     0.058 A 
ATOM      3  C   UNL     1      12.048  -6.691 -11.748  1.00  0.00     0.012 A 
ATOM      4  C   UNL     1       9.766  -5.069 -11.848  1.00  0.00     0.157 A 
ATOM      5  C   UNL     1      10.910  -7.033 -11.012  1.00  0.00     0.051 A 
ATOM      6  C   UNL     1       9.767  -6.226 -11.061  1.00  0.00     0.157 A 
ENDROOT
BRANCH   1   7
ATOM      7  C   UNL     1      13.239  -5.120 -13.346  1.00  0.00     0.010 C 
ATOM      8  C   UNL     1      13.895  -3.967 -13.154  1.00  0.00     0.025 C 
BRANCH   8   9
ATOM      9  C   UNL     1      15.074  -3.600 -13.955  1.00  0.00     0.064 C 
ATOM     10  O   UNL     1      15.770  -4.505 -14.485  1.00  0.00    -0.545 OA
ATOM     11  O   UNL     1      15.433  -2.270 -14.135  1.00  0.00    -0.545 OA
ENDBRANCH   8   9
ENDBRANCH   1   7
BRANCH   4  12
ATOM     12  O   UNL     1       8.628  -4.264 -11.891  1.00  0.00    -0.504 OA
ATOM     13  H   UNL     1       8.374  -3.663 -11.116  1.00  0.00     0.293 HD
ENDBRANCH   4  12
BRANCH   6  14
ATOM     14  O   UNL     1       8.631  -6.567 -10.330  1.00  0.00    -0.504 OA
ATOM     15  H   UNL     1       8.045  -5.861  -9.899  1.00  0.00     0.293 HD
ENDBRANCH   6  14
TORSDOF 4
ENDMDL
MODEL 8
REMARK VINA RESULT:    -5.954      7.755     11.397
REMARK INTER + INTRA:          -7.140
REMARK INTER:                  -7.011
REMARK INTRA:                  -0.129
REMARK UNBOUND:                -0.141
REMARK SMILES O=C([O-])C=Cc1ccc(O)c(O)c1
REMARK SMILES IDX 6 1 13 2 7 3 11 4 8 5 9 6 5 7 4 8 2 9 1 10 3 11 12 12 10 14
REMARK H PARENT 12 13 10 15
REMARK Flexibility Score: inf
ROOT
ATOM      1  C   UNL     1       3.002  -6.366  -8.649  1.00  0.00    -0.022 A 
ATOM      2  C   UNL     1       3.520  -6.989  -9.798  1.00  0.00     0.058 A 
ATOM      3  C   UNL     1       3.895  -5.934  -7.649  1.00  0.00     0.012 A 
ATOM      4  C   UNL     1       4.903  -7.156  -9.959  1.00  0.00     0.157 A 
ATOM      5  C   UNL     1       5.273  -6.100  -7.811  1.00  0.00     0.051 A 
ATOM      6  C   UNL     1       5.781  -6.709  -8.966  1.00  0.00     0.157 A 
ENDROOT
BRANCH   1   7
ATOM      7  C   UNL     1       1.530  -6.224  -8.522  1.00  0.00     0.010 C 
ATOM      8  C   UNL     1       0.890  -5.047  -8.564  1.00  0.00     0.025 C 
BRANCH   8   9
ATOM      9  C   UNL     1      -0.574  -4.954  -8.445  1.00  0.00     0.064 C 
ATOM     10  O   UNL     1      -1.136  -3.835  -8.565  1.00  0.00    -0.545 OA
ATOM     11  O   UNL     1      -1.347  -6.083  -8.201  1.00  0.00    -0.545 OA
ENDBRANCH   8   9
ENDBRANCH   1   7
BRANCH   4  12
ATOM     12  O   UNL     1       5.411  -7.766 -11.106  1.00  0.00    -0.504 OA
ATOM     13  H   UNL     1       4.998  -8.611 -11.484  1.00  0.00     0.293 HD
ENDBRANCH   4  12
BRANCH   6  14
ATOM     14  O   UNL     1       7.155  -6.875  -9.130  1.00  0.00    -0.504 OA
ATOM     15  H   UNL     1       7.533  -7.566  -9.766  1.00  0.00     0.293 HD
ENDBRANCH   6  14
TORSDOF 4
ENDMDL
MODEL 9
REMARK VINA RESULT:    -5.881      2.487      6.624
REMARK INTER + INTRA:          -7.054
REMARK INTER:                  -6.925
REMARK INTRA:                  -0.128
REMARK UNBOUND:                -0.141
REMARK SMILES O=C([O-])C=Cc1ccc(O)c(O)c1
REMARK SMILES IDX 6 1 13 2 7 3 11 4 8 5 9 6 5 7 4 8 2 9 1 10 3 11 12 12 10 14
REMARK H PARENT 12 13 10 15
REMARK Flexibility Score: inf
ROOT
ATOM      1  C   UNL     1      10.100  -6.429 -11.026  1.00  0.00    -0.022 A 
ATOM      2  C   UNL     1      10.485  -5.088 -10.859  1.00  0.00     0.058 A 
ATOM      3  C   UNL     1      10.875  -7.260 -11.860  1.00  0.00     0.012 A 
ATOM      4  C   UNL     1      11.634  -4.589 -11.490  1.00  0.00     0.157 A 
ATOM      5  C   UNL     1      12.019  -6.762 -12.488  1.00  0.00     0.051 A 
ATOM      6  C   UNL     1      12.403  -5.428 -12.304  1.00  0.00     0.157 A 
ENDROOT
BRANCH   1   7
ATOM      7  C   UNL     1       8.870  -6.904 -10.345  1.00  0.00     0.010 C 
ATOM      8  C   UNL     1       7.714  -6.226 -10.339  1.00  0.00     0.025 C 
BRANCH   8   9
ATOM      9  C   UNL     1       6.514  -6.741  -9.660  1.00  0.00     0.064 C 
ATOM     10  O   UNL     1       5.575  -7.228 -10.342  1.00  0.00    -0.545 OA
ATOM     11  O   UNL     1       6.399  -6.698  -8.275  1.00  0.00    -0.545 OA
ENDBRANCH   8   9
ENDBRANCH   1   7
BRANCH   4  12
ATOM     12  O   UNL     1      12.015  -3.260 -11.313  1.00  0.00    -0.504 OA
ATOM     13  H   UNL     1      11.635  -2.517 -11.888  1.00  0.00     0.293 HD
ENDBRANCH   4  12
BRANCH   6  14
ATOM     14  O   UNL     1      13.544  -4.930 -12.929  1.00  0.00    -0.504 OA
ATOM     15  H   UNL     1      14.059  -4.145 -12.547  1.00  0.00     0.293 HD
ENDBRANCH   6  14
TORSDOF 4
ENDMDL
