MODEL 1
REMARK VINA RESULT:    -3.974      0.000      0.000
REMARK INTER + INTRA:          -4.896
REMARK INTER:                  -4.554
REMARK INTRA:                  -0.342
REMARK UNBOUND:                -0.342
REMARK SMILES COc1ccc(C(C)=O)c(O)c1
REMARK SMILES IDX 6 1 10 2 12 3 3 4 4 5 5 6 7 7 8 8 9 9 11 10 2 12 1 13
REMARK H PARENT 11 11
REMARK Flexibility Score: inf
ROOT
ATOM      1  C   UNL     1      40.485 -39.880  -4.543  1.00  0.00     0.059 A 
ATOM      2  C   UNL     1      41.722 -39.492  -3.975  1.00  0.00     0.130 A 
ATOM      3  C   UNL     1      42.899 -40.176  -4.313  1.00  0.00     0.093 A 
ATOM      4  C   UNL     1      42.868 -41.249  -5.221  1.00  0.00     0.122 A 
ATOM      5  C   UNL     1      41.650 -41.628  -5.784  1.00  0.00     0.047 A 
ATOM      6  C   UNL     1      40.471 -40.957  -5.452  1.00  0.00     0.019 A 
ENDROOT
BRANCH   1   7
ATOM      7  C   UNL     1      39.218 -39.178  -4.192  1.00  0.00     0.163 C 
ATOM      8  C   UNL     1      38.343 -38.559  -5.241  1.00  0.00     0.093 C 
ATOM      9  O   UNL     1      38.840 -39.115  -2.991  1.00  0.00    -0.294 OA
ENDBRANCH   1   7
BRANCH   2  10
ATOM     10  O   UNL     1      41.788 -38.421  -3.081  1.00  0.00    -0.507 OA
ATOM     11  H   UNL     1      41.097 -38.293  -2.350  1.00  0.00     0.293 HD
ENDBRANCH   2  10
BRANCH   4  12
ATOM     12  O   UNL     1      44.022 -41.959  -5.588  1.00  0.00    -0.497 OA
ATOM     13  C   UNL     1      44.125 -42.787  -6.742  1.00  0.00     0.278 C 
ENDBRANCH   4  12
TORSDOF 3
ENDMDL
MODEL 2
REMARK VINA RESULT:    -3.898     18.128     18.997
REMARK INTER + INTRA:          -4.810
REMARK INTER:                  -4.512
REMARK INTRA:                  -0.298
REMARK UNBOUND:                -0.342
REMARK SMILES COc1ccc(C(C)=O)c(O)c1
REMARK SMILES IDX 6 1 10 2 12 3 3 4 4 5 5 6 7 7 8 8 9 9 11 10 2 12 1 13
REMARK H PARENT 11 11
REMARK Flexibility Score: inf
ROOT
ATOM      1  C   UNL     1      28.715 -30.518   4.776  1.00  0.00     0.059 A 
ATOM      2  C   UNL     1      28.907 -30.077   3.445  1.00  0.00     0.130 A 
ATOM      3  C   UNL     1      27.992 -30.438   2.444  1.00  0.00     0.093 A 
ATOM      4  C   UNL     1      26.875 -31.236   2.748  1.00  0.00     0.122 A 
ATOM      5  C   UNL     1      26.685 -31.667   4.061  1.00  0.00     0.047 A 
ATOM      6  C   UNL     1      27.590 -31.316   5.065  1.00  0.00     0.019 A 
ENDROOT
BRANCH   1   7
ATOM      7  C   UNL     1      29.678 -30.159   5.857  1.00  0.00     0.163 C 
ATOM      8  C   UNL     1      29.288 -29.259   6.992  1.00  0.00     0.093 C 
ATOM      9  O   UNL     1      30.845 -30.634   5.850  1.00  0.00    -0.294 OA
ENDBRANCH   1   7
BRANCH   2  10
ATOM     10  O   UNL     1      29.998 -29.272   3.114  1.00  0.00    -0.507 OA
ATOM     11  H   UNL     1      29.878 -28.357   2.695  1.00  0.00     0.293 HD
ENDBRANCH   2  10
BRANCH   4  12
ATOM     12  O   UNL     1      25.936 -31.619   1.778  1.00  0.00    -0.497 OA
ATOM     13  C   UNL     1      24.783 -30.859   1.430  1.00  0.00     0.278 C 
ENDBRANCH   4  12
TORSDOF 3
ENDMDL
MODEL 3
REMARK VINA RESULT:    -3.856      1.849      4.670
REMARK INTER + INTRA:          -4.761
REMARK INTER:                  -4.423
REMARK INTRA:                  -0.338
REMARK UNBOUND:                -0.342
REMARK SMILES COc1ccc(C(C)=O)c(O)c1
REMARK SMILES IDX 6 1 10 2 12 3 3 4 4 5 5 6 7 7 8 8 9 9 11 10 2 12 1 13
REMARK H PARENT 11 11
REMARK Flexibility Score: inf
ROOT
ATOM      1  C   UNL     1      41.137 -40.541  -4.335  1.00  0.00     0.059 A 
ATOM      2  C   UNL     1      40.407 -40.555  -3.122  1.00  0.00     0.130 A 
ATOM      3  C   UNL     1      39.006 -40.612  -3.143  1.00  0.00     0.093 A 
ATOM      4  C   UNL     1      38.309 -40.660  -4.364  1.00  0.00     0.122 A 
ATOM      5  C   UNL     1      39.029 -40.650  -5.558  1.00  0.00     0.047 A 
ATOM      6  C   UNL     1      40.424 -40.591  -5.549  1.00  0.00     0.019 A 
ENDROOT
BRANCH   1   7
ATOM      7  C   UNL     1      42.626 -40.470  -4.341  1.00  0.00     0.163 C 
ATOM      8  C   UNL     1      43.457 -41.403  -5.170  1.00  0.00     0.093 C 
ATOM      9  O   UNL     1      43.221 -39.591  -3.660  1.00  0.00    -0.294 OA
ENDBRANCH   1   7
BRANCH   2  10
ATOM     10  O   UNL     1      41.070 -40.523  -1.894  1.00  0.00    -0.507 OA
ATOM     11  H   UNL     1      40.575 -40.643  -1.017  1.00  0.00     0.293 HD
ENDBRANCH   2  10
BRANCH   4  12
ATOM     12  O   UNL     1      36.908 -40.719  -4.430  1.00  0.00    -0.497 OA
ATOM     13  C   UNL     1      36.031 -39.970  -3.595  1.00  0.00     0.278 C 
ENDBRANCH   4  12
TORSDOF 3
ENDMDL
MODEL 4
REMARK VINA RESULT:    -3.843      2.050      3.068
REMARK INTER + INTRA:          -4.747
REMARK INTER:                  -4.407
REMARK INTRA:                  -0.340
REMARK UNBOUND:                -0.342
REMARK SMILES COc1ccc(C(C)=O)c(O)c1
REMARK SMILES IDX 6 1 10 2 12 3 3 4 4 5 5 6 7 7 8 8 9 9 11 10 2 12 1 13
REMARK H PARENT 11 11
REMARK Flexibility Score: inf
ROOT
ATOM      1  C   UNL     1      39.267 -40.491  -4.513  1.00  0.00     0.059 A 
ATOM      2  C   UNL     1      39.315 -40.366  -3.104  1.00  0.00     0.130 A 
ATOM      3  C   UNL     1      40.550 -40.354  -2.438  1.00  0.00     0.093 A 
ATOM      4  C   UNL     1      41.753 -40.461  -3.159  1.00  0.00     0.122 A 
ATOM      5  C   UNL     1      41.705 -40.580  -4.548  1.00  0.00     0.047 A 
ATOM      6  C   UNL     1      40.481 -40.596  -5.220  1.00  0.00     0.019 A 
ENDROOT
BRANCH   1   7
ATOM      7  C   UNL     1      37.968 -40.518  -5.244  1.00  0.00     0.163 C 
ATOM      8  C   UNL     1      37.734 -39.681  -6.466  1.00  0.00     0.093 C 
ATOM      9  O   UNL     1      37.039 -41.277  -4.857  1.00  0.00    -0.294 OA
ENDBRANCH   1   7
BRANCH   2  10
ATOM     10  O   UNL     1      38.139 -40.243  -2.362  1.00  0.00    -0.507 OA
ATOM     11  H   UNL     1      37.682 -41.049  -1.949  1.00  0.00     0.293 HD
ENDBRANCH   2  10
BRANCH   4  12
ATOM     12  O   UNL     1      43.009 -40.452  -2.532  1.00  0.00    -0.497 OA
ATOM     13  C   UNL     1      43.212 -40.620  -1.133  1.00  0.00     0.278 C 
ENDBRANCH   4  12
TORSDOF 3
ENDMDL
MODEL 5
REMARK VINA RESULT:    -3.647      2.515      4.004
REMARK INTER + INTRA:          -4.521
REMARK INTER:                  -4.184
REMARK INTRA:                  -0.337
REMARK UNBOUND:                -0.342
REMARK SMILES COc1ccc(C(C)=O)c(O)c1
REMARK SMILES IDX 6 1 10 2 12 3 3 4 4 5 5 6 7 7 8 8 9 9 11 10 2 12 1 13
REMARK H PARENT 11 11
REMARK Flexibility Score: inf
ROOT
ATOM      1  C   UNL     1      41.139 -40.497  -3.924  1.00  0.00     0.059 A 
ATOM      2  C   UNL     1      42.498 -40.157  -3.720  1.00  0.00     0.130 A 
ATOM      3  C   UNL     1      42.964 -39.861  -2.430  1.00  0.00     0.093 A 
ATOM      4  C   UNL     1      42.094 -39.902  -1.326  1.00  0.00     0.122 A 
ATOM      5  C   UNL     1      40.756 -40.241  -1.528  1.00  0.00     0.047 A 
ATOM      6  C   UNL     1      40.280 -40.535  -2.807  1.00  0.00     0.019 A 
ENDROOT
BRANCH   1   7
ATOM      7  C   UNL     1      40.615 -40.805  -5.285  1.00  0.00     0.163 C 
ATOM      8  C   UNL     1      39.410 -40.106  -5.842  1.00  0.00     0.093 C 
ATOM      9  O   UNL     1      41.201 -41.651  -6.013  1.00  0.00    -0.294 OA
ENDBRANCH   1   7
BRANCH   2  10
ATOM     10  O   UNL     1      43.390 -40.121  -4.792  1.00  0.00    -0.507 OA
ATOM     11  H   UNL     1      43.211 -39.559  -5.617  1.00  0.00     0.293 HD
ENDBRANCH   2  10
BRANCH   4  12
ATOM     12  O   UNL     1      42.520 -39.615  -0.020  1.00  0.00    -0.497 OA
ATOM     13  C   UNL     1      43.265 -40.510   0.799  1.00  0.00     0.278 C 
ENDBRANCH   4  12
TORSDOF 3
ENDMDL
MODEL 6
REMARK VINA RESULT:    -3.599      3.000      4.471
REMARK INTER + INTRA:          -4.467
REMARK INTER:                  -4.138
REMARK INTRA:                  -0.329
REMARK UNBOUND:                -0.342
REMARK SMILES COc1ccc(C(C)=O)c(O)c1
REMARK SMILES IDX 6 1 10 2 12 3 3 4 4 5 5 6 7 7 8 8 9 9 11 10 2 12 1 13
REMARK H PARENT 11 11
REMARK Flexibility Score: inf
ROOT
ATOM      1  C   UNL     1      41.179 -40.414  -3.145  1.00  0.00     0.059 A 
ATOM      2  C   UNL     1      40.299 -40.707  -2.076  1.00  0.00     0.130 A 
ATOM      3  C   UNL     1      40.798 -40.857  -0.773  1.00  0.00     0.093 A 
ATOM      4  C   UNL     1      42.171 -40.715  -0.511  1.00  0.00     0.122 A 
ATOM      5  C   UNL     1      43.038 -40.423  -1.565  1.00  0.00     0.047 A 
ATOM      6  C   UNL     1      42.553 -40.274  -2.866  1.00  0.00     0.019 A 
ENDROOT
BRANCH   1   7
ATOM      7  C   UNL     1      40.677 -40.260  -4.540  1.00  0.00     0.163 C 
ATOM      8  C   UNL     1      41.096 -41.195  -5.636  1.00  0.00     0.093 C 
ATOM      9  O   UNL     1      39.857 -39.345  -4.822  1.00  0.00    -0.294 OA
ENDBRANCH   1   7
BRANCH   2  10
ATOM     10  O   UNL     1      38.928 -40.840  -2.301  1.00  0.00    -0.507 OA
ATOM     11  H   UNL     1      38.314 -41.271  -1.619  1.00  0.00     0.293 HD
ENDBRANCH   2  10
BRANCH   4  12
ATOM     12  O   UNL     1      42.711 -40.857   0.777  1.00  0.00    -0.497 OA
ATOM     13  C   UNL     1      43.443 -39.843   1.459  1.00  0.00     0.278 C 
ENDBRANCH   4  12
TORSDOF 3
ENDMDL
MODEL 7
REMARK VINA RESULT:    -3.577      1.345      2.194
REMARK INTER + INTRA:          -4.442
REMARK INTER:                  -4.108
REMARK INTRA:                  -0.334
REMARK UNBOUND:                -0.342
REMARK SMILES COc1ccc(C(C)=O)c(O)c1
REMARK SMILES IDX 6 1 10 2 12 3 3 4 4 5 5 6 7 7 8 8 9 9 11 10 2 12 1 13
REMARK H PARENT 11 11
REMARK Flexibility Score: inf
ROOT
ATOM      1  C   UNL     1      40.715 -39.456  -4.020  1.00  0.00     0.059 A 
ATOM      2  C   UNL     1      40.562 -40.411  -5.053  1.00  0.00     0.130 A 
ATOM      3  C   UNL     1      41.646 -41.216  -5.436  1.00  0.00     0.093 A 
ATOM      4  C   UNL     1      42.893 -41.088  -4.800  1.00  0.00     0.122 A 
ATOM      5  C   UNL     1      43.042 -40.149  -3.779  1.00  0.00     0.047 A 
ATOM      6  C   UNL     1      41.971 -39.341  -3.391  1.00  0.00     0.019 A 
ENDROOT
BRANCH   1   7
ATOM      7  C   UNL     1      39.583 -38.581  -3.601  1.00  0.00     0.163 C 
ATOM      8  C   UNL     1      39.299 -38.298  -2.155  1.00  0.00     0.093 C 
ATOM      9  O   UNL     1      38.851 -38.032  -4.469  1.00  0.00    -0.294 OA
ENDBRANCH   1   7
BRANCH   2  10
ATOM     10  O   UNL     1      39.332 -40.572  -5.694  1.00  0.00    -0.507 OA
ATOM     11  H   UNL     1      38.459 -40.318  -5.246  1.00  0.00     0.293 HD
ENDBRANCH   2  10
BRANCH   4  12
ATOM     12  O   UNL     1      44.002 -41.873  -5.151  1.00  0.00    -0.497 OA
ATOM     13  C   UNL     1      44.125 -42.590  -6.376  1.00  0.00     0.278 C 
ENDBRANCH   4  12
TORSDOF 3
ENDMDL
MODEL 8
REMARK VINA RESULT:    -3.483      2.207      4.754
REMARK INTER + INTRA:          -4.334
REMARK INTER:                  -4.032
REMARK INTRA:                  -0.302
REMARK UNBOUND:                -0.342
REMARK SMILES COc1ccc(C(C)=O)c(O)c1
REMARK SMILES IDX 6 1 10 2 12 3 3 4 4 5 5 6 7 7 8 8 9 9 11 10 2 12 1 13
REMARK H PARENT 11 11
REMARK Flexibility Score: inf
ROOT
ATOM      1  C   UNL     1      42.147 -40.438  -4.104  1.00  0.00     0.059 A 
ATOM      2  C   UNL     1      41.053 -39.545  -4.014  1.00  0.00     0.130 A 
ATOM      3  C   UNL     1      40.870 -38.770  -2.858  1.00  0.00     0.093 A 
ATOM      4  C   UNL     1      41.769 -38.866  -1.781  1.00  0.00     0.122 A 
ATOM      5  C   UNL     1      42.849 -39.743  -1.873  1.00  0.00     0.047 A 
ATOM      6  C   UNL     1      43.040 -40.522  -3.017  1.00  0.00     0.019 A 
ENDROOT
BRANCH   1   7
ATOM      7  C   UNL     1      42.359 -41.281  -5.316  1.00  0.00     0.163 C 
ATOM      8  C   UNL     1      43.728 -41.731  -5.734  1.00  0.00     0.093 C 
ATOM      9  O   UNL     1      41.373 -41.660  -6.004  1.00  0.00    -0.294 OA
ENDBRANCH   1   7
BRANCH   2  10
ATOM     10  O   UNL     1      40.152 -39.416  -5.071  1.00  0.00    -0.507 OA
ATOM     11  H   UNL     1      40.416 -39.629  -6.027  1.00  0.00     0.293 HD
ENDBRANCH   2  10
BRANCH   4  12
ATOM     12  O   UNL     1      41.623 -38.108  -0.609  1.00  0.00    -0.497 OA
ATOM     13  C   UNL     1      42.574 -37.156  -0.142  1.00  0.00     0.278 C 
ENDBRANCH   4  12
TORSDOF 3
ENDMDL
