MODEL 1
REMARK VINA RESULT:    -4.909      0.000      0.000
REMARK INTER + INTRA:          -9.576
REMARK INTER:                  -8.640
REMARK INTRA:                  -0.936
REMARK UNBOUND:                -0.936
REMARK SMILES CCCCCCCCCCCCCCC(=O)[O-]
REMARK SMILES IDX 9 1 10 2 11 3 12 4 13 5 14 6 15 7 16 8 17 9 8 10 7 11 6 12
REMARK SMILES IDX 5 13 4 14 3 15 2 16 1 17
REMARK H PARENT
REMARK Flexibility Score: inf
ROOT
ATOM      1  C   UNL     1       0.019  -1.977   9.941  1.00  0.00     0.000 C 
ENDROOT
BRANCH   1   2
ATOM      2  C   UNL     1       0.188  -0.591   9.295  1.00  0.00     0.000 C 
BRANCH   2   3
ATOM      3  C   UNL     1      -1.143  -0.006   8.796  1.00  0.00     0.000 C 
BRANCH   3   4
ATOM      4  C   UNL     1      -1.171   0.191   7.270  1.00  0.00     0.000 C 
BRANCH   4   5
ATOM      5  C   UNL     1      -1.256  -1.137   6.494  1.00  0.00     0.006 C 
BRANCH   5   6
ATOM      6  C   UNL     1      -1.459  -0.961   4.980  1.00  0.00     0.053 C 
BRANCH   6   7
ATOM      7  C   UNL     1      -1.483  -2.269   4.248  1.00  0.00     0.041 C 
ATOM      8  O   UNL     1      -1.416  -2.291   2.990  1.00  0.00    -0.550 OA
ATOM      9  O   UNL     1      -1.543  -3.464   4.953  1.00  0.00    -0.550 OA
ENDBRANCH   6   7
ENDBRANCH   5   6
ENDBRANCH   4   5
ENDBRANCH   3   4
ENDBRANCH   2   3
ENDBRANCH   1   2
BRANCH   1  10
ATOM     10  C   UNL     1       1.339  -2.763  10.003  1.00  0.00     0.000 C 
BRANCH  10  11
ATOM     11  C   UNL     1       1.168  -4.243   9.617  1.00  0.00    -0.000 C 
BRANCH  11  12
ATOM     12  C   UNL     1       0.033  -4.464   8.605  1.00  0.00    -0.000 C 
BRANCH  12  13
ATOM     13  C   UNL     1       0.354  -5.581   7.595  1.00  0.00    -0.000 C 
BRANCH  13  14
ATOM     14  C   UNL     1      -0.912  -6.233   7.015  1.00  0.00    -0.000 C 
BRANCH  14  15
ATOM     15  C   UNL     1      -1.118  -7.672   7.508  1.00  0.00    -0.000 C 
BRANCH  15  16
ATOM     16  C   UNL     1      -2.128  -7.716   8.663  1.00  0.00    -0.003 C 
ATOM     17  C   UNL     1      -3.562  -7.691   8.143  1.00  0.00     0.004 C 
ENDBRANCH  15  16
ENDBRANCH  14  15
ENDBRANCH  13  14
ENDBRANCH  12  13
ENDBRANCH  11  12
ENDBRANCH  10  11
ENDBRANCH   1  10
TORSDOF 13
ENDMDL
MODEL 2
REMARK VINA RESULT:    -4.853      3.820      6.105
REMARK INTER + INTRA:          -9.477
REMARK INTER:                  -8.806
REMARK INTRA:                  -0.671
REMARK UNBOUND:                -0.936
REMARK SMILES CCCCCCCCCCCCCCC(=O)[O-]
REMARK SMILES IDX 9 1 10 2 11 3 12 4 13 5 14 6 15 7 16 8 17 9 8 10 7 11 6 12
REMARK SMILES IDX 5 13 4 14 3 15 2 16 1 17
REMARK H PARENT
REMARK Flexibility Score: inf
ROOT
ATOM      1  C   UNL     1       1.874  -5.355   9.717  1.00  0.00     0.000 C 
ENDROOT
BRANCH   1   2
ATOM      2  C   UNL     1       2.714  -4.236   9.079  1.00  0.00     0.000 C 
BRANCH   2   3
ATOM      3  C   UNL     1       3.333  -3.295  10.125  1.00  0.00     0.000 C 
BRANCH   3   4
ATOM      4  C   UNL     1       2.687  -1.898  10.123  1.00  0.00     0.000 C 
BRANCH   4   5
ATOM      5  C   UNL     1       3.718  -0.757  10.044  1.00  0.00     0.006 C 
BRANCH   5   6
ATOM      6  C   UNL     1       4.857  -1.015   9.043  1.00  0.00     0.053 C 
BRANCH   6   7
ATOM      7  C   UNL     1       5.428   0.253   8.484  1.00  0.00     0.041 C 
ATOM      8  O   UNL     1       6.618   0.283   8.072  1.00  0.00    -0.550 OA
ATOM      9  O   UNL     1       4.639   1.391   8.385  1.00  0.00    -0.550 OA
ENDBRANCH   6   7
ENDBRANCH   5   6
ENDBRANCH   4   5
ENDBRANCH   3   4
ENDBRANCH   2   3
ENDBRANCH   1   2
BRANCH   1  10
ATOM     10  C   UNL     1       0.619  -5.692   8.895  1.00  0.00     0.000 C 
BRANCH  10  11
ATOM     11  C   UNL     1       0.824  -5.480   7.384  1.00  0.00    -0.000 C 
BRANCH  11  12
ATOM     12  C   UNL     1      -0.498  -5.260   6.632  1.00  0.00    -0.000 C 
BRANCH  12  13
ATOM     13  C   UNL     1      -0.876  -3.772   6.526  1.00  0.00    -0.000 C 
BRANCH  13  14
ATOM     14  C   UNL     1      -1.552  -3.429   5.188  1.00  0.00    -0.000 C 
BRANCH  14  15
ATOM     15  C   UNL     1      -1.358  -1.960   4.784  1.00  0.00    -0.000 C 
BRANCH  15  16
ATOM     16  C   UNL     1      -1.531  -1.781   3.271  1.00  0.00    -0.003 C 
ATOM     17  C   UNL     1      -1.221  -3.075   2.523  1.00  0.00     0.004 C 
ENDBRANCH  15  16
ENDBRANCH  14  15
ENDBRANCH  13  14
ENDBRANCH  12  13
ENDBRANCH  11  12
ENDBRANCH  10  11
ENDBRANCH   1  10
TORSDOF 13
ENDMDL
MODEL 3
REMARK VINA RESULT:    -4.473      2.836      6.183
REMARK INTER + INTRA:          -8.808
REMARK INTER:                  -8.101
REMARK INTRA:                  -0.708
REMARK UNBOUND:                -0.936
REMARK SMILES CCCCCCCCCCCCCCC(=O)[O-]
REMARK SMILES IDX 9 1 10 2 11 3 12 4 13 5 14 6 15 7 16 8 17 9 8 10 7 11 6 12
REMARK SMILES IDX 5 13 4 14 3 15 2 16 1 17
REMARK H PARENT
REMARK Flexibility Score: inf
ROOT
ATOM      1  C   UNL     1      -0.024  -3.078   8.914  1.00  0.00     0.000 C 
ENDROOT
BRANCH   1   2
ATOM      2  C   UNL     1      -0.021  -4.383   9.729  1.00  0.00     0.000 C 
BRANCH   2   3
ATOM      3  C   UNL     1      -0.048  -5.634   8.837  1.00  0.00     0.000 C 
BRANCH   3   4
ATOM      4  C   UNL     1      -1.254  -6.545   9.127  1.00  0.00     0.000 C 
BRANCH   4   5
ATOM      5  C   UNL     1      -1.707  -7.354   7.898  1.00  0.00     0.006 C 
BRANCH   5   6
ATOM      6  C   UNL     1      -2.379  -8.693   8.247  1.00  0.00     0.053 C 
BRANCH   6   7
ATOM      7  C   UNL     1      -3.866  -8.571   8.385  1.00  0.00     0.041 C 
ATOM      8  O   UNL     1      -4.360  -7.801   9.250  1.00  0.00    -0.550 OA
ATOM      9  O   UNL     1      -4.707  -9.280   7.536  1.00  0.00    -0.550 OA
ENDBRANCH   6   7
ENDBRANCH   5   6
ENDBRANCH   4   5
ENDBRANCH   3   4
ENDBRANCH   2   3
ENDBRANCH   1   2
BRANCH   1  10
ATOM     10  C   UNL     1      -0.169  -1.830   9.801  1.00  0.00     0.000 C 
BRANCH  10  11
ATOM     11  C   UNL     1       0.007  -0.518   9.015  1.00  0.00    -0.000 C 
BRANCH  11  12
ATOM     12  C   UNL     1      -1.332   0.091   8.571  1.00  0.00    -0.000 C 
BRANCH  12  13
ATOM     13  C   UNL     1      -1.393   0.335   7.053  1.00  0.00    -0.000 C 
BRANCH  13  14
ATOM     14  C   UNL     1      -1.075  -0.930   6.239  1.00  0.00    -0.000 C 
BRANCH  14  15
ATOM     15  C   UNL     1      -1.442  -0.790   4.754  1.00  0.00    -0.000 C 
BRANCH  15  16
ATOM     16  C   UNL     1      -1.583  -2.166   4.092  1.00  0.00    -0.003 C 
ATOM     17  C   UNL     1      -1.604  -3.281   5.135  1.00  0.00     0.004 C 
ENDBRANCH  15  16
ENDBRANCH  14  15
ENDBRANCH  13  14
ENDBRANCH  12  13
ENDBRANCH  11  12
ENDBRANCH  10  11
ENDBRANCH   1  10
TORSDOF 13
ENDMDL
MODEL 4
REMARK VINA RESULT:    -4.375      1.475      2.319
REMARK INTER + INTRA:          -8.636
REMARK INTER:                  -7.750
REMARK INTRA:                  -0.886
REMARK UNBOUND:                -0.936
REMARK SMILES CCCCCCCCCCCCCCC(=O)[O-]
REMARK SMILES IDX 9 1 10 2 11 3 12 4 13 5 14 6 15 7 16 8 17 9 8 10 7 11 6 12
REMARK SMILES IDX 5 13 4 14 3 15 2 16 1 17
REMARK H PARENT
REMARK Flexibility Score: inf
ROOT
ATOM      1  C   UNL     1      -0.111  -3.272   9.598  1.00  0.00     0.000 C 
ENDROOT
BRANCH   1   2
ATOM      2  C   UNL     1       0.955  -2.197   9.877  1.00  0.00     0.000 C 
BRANCH   2   3
ATOM      3  C   UNL     1       0.380  -0.773   9.832  1.00  0.00     0.000 C 
BRANCH   3   4
ATOM      4  C   UNL     1      -1.044  -0.725   9.249  1.00  0.00     0.000 C 
BRANCH   4   5
ATOM      5  C   UNL     1      -1.122   0.039   7.914  1.00  0.00     0.006 C 
BRANCH   5   6
ATOM      6  C   UNL     1      -1.110  -0.870   6.674  1.00  0.00     0.053 C 
BRANCH   6   7
ATOM      7  C   UNL     1      -1.322  -0.109   5.401  1.00  0.00     0.041 C 
ATOM      8  O   UNL     1      -1.015   1.111   5.334  1.00  0.00    -0.550 OA
ATOM      9  O   UNL     1      -1.825  -0.752   4.277  1.00  0.00    -0.550 OA
ENDBRANCH   6   7
ENDBRANCH   5   6
ENDBRANCH   4   5
ENDBRANCH   3   4
ENDBRANCH   2   3
ENDBRANCH   1   2
BRANCH   1  10
ATOM     10  C   UNL     1       0.071  -3.940   8.225  1.00  0.00     0.000 C 
BRANCH  10  11
ATOM     11  C   UNL     1       0.211  -5.470   8.322  1.00  0.00    -0.000 C 
BRANCH  11  12
ATOM     12  C   UNL     1      -0.293  -6.192   7.062  1.00  0.00    -0.000 C 
BRANCH  12  13
ATOM     13  C   UNL     1      -1.149  -7.427   7.395  1.00  0.00    -0.000 C 
BRANCH  13  14
ATOM     14  C   UNL     1      -2.045  -7.209   8.626  1.00  0.00    -0.000 C 
BRANCH  14  15
ATOM     15  C   UNL     1      -2.421  -8.522   9.327  1.00  0.00    -0.000 C 
BRANCH  15  16
ATOM     16  C   UNL     1      -2.836  -9.589   8.305  1.00  0.00    -0.003 C 
ATOM     17  C   UNL     1      -4.304  -9.439   7.915  1.00  0.00     0.004 C 
ENDBRANCH  15  16
ENDBRANCH  14  15
ENDBRANCH  13  14
ENDBRANCH  12  13
ENDBRANCH  11  12
ENDBRANCH  10  11
ENDBRANCH   1  10
TORSDOF 13
ENDMDL
MODEL 5
REMARK VINA RESULT:    -4.370      2.774      6.804
REMARK INTER + INTRA:          -8.627
REMARK INTER:                  -7.867
REMARK INTRA:                  -0.760
REMARK UNBOUND:                -0.936
REMARK SMILES CCCCCCCCCCCCCCC(=O)[O-]
REMARK SMILES IDX 9 1 10 2 11 3 12 4 13 5 14 6 15 7 16 8 17 9 8 10 7 11 6 12
REMARK SMILES IDX 5 13 4 14 3 15 2 16 1 17
REMARK H PARENT
REMARK Flexibility Score: inf
ROOT
ATOM      1  C   UNL     1      -0.018  -4.932   7.338  1.00  0.00     0.000 C 
ENDROOT
BRANCH   1   2
ATOM      2  C   UNL     1      -0.203  -6.404   6.928  1.00  0.00     0.000 C 
BRANCH   2   3
ATOM      3  C   UNL     1      -1.392  -7.069   7.639  1.00  0.00     0.000 C 
BRANCH   3   4
ATOM      4  C   UNL     1      -1.385  -8.602   7.500  1.00  0.00     0.000 C 
BRANCH   4   5
ATOM      5  C   UNL     1      -2.503  -9.284   8.310  1.00  0.00     0.006 C 
BRANCH   5   6
ATOM      6  C   UNL     1      -3.584  -8.316   8.819  1.00  0.00     0.053 C 
BRANCH   6   7
ATOM      7  C   UNL     1      -4.870  -8.441   8.060  1.00  0.00     0.041 C 
ATOM      8  O   UNL     1      -5.129  -9.496   7.421  1.00  0.00    -0.550 OA
ATOM      9  O   UNL     1      -5.800  -7.409   8.085  1.00  0.00    -0.550 OA
ENDBRANCH   6   7
ENDBRANCH   5   6
ENDBRANCH   4   5
ENDBRANCH   3   4
ENDBRANCH   2   3
ENDBRANCH   1   2
BRANCH   1  10
ATOM     10  C   UNL     1       0.783  -4.781   8.642  1.00  0.00     0.000 C 
BRANCH  10  11
ATOM     11  C   UNL     1       0.214  -3.688   9.565  1.00  0.00    -0.000 C 
BRANCH  11  12
ATOM     12  C   UNL     1      -0.363  -2.496   8.787  1.00  0.00    -0.000 C 
BRANCH  12  13
ATOM     13  C   UNL     1       0.143  -1.144   9.320  1.00  0.00    -0.000 C 
BRANCH  13  14
ATOM     14  C   UNL     1      -0.517   0.053   8.615  1.00  0.00    -0.000 C 
BRANCH  14  15
ATOM     15  C   UNL     1      -1.482  -0.374   7.499  1.00  0.00    -0.000 C 
BRANCH  15  16
ATOM     16  C   UNL     1      -1.107   0.290   6.168  1.00  0.00    -0.003 C 
ATOM     17  C   UNL     1      -1.403  -0.633   4.988  1.00  0.00     0.004 C 
ENDBRANCH  15  16
ENDBRANCH  14  15
ENDBRANCH  13  14
ENDBRANCH  12  13
ENDBRANCH  11  12
ENDBRANCH  10  11
ENDBRANCH   1  10
TORSDOF 13
ENDMDL
MODEL 6
REMARK VINA RESULT:    -4.352      3.623      6.338
REMARK INTER + INTRA:          -8.595
REMARK INTER:                  -7.831
REMARK INTRA:                  -0.765
REMARK UNBOUND:                -0.936
REMARK SMILES CCCCCCCCCCCCCCC(=O)[O-]
REMARK SMILES IDX 9 1 10 2 11 3 12 4 13 5 14 6 15 7 16 8 17 9 8 10 7 11 6 12
REMARK SMILES IDX 5 13 4 14 3 15 2 16 1 17
REMARK H PARENT
REMARK Flexibility Score: inf
ROOT
ATOM      1  C   UNL     1       1.437  -4.802   8.123  1.00  0.00     0.000 C 
ENDROOT
BRANCH   1   2
ATOM      2  C   UNL     1       2.684  -5.237   8.913  1.00  0.00     0.000 C 
BRANCH   2   3
ATOM      3  C   UNL     1       2.968  -4.322  10.115  1.00  0.00     0.000 C 
BRANCH   3   4
ATOM      4  C   UNL     1       2.694  -2.839   9.811  1.00  0.00     0.000 C 
BRANCH   4   5
ATOM      5  C   UNL     1       3.979  -1.993   9.730  1.00  0.00     0.006 C 
BRANCH   5   6
ATOM      6  C   UNL     1       3.726  -0.477   9.685  1.00  0.00     0.053 C 
BRANCH   6   7
ATOM      7  C   UNL     1       4.753   0.253   8.874  1.00  0.00     0.041 C 
ATOM      8  O   UNL     1       4.590   1.470   8.594  1.00  0.00    -0.550 OA
ATOM      9  O   UNL     1       5.906  -0.399   8.455  1.00  0.00    -0.550 OA
ENDBRANCH   6   7
ENDBRANCH   5   6
ENDBRANCH   4   5
ENDBRANCH   3   4
ENDBRANCH   2   3
ENDBRANCH   1   2
BRANCH   1  10
ATOM     10  C   UNL     1       0.646  -5.997   7.566  1.00  0.00     0.000 C 
BRANCH  10  11
ATOM     11  C   UNL     1      -0.387  -5.582   6.503  1.00  0.00    -0.000 C 
BRANCH  11  12
ATOM     12  C   UNL     1      -0.765  -4.095   6.592  1.00  0.00    -0.000 C 
BRANCH  12  13
ATOM     13  C   UNL     1      -1.155  -3.503   5.226  1.00  0.00    -0.000 C 
BRANCH  13  14
ATOM     14  C   UNL     1      -1.957  -2.198   5.356  1.00  0.00    -0.000 C 
BRANCH  14  15
ATOM     15  C   UNL     1      -1.368  -1.053   4.519  1.00  0.00    -0.000 C 
BRANCH  15  16
ATOM     16  C   UNL     1      -1.246   0.229   5.352  1.00  0.00    -0.003 C 
ATOM     17  C   UNL     1      -1.273  -0.080   6.847  1.00  0.00     0.004 C 
ENDBRANCH  15  16
ENDBRANCH  14  15
ENDBRANCH  13  14
ENDBRANCH  12  13
ENDBRANCH  11  12
ENDBRANCH  10  11
ENDBRANCH   1  10
TORSDOF 13
ENDMDL
MODEL 7
REMARK VINA RESULT:    -4.231      4.079      7.524
REMARK INTER + INTRA:          -8.382
REMARK INTER:                  -7.608
REMARK INTRA:                  -0.775
REMARK UNBOUND:                -0.936
REMARK SMILES CCCCCCCCCCCCCCC(=O)[O-]
REMARK SMILES IDX 9 1 10 2 11 3 12 4 13 5 14 6 15 7 16 8 17 9 8 10 7 11 6 12
REMARK SMILES IDX 5 13 4 14 3 15 2 16 1 17
REMARK H PARENT
REMARK Flexibility Score: inf
ROOT
ATOM      1  C   UNL     1       2.185  -4.954   8.951  1.00  0.00     0.000 C 
ENDROOT
BRANCH   1   2
ATOM      2  C   UNL     1       0.802  -4.447   9.395  1.00  0.00     0.000 C 
BRANCH   2   3
ATOM      3  C   UNL     1      -0.341  -5.350   8.907  1.00  0.00     0.000 C 
BRANCH   3   4
ATOM      4  C   UNL     1      -0.211  -5.721   7.419  1.00  0.00     0.000 C 
BRANCH   4   5
ATOM      5  C   UNL     1      -0.745  -7.131   7.102  1.00  0.00     0.006 C 
BRANCH   5   6
ATOM      6  C   UNL     1      -1.832  -7.619   8.073  1.00  0.00     0.053 C 
BRANCH   6   7
ATOM      7  C   UNL     1      -2.168  -9.066   7.878  1.00  0.00     0.041 C 
ATOM      8  O   UNL     1      -3.306  -9.501   8.201  1.00  0.00    -0.550 OA
ATOM      9  O   UNL     1      -1.241  -9.929   7.308  1.00  0.00    -0.550 OA
ENDBRANCH   6   7
ENDBRANCH   5   6
ENDBRANCH   4   5
ENDBRANCH   3   4
ENDBRANCH   2   3
ENDBRANCH   1   2
BRANCH   1  10
ATOM     10  C   UNL     1       3.335  -4.102   9.514  1.00  0.00     0.000 C 
BRANCH  10  11
ATOM     11  C   UNL     1       2.895  -2.670   9.867  1.00  0.00    -0.000 C 
BRANCH  11  12
ATOM     12  C   UNL     1       4.084  -1.730  10.122  1.00  0.00    -0.000 C 
BRANCH  12  13
ATOM     13  C   UNL     1       3.741  -0.256   9.842  1.00  0.00    -0.000 C 
BRANCH  13  14
ATOM     14  C   UNL     1       4.780   0.430   8.940  1.00  0.00    -0.000 C 
BRANCH  14  15
ATOM     15  C   UNL     1       5.446  -0.542   7.956  1.00  0.00    -0.000 C 
BRANCH  15  16
ATOM     16  C   UNL     1       6.894  -0.123   7.668  1.00  0.00    -0.003 C 
ATOM     17  C   UNL     1       7.602   0.327   8.944  1.00  0.00     0.004 C 
ENDBRANCH  15  16
ENDBRANCH  14  15
ENDBRANCH  13  14
ENDBRANCH  12  13
ENDBRANCH  11  12
ENDBRANCH  10  11
ENDBRANCH   1  10
TORSDOF 13
ENDMDL
MODEL 8
REMARK VINA RESULT:    -4.201      2.425      3.895
REMARK INTER + INTRA:          -8.329
REMARK INTER:                  -7.514
REMARK INTRA:                  -0.815
REMARK UNBOUND:                -0.936
REMARK SMILES CCCCCCCCCCCCCCC(=O)[O-]
REMARK SMILES IDX 9 1 10 2 11 3 12 4 13 5 14 6 15 7 16 8 17 9 8 10 7 11 6 12
REMARK SMILES IDX 5 13 4 14 3 15 2 16 1 17
REMARK H PARENT
REMARK Flexibility Score: inf
ROOT
ATOM      1  C   UNL     1      -1.009  -4.057   5.076  1.00  0.00     0.000 C 
ENDROOT
BRANCH   1   2
ATOM      2  C   UNL     1      -2.066  -2.961   4.856  1.00  0.00     0.000 C 
BRANCH   2   3
ATOM      3  C   UNL     1      -1.461  -1.662   4.300  1.00  0.00     0.000 C 
BRANCH   3   4
ATOM      4  C   UNL     1      -1.438  -0.526   5.338  1.00  0.00     0.000 C 
BRANCH   4   5
ATOM      5  C   UNL     1      -1.068  -1.011   6.753  1.00  0.00     0.006 C 
BRANCH   5   6
ATOM      6  C   UNL     1      -0.990   0.116   7.797  1.00  0.00     0.053 C 
BRANCH   6   7
ATOM      7  C   UNL     1      -0.095  -0.229   8.948  1.00  0.00     0.041 C 
ATOM      8  O   UNL     1       0.828   0.557   9.289  1.00  0.00    -0.550 OA
ATOM      9  O   UNL     1      -0.301  -1.399   9.667  1.00  0.00    -0.550 OA
ENDBRANCH   6   7
ENDBRANCH   5   6
ENDBRANCH   4   5
ENDBRANCH   3   4
ENDBRANCH   2   3
ENDBRANCH   1   2
BRANCH   1  10
ATOM     10  C   UNL     1      -0.763  -4.348   6.565  1.00  0.00     0.000 C 
BRANCH  10  11
ATOM     11  C   UNL     1       0.151  -5.566   6.790  1.00  0.00    -0.000 C 
BRANCH  11  12
ATOM     12  C   UNL     1       0.695  -5.643   8.226  1.00  0.00    -0.000 C 
BRANCH  12  13
ATOM     13  C   UNL     1      -0.339  -5.188   9.271  1.00  0.00    -0.000 C 
BRANCH  13  14
ATOM     14  C   UNL     1      -0.865  -6.353  10.125  1.00  0.00    -0.000 C 
BRANCH  14  15
ATOM     15  C   UNL     1      -2.322  -6.715   9.802  1.00  0.00    -0.000 C 
BRANCH  15  16
ATOM     16  C   UNL     1      -2.410  -7.533   8.507  1.00  0.00    -0.003 C 
ATOM     17  C   UNL     1      -3.847  -7.956   8.218  1.00  0.00     0.004 C 
ENDBRANCH  15  16
ENDBRANCH  14  15
ENDBRANCH  13  14
ENDBRANCH  12  13
ENDBRANCH  11  12
ENDBRANCH  10  11
ENDBRANCH   1  10
TORSDOF 13
ENDMDL
MODEL 9
REMARK VINA RESULT:    -4.056     10.284     13.538
REMARK INTER + INTRA:          -8.074
REMARK INTER:                  -7.427
REMARK INTRA:                  -0.647
REMARK UNBOUND:                -0.936
REMARK SMILES CCCCCCCCCCCCCCC(=O)[O-]
REMARK SMILES IDX 9 1 10 2 11 3 12 4 13 5 14 6 15 7 16 8 17 9 8 10 7 11 6 12
REMARK SMILES IDX 5 13 4 14 3 15 2 16 1 17
REMARK H PARENT
REMARK Flexibility Score: inf
ROOT
ATOM      1  C   UNL     1       9.268   2.694   8.294  1.00  0.00     0.000 C 
ENDROOT
BRANCH   1   2
ATOM      2  C   UNL     1       9.613   1.597   7.272  1.00  0.00     0.000 C 
BRANCH   2   3
ATOM      3  C   UNL     1       8.535   0.504   7.194  1.00  0.00     0.000 C 
BRANCH   3   4
ATOM      4  C   UNL     1       8.560  -0.442   8.407  1.00  0.00     0.000 C 
BRANCH   4   5
ATOM      5  C   UNL     1       7.223  -0.476   9.171  1.00  0.00     0.006 C 
BRANCH   5   6
ATOM      6  C   UNL     1       5.998  -0.151   8.299  1.00  0.00     0.053 C 
BRANCH   6   7
ATOM      7  C   UNL     1       5.161   0.951   8.873  1.00  0.00     0.041 C 
ATOM      8  O   UNL     1       3.909   0.825   8.940  1.00  0.00    -0.550 OA
ATOM      9  O   UNL     1       5.762   2.101   9.367  1.00  0.00    -0.550 OA
ENDBRANCH   6   7
ENDBRANCH   5   6
ENDBRANCH   4   5
ENDBRANCH   3   4
ENDBRANCH   2   3
ENDBRANCH   1   2
BRANCH   1  10
ATOM     10  C   UNL     1       9.780   4.080   7.867  1.00  0.00     0.000 C 
BRANCH  10  11
ATOM     11  C   UNL     1       9.171   5.221   8.701  1.00  0.00    -0.000 C 
BRANCH  11  12
ATOM     12  C   UNL     1       9.810   6.585   8.395  1.00  0.00    -0.000 C 
BRANCH  12  13
ATOM     13  C   UNL     1       8.797   7.741   8.473  1.00  0.00    -0.000 C 
BRANCH  13  14
ATOM     14  C   UNL     1       9.335   9.039   7.847  1.00  0.00    -0.000 C 
BRANCH  14  15
ATOM     15  C   UNL     1       8.225  10.053   7.536  1.00  0.00    -0.000 C 
BRANCH  15  16
ATOM     16  C   UNL     1       7.937  10.104   6.030  1.00  0.00    -0.003 C 
ATOM     17  C   UNL     1       6.565   9.516   5.710  1.00  0.00     0.004 C 
ENDBRANCH  15  16
ENDBRANCH  14  15
ENDBRANCH  13  14
ENDBRANCH  12  13
ENDBRANCH  11  12
ENDBRANCH  10  11
ENDBRANCH   1  10
TORSDOF 13
ENDMDL
