MODEL 1
REMARK VINA RESULT:     0.000      0.000      0.000
REMARK INTER + INTRA:          -0.417
REMARK INTER:                   0.000
REMARK INTRA:                  -0.417
REMARK UNBOUND:                -0.417
REMARK SMILES CCCCC(=O)CC
REMARK SMILES IDX 4 1 3 2 2 3 1 4 5 5 6 6 7 7 8 8
REMARK H PARENT
REMARK Flexibility Score: inf
ROOT
ATOM      1  C   UNL     1     123.921 118.505 121.172  1.00  0.00     0.075 C 
ENDROOT
BRANCH   1   2
ATOM      2  C   UNL     1     125.402 118.731 121.521  1.00  0.00     0.008 C 
BRANCH   2   3
ATOM      3  C   UNL     1     126.384 117.980 120.604  1.00  0.00    -0.003 C 
ATOM      4  C   UNL     1     127.436 118.898 119.984  1.00  0.00     0.004 C 
ENDBRANCH   2   3
ENDBRANCH   1   2
BRANCH   1   5
ATOM      5  C   UNL     1     123.589 118.958 119.775  1.00  0.00     0.132 C 
ATOM      6  O   UNL     1     123.187 118.143 118.958  1.00  0.00    -0.300 OA
BRANCH   5   7
ATOM      7  C   UNL     1     123.756 120.398 119.369  1.00  0.00     0.072 C 
ATOM      8  C   UNL     1     124.598 120.517 118.101  1.00  0.00     0.012 C 
ENDBRANCH   5   7
ENDBRANCH   1   5
TORSDOF 4
ENDMDL
MODEL 2
REMARK VINA RESULT:     0.000     10.551     11.982
REMARK INTER + INTRA:          -0.417
REMARK INTER:                   0.000
REMARK INTRA:                  -0.417
REMARK UNBOUND:                -0.417
REMARK SMILES CCCCC(=O)CC
REMARK SMILES IDX 4 1 3 2 2 3 1 4 5 5 6 6 7 7 8 8
REMARK H PARENT
REMARK Flexibility Score: inf
ROOT
ATOM      1  C   UNL     1     120.661 115.628 131.231  1.00  0.00     0.075 C 
ENDROOT
BRANCH   1   2
ATOM      2  C   UNL     1     120.604 114.143 131.624  1.00  0.00     0.008 C 
BRANCH   2   3
ATOM      3  C   UNL     1     119.434 113.369 130.990  1.00  0.00    -0.003 C 
ATOM      4  C   UNL     1     119.888 112.113 130.248  1.00  0.00     0.004 C 
ENDBRANCH   2   3
ENDBRANCH   1   2
BRANCH   1   5
ATOM      5  C   UNL     1     120.816 115.818 129.745  1.00  0.00     0.132 C 
ATOM      6  O   UNL     1     119.945 116.403 129.119  1.00  0.00    -0.300 OA
BRANCH   5   7
ATOM      7  C   UNL     1     122.025 115.290 129.020  1.00  0.00     0.072 C 
ATOM      8  C   UNL     1     121.617 114.430 127.827  1.00  0.00     0.012 C 
ENDBRANCH   5   7
ENDBRANCH   1   5
TORSDOF 4
ENDMDL
MODEL 3
REMARK VINA RESULT:     0.000      4.996      6.471
REMARK INTER + INTRA:          -0.417
REMARK INTER:                   0.000
REMARK INTRA:                  -0.417
REMARK UNBOUND:                -0.417
REMARK SMILES CCCCC(=O)CC
REMARK SMILES IDX 4 1 3 2 2 3 1 4 5 5 6 6 7 7 8 8
REMARK H PARENT
REMARK Flexibility Score: inf
ROOT
ATOM      1  C   UNL     1     121.104 121.902 123.140  1.00  0.00     0.075 C 
ENDROOT
BRANCH   1   2
ATOM      2  C   UNL     1     120.049 121.441 124.159  1.00  0.00     0.008 C 
BRANCH   2   3
ATOM      3  C   UNL     1     118.606 121.465 123.625  1.00  0.00    -0.003 C 
ATOM      4  C   UNL     1     117.889 120.127 123.796  1.00  0.00     0.004 C 
ENDBRANCH   2   3
ENDBRANCH   1   2
BRANCH   1   5
ATOM      5  C   UNL     1     121.121 121.037 121.907  1.00  0.00     0.132 C 
ATOM      6  O   UNL     1     120.863 121.533 120.821  1.00  0.00    -0.300 OA
BRANCH   5   7
ATOM      7  C   UNL     1     121.441 119.569 121.997  1.00  0.00     0.072 C 
ATOM      8  C   UNL     1     120.363 118.730 121.318  1.00  0.00     0.012 C 
ENDBRANCH   5   7
ENDBRANCH   1   5
TORSDOF 4
ENDMDL
MODEL 4
REMARK VINA RESULT:     0.000      4.778      5.952
REMARK INTER + INTRA:          -0.417
REMARK INTER:                   0.000
REMARK INTRA:                  -0.417
REMARK UNBOUND:                -0.417
REMARK SMILES CCCCC(=O)CC
REMARK SMILES IDX 4 1 3 2 2 3 1 4 5 5 6 6 7 7 8 8
REMARK H PARENT
REMARK Flexibility Score: inf
ROOT
ATOM      1  C   UNL     1     121.103 120.868 121.000  1.00  0.00     0.075 C 
ENDROOT
BRANCH   1   2
ATOM      2  C   UNL     1     121.297 120.837 122.524  1.00  0.00     0.008 C 
BRANCH   2   3
ATOM      3  C   UNL     1     120.048 121.247 123.326  1.00  0.00    -0.003 C 
ATOM      4  C   UNL     1     119.647 120.207 124.370  1.00  0.00     0.004 C 
ENDBRANCH   2   3
ENDBRANCH   1   2
BRANCH   1   5
ATOM      5  C   UNL     1     120.013 119.932 120.545  1.00  0.00     0.132 C 
ATOM      6  O   UNL     1     119.028 120.385 119.982  1.00  0.00    -0.300 OA
BRANCH   5   7
ATOM      7  C   UNL     1     120.117 118.450 120.785  1.00  0.00     0.072 C 
ATOM      8  C   UNL     1     118.867 117.917 121.478  1.00  0.00     0.012 C 
ENDBRANCH   5   7
ENDBRANCH   1   5
TORSDOF 4
ENDMDL
MODEL 5
REMARK VINA RESULT:     0.000     11.803     13.020
REMARK INTER + INTRA:          -0.417
REMARK INTER:                   0.000
REMARK INTRA:                  -0.417
REMARK UNBOUND:                -0.417
REMARK SMILES CCCCC(=O)CC
REMARK SMILES IDX 4 1 3 2 2 3 1 4 5 5 6 6 7 7 8 8
REMARK H PARENT
REMARK Flexibility Score: inf
ROOT
ATOM      1  C   UNL     1     115.688 120.572 126.845  1.00  0.00     0.075 C 
ENDROOT
BRANCH   1   2
ATOM      2  C   UNL     1     115.024 121.944 126.645  1.00  0.00     0.008 C 
BRANCH   2   3
ATOM      3  C   UNL     1     113.872 122.233 127.624  1.00  0.00    -0.003 C 
ATOM      4  C   UNL     1     114.047 123.554 128.371  1.00  0.00     0.004 C 
ENDBRANCH   2   3
ENDBRANCH   1   2
BRANCH   1   5
ATOM      5  C   UNL     1     116.287 120.423 128.219  1.00  0.00     0.132 C 
ATOM      6  O   UNL     1     115.867 119.553 128.966  1.00  0.00    -0.300 OA
BRANCH   5   7
ATOM      7  C   UNL     1     117.387 121.338 128.686  1.00  0.00     0.072 C 
ATOM      8  C   UNL     1     117.039 121.971 130.031  1.00  0.00     0.012 C 
ENDBRANCH   5   7
ENDBRANCH   1   5
TORSDOF 4
ENDMDL
MODEL 6
REMARK VINA RESULT:     0.000     12.745     13.851
REMARK INTER + INTRA:          -0.417
REMARK INTER:                   0.000
REMARK INTRA:                  -0.417
REMARK UNBOUND:                -0.417
REMARK SMILES CCCCC(=O)CC
REMARK SMILES IDX 4 1 3 2 2 3 1 4 5 5 6 6 7 7 8 8
REMARK H PARENT
REMARK Flexibility Score: inf
ROOT
ATOM      1  C   UNL     1     122.120 115.341 133.163  1.00  0.00     0.075 C 
ENDROOT
BRANCH   1   2
ATOM      2  C   UNL     1     122.594 114.979 131.746  1.00  0.00     0.008 C 
BRANCH   2   3
ATOM      3  C   UNL     1     122.392 113.500 131.374  1.00  0.00    -0.003 C 
ATOM      4  C   UNL     1     121.618 113.316 130.070  1.00  0.00     0.004 C 
ENDBRANCH   2   3
ENDBRANCH   1   2
BRANCH   1   5
ATOM      5  C   UNL     1     120.649 115.079 133.356  1.00  0.00     0.132 C 
ATOM      6  O   UNL     1     120.289 114.266 134.194  1.00  0.00    -0.300 OA
BRANCH   5   7
ATOM      7  C   UNL     1     119.620 115.797 132.525  1.00  0.00     0.072 C 
ATOM      8  C   UNL     1     118.659 114.810 131.869  1.00  0.00     0.012 C 
ENDBRANCH   5   7
ENDBRANCH   1   5
TORSDOF 4
ENDMDL
MODEL 7
REMARK VINA RESULT:     0.000      7.810      8.669
REMARK INTER + INTRA:          -0.417
REMARK INTER:                   0.000
REMARK INTRA:                  -0.417
REMARK UNBOUND:                -0.417
REMARK SMILES CCCCC(=O)CC
REMARK SMILES IDX 4 1 3 2 2 3 1 4 5 5 6 6 7 7 8 8
REMARK H PARENT
REMARK Flexibility Score: inf
ROOT
ATOM      1  C   UNL     1     119.258 124.710 122.581  1.00  0.00     0.075 C 
ENDROOT
BRANCH   1   2
ATOM      2  C   UNL     1     118.480 125.220 121.357  1.00  0.00     0.008 C 
BRANCH   2   3
ATOM      3  C   UNL     1     118.809 124.479 120.050  1.00  0.00    -0.003 C 
ATOM      4  C   UNL     1     117.566 123.934 119.348  1.00  0.00     0.004 C 
ENDBRANCH   2   3
ENDBRANCH   1   2
BRANCH   1   5
ATOM      5  C   UNL     1     118.982 123.256 122.866  1.00  0.00     0.132 C 
ATOM      6  O   UNL     1     119.898 122.450 122.817  1.00  0.00    -0.300 OA
BRANCH   5   7
ATOM      7  C   UNL     1     117.593 122.785 123.201  1.00  0.00     0.072 C 
ATOM      8  C   UNL     1     117.176 121.624 122.302  1.00  0.00     0.012 C 
ENDBRANCH   5   7
ENDBRANCH   1   5
TORSDOF 4
ENDMDL
MODEL 8
REMARK VINA RESULT:     0.000      9.434     10.457
REMARK INTER + INTRA:          -0.417
REMARK INTER:                   0.000
REMARK INTRA:                  -0.417
REMARK UNBOUND:                -0.417
REMARK SMILES CCCCC(=O)CC
REMARK SMILES IDX 4 1 3 2 2 3 1 4 5 5 6 6 7 7 8 8
REMARK H PARENT
REMARK Flexibility Score: inf
ROOT
ATOM      1  C   UNL     1     116.011 119.268 125.334  1.00  0.00     0.075 C 
ENDROOT
BRANCH   1   2
ATOM      2  C   UNL     1     116.818 118.513 126.402  1.00  0.00     0.008 C 
BRANCH   2   3
ATOM      3  C   UNL     1     118.313 118.877 126.434  1.00  0.00    -0.003 C 
ATOM      4  C   UNL     1     118.791 119.302 127.822  1.00  0.00     0.004 C 
ENDBRANCH   2   3
ENDBRANCH   1   2
BRANCH   1   5
ATOM      5  C   UNL     1     116.053 120.760 125.536  1.00  0.00     0.132 C 
ATOM      6  O   UNL     1     116.543 121.470 124.671  1.00  0.00    -0.300 OA
BRANCH   5   7
ATOM      7  C   UNL     1     115.509 121.385 126.792  1.00  0.00     0.072 C 
ATOM      8  C   UNL     1     116.542 122.304 127.439  1.00  0.00     0.012 C 
ENDBRANCH   5   7
ENDBRANCH   1   5
TORSDOF 4
ENDMDL
MODEL 9
REMARK VINA RESULT:     0.000      9.908     10.992
REMARK INTER + INTRA:          -0.417
REMARK INTER:                   0.000
REMARK INTRA:                  -0.417
REMARK UNBOUND:                -0.417
REMARK SMILES CCCCC(=O)CC
REMARK SMILES IDX 4 1 3 2 2 3 1 4 5 5 6 6 7 7 8 8
REMARK H PARENT
REMARK Flexibility Score: inf
ROOT
ATOM      1  C   UNL     1     120.497 120.338 130.327  1.00  0.00     0.075 C 
ENDROOT
BRANCH   1   2
ATOM      2  C   UNL     1     121.362 120.763 129.129  1.00  0.00     0.008 C 
BRANCH   2   3
ATOM      3  C   UNL     1     120.820 120.296 127.766  1.00  0.00    -0.003 C 
ATOM      4  C   UNL     1     120.663 121.441 126.766  1.00  0.00     0.004 C 
ENDBRANCH   2   3
ENDBRANCH   1   2
BRANCH   1   5
ATOM      5  C   UNL     1     119.097 120.889 130.243  1.00  0.00     0.132 C 
ATOM      6  O   UNL     1     118.151 120.119 130.175  1.00  0.00    -0.300 OA
BRANCH   5   7
ATOM      7  C   UNL     1     118.851 122.374 130.232  1.00  0.00     0.072 C 
ATOM      8  C   UNL     1     117.976 122.776 129.049  1.00  0.00     0.012 C 
ENDBRANCH   5   7
ENDBRANCH   1   5
TORSDOF 4
ENDMDL
