MODEL 1
REMARK VINA RESULT:    -4.183      0.000      0.000
REMARK INTER + INTRA:          -5.109
REMARK INTER:                  -5.038
REMARK INTRA:                  -0.071
REMARK UNBOUND:                -0.071
REMARK SMILES CC[C@@H](C)[C@H]([NH3+])C(=O)[O-]
REMARK SMILES IDX 3 1 4 2 5 3 6 4 7 8 8 9 9 10 2 11 1 12
REMARK H PARENT 6 5 6 6 6 7
REMARK Flexibility Score: inf
ROOT
ATOM      1  C   UNL     1     -29.871 -39.911  25.907  1.00  0.00     0.050 C 
ATOM      2  C   UNL     1     -28.403 -39.556  26.211  1.00  0.00     0.014 C 
ENDROOT
BRANCH   1   3
ATOM      3  C   UNL     1     -30.032 -41.326  25.262  1.00  0.00     0.230 C 
BRANCH   3   4
ATOM      4  N   UNL     1     -28.745 -41.966  24.946  1.00  0.00    -0.350 N 
ATOM      5  H   UNL     1     -28.429 -41.731  23.978  1.00  0.00     0.345 HD
ATOM      6  H   UNL     1     -28.845 -43.005  25.020  1.00  0.00     0.345 HD
ATOM      7  H   UNL     1     -28.015 -41.674  25.632  1.00  0.00     0.345 HD
ENDBRANCH   3   4
BRANCH   3   8
ATOM      8  C   UNL     1     -30.921 -41.268  24.042  1.00  0.00     0.099 C 
ATOM      9  O   UNL     1     -31.507 -40.200  23.718  1.00  0.00    -0.544 OA
ATOM     10  O   UNL     1     -31.135 -42.417  23.292  1.00  0.00    -0.544 OA
ENDBRANCH   3   8
ENDBRANCH   1   3
BRANCH   1  11
ATOM     11  C   UNL     1     -30.723 -39.707  27.183  1.00  0.00     0.006 C 
ATOM     12  C   UNL     1     -30.151 -38.658  28.137  1.00  0.00     0.004 C 
ENDBRANCH   1  11
TORSDOF 4
ENDMDL
MODEL 2
REMARK VINA RESULT:    -4.147      1.129      1.373
REMARK INTER + INTRA:          -5.066
REMARK INTER:                  -4.943
REMARK INTRA:                  -0.123
REMARK UNBOUND:                -0.071
REMARK SMILES CC[C@@H](C)[C@H]([NH3+])C(=O)[O-]
REMARK SMILES IDX 3 1 4 2 5 3 6 4 7 8 8 9 9 10 2 11 1 12
REMARK H PARENT 6 5 6 6 6 7
REMARK Flexibility Score: inf
ROOT
ATOM      1  C   UNL     1     -29.441 -39.660  26.488  1.00  0.00     0.050 C 
ATOM      2  C   UNL     1     -27.925 -39.660  26.211  1.00  0.00     0.014 C 
ENDROOT
BRANCH   1   3
ATOM      3  C   UNL     1     -30.157 -40.940  25.947  1.00  0.00     0.230 C 
BRANCH   3   4
ATOM      4  N   UNL     1     -29.304 -41.746  25.058  1.00  0.00    -0.350 N 
ATOM      5  H   UNL     1     -29.869 -42.237  24.329  1.00  0.00     0.345 HD
ATOM      6  H   UNL     1     -28.793 -42.464  25.621  1.00  0.00     0.345 HD
ATOM      7  H   UNL     1     -28.587 -41.144  24.596  1.00  0.00     0.345 HD
ENDBRANCH   3   4
BRANCH   3   8
ATOM      8  C   UNL     1     -31.461 -40.588  25.272  1.00  0.00     0.099 C 
ATOM      9  O   UNL     1     -32.529 -40.496  25.934  1.00  0.00    -0.544 OA
ATOM     10  O   UNL     1     -31.496 -40.408  23.895  1.00  0.00    -0.544 OA
ENDBRANCH   3   8
ENDBRANCH   1   3
BRANCH   1  11
ATOM     11  C   UNL     1     -29.687 -39.398  27.994  1.00  0.00     0.006 C 
ATOM     12  C   UNL     1     -30.745 -38.327  28.261  1.00  0.00     0.004 C 
ENDBRANCH   1  11
TORSDOF 4
ENDMDL
MODEL 3
REMARK VINA RESULT:    -4.094      2.694      3.193
REMARK INTER + INTRA:          -5.003
REMARK INTER:                  -5.030
REMARK INTRA:                   0.027
REMARK UNBOUND:                -0.071
REMARK SMILES CC[C@@H](C)[C@H]([NH3+])C(=O)[O-]
REMARK SMILES IDX 3 1 4 2 5 3 6 4 7 8 8 9 9 10 2 11 1 12
REMARK H PARENT 6 5 6 6 6 7
REMARK Flexibility Score: inf
ROOT
ATOM      1  C   UNL     1     -30.093 -40.429  27.087  1.00  0.00     0.050 C 
ATOM      2  C   UNL     1     -30.597 -40.371  25.632  1.00  0.00     0.014 C 
ENDROOT
BRANCH   1   3
ATOM      3  C   UNL     1     -28.944 -41.468  27.291  1.00  0.00     0.230 C 
BRANCH   3   4
ATOM      4  N   UNL     1     -28.277 -41.343  28.597  1.00  0.00    -0.350 N 
ATOM      5  H   UNL     1     -28.499 -42.153  29.218  1.00  0.00     0.345 HD
ATOM      6  H   UNL     1     -28.595 -40.465  29.069  1.00  0.00     0.345 HD
ATOM      7  H   UNL     1     -27.242 -41.272  28.473  1.00  0.00     0.345 HD
ENDBRANCH   3   4
BRANCH   3   8
ATOM      8  C   UNL     1     -27.942 -41.397  26.163  1.00  0.00     0.099 C 
ATOM      9  O   UNL     1     -27.722 -42.396  25.427  1.00  0.00    -0.544 OA
ATOM     10  O   UNL     1     -27.216 -40.229  25.961  1.00  0.00    -0.544 OA
ENDBRANCH   3   8
ENDBRANCH   1   3
BRANCH   1  11
ATOM     11  C   UNL     1     -29.734 -39.000  27.562  1.00  0.00     0.006 C 
ATOM     12  C   UNL     1     -30.829 -38.344  28.404  1.00  0.00     0.004 C 
ENDBRANCH   1  11
TORSDOF 4
ENDMDL
MODEL 4
REMARK VINA RESULT:    -4.021      2.692      3.304
REMARK INTER + INTRA:          -4.914
REMARK INTER:                  -4.813
REMARK INTRA:                  -0.102
REMARK UNBOUND:                -0.071
REMARK SMILES CC[C@@H](C)[C@H]([NH3+])C(=O)[O-]
REMARK SMILES IDX 3 1 4 2 5 3 6 4 7 8 8 9 9 10 2 11 1 12
REMARK H PARENT 6 5 6 6 6 7
REMARK Flexibility Score: inf
ROOT
ATOM      1  C   UNL     1     -29.965 -39.954  27.151  1.00  0.00     0.050 C 
ATOM      2  C   UNL     1     -29.987 -39.023  28.379  1.00  0.00     0.014 C 
ENDROOT
BRANCH   1   3
ATOM      3  C   UNL     1     -28.964 -41.144  27.309  1.00  0.00     0.230 C 
BRANCH   3   4
ATOM      4  N   UNL     1     -28.349 -41.207  28.644  1.00  0.00    -0.350 N 
ATOM      5  H   UNL     1     -27.573 -40.514  28.740  1.00  0.00     0.345 HD
ATOM      6  H   UNL     1     -27.960 -42.165  28.804  1.00  0.00     0.345 HD
ATOM      7  H   UNL     1     -29.065 -41.035  29.384  1.00  0.00     0.345 HD
ENDBRANCH   3   4
BRANCH   3   8
ATOM      8  C   UNL     1     -27.910 -41.113  26.228  1.00  0.00     0.099 C 
ATOM      9  O   UNL     1     -27.329 -40.038  25.921  1.00  0.00    -0.544 OA
ATOM     10  O   UNL     1     -27.609 -42.274  25.528  1.00  0.00    -0.544 OA
ENDBRANCH   3   8
ENDBRANCH   1   3
BRANCH   1  11
ATOM     11  C   UNL     1     -31.411 -40.395  26.817  1.00  0.00     0.006 C 
ATOM     12  C   UNL     1     -31.578 -40.905  25.386  1.00  0.00     0.004 C 
ENDBRANCH   1  11
TORSDOF 4
ENDMDL
MODEL 5
REMARK VINA RESULT:    -4.015      2.905      3.776
REMARK INTER + INTRA:          -4.908
REMARK INTER:                  -4.798
REMARK INTRA:                  -0.110
REMARK UNBOUND:                -0.071
REMARK SMILES CC[C@@H](C)[C@H]([NH3+])C(=O)[O-]
REMARK SMILES IDX 3 1 4 2 5 3 6 4 7 8 8 9 9 10 2 11 1 12
REMARK H PARENT 6 5 6 6 6 7
REMARK Flexibility Score: inf
ROOT
ATOM      1  C   UNL     1     -29.262 -41.145  25.822  1.00  0.00     0.050 C 
ATOM      2  C   UNL     1     -27.928 -41.877  25.580  1.00  0.00     0.014 C 
ENDROOT
BRANCH   1   3
ATOM      3  C   UNL     1     -29.069 -39.650  26.232  1.00  0.00     0.230 C 
BRANCH   3   4
ATOM      4  N   UNL     1     -27.692 -39.170  26.033  1.00  0.00    -0.350 N 
ATOM      5  H   UNL     1     -27.195 -39.728  25.302  1.00  0.00     0.345 HD
ATOM      6  H   UNL     1     -27.160 -39.250  26.930  1.00  0.00     0.345 HD
ATOM      7  H   UNL     1     -27.693 -38.162  25.761  1.00  0.00     0.345 HD
ENDBRANCH   3   4
BRANCH   3   8
ATOM      8  C   UNL     1     -29.523 -39.413  27.652  1.00  0.00     0.099 C 
ATOM      9  O   UNL     1     -30.275 -38.443  27.939  1.00  0.00    -0.544 OA
ATOM     10  O   UNL     1     -29.071 -40.248  28.667  1.00  0.00    -0.544 OA
ENDBRANCH   3   8
ENDBRANCH   1   3
BRANCH   1  11
ATOM     11  C   UNL     1     -30.185 -41.342  24.595  1.00  0.00     0.006 C 
ATOM     12  C   UNL     1     -31.464 -40.507  24.653  1.00  0.00     0.004 C 
ENDBRANCH   1  11
TORSDOF 4
ENDMDL
MODEL 6
REMARK VINA RESULT:    -4.010      2.587      3.780
REMARK INTER + INTRA:          -4.902
REMARK INTER:                  -4.770
REMARK INTRA:                  -0.132
REMARK UNBOUND:                -0.071
REMARK SMILES CC[C@@H](C)[C@H]([NH3+])C(=O)[O-]
REMARK SMILES IDX 3 1 4 2 5 3 6 4 7 8 8 9 9 10 2 11 1 12
REMARK H PARENT 6 5 6 6 6 7
REMARK Flexibility Score: inf
ROOT
ATOM      1  C   UNL     1     -31.049 -40.438  25.196  1.00  0.00     0.050 C 
ATOM      2  C   UNL     1     -32.156 -40.192  26.240  1.00  0.00     0.014 C 
ENDROOT
BRANCH   1   3
ATOM      3  C   UNL     1     -29.890 -41.334  25.740  1.00  0.00     0.230 C 
BRANCH   3   4
ATOM      4  N   UNL     1     -30.242 -42.044  26.980  1.00  0.00    -0.350 N 
ATOM      5  H   UNL     1     -31.249 -41.907  27.226  1.00  0.00     0.345 HD
ATOM      6  H   UNL     1     -29.655 -41.684  27.768  1.00  0.00     0.345 HD
ATOM      7  H   UNL     1     -30.042 -43.065  26.885  1.00  0.00     0.345 HD
ENDBRANCH   3   4
BRANCH   3   8
ATOM      8  C   UNL     1     -28.622 -40.532  25.918  1.00  0.00     0.099 C 
ATOM      9  O   UNL     1     -27.510 -41.104  26.072  1.00  0.00    -0.544 OA
ATOM     10  O   UNL     1     -28.687 -39.145  25.961  1.00  0.00    -0.544 OA
ENDBRANCH   3   8
ENDBRANCH   1   3
BRANCH   1  11
ATOM     11  C   UNL     1     -31.686 -40.968  23.889  1.00  0.00     0.006 C 
ATOM     12  C   UNL     1     -31.035 -42.249  23.368  1.00  0.00     0.004 C 
ENDBRANCH   1  11
TORSDOF 4
ENDMDL
MODEL 7
REMARK VINA RESULT:    -3.993      3.212      3.862
REMARK INTER + INTRA:          -4.880
REMARK INTER:                  -4.788
REMARK INTRA:                  -0.092
REMARK UNBOUND:                -0.071
REMARK SMILES CC[C@@H](C)[C@H]([NH3+])C(=O)[O-]
REMARK SMILES IDX 3 1 4 2 5 3 6 4 7 8 8 9 9 10 2 11 1 12
REMARK H PARENT 6 5 6 6 6 7
REMARK Flexibility Score: inf
ROOT
ATOM      1  C   UNL     1     -29.011 -39.678  26.585  1.00  0.00     0.050 C 
ATOM      2  C   UNL     1     -30.056 -38.928  27.433  1.00  0.00     0.014 C 
ENDROOT
BRANCH   1   3
ATOM      3  C   UNL     1     -28.058 -40.570  27.444  1.00  0.00     0.230 C 
BRANCH   3   4
ATOM      4  N   UNL     1     -27.351 -41.589  26.652  1.00  0.00    -0.350 N 
ATOM      5  H   UNL     1     -27.794 -41.720  25.714  1.00  0.00     0.345 HD
ATOM      6  H   UNL     1     -27.372 -42.504  27.159  1.00  0.00     0.345 HD
ATOM      7  H   UNL     1     -26.348 -41.324  26.530  1.00  0.00     0.345 HD
ENDBRANCH   3   4
BRANCH   3   8
ATOM      8  C   UNL     1     -28.800 -41.201  28.597  1.00  0.00     0.099 C 
ATOM      9  O   UNL     1     -28.600 -40.823  29.782  1.00  0.00    -0.544 OA
ATOM     10  O   UNL     1     -29.683 -42.247  28.357  1.00  0.00    -0.544 OA
ENDBRANCH   3   8
ENDBRANCH   1   3
BRANCH   1  11
ATOM     11  C   UNL     1     -29.729 -40.445  25.448  1.00  0.00     0.006 C 
ATOM     12  C   UNL     1     -31.245 -40.525  25.629  1.00  0.00     0.004 C 
ENDBRANCH   1  11
TORSDOF 4
ENDMDL
MODEL 8
REMARK VINA RESULT:    -3.866      1.728      2.516
REMARK INTER + INTRA:          -4.728
REMARK INTER:                  -4.630
REMARK INTRA:                  -0.098
REMARK UNBOUND:                -0.071
REMARK SMILES CC[C@@H](C)[C@H]([NH3+])C(=O)[O-]
REMARK SMILES IDX 3 1 4 2 5 3 6 4 7 8 8 9 9 10 2 11 1 12
REMARK H PARENT 6 5 6 6 6 7
REMARK Flexibility Score: inf
ROOT
ATOM      1  C   UNL     1     -29.742 -39.788  27.677  1.00  0.00     0.050 C 
ATOM      2  C   UNL     1     -30.408 -38.585  28.372  1.00  0.00     0.014 C 
ENDROOT
BRANCH   1   3
ATOM      3  C   UNL     1     -30.732 -40.971  27.430  1.00  0.00     0.230 C 
BRANCH   3   4
ATOM      4  N   UNL     1     -30.080 -42.290  27.477  1.00  0.00    -0.350 N 
ATOM      5  H   UNL     1     -30.717 -43.018  27.872  1.00  0.00     0.345 HD
ATOM      6  H   UNL     1     -29.225 -42.236  28.078  1.00  0.00     0.345 HD
ATOM      7  H   UNL     1     -29.771 -42.578  26.522  1.00  0.00     0.345 HD
ENDBRANCH   3   4
BRANCH   3   8
ATOM      8  C   UNL     1     -31.485 -40.787  26.135  1.00  0.00     0.099 C 
ATOM      9  O   UNL     1     -32.477 -40.012  26.066  1.00  0.00    -0.544 OA
ATOM     10  O   UNL     1     -31.112 -41.515  25.012  1.00  0.00    -0.544 OA
ENDBRANCH   3   8
ENDBRANCH   1   3
BRANCH   1  11
ATOM     11  C   UNL     1     -29.016 -39.304  26.398  1.00  0.00     0.006 C 
ATOM     12  C   UNL     1     -27.632 -39.926  26.209  1.00  0.00     0.004 C 
ENDBRANCH   1  11
TORSDOF 4
ENDMDL
MODEL 9
REMARK VINA RESULT:    -3.865      2.726      3.788
REMARK INTER + INTRA:          -4.727
REMARK INTER:                  -4.724
REMARK INTRA:                  -0.003
REMARK UNBOUND:                -0.071
REMARK SMILES CC[C@@H](C)[C@H]([NH3+])C(=O)[O-]
REMARK SMILES IDX 3 1 4 2 5 3 6 4 7 8 8 9 9 10 2 11 1 12
REMARK H PARENT 6 5 6 6 6 7
REMARK Flexibility Score: inf
ROOT
ATOM      1  C   UNL     1     -30.504 -40.215  25.420  1.00  0.00     0.050 C 
ATOM      2  C   UNL     1     -31.890 -40.362  26.077  1.00  0.00     0.014 C 
ENDROOT
BRANCH   1   3
ATOM      3  C   UNL     1     -29.358 -40.005  26.460  1.00  0.00     0.230 C 
BRANCH   3   4
ATOM      4  N   UNL     1     -28.316 -39.077  25.991  1.00  0.00    -0.350 N 
ATOM      5  H   UNL     1     -28.721 -38.150  25.727  1.00  0.00     0.345 HD
ATOM      6  H   UNL     1     -27.838 -39.482  25.153  1.00  0.00     0.345 HD
ATOM      7  H   UNL     1     -27.589 -38.943  26.729  1.00  0.00     0.345 HD
ENDBRANCH   3   4
BRANCH   3   8
ATOM      8  C   UNL     1     -28.757 -41.325  26.879  1.00  0.00     0.099 C 
ATOM      9  O   UNL     1     -27.633 -41.694  26.444  1.00  0.00    -0.544 OA
ATOM     10  O   UNL     1     -29.472 -42.170  27.719  1.00  0.00    -0.544 OA
ENDBRANCH   3   8
ENDBRANCH   1   3
BRANCH   1  11
ATOM     11  C   UNL     1     -30.265 -41.405  24.458  1.00  0.00     0.006 C 
ATOM     12  C   UNL     1     -31.465 -41.718  23.564  1.00  0.00     0.004 C 
ENDBRANCH   1  11
TORSDOF 4
ENDMDL
